data_PCOD9131250
_publ_section_title
;
Structure prediction by ZEFSAII (Michael W. Deem and Ramdas Pophale) SiO2 
 PCOD9131250
Probable space group: P C
;
_chemical_formula_sum "Si O2"
_cell_formula_units_Z 14
_cell_length_a 9.709625
_cell_length_b 13.598772
_cell_length_c 5.365862
_cell_angle_alpha 90.000000
_cell_angle_beta 111.230829
_cell_angle_gamma 90.000000
_cell_volume 660.416187
_symmetry_space_group_name_H-M "P C"
_symmetry_group_IT_number 7
_symmetry_cell_setting 'monoclinic'
loop_
_space_group_symop_operation_xyz
x,y,z
x,-y,1/2+z
loop_
_atom_site_type_symbol
_atom_site_label
_atom_site_fract_x
_atom_site_fract_y
_atom_site_fract_z
Si Si1 0.838920 0.564250 0.366500
Si Si2 0.397825 0.744029 0.585598
Si Si3 0.205354 0.445440 0.461430
Si Si4 0.432282 0.027483 0.007314
Si Si5 0.508357 0.644399 0.155779
Si Si6 0.085933 0.278517 0.104622
Si Si7 0.098667 0.948335 0.745317
O O1 0.859771 0.508311 0.644771
O O2 0.945338 0.659847 0.421861
O O3 0.670597 0.601463 0.248267
O O4 0.475622 0.694456 0.400551
O O5 0.398198 0.859421 0.532171
O O6 0.476267 0.715171 0.897543
O O7 0.226995 0.712753 0.512609
O O8 0.382176 0.438695 0.559456
O O9 0.142005 0.336304 0.387521
O O10 0.159283 0.496570 0.683436
O O11 0.513580 0.985755 0.300533
O O12 0.277530 0.966539 0.879706
O O13 0.065409 0.164299 0.156066
O O14 0.044942 0.016144 0.480724
#
# Coordination Sequence:
#
# PCOD9131250 Si02
#       7
#     2   2   2   2   2   2   2
#     4  12  27  48  67  93 136 183 222 267 331 399
#     4  11  22  38  67 101 124 166 224 272 320 388
#     4  11  22  37  58  91 123 155 206 272 317 368
#     4  10  18  33  58  95 131 162 203 266 322 388
#     4  11  24  41  66  89 131 173 214 262 335 400
#     4  11  24  40  68 101 128 170 225 276 324 382
#     4  10  21  35  60  94 131 169 204 265 327 399
#
# _framework density 21.198754999999998
#
# number of rings (size 3 to 8) (size 9 to 14) (size 15 to 20)
#    0.000    1.143    2.857    5.143    6.000    4.571 
#    0.000    0.000    0.000    5.143    0.000    0.000 
#    0.000    0.000    0.000    0.000    0.000    0.000 
#
# Total GULP energy -78249.745581 kJ/mol
# GULP energy per Si atom -5589.267542 kJ/mol
# Density = 2.115051 g / cm^3
# Si number density = 21.198755 Si / 1000 Ang^3
#
#
#
# Elastic Constant Matrix: (Units=GPa)
#
#
# Indices 1 2 3 4 5 6 
#
# 1 103.2775 46.5039 51.4073 0.0000 0.4400 0.0000
# 2 46.5039 124.1188 49.6218 0.0000 -11.9450 0.0000
# 3 51.4073 49.6218 129.2493 0.0000 -33.4308 0.0000
# 4 0.0000 0.0000 0.0000 32.2818 0.0000 -3.3394
# 5 0.4400 -11.9450 -33.4308 0.0000 38.2514 0.0000
# 6 0.0000 0.0000 0.0000 -3.3394 0.0000 16.2717
#
#
#
# Elastic Compliance Matrix: (Units=1/GPa)
#
#
# Indices 1 2 3 4 5 6 
#
# 1 0.014317 -0.003592 -0.006006 0.000000 -0.006535 0.000000
# 2 -0.003592 0.010421 -0.002222 0.000000 0.001354 0.000000
# 3 -0.006006 -0.002222 0.013977 0.000000 0.011591 0.000000
# 4 0.000000 0.000000 0.000000 0.031649 0.000000 0.006495
# 5 -0.006535 0.001354 0.011591 0.000000 0.036771 0.000000
# 6 0.000000 0.000000 0.000000 0.006495 0.000000 0.062789
#
#
# Mechanical properties :
#
#
# Convention : Reuss Voigt Hill
#
# Bulk Modulus (GPa) = 66.33415 72.41240 69.37327
# Shear Modulus (GPa) = 25.17748 31.30183 28.23965
#
# Velocity S-wave (km/s) = 3.45002 3.84681 3.65381
# Velocity P-wave (km/s) = 6.87238 7.34599 7.11313
#
# Compressibility (1/GPa) = 0.01507519
#
# Stress axis : x y z
#
# Youngs Moduli (GPa) = 69.84466 95.95675 71.54705
#
# Poissons Ratio (x) = 0.34470 0.42970
# Poissons Ratio (y) = 0.25090 0.15899
# Poissons Ratio (z) = 0.41948 0.21323
#
# Static dielectric constant tensor:
#      x y z
#    x 1.774880 0.000000 -0.023480 
#    y 0.000000 1.772240 0.000000 
#    z -0.023480 0.000000 1.833480 
# 
# From -- ./inp_files/1150.got.cif
#   From: 2010.05.17/outbox.cif.g08.bks.cpg/sg7_cif.got.tgz:1150.got - 2010.06.03 19:44:50.
