data_PCOD9131029
_publ_section_title
;
Structure prediction by ZEFSAII (Michael W. Deem and Ramdas Pophale) SiO2 
 PCOD9131029
Probable space group: P M
;
_chemical_formula_sum "Si O2"
_cell_formula_units_Z 14
_cell_length_a 7.394073
_cell_length_b 7.732460
_cell_length_c 10.508380
_cell_angle_alpha 90.000000
_cell_angle_beta 111.132662
_cell_angle_gamma 90.000000
_cell_volume 560.404466
_symmetry_space_group_name_H-M "P M"
_symmetry_group_IT_number 6
_symmetry_cell_setting 'monoclinic'
loop_
_space_group_symop_operation_xyz
x,y,z
x,-y,z
loop_
_atom_site_type_symbol
_atom_site_label
_atom_site_fract_x
_atom_site_fract_y
_atom_site_fract_z
Si Si1 0.243830 0.298930 0.901800
Si Si2 0.874662 0.290112 0.210197
Si Si3 0.637586 0.801571 0.493501
Si Si4 0.457636 0.749721 0.723061
Si Si5 0.453322 0.198535 0.203176
Si Si6 0.883446 0.696476 0.929277
Si Si7 0.057190 0.792845 0.514463
O O1 0.264155 0.500000 0.862927
O O2 0.369615 0.187091 0.836250
O O3 0.323780 0.290629 0.065454
O O4 0.024633 0.229019 0.857615
O O5 0.858618 0.500000 0.204502
O O6 0.670286 0.212649 0.202252
O O7 0.909715 0.226756 0.075776
O O8 0.026067 0.235536 0.356259
O O9 0.551571 0.808297 0.612261
O O10 0.484864 0.725294 0.352824
O O11 0.855438 0.729969 0.529233
O O12 0.660934 0.000000 0.456415
O O13 0.246815 0.695846 0.613121
O O14 0.661012 0.684012 0.833301
O O15 0.386231 0.000000 0.192657
O O16 0.955643 0.500000 0.956210
O O17 0.089069 0.000000 0.545130
#
# Coordination Sequence:
#
# PCOD9131029 Si02
#       7
#     2   2   2   2   2   2   2
#     4  11  24  43  67  97 136 176 225 282 333 399
#     4  10  20  41  69  97 134 178 225 273 331 398
#     4   9  21  41  62  92 135 176 217 271 331 401
#     4  12  22  40  67  95 133 179 220 275 333 397
#     4  10  21  41  68  99 135 175 222 276 336 398
#     4  10  23  42  64  96 135 175 223 278 331 396
#     4  10  23  42  65  98 138 175 224 281 335 399
#
# _framework density 24.981957999999999
#
# number of rings (size 3 to 8) (size 9 to 14) (size 15 to 20)
#    0.000    1.714    1.429    3.429    2.000    2.286 
#    0.000   10.714    0.000    0.000    0.000    0.000 
#    0.000    0.000    0.000    0.000    0.000    0.000 
#
# Total GULP energy -77935.639551 kJ/mol
# GULP energy per Si atom -5566.831396 kJ/mol
# Density = 2.492510 g / cm^3
# Si number density = 24.981958 Si / 1000 Ang^3
#
#
#
# Elastic Constant Matrix: (Units=GPa)
#
#
# Indices 1 2 3 4 5 6 
#
# 1 178.2563 22.5228 68.5527 0.0000 -0.4450 0.0000
# 2 22.5228 80.7748 28.7689 0.0000 -0.2749 0.0000
# 3 68.5527 28.7689 176.7353 0.0000 6.4407 0.0000
# 4 0.0000 0.0000 0.0000 55.2897 0.0000 -3.7216
# 5 -0.4450 -0.2749 6.4407 0.0000 58.8175 0.0000
# 6 0.0000 0.0000 0.0000 -3.7216 0.0000 -3.7483
#
#
#
# Elastic Compliance Matrix: (Units=1/GPa)
#
#
# Indices 1 2 3 4 5 6 
#
# 1 0.006674 -0.000991 -0.002439 0.000000 0.000313 0.000000
# 2 -0.000991 0.013294 -0.001789 0.000000 0.000251 0.000000
# 3 -0.002439 -0.001789 0.006924 0.000000 -0.000785 0.000000
# 4 0.000000 0.000000 0.000000 0.016954 0.000000 -0.016833
# 5 0.000313 0.000251 -0.000785 0.000000 0.017091 0.000000
# 6 0.000000 0.000000 0.000000 -0.016833 0.000000 -0.250074
#
#
# Mechanical properties :
#
#
# Convention : Reuss Voigt Hill
#
# Bulk Modulus (GPa) = 60.77258 75.05058 67.91158
# Shear Modulus (GPa) = -28.86587 43.13323 7.13368
#
# Velocity S-wave (km/s) = -3.40291 4.15972 1.69167
# Velocity P-wave (km/s) = 2.98993 7.29233 5.57305
#
# Compressibility (1/GPa) = 0.01645479
#
# Stress axis : x y z
#
# Youngs Moduli (GPa) = 149.83998 75.21954 144.42766
#
# Poissons Ratio (x) = 0.07456 0.35222
# Poissons Ratio (y) = 0.14853 0.25834
# Poissons Ratio (z) = 0.36541 0.13455
#
# Static dielectric constant tensor:
#      x y z
#    x 1.982280 0.000000 -0.010090 
#    y 0.000000 2.012700 0.000000 
#    z -0.010090 0.000000 1.988070 
# 
# From -- ./inp_files/2675.got.cif
#   From: 2010.05.17/outbox.cif.g08.bks.cpg/sg6_2_cif.got.tgz:2675.got - 2010.06.03 19:42:10.
