data_PCOD9131126
_publ_section_title
;
Structure prediction by ZEFSAII (Michael W. Deem and Ramdas Pophale) SiO2 
 PCOD9131126
Probable space group: P M
;
_chemical_formula_sum "Si O2"
_cell_formula_units_Z 14
_cell_length_a 8.854070
_cell_length_b 14.256210
_cell_length_c 9.878356
_cell_angle_alpha 90.000000
_cell_angle_beta 30.913865
_cell_angle_gamma 90.000000
_cell_volume 640.593602
_symmetry_space_group_name_H-M "P M"
_symmetry_group_IT_number 6
_symmetry_cell_setting 'monoclinic'
loop_
_space_group_symop_operation_xyz
x,y,z
x,-y,z
loop_
_atom_site_type_symbol
_atom_site_label
_atom_site_fract_x
_atom_site_fract_y
_atom_site_fract_z
Si Si1 0.415600 0.757659 0.353330
Si Si2 0.535727 0.392565 0.651622
Si Si3 0.989857 0.106939 0.194736
Si Si4 0.346858 0.884926 0.666829
Si Si5 0.442003 0.179878 0.040823
Si Si6 0.876542 0.389254 0.108181
Si Si7 0.943476 0.715624 0.532359
O O1 0.334326 0.826474 0.538362
O O2 0.487830 0.823819 0.166931
O O3 0.674602 0.684140 0.182341
O O4 0.133719 0.695787 0.520524
O O5 0.480054 0.500000 0.729277
O O6 0.746227 0.386584 0.360039
O O7 0.704144 0.349380 0.649001
O O8 0.215156 0.357305 0.853792
O O9 0.669093 0.143872 0.478920
O O10 0.241532 0.107988 0.114156
O O11 0.928640 0.000000 0.209852
O O12 0.113177 0.146017 0.959281
O O13 0.321963 0.000000 0.668549
O O14 0.202354 0.265731 0.224600
O O15 0.747085 0.195779 0.731228
O O16 0.859088 0.500000 0.076195
#
# Coordination Sequence:
#
# PCOD9131126 Si02
#       7
#     2   2   2   2   2   2   2
#     4  10  26  38  64  92 130 168 198 262 318 372
#     4  10  22  41  63  89 121 163 210 259 305 368
#     4  10  22  41  63  89 121 163 210 259 305 368
#     4  10  23  40  63  93 123 164 212 256 311 367
#     4  10  23  39  57  94 120 161 209 243 315 371
#     4  10  23  40  63  93 123 164 212 256 311 367
#     4  10  23  39  57  94 120 161 209 243 315 371
#
# _framework density 21.85473
#
# number of rings (size 3 to 8) (size 9 to 14) (size 15 to 20)
#    0.857    1.143    0.000    1.714   10.000    1.143 
#    0.000    1.429    0.000    0.000    0.000    0.000 
#    0.000    0.000    0.000    0.000    0.000    0.000 
#
# Total GULP energy -77938.871650 kJ/mol
# GULP energy per Si atom -5567.062261 kJ/mol
# Density = 2.180499 g / cm^3
# Si number density = 21.854730 Si / 1000 Ang^3
#
#
#
# Elastic Constant Matrix: (Units=GPa)
#
#
# Indices 1 2 3 4 5 6 
#
# 1 92.3913 10.8751 12.7771 0.0000 -0.3705 0.0000
# 2 10.8751 38.6507 -8.4928 0.0000 11.2964 0.0000
# 3 12.7771 -8.4928 70.3592 0.0000 -4.9233 0.0000
# 4 0.0000 0.0000 0.0000 14.0684 0.0000 -2.6190
# 5 -0.3705 11.2964 -4.9233 0.0000 37.1283 0.0000
# 6 0.0000 0.0000 0.0000 -2.6190 0.0000 4.3561
#
#
#
# Elastic Compliance Matrix: (Units=1/GPa)
#
#
# Indices 1 2 3 4 5 6 
#
# 1 0.011668 -0.004147 -0.002547 0.000000 0.001040 0.000000
# 2 -0.004147 0.030449 0.003813 0.000000 -0.008800 0.000000
# 3 -0.002547 0.003813 0.015193 0.000000 0.000829 0.000000
# 4 0.000000 0.000000 0.000000 0.080040 0.000000 0.048121
# 5 0.001040 -0.008800 0.000829 0.000000 0.029731 0.000000
# 6 0.000000 0.000000 0.000000 0.048121 0.000000 0.258494
#
#
# Mechanical properties :
#
#
# Convention : Reuss Voigt Hill
#
# Bulk Modulus (GPa) = 19.39881 25.74665 22.57273
# Shear Modulus (GPa) = 11.14777 23.52668 17.33723
#
# Velocity S-wave (km/s) = 2.26096 3.28457 2.81960
# Velocity P-wave (km/s) = 3.96376 5.11771 4.57724
#
# Compressibility (1/GPa) = 0.05154955
#
# Stress axis : x y z
#
# Youngs Moduli (GPa) = 85.70468 32.84156 65.81764
#
# Poissons Ratio (x) = 0.13618 0.16761
# Poissons Ratio (y) = 0.35539 -0.25094
# Poissons Ratio (z) = 0.21826 -0.12521
#
# Static dielectric constant tensor:
#      x y z
#    x 1.838500 0.000000 -0.022970 
#    y 0.000000 1.861860 0.000000 
#    z -0.022970 0.000000 1.826050 
# 
# From -- ./inp_files/3227.got.cif
#   From: 2010.05.17/outbox.cif.g08.bks.cpg/sg6_2_cif.got.tgz:3227.got - 2010.06.03 19:42:10.
