data_PCOD9131396
_publ_section_title
;
Structure prediction by ZEFSAII (Michael W. Deem and Ramdas Pophale) SiO2 
 PCOD9131396
Probable space group: P C
;
_chemical_formula_sum "Si O2"
_cell_formula_units_Z 16
_cell_length_a 11.306691
_cell_length_b 9.261273
_cell_length_c 5.551377
_cell_angle_alpha 90.000000
_cell_angle_beta 98.884320
_cell_angle_gamma 90.000000
_cell_volume 574.334400
_symmetry_space_group_name_H-M "P C"
_symmetry_group_IT_number 7
_symmetry_cell_setting 'monoclinic'
loop_
_space_group_symop_operation_xyz
x,y,z
x,-y,1/2+z
loop_
_atom_site_type_symbol
_atom_site_label
_atom_site_fract_x
_atom_site_fract_y
_atom_site_fract_z
Si Si1 0.463530 0.549335 0.542380
Si Si2 0.261779 0.070984 0.170233
Si Si3 0.527942 0.856772 0.633791
Si Si4 0.949058 0.823927 0.905594
Si Si5 0.072290 0.515460 0.912497
Si Si6 0.038743 0.207441 0.938752
Si Si7 0.696028 0.862855 0.066567
Si Si8 0.729197 0.565965 0.253390
O O1 0.406303 0.466504 0.294712
O O2 0.482012 0.718693 0.468562
O O3 0.592497 0.484614 0.662028
O O4 0.404812 0.079700 0.197016
O O5 0.232259 0.037112 0.438225
O O6 0.177234 0.203110 0.064864
O O7 0.601366 0.781832 0.868879
O O8 0.620854 0.987316 0.589272
O O9 0.817172 0.870306 0.948928
O O10 0.993558 0.658322 0.883964
O O11 0.968504 0.868762 0.633374
O O12 0.026320 0.857981 0.170314
O O13 0.140441 0.489946 0.685491
O O14 0.993293 0.370021 0.894950
O O15 0.728431 0.742100 0.277871
O O16 0.778945 0.488603 0.509491
#
# Coordination Sequence:
#
# PCOD9131396 Si02
#       8
#     2   2   2   2   2   2   2   2
#     4  10  22  45  69  99 148 197 257 318 375 458
#     4  12  27  50  79 103 148 210 254 338 377 452
#     4  12  27  48  76 115 163 207 274 316 397 476
#     4  10  23  45  73 110 147 196 238 323 382 453
#     4   8  16  35  68 102 141 179 243 307 375 448
#     4  10  22  48  73 105 141 192 265 309 384 447
#     4  12  27  45  76 115 164 208 255 321 397 489
#     4  10  22  40  68  99 146 201 252 306 375 459
#
# _framework density 27.858335
#
# number of rings (size 3 to 8) (size 9 to 14) (size 15 to 20)
#    0.000    1.500    3.750    0.750    3.500    6.000 
#    6.750    3.750    0.000    0.000    0.000    0.000 
#    0.000    0.000    0.000    0.000    0.000    0.000 
#
# Total GULP energy -89112.935679 kJ/mol
# GULP energy per Si atom -5569.558480 kJ/mol
# Density = 2.779493 g / cm^3
# Si number density = 27.858335 Si / 1000 Ang^3
#
#
#
# Elastic Constant Matrix: (Units=GPa)
#
#
# Indices 1 2 3 4 5 6 
#
# 1 115.0424 32.3342 56.5626 0.0000 19.8203 0.0000
# 2 32.3342 205.5032 23.9264 0.0000 -14.9497 0.0000
# 3 56.5626 23.9264 230.0394 0.0000 -30.3786 0.0000
# 4 0.0000 0.0000 0.0000 9.7754 0.0000 4.5727
# 5 19.8203 -14.9497 -30.3786 0.0000 31.4558 0.0000
# 6 0.0000 0.0000 0.0000 4.5727 0.0000 14.0175
#
#
#
# Elastic Compliance Matrix: (Units=1/GPa)
#
#
# Indices 1 2 3 4 5 6 
#
# 1 0.015007 -0.002894 -0.005524 0.000000 -0.016166 0.000000
# 2 -0.002894 0.005610 0.000826 0.000000 0.005288 0.000000
# 3 -0.005524 0.000826 0.007027 0.000000 0.010660 0.000000
# 4 0.000000 0.000000 0.000000 0.120719 0.000000 -0.039381
# 5 -0.016166 0.005288 0.010660 0.000000 0.054785 0.000000
# 6 0.000000 0.000000 0.000000 -0.039381 0.000000 0.084186
#
#
# Mechanical properties :
#
#
# Convention : Reuss Voigt Hill
#
# Bulk Modulus (GPa) = 80.25053 86.24792 83.24922
# Shear Modulus (GPa) = 16.30416 40.23385 28.26900
#
# Velocity S-wave (km/s) = 2.42182 3.80443 3.18896
# Velocity P-wave (km/s) = 6.05719 7.09400 6.59600
#
# Compressibility (1/GPa) = 0.01246098
#
# Stress axis : x y z
#
# Youngs Moduli (GPa) = 66.63606 178.25551 142.30803
#
# Poissons Ratio (x) = 0.51589 0.78607
# Poissons Ratio (y) = 0.19285 -0.11761
# Poissons Ratio (z) = 0.36808 -0.14732
#
# Static dielectric constant tensor:
#      x y z
#    x 2.202240 0.000000 -0.135010 
#    y 0.000000 2.229710 0.000000 
#    z -0.135010 0.000000 2.410820 
# 
# From -- ./inp_files/1066.got.cif
#   From: 2010.05.17/outbox.cif.g08.bks.cpg/sg7_cif.got.tgz:1066.got - 2010.06.03 19:44:50.
