data_PCOD9131950
_publ_section_title
;
Structure prediction by ZEFSAII (Michael W. Deem and Ramdas Pophale) SiO2 
 PCOD9131950
Probable space group: C M
;
_chemical_formula_sum "Si O2"
_cell_formula_units_Z 32
_cell_length_a 28.105119
_cell_length_b 8.897525
_cell_length_c 21.219686
_cell_angle_alpha 90.000000
_cell_angle_beta 160.645181
_cell_angle_gamma 90.000000
_cell_volume 1758.606603
_symmetry_space_group_name_H-M "C M"
_symmetry_group_IT_number 8
_symmetry_cell_setting 'monoclinic'
loop_
_space_group_symop_operation_xyz
x,y,z
x,-y,z
1/2+x,1/2+y,z
1/2+x,1/2-y,z
loop_
_atom_site_type_symbol
_atom_site_label
_atom_site_fract_x
_atom_site_fract_y
_atom_site_fract_z
Si Si1 0.265220 0.321761 0.588530
Si Si2 0.836158 0.325464 0.233718
Si Si3 0.579307 0.179987 0.981942
Si Si4 0.764397 0.320465 0.834733
Si Si5 0.100503 0.819348 0.500746
Si Si6 0.513144 0.172659 0.587116
Si Si7 0.730008 0.319090 0.292848
Si Si8 0.592728 0.178978 0.243725
O O1 0.285720 0.500000 0.625009
O O2 0.419057 0.242266 0.774792
O O3 0.175061 0.251408 0.533169
O O4 0.176917 0.301535 0.413885
O O5 0.813048 0.500000 0.188606
O O6 0.923770 0.321651 0.409609
O O7 0.941705 0.245079 0.316262
O O8 0.687154 0.243055 0.063124
O O9 0.581434 0.000000 0.984703
O O10 0.640308 0.242245 0.124625
O O11 0.763295 0.500000 0.836326
O O12 0.697424 0.278181 0.683111
O O13 0.658269 0.260925 0.755837
O O14 0.927930 0.269447 0.044478
O O15 0.095819 0.000000 0.490424
O O16 0.396927 0.227287 0.492571
O O17 0.548560 0.000000 0.644602
O O18 0.723399 0.500000 0.276795
O O19 0.667743 0.267342 0.281126
O O20 0.591722 0.000000 0.227202
#
# Coordination Sequence:
#
# PCOD9131950 Si02
#       8
#     4   4   4   4   4   4   4   4
#     4  11  23  38  54  75 108 149 189 228 273 323
#     4   9  17  32  54  81 111 139 173 220 273 326
#     4  11  21  35  57  83 110 140 180 229 277 325
#     4   9  18  33  54  79 104 133 172 216 262 314
#     4  10  19  33  56  84 110 139 178 224 274 325
#     4   8  16  30  50  79 108 132 164 210 261 314
#     4  10  20  35  57  83 109 139 178 221 269 327
#     4  10  22  38  54  76 108 145 184 224 267 318
#
# _framework density 18.196224000000001
#
# number of rings (size 3 to 8) (size 9 to 14) (size 15 to 20)
#    0.000    2.250    0.000    4.125    0.000    6.500 
#    0.000    1.250    0.000    4.500    0.000    0.000 
#    0.000    0.000    0.000    0.000    0.000    0.000 
#
# Total GULP energy -89286.713737 kJ/mol
# GULP energy per Si atom -5580.419609 kJ/mol
# Density = 1.815481 g / cm^3
# Si number density = 18.196224 Si / 1000 Ang^3
#
#
#
# Elastic Constant Matrix: (Units=GPa)
#
#
# Indices 1 2 3 4 5 6 
#
# 1 84.0506 65.3065 105.8704 0.0000 44.6996 0.0000
# 2 65.3065 100.7924 68.6384 0.0000 19.1427 0.0000
# 3 105.8704 68.6384 89.0760 0.0000 41.3013 0.0000
# 4 0.0000 0.0000 0.0000 23.5693 0.0000 12.2894
# 5 44.6996 19.1427 41.3013 0.0000 31.9441 0.0000
# 6 0.0000 0.0000 0.0000 12.2894 0.0000 30.6770
#
#
#
# Elastic Compliance Matrix: (Units=1/GPa)
#
#
# Indices 1 2 3 4 5 6 
#
# 1 -0.018075 -0.010551 0.037337 0.000000 -0.016659 0.000000
# 2 -0.010551 0.022145 -0.013024 0.000000 0.018333 0.000000
# 3 0.037337 -0.013024 -0.006264 0.000000 -0.036343 0.000000
# 4 0.000000 0.000000 0.000000 0.053631 0.000000 -0.021485
# 5 -0.016659 0.018333 -0.036343 0.000000 0.090619 0.000000
# 6 0.000000 0.000000 0.000000 -0.021485 0.000000 0.041205
#
#
# Mechanical properties :
#
#
# Convention : Reuss Voigt Hill
#
# Bulk Modulus (GPa) = 39.47753 83.72774 61.60264
# Shear Modulus (GPa) = 30.45456 19.51166 24.98311
#
# Velocity S-wave (km/s) = 4.09550 3.27814 3.70940
# Velocity P-wave (km/s) = 6.64128 7.77444 7.23010
#
# Compressibility (1/GPa) = 0.02533086
#
# Stress axis : x y z
#
# Youngs Moduli (GPa) = -55.32453 45.15661 -159.64736
#
# Poissons Ratio (x) = 0.47644 5.96081
# Poissons Ratio (y) = -0.58373 -2.07926
# Poissons Ratio (z) = 2.06567 0.58812
#
# Static dielectric constant tensor:
#      x y z
#    x 1.606820 0.000000 0.013010 
#    y 0.000000 1.619160 0.000000 
#    z 0.013010 0.000000 1.616300 
# 
# From -- ./inp_files/31634.got.cif
#   From: 2010.05.17/outbox.cif.g08.bks.cpg/sg8_16_cif.got.tgz:31634.got - 2010.06.03 19:46:02.
