data_PCOD9131576
_publ_section_title
;
Structure prediction by ZEFSAII (Michael W. Deem and Ramdas Pophale) SiO2 
 PCOD9131576
Probable space group: C M
;
_chemical_formula_sum "Si O2"
_cell_formula_units_Z 32
_cell_length_a 23.820421
_cell_length_b 7.298849
_cell_length_c 15.600226
_cell_angle_alpha 90.000000
_cell_angle_beta 26.627494
_cell_angle_gamma 90.000000
_cell_volume 1215.612141
_symmetry_space_group_name_H-M "C M"
_symmetry_group_IT_number 8
_symmetry_cell_setting 'monoclinic'
loop_
_space_group_symop_operation_xyz
x,y,z
x,-y,z
1/2+x,1/2+y,z
1/2+x,1/2-y,z
loop_
_atom_site_type_symbol
_atom_site_label
_atom_site_fract_x
_atom_site_fract_y
_atom_site_fract_z
Si Si1 0.529450 0.204233 0.625000
Si Si2 0.421614 0.721791 0.348128
Si Si3 0.115790 0.218762 0.208906
Si Si4 0.137348 0.222079 0.912541
Si Si5 0.735903 0.209894 0.469145
Si Si6 0.825661 0.216043 0.036480
Si Si7 0.828555 0.276140 0.780362
Si Si8 0.454864 0.709591 0.030464
O O1 0.629742 0.293659 0.552520
O O2 0.409105 0.188907 0.850845
O O3 0.463215 0.287539 0.631340
O O4 0.579847 0.000000 0.534153
O O5 0.408386 0.500000 0.368906
O O6 0.482493 0.787037 0.354564
O O7 0.293408 0.789815 0.478575
O O8 0.532881 0.761572 0.127950
O O9 0.109330 0.000000 0.212687
O O10 0.179840 0.262566 0.212035
O O11 0.222037 0.278808 0.995016
O O12 0.269486 0.284592 0.770692
O O13 0.142494 0.000000 0.899543
O O14 0.079334 0.292651 0.902897
O O15 0.854909 0.202464 0.243622
O O16 0.693457 0.000000 0.544995
O O17 0.849205 0.000000 0.998704
O O18 0.879539 0.286131 0.052820
O O19 0.834545 0.500000 0.771717
O O20 0.486808 0.500000 0.963434
#
# Coordination Sequence:
#
# PCOD9131576 Si02
#       8
#     4   4   4   4   4   4   4   4
#     4   9  16  26  42  63  83 103 131 166 199 232
#     4   7  10  18  36  60  78  93 123 169 207 227
#     4   8  13  23  39  58  78  99 130 169 200 228
#     4   7   9  16  31  51  74  95 120 159 197 222
#     4   8  13  23  41  63  82 100 129 170 205 229
#     4  10  18  26  38  58  85 112 133 156 194 243
#     4   7  10  17  32  55  76  92 118 160 199 221
#     4   8  14  23  36  56  80 104 130 163 201 236
#
# _framework density 26.324186999999998
#
# number of rings (size 3 to 8) (size 9 to 14) (size 15 to 20)
#    0.000    4.000    0.000    4.125    0.000    0.000 
#    0.000    0.000    0.000    3.750    0.000   29.750 
#    0.000    0.000    0.000    0.000    0.000    0.000 
#
# Total GULP energy -89115.278263 kJ/mol
# GULP energy per Si atom -5569.704891 kJ/mol
# Density = 2.626427 g / cm^3
# Si number density = 26.324187 Si / 1000 Ang^3
#
#
#
# Elastic Constant Matrix: (Units=GPa)
#
#
# Indices 1 2 3 4 5 6 
#
# 1 273.2812 13.3573 64.1784 -0.0005 -112.2399 0.0001
# 2 13.3573 117.8099 -0.8640 -0.0024 -10.4557 0.0005
# 3 64.1784 -0.8640 83.3283 -0.0018 -18.4979 0.0000
# 4 -0.0005 -0.0024 -0.0018 -8.4599 0.0000 2.6538
# 5 -112.2399 -10.4557 -18.4979 0.0000 70.6025 0.0001
# 6 0.0001 0.0005 0.0000 2.6538 0.0001 -7.7122
#
#
#
# Elastic Compliance Matrix: (Units=1/GPa)
#
#
# Indices 1 2 3 4 5 6 
#
# 1 0.012591 0.000181 -0.005570 0.000001 0.018585 0.000001
# 2 0.000181 0.008616 0.000315 -0.000003 0.001646 0.000000
# 3 -0.005570 0.000315 0.015224 -0.000003 -0.004820 -0.000001
# 4 0.000001 -0.000003 -0.000003 -0.132509 0.000000 -0.045597
# 5 0.018585 0.001646 -0.004820 0.000000 0.042689 0.000001
# 6 0.000001 0.000000 -0.000001 -0.045597 0.000001 -0.145355
#
#
# Mechanical properties :
#
#
# Convention : Reuss Voigt Hill
#
# Bulk Modulus (GPa) = 38.04613 69.75141 53.89877
# Shear Modulus (GPa) = -27.80355 37.40260 4.79953
#
# Velocity S-wave (km/s) = -3.25345 3.77350 1.35174
# Velocity P-wave (km/s) = 0.60917 6.74836 4.79121
#
# Compressibility (1/GPa) = 0.02628388
#
# Stress axis : x y z
#
# Youngs Moduli (GPa) = 79.41904 116.06102 65.68474
#
# Poissons Ratio (x) = -0.02100 0.36589
# Poissons Ratio (y) = -0.01437 -0.02072
# Poissons Ratio (z) = 0.44239 -0.03661
#
# Static dielectric constant tensor:
#      x y z
#    x 2.225550 0.000000 -0.038740 
#    y 0.000000 2.089540 0.000000 
#    z -0.038740 0.000000 2.075610 
# 
# From -- ./inp_files/23947.got.cif
#   From: 2010.05.17/outbox.cif.g08.bks.cpg/sg8_12_cif.got.tgz:23947.got - 2010.06.03 19:46:02.
