data_PCOD9131990
_publ_section_title
;
Structure prediction by ZEFSAII (Michael W. Deem and Ramdas Pophale) SiO2 
 PCOD9131990
Probable space group: C M
;
_chemical_formula_sum "Si O2"
_cell_formula_units_Z 32
_cell_length_a 21.111740
_cell_length_b 8.705441
_cell_length_c 25.992148
_cell_angle_alpha 90.000000
_cell_angle_beta 22.420757
_cell_angle_gamma 90.000000
_cell_volume 1821.980369
_symmetry_space_group_name_H-M "C M"
_symmetry_group_IT_number 8
_symmetry_cell_setting 'monoclinic'
loop_
_space_group_symop_operation_xyz
x,y,z
x,-y,z
1/2+x,1/2+y,z
1/2+x,1/2-y,z
loop_
_atom_site_type_symbol
_atom_site_label
_atom_site_fract_x
_atom_site_fract_y
_atom_site_fract_z
Si Si1 0.948120 0.314520 0.714850
Si Si2 0.734276 0.184542 0.579544
Si Si3 0.919672 0.684240 0.007308
Si Si4 0.499098 0.813013 0.559682
Si Si5 0.266958 0.315638 0.277849
Si Si6 0.587437 0.183178 0.989987
Si Si7 0.174859 0.815344 0.737546
Si Si8 0.594848 0.816464 0.297720
O O1 0.942027 0.500000 0.718793
O O2 0.989072 0.261361 0.626022
O O3 0.766853 0.253511 0.865434
O O4 0.090465 0.267856 0.647796
O O5 0.695105 0.250047 0.665347
O O6 0.913405 0.246137 0.427516
O O7 0.739094 0.000000 0.578120
O O8 0.917189 0.500000 0.006335
O O9 0.734735 0.747070 0.155412
O O10 0.024055 0.730105 0.980294
O O11 0.012971 0.753752 0.888380
O O12 0.661663 0.763386 0.406132
O O13 0.334928 0.766973 0.651380
O O14 0.500916 0.000000 0.558339
O O15 0.287192 0.500000 0.264820
O O16 0.158061 0.281736 0.308476
O O17 0.445248 0.240217 0.135480
O O18 0.596625 0.000000 0.984154
O O19 0.172421 0.000000 0.737465
O O20 0.589095 0.000000 0.296696
#
# Coordination Sequence:
#
# PCOD9131990 Si02
#       8
#     4   4   4   4   4   4   4   4
#     4  10  21  38  58  79 110 152 188 221 272 338
#     4  11  23  37  55  82 116 151 186 232 284 332
#     4  10  20  34  54  85 117 144 181 234 286 327
#     4   9  17  33  57  83 105 136 187 231 266 321
#     4   9  17  32  55  81 106 138 182 230 274 326
#     4  10  20  33  52  82 114 144 179 228 280 323
#     4  11  20  35  59  84 110 145 190 236 275 330
#     4  10  19  34  56  82 110 148 191 228 275 333
#
# _framework density 17.563306000000001
#
# number of rings (size 3 to 8) (size 9 to 14) (size 15 to 20)
#    0.000    2.000    2.500    1.875    0.000    2.500 
#    0.000    1.875    0.000    6.000    0.000    0.000 
#    0.000    0.000    0.000    0.000    0.000    0.000 
#
# Total GULP energy -89320.626472 kJ/mol
# GULP energy per Si atom -5582.539155 kJ/mol
# Density = 1.752333 g / cm^3
# Si number density = 17.563306 Si / 1000 Ang^3
#
#
#
# Elastic Constant Matrix: (Units=GPa)
#
#
# Indices 1 2 3 4 5 6 
#
# 1 112.3110 34.5274 88.7079 0.0000 -4.4266 0.0001
# 2 34.5274 35.3303 45.7685 -0.0010 -5.0754 -0.0002
# 3 88.7079 45.7685 193.7191 -0.0006 -1.5468 0.0000
# 4 0.0000 -0.0010 -0.0006 30.4654 -0.0003 -0.1393
# 5 -4.4266 -5.0754 -1.5468 -0.0003 26.2714 0.0000
# 6 0.0001 -0.0002 0.0000 -0.1393 0.0000 20.6649
#
#
#
# Elastic Compliance Matrix: (Units=1/GPa)
#
#
# Indices 1 2 3 4 5 6 
#
# 1 0.015593 -0.008499 -0.005127 0.000000 0.000684 0.000000
# 2 -0.008499 0.046876 -0.007126 0.000002 0.007204 0.000000
# 3 -0.005127 -0.007126 0.009180 0.000000 -0.001700 0.000000
# 4 0.000000 0.000002 0.000000 0.032825 0.000001 0.000221
# 5 0.000684 0.007204 -0.001700 0.000001 0.039471 0.000000
# 6 0.000000 0.000000 0.000000 0.000221 0.000000 0.048393
#
#
# Mechanical properties :
#
#
# Convention : Reuss Voigt Hill
#
# Bulk Modulus (GPa) = 33.17213 75.48535 54.32874
# Shear Modulus (GPa) = 20.50112 26.97079 23.73595
#
# Velocity S-wave (km/s) = 3.42024 3.92297 3.68020
# Velocity P-wave (km/s) = 5.87585 7.97445 7.00419
#
# Compressibility (1/GPa) = 0.03014579
#
# Stress axis : x y z
#
# Youngs Moduli (GPa) = 64.13122 21.33298 108.93470
#
# Poissons Ratio (x) = 0.18130 0.55851
# Poissons Ratio (y) = 0.54504 0.77623
# Poissons Ratio (z) = 0.32880 0.15201
#
# Static dielectric constant tensor:
#      x y z
#    x 1.585260 0.000000 0.005680 
#    y 0.000000 1.586330 0.000000 
#    z 0.005680 0.000000 1.583010 
# 
# From -- ./inp_files/29779.got.cif
#   From: 2010.05.17/outbox.cif.g08.bks.cpg/sg8_15_cif.got.tgz:29779.got - 2010.06.03 19:46:02.
