data_PCOD9131220
_publ_section_title
;
Structure prediction by ZEFSAII (Michael W. Deem and Ramdas Pophale) SiO2 
 PCOD9131220
Probable space group: P C
;
_chemical_formula_sum "Si O2"
_cell_formula_units_Z 14
_cell_length_a 9.935680
_cell_length_b 13.982112
_cell_length_c 5.505631
_cell_angle_alpha 90.000000
_cell_angle_beta 123.277099
_cell_angle_gamma 90.000000
_cell_volume 639.436820
_symmetry_space_group_name_H-M "P C"
_symmetry_group_IT_number 7
_symmetry_cell_setting 'monoclinic'
loop_
_space_group_symop_operation_xyz
x,y,z
x,-y,1/2+z
loop_
_atom_site_type_symbol
_atom_site_label
_atom_site_fract_x
_atom_site_fract_y
_atom_site_fract_z
Si Si1 0.548960 0.197861 0.866040
Si Si2 0.285609 0.525385 0.034583
Si Si3 0.659623 0.808639 0.977163
Si Si4 0.436680 0.005652 0.275549
Si Si5 0.926446 0.550070 0.183648
Si Si6 0.184508 0.746825 0.936000
Si Si7 0.993693 0.767723 0.248327
O O1 0.640641 0.238579 0.723349
O O2 0.359749 0.208563 0.638804
O O3 0.564801 0.082141 0.901614
O O4 0.602371 0.242643 0.173655
O O5 0.373787 0.500107 0.371994
O O6 0.221137 0.633304 0.970192
O O7 0.122249 0.462036 0.874228
O O8 0.534601 0.896307 0.874380
O O9 0.843399 0.839034 0.119848
O O10 0.340895 0.997650 0.430267
O O11 0.870195 0.498142 0.375555
O O12 0.906044 0.663518 0.171557
O O13 0.104501 0.773552 0.598334
O O14 0.082726 0.771764 0.077039
#
# Coordination Sequence:
#
# PCOD9131220 Si02
#       7
#     2   2   2   2   2   2   2
#     4  10  21  38  59  82 113 153 189 220 288 354
#     4  10  16  30  49  77 105 151 181 219 273 346
#     4  10  21  38  59  82 113 153 189 220 288 354
#     4   8  16  34  60  74  96 148 192 208 260 358
#     4  10  16  30  49  77 105 151 181 219 273 346
#     4  12  21  33  58  90 113 140 196 246 273 317
#     4  12  21  33  58  90 113 140 196 246 273 317
#
# _framework density 21.894266999999999
#
# number of rings (size 3 to 8) (size 9 to 14) (size 15 to 20)
#    0.000    1.714    5.714    1.714    0.000    0.000 
#    0.000    0.000    0.000   51.429    0.000    0.000 
#    0.000    0.000    0.000    0.000    0.000    0.000 
#
# Total GULP energy -78008.103236 kJ/mol
# GULP energy per Si atom -5572.007374 kJ/mol
# Density = 2.184443 g / cm^3
# Si number density = 21.894267 Si / 1000 Ang^3
#
#
#
# Elastic Constant Matrix: (Units=GPa)
#
#
# Indices 1 2 3 4 5 6 
#
# 1 43.6598 1.0009 26.3280 0.0000 -21.5009 0.0000
# 2 1.0009 16.6076 2.2608 0.0000 2.7771 0.0000
# 3 26.3280 2.2608 120.5693 0.0000 -45.1843 0.0000
# 4 0.0000 0.0000 0.0000 11.1637 0.0000 -0.4396
# 5 -21.5009 2.7771 -45.1843 0.0000 54.0863 0.0000
# 6 0.0000 0.0000 0.0000 -0.4396 0.0000 7.4583
#
#
#
# Elastic Compliance Matrix: (Units=1/GPa)
#
#
# Indices 1 2 3 4 5 6 
#
# 1 0.029324 -0.002970 -0.002798 0.000000 0.009473 0.000000
# 2 -0.002970 0.061985 -0.003128 0.000000 -0.006977 0.000000
# 3 -0.002798 -0.003128 0.012530 0.000000 0.009516 0.000000
# 4 0.000000 0.000000 0.000000 0.089785 0.000000 0.005292
# 5 0.009473 -0.006977 0.009516 0.000000 0.030562 0.000000
# 6 0.000000 0.000000 0.000000 0.005292 0.000000 0.134391
#
#
# Mechanical properties :
#
#
# Convention : Reuss Voigt Hill
#
# Bulk Modulus (GPa) = 11.62169 26.66847 19.14508
# Shear Modulus (GPa) = 12.34406 24.62478 18.48442
#
# Velocity S-wave (km/s) = 2.37703 3.35731 2.90876
# Velocity P-wave (km/s) = 3.58515 5.21879 4.47711
#
# Compressibility (1/GPa) = 0.08604604
#
# Stress axis : x y z
#
# Youngs Moduli (GPa) = 34.10123 16.13292 79.81008
#
# Poissons Ratio (x) = 0.04792 0.22329
# Poissons Ratio (y) = 0.10130 0.24967
# Poissons Ratio (z) = 0.09541 0.05047
#
# Static dielectric constant tensor:
#      x y z
#    x 1.832720 0.000000 -0.109350 
#    y 0.000000 1.848080 0.000000 
#    z -0.109350 0.000000 1.910870 
# 
# From -- ./inp_files/607.got.cif
#   From: 2010.05.17/outbox.cif.g08.bks.cpg/sg7_cif.got.tgz:607.got - 2010.06.03 19:44:50.
