data_PCOD9131551
_publ_section_title
;
Structure prediction by ZEFSAII (Michael W. Deem and Ramdas Pophale) SiO2 
 PCOD9131551
Probable space group: C M
;
_chemical_formula_sum "Si O2"
_cell_formula_units_Z 20
_cell_length_a 5.224584
_cell_length_b 14.090228
_cell_length_c 12.931262
_cell_angle_alpha 90.000000
_cell_angle_beta 89.560876
_cell_angle_gamma 90.000000
_cell_volume 951.914391
_symmetry_space_group_name_H-M "C M"
_symmetry_group_IT_number 8
_symmetry_cell_setting 'monoclinic'
loop_
_space_group_symop_operation_xyz
x,y,z
x,-y,z
1/2+x,1/2+y,z
1/2+x,1/2-y,z
loop_
_atom_site_type_symbol
_atom_site_label
_atom_site_fract_x
_atom_site_fract_y
_atom_site_fract_z
Si Si1 0.638891 0.500000 0.486960
Si Si2 0.806562 0.388918 0.074914
Si Si3 0.639748 0.000000 0.354325
Si Si4 0.206069 0.815551 0.628031
Si Si5 0.305274 0.608863 0.164783
Si Si6 0.140298 0.810389 0.862332
O O1 0.351808 0.500000 0.442876
O O2 0.683677 0.405342 0.553635
O O3 0.851834 0.500000 0.395575
O O4 0.846110 0.500000 0.097705
O O5 0.708267 0.374957 0.959452
O O6 0.588360 0.350997 0.152982
O O7 0.086125 0.346160 0.094911
O O8 0.699067 0.909527 0.279910
O O9 0.470256 0.757701 0.613445
O O10 0.187242 0.850406 0.747479
O O11 0.345960 0.500000 0.125129
O O12 0.348227 0.724966 0.869105
#
# Coordination Sequence:
#
# PCOD9131551 Si02
#       6
#     2   4   2   4   4   4
#     4  12  22  38  70  88 110 168 210 242 310 372
#     4  10  17  31  56  81 104 146 186 217 272 348
#     4  10  20  36  58  92 110 150 210 244 298 358
#     4  10  23  42  60  90 128 154 198 260 301 351
#     4   8  17  31  51  82 109 138 181 239 279 322
#     4  10  21  36  54  80 120 155 179 232 294 348
#
# _framework density 21.010292
#
# number of rings (size 3 to 8) (size 9 to 14) (size 15 to 20)
#    0.600    1.600    0.000    3.600    1.400    0.000 
#    0.000    0.000    0.000   24.000    0.000    0.000 
#    0.000    0.000    0.000    0.000    0.000    0.000 
#
# Total GULP energy -55749.542044 kJ/mol
# GULP energy per Si atom -5574.954204 kJ/mol
# Density = 2.096247 g / cm^3
# Si number density = 21.010292 Si / 1000 Ang^3
#
#
#
# Elastic Constant Matrix: (Units=GPa)
#
#
# Indices 1 2 3 4 5 6 
#
# 1 71.7485 -13.2983 -5.0315 0.0000 -0.8301 0.0000
# 2 -13.2983 49.4538 8.6650 0.0000 -3.2860 0.0000
# 3 -5.0315 8.6650 62.9343 0.0000 1.5192 0.0000
# 4 0.0000 0.0000 0.0000 16.7885 0.0000 2.0097
# 5 -0.8301 -3.2860 1.5192 0.0000 37.2423 0.0000
# 6 0.0000 0.0000 0.0000 2.0097 0.0000 6.0913
#
#
#
# Elastic Compliance Matrix: (Units=1/GPa)
#
#
# Indices 1 2 3 4 5 6 
#
# 1 0.014710 0.003889 0.000625 0.000000 0.000645 0.000000
# 2 0.003889 0.021891 -0.002755 0.000000 0.002131 0.000000
# 3 0.000625 -0.002755 0.016340 0.000000 -0.000896 0.000000
# 4 0.000000 0.000000 0.000000 0.062014 0.000000 -0.020461
# 5 0.000645 0.002131 -0.000896 0.000000 0.027090 0.000000
# 6 0.000000 0.000000 0.000000 -0.020461 0.000000 0.170918
#
#
# Mechanical properties :
#
#
# Convention : Reuss Voigt Hill
#
# Bulk Modulus (GPa) = 17.71179 18.31189 18.01184
# Shear Modulus (GPa) = 15.23163 24.94453 20.08808
#
# Velocity S-wave (km/s) = 2.69543 3.44939 3.09545
# Velocity P-wave (km/s) = 4.25858 4.95974 4.62247
#
# Compressibility (1/GPa) = 0.05645956
#
# Stress axis : x y z
#
# Youngs Moduli (GPa) = 67.98261 45.68130 61.19790
#
# Poissons Ratio (x) = -0.17765 -0.03825
# Poissons Ratio (y) = -0.26437 0.16857
# Poissons Ratio (z) = -0.04249 0.12583
#
# Static dielectric constant tensor:
#      x y z
#    x 1.787590 0.000000 -0.009790 
#    y 0.000000 1.748070 0.000000 
#    z -0.009790 0.000000 1.754980 
# 
# From -- ./inp_files/17971.got.cif
#   From: 2010.05.17/outbox.cif.g08.bks.cpg/sg8_9_cif.got.tgz:17971.got - 2010.06.03 19:46:02.
