data_PCOD9131376
_publ_section_title
;
Structure prediction by ZEFSAII (Michael W. Deem and Ramdas Pophale) SiO2 
 PCOD9131376
Probable space group: P C
;
_chemical_formula_sum "Si O2"
_cell_formula_units_Z 14
_cell_length_a 9.096919
_cell_length_b 13.650712
_cell_length_c 5.014677
_cell_angle_alpha 90.000000
_cell_angle_beta 75.005640
_cell_angle_gamma 90.000000
_cell_volume 601.516892
_symmetry_space_group_name_H-M "P C"
_symmetry_group_IT_number 7
_symmetry_cell_setting 'monoclinic'
loop_
_space_group_symop_operation_xyz
x,y,z
x,-y,1/2+z
loop_
_atom_site_type_symbol
_atom_site_label
_atom_site_fract_x
_atom_site_fract_y
_atom_site_fract_z
Si Si1 0.767140 0.561199 0.089600
Si Si2 0.541370 0.754821 0.692897
Si Si3 0.390753 0.939544 0.524108
Si Si4 0.107485 0.431854 0.803240
Si Si5 0.886677 0.275023 0.165662
Si Si6 0.442600 0.353837 0.738951
Si Si7 0.033467 0.067942 0.243073
O O1 0.801284 0.527307 0.370899
O O2 0.587307 0.576563 0.135868
O O3 0.847268 0.658163 0.941951
O O4 0.502357 0.859206 0.588994
O O5 0.722185 0.735902 0.601092
O O6 0.453415 0.680755 0.538208
O O7 0.478940 0.735302 0.018437
O O8 0.214386 0.908761 0.644708
O O9 0.412019 0.966847 0.207026
O O10 0.083743 0.520987 0.023763
O O11 0.012578 0.335588 0.939539
O O12 0.283574 0.401067 0.744402
O O13 0.945470 0.167977 0.222069
O O14 0.001369 0.016730 0.540274
#
# Coordination Sequence:
#
# PCOD9131376 Si02
#       7
#     2   2   2   2   2   2   2
#     4  11  22  40  63  92 129 173 215 261 316 377
#     4  11  24  41  66  97 129 174 218 267 332 389
#     4  10  21  41  66  93 124 164 217 275 324 384
#     4  12  26  44  67  99 133 177 224 271 324 388
#     4  11  26  43  67  99 139 173 213 272 334 395
#     4  11  23  42  66  93 129 176 225 268 312 384
#     4  10  24  43  67  95 129 171 216 268 330 389
#
# _framework density 23.274491999999999
#
# number of rings (size 3 to 8) (size 9 to 14) (size 15 to 20)
#    0.000    1.143    0.000    6.000    0.000   10.286 
#    0.000    0.000    0.000    0.000    0.000    0.000 
#    0.000    0.000    0.000    0.000    0.000    0.000 
#
# Total GULP energy -78411.328784 kJ/mol
# GULP energy per Si atom -5600.809199 kJ/mol
# Density = 2.322152 g / cm^3
# Si number density = 23.274492 Si / 1000 Ang^3
#
#
#
# Elastic Constant Matrix: (Units=GPa)
#
#
# Indices 1 2 3 4 5 6 
#
# 1 112.3486 51.9846 27.3024 0.0000 9.2503 0.0000
# 2 51.9846 106.9685 9.0304 0.0000 -1.1540 0.0000
# 3 27.3024 9.0304 72.1233 0.0000 14.4764 0.0000
# 4 0.0000 0.0000 0.0000 18.0509 0.0000 18.5172
# 5 9.2503 -1.1540 14.4764 0.0000 40.9703 0.0000
# 6 0.0000 0.0000 0.0000 18.5172 0.0000 54.2842
#
#
#
# Elastic Compliance Matrix: (Units=1/GPa)
#
#
# Indices 1 2 3 4 5 6 
#
# 1 0.012653 -0.005854 -0.003714 0.000000 -0.001709 0.000000
# 2 -0.005854 0.012177 0.000384 0.000000 0.001529 0.000000
# 3 -0.003714 0.000384 0.016201 0.000000 -0.004875 0.000000
# 4 0.000000 0.000000 0.000000 0.085220 0.000000 -0.029070
# 5 -0.001709 0.001529 -0.004875 0.000000 0.026560 0.000000
# 6 0.000000 0.000000 0.000000 -0.029070 0.000000 0.028338
#
#
# Mechanical properties :
#
#
# Convention : Reuss Voigt Hill
#
# Bulk Modulus (GPa) = 44.12027 52.00835 48.06431
# Shear Modulus (GPa) = 24.14645 36.20261 30.17453
#
# Velocity S-wave (km/s) = 3.22446 3.94821 3.60455
# Velocity P-wave (km/s) = 5.73241 6.57105 6.16600
#
# Compressibility (1/GPa) = 0.02266532
#
# Stress axis : x y z
#
# Youngs Moduli (GPa) = 79.03427 82.11880 61.72314
#
# Poissons Ratio (x) = 0.48072 0.22922
# Poissons Ratio (y) = 0.46266 -0.02373
# Poissons Ratio (z) = 0.29351 -0.03157
#
# Static dielectric constant tensor:
#      x y z
#    x 1.882190 0.000000 -0.022890 
#    y 0.000000 1.870470 0.000000 
#    z -0.022890 0.000000 1.865000 
# 
# From -- ./inp_files/532.got.cif
#   From: 2010.05.17/outbox.cif.g08.bks.cpg/sg7_cif.got.tgz:532.got - 2010.06.03 19:44:50.
