data_PCOD9131555
_publ_section_title
;
Structure prediction by ZEFSAII (Michael W. Deem and Ramdas Pophale) SiO2 
 PCOD9131555
Probable space group: C M
;
_chemical_formula_sum "Si O2"
_cell_formula_units_Z 32
_cell_length_a 13.889669
_cell_length_b 15.004156
_cell_length_c 7.991411
_cell_angle_alpha 90.000000
_cell_angle_beta 54.726286
_cell_angle_gamma 90.000000
_cell_volume 1359.663127
_symmetry_space_group_name_H-M "C M"
_symmetry_group_IT_number 8
_symmetry_cell_setting 'monoclinic'
loop_
_space_group_symop_operation_xyz
x,y,z
x,-y,z
1/2+x,1/2+y,z
1/2+x,1/2-y,z
loop_
_atom_site_type_symbol
_atom_site_label
_atom_site_fract_x
_atom_site_fract_y
_atom_site_fract_z
Si Si1 0.742280 0.404244 0.998870
Si Si2 0.559457 0.863867 0.273238
Si Si3 0.288965 0.905291 0.555122
Si Si4 0.509879 0.677900 0.176838
Si Si5 0.113323 0.247009 0.711215
Si Si6 0.715199 0.898204 0.790685
Si Si7 0.367043 0.279972 0.855313
Si Si8 0.786642 0.104795 0.242345
O O1 0.782977 0.500000 0.029739
O O2 0.768312 0.405249 0.774694
O O3 0.803870 0.310552 0.986626
O O4 0.601003 0.396003 0.150337
O O5 0.429210 0.903073 0.400192
O O6 0.533303 0.760453 0.272552
O O7 0.628865 0.898407 0.038915
O O8 0.648228 0.878945 0.339091
O O9 0.218144 0.820299 0.556718
O O10 0.243086 0.000000 0.532433
O O11 0.374646 0.649169 0.289944
O O12 0.561305 0.711909 0.943758
O O13 0.003446 0.239415 0.699432
O O14 0.148671 0.349300 0.706385
O O15 0.752883 0.000000 0.720782
O O16 0.810772 0.823200 0.747368
O O17 0.345239 0.356625 0.013638
O O18 0.802294 0.000000 0.242267
#
# Coordination Sequence:
#
# PCOD9131555 Si02
#       8
#     4   4   4   4   4   4   4   4
#     4  10  18  32  53  76 104 138 174 217 262 308
#     4  10  18  33  52  78 107 136 166 215 262 308
#     4  10  19  33  52  76 105 139 175 213 259 311
#     4   9  17  33  50  79 105 130 169 216 260 304
#     4   9  19  32  50  74 103 133 171 214 260 305
#     4  10  18  33  55  78  99 130 172 218 263 308
#     4  10  17  32  51  78 102 131 177 216 259 302
#     4  10  18  30  55  83 101 131 176 217 255 306
#
# _framework density 23.535240999999999
#
# number of rings (size 3 to 8) (size 9 to 14) (size 15 to 20)
#    0.000    2.250    5.000    2.625    0.000    4.000 
#    2.250    0.000    0.000    1.500    0.000    0.000 
#    0.000    0.000    0.000    0.000    0.000    0.000 
#
# Total GULP energy -89267.079846 kJ/mol
# GULP energy per Si atom -5579.192490 kJ/mol
# Density = 2.348167 g / cm^3
# Si number density = 23.535241 Si / 1000 Ang^3
#
#
#
# Elastic Constant Matrix: (Units=GPa)
#
#
# Indices 1 2 3 4 5 6 
#
# 1 96.7214 50.7863 39.4300 0.0000 -28.0865 0.0000
# 2 50.7863 179.1157 33.7726 0.0000 -24.4077 0.0000
# 3 39.4300 33.7726 65.7581 0.0000 -21.5587 0.0000
# 4 0.0000 0.0000 0.0000 -14.2597 0.0000 -3.5429
# 5 -28.0865 -24.4077 -21.5587 0.0000 38.7658 0.0000
# 6 0.0000 0.0000 0.0000 -3.5429 0.0000 20.0130
#
#
#
# Elastic Compliance Matrix: (Units=1/GPa)
#
#
# Indices 1 2 3 4 5 6 
#
# 1 0.016105 -0.002491 -0.006196 0.000000 0.006654 0.000000
# 2 -0.002491 0.006789 -0.001447 0.000000 0.001665 0.000000
# 3 -0.006196 -0.001447 0.021886 0.000000 0.006771 0.000000
# 4 0.000000 0.000000 0.000000 -0.067173 0.000000 -0.011892
# 5 0.006654 0.001665 0.006771 0.000000 0.035431 0.000000
# 6 0.000000 0.000000 0.000000 -0.011892 0.000000 0.047862
#
#
# Mechanical properties :
#
#
# Convention : Reuss Voigt Hill
#
# Bulk Modulus (GPa) = 40.79818 65.50812 53.15315
# Shear Modulus (GPa) = 55.96653 23.41092 39.68872
#
# Velocity S-wave (km/s) = 4.88175 3.15734 4.11098
# Velocity P-wave (km/s) = 7.01056 6.41765 6.72064
#
# Compressibility (1/GPa) = 0.02451090
#
# Stress axis : x y z
#
# Youngs Moduli (GPa) = 62.09114 147.29472 45.69228
#
# Poissons Ratio (x) = 0.36698 0.28311
# Poissons Ratio (y) = 0.15470 0.06612
# Poissons Ratio (z) = 0.38471 0.21315
#
# Static dielectric constant tensor:
#      x y z
#    x 1.891360 0.000000 -0.009200 
#    y 0.000000 1.945420 0.000000 
#    z -0.009200 0.000000 1.952360 
# 
# From -- ./inp_files/22228.got.cif
#   From: 2010.05.17/outbox.cif.g08.bks.cpg/sg8_12_cif.got.tgz:22228.got - 2010.06.03 19:46:02.
