data_PCOD9131089
_publ_section_title
;
Structure prediction by ZEFSAII (Michael W. Deem and Ramdas Pophale) SiO2 
 PCOD9131089
Probable space group: P M
;
_chemical_formula_sum "Si O2"
_cell_formula_units_Z 16
_cell_length_a 5.038098
_cell_length_b 21.708549
_cell_length_c 5.226397
_cell_angle_alpha 90.000000
_cell_angle_beta 79.462385
_cell_angle_gamma 90.000000
_cell_volume 561.969811
_symmetry_space_group_name_H-M "P M"
_symmetry_group_IT_number 6
_symmetry_cell_setting 'monoclinic'
loop_
_space_group_symop_operation_xyz
x,y,z
x,-y,z
loop_
_atom_site_type_symbol
_atom_site_label
_atom_site_fract_x
_atom_site_fract_y
_atom_site_fract_z
Si Si1 0.330350 0.329189 0.775410
Si Si2 0.899143 0.933044 0.330257
Si Si3 0.575779 0.570005 0.516276
Si Si4 0.920269 0.332592 0.377696
Si Si5 0.251705 0.934040 0.770632
Si Si6 0.479583 0.191774 0.914344
Si Si7 0.169560 0.429636 0.102506
Si Si8 0.916326 0.196629 0.211219
O O1 0.340256 0.416166 0.800319
O O2 0.412942 0.257479 0.804610
O O3 0.111762 0.327687 0.588915
O O4 0.158868 0.343444 0.082204
O O5 0.125451 0.934554 0.511340
O O6 0.787960 0.863482 0.363654
O O7 0.756301 0.000000 0.370640
O O8 0.017786 0.932083 0.024020
O O9 0.654940 0.500000 0.586496
O O10 0.622167 0.647950 0.584227
O O11 0.388403 0.566932 0.294892
O O12 0.831744 0.264287 0.309813
O O13 0.879953 0.410256 0.309418
O O14 0.418355 0.873190 0.795520
O O15 0.387894 0.000000 0.804066
O O16 0.788296 0.193755 0.950457
O O17 0.239903 0.191523 0.174006
O O18 0.083145 0.500000 0.051606
#
# Coordination Sequence:
#
# PCOD9131089 Si02
#       8
#     2   2   2   2   2   2   2   2
#     4  11  23  39  63  92 126 169 222 280 340 414
#     4   9  19  40  69 103 143 188 237 291 351 418
#     4  10  23  40  61  91 125 168 221 281 345 413
#     4  11  23  39  63  91 126 170 221 282 340 413
#     4   9  19  40  69 103 143 188 237 291 351 418
#     4  11  24  43  69 100 135 182 232 283 347 417
#     4  10  21  40  61  85 124 166 213 273 343 414
#     4  11  24  43  69  99 136 181 231 285 347 417
#
# _framework density 28.471281999999999
#
# number of rings (size 3 to 8) (size 9 to 14) (size 15 to 20)
#    0.000    1.750    1.250    2.250    3.500    3.000 
#    0.000    0.000    0.000   13.500    0.000    0.000 
#    0.000    0.000    0.000    0.000    0.000    0.000 
#
# Total GULP energy -89360.511197 kJ/mol
# GULP energy per Si atom -5585.031950 kJ/mol
# Density = 2.840648 g / cm^3
# Si number density = 28.471282 Si / 1000 Ang^3
#
#
#
# Elastic Constant Matrix: (Units=GPa)
#
#
# Indices 1 2 3 4 5 6 
#
# 1 116.7650 44.9527 52.5922 0.0000 -15.8507 0.0000
# 2 44.9527 350.1932 77.2695 0.0000 -30.6596 0.0000
# 3 52.5922 77.2695 143.4500 0.0000 -4.5133 0.0000
# 4 0.0000 0.0000 0.0000 29.5128 0.0000 -21.7335
# 5 -15.8507 -30.6596 -4.5133 0.0000 57.0263 0.0000
# 6 0.0000 0.0000 0.0000 -21.7335 0.0000 195.2028
#
#
#
# Elastic Compliance Matrix: (Units=1/GPa)
#
#
# Indices 1 2 3 4 5 6 
#
# 1 0.010680 -0.000347 -0.003650 0.000000 0.002493 0.000000
# 2 -0.000347 0.003406 -0.001657 0.000000 0.001604 0.000000
# 3 -0.003650 -0.001657 0.009165 0.000000 -0.001180 0.000000
# 4 0.000000 0.000000 0.000000 0.036910 0.000000 0.004109
# 5 0.002493 0.001604 -0.001180 0.000000 0.018997 0.000000
# 6 0.000000 0.000000 0.000000 0.004109 0.000000 0.005580
#
#
# Mechanical properties :
#
#
# Convention : Reuss Voigt Hill
#
# Bulk Modulus (GPa) = 83.73527 106.67077 95.20302
# Shear Modulus (GPa) = 49.98564 85.38797 67.68680
#
# Velocity S-wave (km/s) = 4.19459 5.48234 4.88112
# Velocity P-wave (km/s) = 7.27556 8.81034 8.07948
#
# Compressibility (1/GPa) = 0.01194240
#
# Stress axis : x y z
#
# Youngs Moduli (GPa) = 93.62923 293.58691 109.11446
#
# Poissons Ratio (x) = 0.10197 0.39829
# Poissons Ratio (y) = 0.03252 0.18080
# Poissons Ratio (z) = 0.34176 0.48645
#
# Static dielectric constant tensor:
#      x y z
#    x 2.356180 0.000000 -0.337160 
#    y 0.000000 2.361480 0.000000 
#    z -0.337160 0.000000 2.256450 
# 
# From -- ./inp_files/628.got.cif
#   From: 2010.05.17/outbox.cif.g08.bks.cpg/sg6_1_cif.got.tgz:628.got - 2010.06.03 19:42:10.
