data_PCOD9131443
_publ_section_title
;
Structure prediction by ZEFSAII (Michael W. Deem and Ramdas Pophale) SiO2 
 PCOD9131443
Probable space group: P C
;
_chemical_formula_sum "Si O2"
_cell_formula_units_Z 16
_cell_length_a 7.010385
_cell_length_b 15.935264
_cell_length_c 5.661047
_cell_angle_alpha 90.000000
_cell_angle_beta 101.111278
_cell_angle_gamma 90.000000
_cell_volume 620.554122
_symmetry_space_group_name_H-M "P C"
_symmetry_group_IT_number 7
_symmetry_cell_setting 'monoclinic'
loop_
_space_group_symop_operation_xyz
x,y,z
x,-y,1/2+z
loop_
_atom_site_type_symbol
_atom_site_label
_atom_site_fract_x
_atom_site_fract_y
_atom_site_fract_z
Si Si1 0.700340 0.807425 0.078030
Si Si2 0.403895 0.144678 0.156481
Si Si3 0.862277 0.702372 0.478754
Si Si4 0.689292 0.011356 0.688458
Si Si5 0.381951 0.470721 0.001128
Si Si6 0.253992 0.294772 0.803366
Si Si7 0.080307 0.192636 0.390725
Si Si8 0.826361 0.471468 0.166756
O O1 0.697305 0.731923 0.259673
O O2 0.622874 0.892692 0.175104
O O3 0.568631 0.797477 0.819007
O O4 0.925122 0.825260 0.059969
O O5 0.232850 0.130112 0.308503
O O6 0.515455 0.057191 0.135644
O O7 0.317895 0.205499 0.934603
O O8 0.818716 0.628457 0.645866
O O9 0.045262 0.677982 0.360853
O O10 0.939493 0.780603 0.645247
O O11 0.796233 0.001717 0.462391
O O12 0.299267 0.520047 0.750091
O O13 0.380048 0.374299 0.911225
O O14 0.602969 0.503080 0.097472
O O15 0.209384 0.270630 0.520954
O O16 0.912577 0.502407 0.937793
#
# Coordination Sequence:
#
# PCOD9131443 Si02
#       8
#     2   2   2   2   2   2   2   2
#     4  10  24  43  74 102 139 185 239 295 359 428
#     4  10  24  43  74 102 139 185 239 295 359 428
#     4  10  24  42  67 100 138 186 240 290 355 425
#     4  10  24  44  70 106 136 176 236 288 358 428
#     4  10  24  41  64  99 139 181 236 294 354 417
#     4  10  24  42  67 100 138 186 240 290 355 425
#     4  10  24  44  66 108 140 184 248 292 352 428
#     4  10  24  41  64  99 139 181 236 294 354 417
#
# _framework density 25.783408999999999
#
# number of rings (size 3 to 8) (size 9 to 14) (size 15 to 20)
#    0.000    2.000    0.000    0.000   17.500    2.000 
#    0.000    5.000    2.750    0.000    0.000    0.000 
#    0.000    0.000    0.000    0.000    0.000    0.000 
#
# Total GULP energy -89312.726181 kJ/mol
# GULP energy per Si atom -5582.045386 kJ/mol
# Density = 2.572472 g / cm^3
# Si number density = 25.783409 Si / 1000 Ang^3
#
#
#
# Elastic Constant Matrix: (Units=GPa)
#
#
# Indices 1 2 3 4 5 6 
#
# 1 71.8854 10.2889 32.2890 0.0000 -2.4268 0.0000
# 2 10.2889 72.6437 -4.6644 0.0000 -6.7251 0.0000
# 3 32.2890 -4.6644 114.4545 0.0000 -9.6185 0.0000
# 4 0.0000 0.0000 0.0000 33.0353 0.0000 -0.9339
# 5 -2.4268 -6.7251 -9.6185 0.0000 40.2525 0.0000
# 6 0.0000 0.0000 0.0000 -0.9339 0.0000 28.0896
#
#
#
# Elastic Compliance Matrix: (Units=1/GPa)
#
#
# Indices 1 2 3 4 5 6 
#
# 1 0.016430 -0.002691 -0.004796 0.000000 -0.000605 0.000000
# 2 -0.002691 0.014492 0.001571 0.000000 0.002634 0.000000
# 3 -0.004796 0.001571 0.010360 0.000000 0.002449 0.000000
# 4 0.000000 0.000000 0.000000 0.030299 0.000000 0.001007
# 5 -0.000605 0.002634 0.002449 0.000000 0.025832 0.000000
# 6 0.000000 0.000000 0.000000 0.001007 0.000000 0.035634
#
#
# Mechanical properties :
#
#
# Convention : Reuss Voigt Hill
#
# Bulk Modulus (GPa) = 33.95524 37.20120 35.57822
# Shear Modulus (GPa) = 32.32189 35.01350 33.66770
#
# Velocity S-wave (km/s) = 3.54445 3.68908 3.61749
# Velocity P-wave (km/s) = 5.47256 5.71012 5.59260
#
# Compressibility (1/GPa) = 0.02945053
#
# Stress axis : x y z
#
# Youngs Moduli (GPa) = 60.86501 69.00494 96.52686
#
# Poissons Ratio (x) = 0.18569 0.46290
# Poissons Ratio (y) = 0.16379 -0.15166
# Poissons Ratio (z) = 0.29188 -0.10842
#
# Static dielectric constant tensor:
#      x y z
#    x 2.112920 0.000000 -0.052570 
#    y 0.000000 1.990780 0.000000 
#    z -0.052570 0.000000 2.094740 
# 
# From -- ./inp_files/735.got.cif
#   From: 2010.05.17/outbox.cif.g08.bks.cpg/sg7_cif.got.tgz:735.got - 2010.06.03 19:44:50.
