data_PCOD9131793
_publ_section_title
;
Structure prediction by ZEFSAII (Michael W. Deem and Ramdas Pophale) SiO2 
 PCOD9131793
Probable space group: C M
;
_chemical_formula_sum "Si O2"
_cell_formula_units_Z 24
_cell_length_a 16.561649
_cell_length_b 15.000588
_cell_length_c 9.485315
_cell_angle_alpha 90.000000
_cell_angle_beta 30.473330
_cell_angle_gamma 90.000000
_cell_volume 1195.058370
_symmetry_space_group_name_H-M "C M"
_symmetry_group_IT_number 8
_symmetry_cell_setting 'monoclinic'
loop_
_space_group_symop_operation_xyz
x,y,z
x,-y,z
1/2+x,1/2+y,z
1/2+x,1/2-y,z
loop_
_atom_site_type_symbol
_atom_site_label
_atom_site_fract_x
_atom_site_fract_y
_atom_site_fract_z
Si Si1 0.426060 0.500000 0.902771
Si Si2 0.329122 0.693955 0.654973
Si Si3 0.935332 0.803142 0.948891
Si Si4 0.942017 0.500000 0.189837
Si Si5 0.130564 0.196745 0.378044
Si Si6 0.732663 0.500000 0.265668
Si Si7 0.298936 0.500000 0.770402
Si Si8 0.959667 0.298257 0.206345
O O1 0.397914 0.408000 0.025696
O O2 0.612036 0.500000 0.580497
O O3 0.336087 0.500000 0.883675
O O4 0.470378 0.728194 0.541702
O O5 0.365882 0.589037 0.601981
O O6 0.354813 0.738876 0.466795
O O7 0.145237 0.703102 0.977052
O O8 0.079061 0.798378 0.620325
O O9 0.776023 0.760352 0.124261
O O10 0.963625 0.745986 0.046160
O O11 0.890965 0.399265 0.308702
O O12 0.907642 0.500000 0.072465
O O13 0.116741 0.500000 0.995658
O O14 0.188629 0.094432 0.260407
#
# Coordination Sequence:
#
# PCOD9131793 Si02
#       8
#     2   4   4   2   4   2   2   4
#     4  10  22  39  63  87 123 167 202 240 317 368
#     4  11  22  40  61  95 119 167 201 251 303 366
#     4  11  22  40  61  93 119 166 201 255 299 364
#     4  10  22  38  58  88 125 165 192 244 311 375
#     4  11  21  38  65  88 123 159 212 246 302 361
#     4  10  18  38  61  87 112 170 197 241 300 380
#     4  10  20  41  62  86 126 168 195 245 318 369
#     4  11  24  39  64  91 126 159 205 251 307 358
#
# _framework density 20.082699999999999
#
# number of rings (size 3 to 8) (size 9 to 14) (size 15 to 20)
#    0.000    1.333    5.000    2.000    4.667    0.667 
#    0.000    4.167    0.000    0.000    0.000    0.000 
#    0.000    0.000    0.000    0.000    0.000    0.000 
#
# Total GULP energy -66811.173777 kJ/mol
# GULP energy per Si atom -5567.597815 kJ/mol
# Density = 2.003699 g / cm^3
# Si number density = 20.082700 Si / 1000 Ang^3
#
#
#
# Elastic Constant Matrix: (Units=GPa)
#
#
# Indices 1 2 3 4 5 6 
#
# 1 84.5089 1.5629 2.2111 0.0000 -12.1237 0.0000
# 2 1.5629 90.8103 17.1884 0.0000 -1.4701 0.0000
# 3 2.2111 17.1884 49.7549 0.0001 -7.8107 0.0000
# 4 0.0000 0.0000 0.0001 20.0948 -0.0001 -5.5859
# 5 -12.1237 -1.4701 -7.8107 -0.0001 31.1907 0.0000
# 6 0.0000 0.0000 0.0000 -5.5859 0.0000 25.2679
#
#
#
# Elastic Compliance Matrix: (Units=1/GPa)
#
#
# Indices 1 2 3 4 5 6 
#
# 1 0.012537 -0.000189 0.000283 0.000000 0.004935 0.000000
# 2 -0.000189 0.011792 -0.004153 0.000000 -0.000558 0.000000
# 3 0.000283 -0.004153 0.022387 0.000000 0.005520 0.000000
# 4 0.000000 0.000000 0.000000 0.053022 0.000000 0.011722
# 5 0.004935 -0.000558 0.005520 0.000000 0.035335 0.000000
# 6 0.000000 0.000000 0.000000 0.011722 0.000000 0.042167
#
#
# Mechanical properties :
#
#
# Convention : Reuss Voigt Hill
#
# Bulk Modulus (GPa) = 25.90811 29.66654 27.78733
# Shear Modulus (GPa) = 25.22372 28.91813 27.07093
#
# Velocity S-wave (km/s) = 3.54784 3.79879 3.67546
# Velocity P-wave (km/s) = 5.45084 5.83484 5.64610
#
# Compressibility (1/GPa) = 0.03859795
#
# Stress axis : x y z
#
# Youngs Moduli (GPa) = 79.76290 84.80143 44.66834
#
# Poissons Ratio (x) = 0.01607 -0.01264
# Poissons Ratio (y) = 0.01511 0.18550
# Poissons Ratio (z) = -0.02257 0.35217
#
# Static dielectric constant tensor:
#      x y z
#    x 1.805400 0.000000 -0.050350 
#    y 0.000000 1.735180 0.000000 
#    z -0.050350 0.000000 1.686140 
# 
# From -- ./inp_files/13218.got.cif
#   From: 2010.05.17/outbox.cif.g08.bks.cpg/sg8_7_cif.got.tgz:13218.got - 2010.06.03 19:46:02.
