data_PCOD9131730
_publ_section_title
;
Structure prediction by ZEFSAII (Michael W. Deem and Ramdas Pophale) SiO2 
 PCOD9131730
Probable space group: C M
;
_chemical_formula_sum "Si O2"
_cell_formula_units_Z 30
_cell_length_a 13.211906
_cell_length_b 12.427322
_cell_length_c 17.199710
_cell_angle_alpha 90.000000
_cell_angle_beta 27.312680
_cell_angle_gamma 90.000000
_cell_volume 1295.780056
_symmetry_space_group_name_H-M "C M"
_symmetry_group_IT_number 8
_symmetry_cell_setting 'monoclinic'
loop_
_space_group_symop_operation_xyz
x,y,z
x,-y,z
1/2+x,1/2+y,z
1/2+x,1/2-y,z
loop_
_atom_site_type_symbol
_atom_site_label
_atom_site_fract_x
_atom_site_fract_y
_atom_site_fract_z
Si Si1 0.897950 0.320891 0.664800
Si Si2 0.394867 0.678412 0.308710
Si Si3 0.954887 0.124193 0.515473
Si Si4 0.338735 0.259528 0.181020
Si Si5 0.994364 0.373375 0.765104
Si Si6 0.440003 0.884387 0.382067
Si Si7 0.370822 0.121800 0.021434
Si Si8 0.741913 0.500000 0.662264
O O1 0.898326 0.205041 0.623906
O O2 0.887963 0.317023 0.764280
O O3 0.737969 0.404442 0.731594
O O4 0.148114 0.369008 0.477810
O O5 0.456557 0.693143 0.175750
O O6 0.372725 0.792478 0.368285
O O7 0.603073 0.621486 0.205839
O O8 0.760415 0.135096 0.584426
O O9 0.180020 0.167180 0.325541
O O10 0.964723 0.000000 0.532308
O O11 0.455765 0.201430 0.029666
O O12 0.174797 0.348843 0.257506
O O13 0.937749 0.500000 0.798125
O O14 0.929873 0.338000 0.895358
O O15 0.458455 0.000000 0.328628
O O16 0.286172 0.907385 0.562121
O O17 0.453068 0.000000 0.974663
#
# Coordination Sequence:
#
# PCOD9131730 Si02
#       8
#     4   4   4   4   4   4   4   2
#     4  11  21  34  58  83 105 140 181 222 271 314
#     4  10  20  32  56  82 105 137 175 221 271 316
#     4  10  20  36  56  81 109 138 178 224 269 316
#     4  10  19  35  53  81 105 139 178 217 273 315
#     4  10  21  37  55  76 106 146 182 220 264 315
#     4   9  17  31  48  77 111 131 168 217 268 312
#     4  10  22  35  52  78 110 141 179 220 262 316
#     4  10  18  34  52  80 110 136 168 226 262 324
#
# _framework density 23.152076999999998
#
# number of rings (size 3 to 8) (size 9 to 14) (size 15 to 20)
#    0.400    1.600    3.333    2.000    0.933    5.333 
#    0.000    0.000    0.000    3.200    0.000    0.000 
#    0.000    0.000    0.000    0.000    0.000    0.000 
#
# Total GULP energy -83530.628753 kJ/mol
# GULP energy per Si atom -5568.708584 kJ/mol
# Density = 2.309938 g / cm^3
# Si number density = 23.152077 Si / 1000 Ang^3
#
#
#
# Elastic Constant Matrix: (Units=GPa)
#
#
# Indices 1 2 3 4 5 6 
#
# 1 93.8581 14.4852 16.1938 -0.0007 26.2127 -0.0009
# 2 14.4852 107.6488 3.4478 0.0037 13.1942 0.0000
# 3 16.1938 3.4478 55.3666 0.0017 18.2817 -0.0014
# 4 -0.0007 0.0037 0.0017 12.2135 -0.0016 9.8124
# 5 26.2127 13.1942 18.2817 -0.0016 48.7876 0.0006
# 6 -0.0009 0.0000 -0.0014 9.8124 0.0006 24.4504
#
#
#
# Elastic Compliance Matrix: (Units=1/GPa)
#
#
# Indices 1 2 3 4 5 6 
#
# 1 0.012758 -0.000931 -0.001704 0.000000 -0.005964 0.000001
# 2 -0.000931 0.009680 0.000421 -0.000005 -0.002275 0.000002
# 3 -0.001704 0.000421 0.020849 -0.000008 -0.007011 0.000004
# 4 0.000000 -0.000005 -0.000008 0.120836 0.000009 -0.048494
# 5 -0.005964 -0.002275 -0.007011 0.000009 0.026944 -0.000005
# 6 0.000001 0.000002 0.000004 -0.048494 -0.000005 0.060360
#
#
# Mechanical properties :
#
#
# Convention : Reuss Voigt Hill
#
# Bulk Modulus (GPa) = 25.73497 36.12525 30.93011
# Shear Modulus (GPa) = 18.60060 31.94008 25.27034
#
# Velocity S-wave (km/s) = 2.83752 3.71830 3.30736
# Velocity P-wave (km/s) = 4.67709 5.83709 5.28899
#
# Compressibility (1/GPa) = 0.03885763
#
# Stress axis : x y z
#
# Youngs Moduli (GPa) = 78.38368 103.30404 47.96504
#
# Poissons Ratio (x) = 0.09619 0.08174
# Poissons Ratio (y) = 0.07298 -0.02019
# Poissons Ratio (z) = 0.13358 -0.04347
#
# Static dielectric constant tensor:
#      x y z
#    x 1.872920 0.000000 -0.012060 
#    y 0.000000 1.854510 0.000000 
#    z -0.012060 0.000000 1.980830 
# 
# From -- ./inp_files/12654.got.cif
#   From: 2010.05.17/outbox.cif.g08.bks.cpg/sg8_7_cif.got.tgz:12654.got - 2010.06.03 19:46:02.
