data_PCOD9131811
_publ_section_title
;
Structure prediction by ZEFSAII (Michael W. Deem and Ramdas Pophale) SiO2 
 PCOD9131811
Probable space group: C M
;
_chemical_formula_sum "Si O2"
_cell_formula_units_Z 32
_cell_length_a 14.537418
_cell_length_b 9.426088
_cell_length_c 11.562110
_cell_angle_alpha 90.000000
_cell_angle_beta 69.148519
_cell_angle_gamma 90.000000
_cell_volume 1480.601095
_symmetry_space_group_name_H-M "C M"
_symmetry_group_IT_number 8
_symmetry_cell_setting 'monoclinic'
loop_
_space_group_symop_operation_xyz
x,y,z
x,-y,z
1/2+x,1/2+y,z
1/2+x,1/2-y,z
loop_
_atom_site_type_symbol
_atom_site_label
_atom_site_fract_x
_atom_site_fract_y
_atom_site_fract_z
Si Si1 0.548160 0.839678 0.436300
Si Si2 0.960288 0.171188 0.948646
Si Si3 0.825991 0.343484 0.451268
Si Si4 0.107414 0.163231 0.201697
Si Si5 0.876571 0.838914 0.221300
Si Si6 0.236860 0.657664 0.692184
Si Si7 0.010251 0.661775 0.712079
Si Si8 0.152794 0.329236 0.963441
O O1 0.442361 0.854279 0.422810
O O2 0.608362 0.736920 0.326212
O O3 0.524439 0.784309 0.575271
O O4 0.590250 0.000000 0.428874
O O5 0.950281 0.239866 0.826869
O O6 0.058201 0.246579 0.954867
O O7 0.970699 0.000000 0.937988
O O8 0.880682 0.202579 0.084495
O O9 0.782957 0.500000 0.460515
O O10 0.817607 0.257533 0.336467
O O11 0.784010 0.264871 0.581838
O O12 0.991833 0.161404 0.211775
O O13 0.140432 0.000000 0.187912
O O14 0.164746 0.259356 0.083062
O O15 0.841337 0.000000 0.245796
O O16 0.279326 0.500000 0.656400
O O17 0.121495 0.651785 0.710465
O O18 0.236185 0.692907 0.828647
O O19 0.970201 0.500000 0.725353
O O20 0.136526 0.500000 0.978819
#
# Coordination Sequence:
#
# PCOD9131811 Si02
#       8
#     4   4   4   4   4   4   4   4
#     4   9  18  32  48  68  94 123 155 187 225 275
#     4   9  16  26  43  68  93 116 147 191 235 268
#     4  10  19  29  46  70  93 119 150 188 229 267
#     4   9  16  26  43  68  93 117 148 190 234 267
#     4   8  15  27  42  62  90 119 147 182 224 270
#     4   9  18  31  47  67  92 122 152 184 225 272
#     4   9  18  32  49  68  92 124 156 186 225 274
#     4   9  16  27  44  65  89 120 155 188 225 269
#
# _framework density 21.612843999999999
#
# number of rings (size 3 to 8) (size 9 to 14) (size 15 to 20)
#    0.000    3.000    0.000    3.000    0.000    7.000 
#    0.000    0.000    0.000    1.500    0.000    1.750 
#    0.000    0.000    0.000    0.000    0.000    0.000 
#
# Total GULP energy -89222.022362 kJ/mol
# GULP energy per Si atom -5576.376398 kJ/mol
# Density = 2.156365 g / cm^3
# Si number density = 21.612844 Si / 1000 Ang^3
#
#
#
# Elastic Constant Matrix: (Units=GPa)
#
#
# Indices 1 2 3 4 5 6 
#
# 1 49.4119 0.8177 2.3982 0.0000 4.8569 0.0000
# 2 0.8177 139.3945 135.7790 0.0000 -3.0781 0.0000
# 3 2.3982 135.7790 239.2111 0.0000 19.4373 0.0000
# 4 0.0000 0.0000 0.0000 36.5644 0.0000 2.2115
# 5 4.8569 -3.0781 19.4373 0.0000 17.9702 0.0000
# 6 0.0000 0.0000 0.0000 2.2115 0.0000 2.4921
#
#
#
# Elastic Compliance Matrix: (Units=1/GPa)
#
#
# Indices 1 2 3 4 5 6 
#
# 1 0.020911 -0.001446 0.001196 0.000000 -0.007193 0.000000
# 2 -0.001446 0.020030 -0.012789 0.000000 0.017655 0.000000
# 3 0.001196 -0.012789 0.012753 0.000000 -0.016308 0.000000
# 4 0.000000 0.000000 0.000000 0.028900 0.000000 -0.025647
# 5 -0.007193 0.017655 -0.016308 0.000000 0.078255 0.000000
# 6 0.000000 0.000000 0.000000 -0.025647 0.000000 0.424034
#
#
# Mechanical properties :
#
#
# Convention : Reuss Voigt Hill
#
# Bulk Modulus (GPa) = 36.21335 78.44525 57.32930
# Shear Modulus (GPa) = 8.06236 30.67350 19.36793
#
# Velocity S-wave (km/s) = 1.93351 3.77135 2.99679
# Velocity P-wave (km/s) = 4.66652 7.43899 6.20947
#
# Compressibility (1/GPa) = 0.02761413
#
# Stress axis : x y z
#
# Youngs Moduli (GPa) = 47.82189 49.92602 78.41431
#
# Poissons Ratio (x) = 0.07220 -0.09375
# Poissons Ratio (y) = 0.06916 1.00285
# Poissons Ratio (z) = -0.05718 0.63851
#
# Static dielectric constant tensor:
#      x y z
#    x 1.880590 0.000000 0.028060 
#    y 0.000000 1.766610 0.000000 
#    z 0.028060 0.000000 1.801280 
# 
# From -- ./inp_files/23676.got.cif
#   From: 2010.05.17/outbox.cif.g08.bks.cpg/sg8_12_cif.got.tgz:23676.got - 2010.06.03 19:46:02.
