data_PCOD9131239
_publ_section_title
;
Structure prediction by ZEFSAII (Michael W. Deem and Ramdas Pophale) SiO2 
 PCOD9131239
Probable space group: P C
;
_chemical_formula_sum "Si O2"
_cell_formula_units_Z 14
_cell_length_a 11.360756
_cell_length_b 8.967581
_cell_length_c 5.577451
_cell_angle_alpha 90.000000
_cell_angle_beta 75.790824
_cell_angle_gamma 90.000000
_cell_volume 550.838175
_symmetry_space_group_name_H-M "P C"
_symmetry_group_IT_number 7
_symmetry_cell_setting 'monoclinic'
loop_
_space_group_symop_operation_xyz
x,y,z
x,-y,1/2+z
loop_
_atom_site_type_symbol
_atom_site_label
_atom_site_fract_x
_atom_site_fract_y
_atom_site_fract_z
Si Si1 0.852180 0.515466 0.582960
Si Si2 0.877416 0.209540 0.570343
Si Si3 0.247635 0.647637 0.385228
Si Si4 0.772416 0.838358 0.622843
Si Si5 0.534370 0.408602 0.741868
Si Si6 0.154887 0.312916 0.431603
Si Si7 0.531874 0.048061 0.743115
O O1 0.922337 0.500000 0.297882
O O2 0.788796 0.356560 0.614653
O O3 0.767669 0.657495 0.625216
O O4 0.846180 0.140993 0.331376
O O5 0.018152 0.252248 0.499975
O O6 0.846180 0.140992 0.840545
O O7 0.171212 0.493180 0.423438
O O8 0.216020 0.731863 0.647974
O O9 0.386897 0.598813 0.315604
O O10 0.216024 0.731861 0.154093
O O11 0.652835 0.939663 0.682634
O O12 0.560221 0.773830 0.228943
O O13 0.564670 0.500000 0.976719
O O14 0.470085 0.000000 0.524010
#
# Coordination Sequence:
#
# PCOD9131239 Si02
#       7
#     2   2   2   2   2   2   2
#     4   8  16  27  46  80 124 181 215 275 327 400
#     4  10  19  31  58  98 154 193 240 295 362 459
#     4  10  19  31  56 100 155 179 236 314 384 436
#     4  10  21  38  58  91 137 194 254 294 363 454
#     4  12  23  48  75 113 150 197 255 345 391 452
#     4  10  18  28  54 101 155 184 232 301 383 451
#     4  12  28  51  77 105 143 208 266 324 408 474
#
# _framework density 25.415811999999999
#
# number of rings (size 3 to 8) (size 9 to 14) (size 15 to 20)
#    0.000    1.714    2.857    2.571   12.000    0.000 
#    0.000   12.857    0.000    0.000    0.000   20.000 
#    0.000    0.000    0.000    0.000    0.000    8.571 
#
# Total GULP energy -77953.740314 kJ/mol
# GULP energy per Si atom -5568.124308 kJ/mol
# Density = 2.535796 g / cm^3
# Si number density = 25.415812 Si / 1000 Ang^3
#
#
#
# Elastic Constant Matrix: (Units=GPa)
#
#
# Indices 1 2 3 4 5 6 
#
# 1 103.2863 47.4943 82.1818 0.0000 26.3264 0.0000
# 2 47.4943 183.7448 50.8583 0.0000 2.3816 0.0000
# 3 82.1818 50.8583 248.5883 0.0000 76.4632 0.0000
# 4 0.0000 0.0000 0.0000 154.5778 0.0000 66.8291
# 5 26.3264 2.3816 76.4632 0.0000 64.6252 0.0000
# 6 0.0000 0.0000 0.0000 66.8291 0.0000 60.0904
#
#
#
# Elastic Compliance Matrix: (Units=1/GPa)
#
#
# Indices 1 2 3 4 5 6 
#
# 1 0.014205 -0.002606 -0.003793 0.000000 -0.001203 0.000000
# 2 -0.002606 0.006393 -0.001101 0.000000 0.002129 0.000000
# 3 -0.003793 -0.001101 0.007883 0.000000 -0.007741 0.000000
# 4 0.000000 0.000000 0.000000 0.012460 0.000000 -0.013858
# 5 -0.001203 0.002129 -0.007741 0.000000 0.025045 0.000000
# 6 0.000000 0.000000 0.000000 -0.013858 0.000000 0.032053
#
#
# Mechanical properties :
#
#
# Convention : Reuss Voigt Hill
#
# Bulk Modulus (GPa) = 74.18127 99.63202 86.90665
# Shear Modulus (GPa) = 42.54101 79.53100 61.03601
#
# Velocity S-wave (km/s) = 4.09565 5.59999 4.90582
# Velocity P-wave (km/s) = 7.18444 9.00550 8.14602
#
# Compressibility (1/GPa) = 0.01348049
#
# Stress axis : x y z
#
# Youngs Moduli (GPa) = 70.39941 156.41593 126.85427
#
# Poissons Ratio (x) = 0.40766 0.48112
# Poissons Ratio (y) = 0.18348 0.13970
# Poissons Ratio (z) = 0.26701 0.17225
#
# Static dielectric constant tensor:
#      x y z
#    x 2.019620 0.000000 0.074940 
#    y 0.000000 2.143000 0.000000 
#    z 0.074940 0.000000 2.125570 
# 
# From -- ./inp_files/1094.got.cif
#   From: 2010.05.17/outbox.cif.g08.bks.cpg/sg7_cif.got.tgz:1094.got - 2010.06.03 19:44:50.
