data_PCOD9131289
_publ_section_title
;
Structure prediction by ZEFSAII (Michael W. Deem and Ramdas Pophale) SiO2 
 PCOD9131289
Probable space group: P C
;
_chemical_formula_sum "Si O2"
_cell_formula_units_Z 16
_cell_length_a 9.174415
_cell_length_b 16.079378
_cell_length_c 5.213277
_cell_angle_alpha 90.000000
_cell_angle_beta 78.251163
_cell_angle_gamma 90.000000
_cell_volume 752.944776
_symmetry_space_group_name_H-M "P C"
_symmetry_group_IT_number 7
_symmetry_cell_setting 'monoclinic'
loop_
_space_group_symop_operation_xyz
x,y,z
x,-y,1/2+z
loop_
_atom_site_type_symbol
_atom_site_label
_atom_site_fract_x
_atom_site_fract_y
_atom_site_fract_z
Si Si1 0.331410 0.946236 0.315460
Si Si2 0.780917 0.726930 0.592960
Si Si3 0.688840 0.623682 0.127202
Si Si4 0.285496 0.807089 0.983209
Si Si5 0.387494 0.676226 0.298206
Si Si6 0.537068 0.837636 0.509793
Si Si7 0.095869 0.291929 0.207403
Si Si8 0.983753 0.453952 0.509823
O O1 0.251646 0.861221 0.247596
O O2 0.296091 0.993052 0.591396
O O3 0.498984 0.088824 0.823330
O O4 0.749226 0.666739 0.364975
O O5 0.699434 0.813814 0.552893
O O6 0.956632 0.730369 0.578523
O O7 0.709034 0.686355 0.876546
O O8 0.513197 0.606487 0.223425
O O9 0.803995 0.549299 0.045895
O O10 0.340440 0.715612 0.044833
O O11 0.424166 0.849700 0.788706
O O12 0.151979 0.789117 0.839692
O O13 0.477319 0.752443 0.401224
O O14 0.235642 0.667890 0.508145
O O15 0.037411 0.361978 0.422929
O O16 0.034494 0.515575 0.267219
#
# Coordination Sequence:
#
# PCOD9131289 Si02
#       8
#     2   2   2   2   2   2   2   2
#     4  11  21  35  58  91 129 168 206 257 313 372
#     4  10  20  35  60  90 115 153 198 256 310 360
#     4  10  20  38  60  84 114 153 199 256 311 367
#     4  10  19  36  61  94 121 159 213 262 304 370
#     4   9  19  34  60  91 120 147 207 268 308 354
#     4   9  18  35  57  90 117 156 206 257 302 364
#     4  10  23  37  62  92 125 164 211 268 312 376
#     4  11  24  42  60  84 123 168 212 256 326 391
#
# _framework density 21.2499
#
# number of rings (size 3 to 8) (size 9 to 14) (size 15 to 20)
#    0.000    2.000    2.500    1.500    5.250    0.000 
#    0.000    1.250    0.000    1.500    0.000    0.000 
#    0.000    0.000    0.000    0.000    0.000    0.000 
#
# Total GULP energy -89143.039496 kJ/mol
# GULP energy per Si atom -5571.439969 kJ/mol
# Density = 2.120153 g / cm^3
# Si number density = 21.249900 Si / 1000 Ang^3
#
#
#
# Elastic Constant Matrix: (Units=GPa)
#
#
# Indices 1 2 3 4 5 6 
#
# 1 120.3282 16.5591 45.4652 0.0000 3.5087 0.0000
# 2 16.5591 32.0962 23.1806 0.0000 5.2251 0.0000
# 3 45.4652 23.1806 121.6916 0.0000 19.6708 0.0000
# 4 0.0000 0.0000 0.0000 33.5989 0.0000 12.6432
# 5 3.5087 5.2251 19.6708 0.0000 32.1979 0.0000
# 6 0.0000 0.0000 0.0000 12.6432 0.0000 22.6264
#
#
#
# Elastic Compliance Matrix: (Units=1/GPa)
#
#
# Indices 1 2 3 4 5 6 
#
# 1 0.009954 -0.002919 -0.003400 0.000000 0.001466 0.000000
# 2 -0.002919 0.037081 -0.005605 0.000000 -0.002275 0.000000
# 3 -0.003400 -0.005605 0.011483 0.000000 -0.005735 0.000000
# 4 0.000000 0.000000 0.000000 0.037687 0.000000 -0.021059
# 5 0.001466 -0.002275 -0.005735 0.000000 0.034771 0.000000
# 6 0.000000 0.000000 0.000000 -0.021059 0.000000 0.055964
#
#
# Mechanical properties :
#
#
# Convention : Reuss Voigt Hill
#
# Bulk Modulus (GPa) = 28.84362 49.39175 39.11769
# Shear Modulus (GPa) = 22.48770 30.27870 26.38320
#
# Velocity S-wave (km/s) = 3.25660 3.77886 3.52741
# Velocity P-wave (km/s) = 5.26722 6.50642 5.91934
#
# Compressibility (1/GPa) = 0.03466971
#
# Stress axis : x y z
#
# Youngs Moduli (GPa) = 100.46036 26.96817 87.08904
#
# Poissons Ratio (x) = 0.07871 0.29610
# Poissons Ratio (y) = 0.29321 0.48815
# Poissons Ratio (z) = 0.34157 0.15116
#
# Static dielectric constant tensor:
#      x y z
#    x 1.810340 0.000000 -0.026620 
#    y 0.000000 1.856320 0.000000 
#    z -0.026620 0.000000 1.874530 
# 
# From -- ./inp_files/820.got.cif
#   From: 2010.05.17/outbox.cif.g08.bks.cpg/sg7_cif.got.tgz:820.got - 2010.06.03 19:44:50.
