data_PCOD9131123
_publ_section_title
;
Structure prediction by ZEFSAII (Michael W. Deem and Ramdas Pophale) SiO2 
 PCOD9131123
Probable space group: P M
;
_chemical_formula_sum "Si O2"
_cell_formula_units_Z 13
_cell_length_a 5.302531
_cell_length_b 10.983386
_cell_length_c 9.843228
_cell_angle_alpha 90.000000
_cell_angle_beta 89.194481
_cell_angle_gamma 90.000000
_cell_volume 573.210433
_symmetry_space_group_name_H-M "P M"
_symmetry_group_IT_number 6
_symmetry_cell_setting 'monoclinic'
loop_
_space_group_symop_operation_xyz
x,y,z
x,-y,z
loop_
_atom_site_type_symbol
_atom_site_label
_atom_site_fract_x
_atom_site_fract_y
_atom_site_fract_z
Si Si1 0.676820 0.633566 0.934200
Si Si2 0.966227 0.641967 0.666281
Si Si3 0.388234 0.861730 0.023563
Si Si4 0.459402 0.285771 0.516696
Si Si5 0.015949 0.300293 0.164417
Si Si6 0.688919 0.867393 0.307988
Si Si7 0.354446 0.500000 0.299066
O O1 0.555942 0.500000 0.907408
O O2 0.906437 0.645420 0.826564
O O3 0.507020 0.754392 0.931188
O O4 0.797281 0.632405 0.083316
O O5 0.997758 0.500000 0.625764
O O6 0.710766 0.691315 0.601357
O O7 0.213688 0.709713 0.612876
O O8 0.547117 0.864955 0.163717
O O9 0.117789 0.810674 0.072317
O O10 0.382159 0.000000 0.969906
O O11 0.497191 0.164287 0.428767
O O12 0.438703 0.393803 0.406877
O O13 0.896119 0.239061 0.298157
O O14 0.232789 0.393511 0.200306
O O15 0.804379 0.000000 0.324760
#
# Coordination Sequence:
#
# PCOD9131123 Si02
#       7
#     2   2   2   2   2   2   1
#     4  10  24  41  67  96 132 171 228 283 336 394
#     4  11  24  44  66  97 134 180 221 270 333 398
#     4  10  22  40  64  95 131 177 219 277 346 403
#     4  12  24  42  68  98 136 176 220 273 332 404
#     4  11  22  39  68  99 136 168 219 286 347 400
#     4  10  23  41  63  95 132 178 225 274 336 407
#     4  12  22  38  64 106 132 162 216 278 354 392
#
# _framework density 22.679279000000001
#
# number of rings (size 3 to 8) (size 9 to 14) (size 15 to 20)
#    0.000    1.231    3.846    1.385    3.231    1.231 
#    0.000    1.538    0.000    0.000    0.000    0.000 
#    0.000    0.000    0.000    0.000    0.000    0.000 
#
# Total GULP energy -72417.623385 kJ/mol
# GULP energy per Si atom -5570.586414 kJ/mol
# Density = 2.262766 g / cm^3
# Si number density = 22.679279 Si / 1000 Ang^3
#
#
#
# Elastic Constant Matrix: (Units=GPa)
#
#
# Indices 1 2 3 4 5 6 
#
# 1 82.7825 27.9218 26.5367 0.0000 -23.3891 0.0000
# 2 27.9218 156.1503 41.9483 0.0000 -23.4965 0.0000
# 3 26.5367 41.9483 70.9488 0.0000 -22.4179 0.0000
# 4 0.0000 0.0000 0.0000 19.6409 0.0000 -11.2265
# 5 -23.3891 -23.4965 -22.4179 0.0000 41.8882 0.0000
# 6 0.0000 0.0000 0.0000 -11.2265 0.0000 7.0857
#
#
#
# Elastic Compliance Matrix: (Units=1/GPa)
#
#
# Indices 1 2 3 4 5 6 
#
# 1 0.015172 -0.000924 -0.003148 0.000000 0.006268 0.000000
# 2 -0.000924 0.007848 -0.003691 0.000000 0.001911 0.000000
# 3 -0.003148 -0.003691 0.019551 0.000000 0.006635 0.000000
# 4 0.000000 0.000000 0.000000 0.539409 0.000000 0.854631
# 5 0.006268 0.001911 0.006635 0.000000 0.031996 0.000000
# 6 0.000000 0.000000 0.000000 0.854631 0.000000 1.495193
#
#
# Mechanical properties :
#
#
# Convention : Reuss Voigt Hill
#
# Bulk Modulus (GPa) = 36.97428 55.85501 46.41464
# Shear Modulus (GPa) = 2.34334 27.95461 15.14897
#
# Velocity S-wave (km/s) = 1.01759 3.51466 2.58731
# Velocity P-wave (km/s) = 4.20941 6.41499 5.42546
#
# Compressibility (1/GPa) = 0.02704583
#
# Stress axis : x y z
#
# Youngs Moduli (GPa) = 65.91268 127.41417 51.14894
#
# Poissons Ratio (x) = 0.11774 0.16099
# Poissons Ratio (y) = 0.06091 0.18878
# Poissons Ratio (z) = 0.20746 0.47027
#
# Static dielectric constant tensor:
#      x y z
#    x 1.882130 0.000000 -0.032370 
#    y 0.000000 1.825570 0.000000 
#    z -0.032370 0.000000 1.867040 
# 
# From -- ./inp_files/4368.got.cif
#   From: 2010.05.17/outbox.cif.g08.bks.cpg/sg6_3_cif.got.tgz:4368.got - 2010.06.03 19:42:10.
