data_PCOD9131770
_publ_section_title
;
Structure prediction by ZEFSAII (Michael W. Deem and Ramdas Pophale) SiO2 
 PCOD9131770
Probable space group: C M
;
_chemical_formula_sum "Si O2"
_cell_formula_units_Z 28
_cell_length_a 5.580195
_cell_length_b 31.039715
_cell_length_c 7.414320
_cell_angle_alpha 90.000000
_cell_angle_beta 111.955501
_cell_angle_gamma 90.000000
_cell_volume 1191.078572
_symmetry_space_group_name_H-M "C M"
_symmetry_group_IT_number 8
_symmetry_cell_setting 'monoclinic'
loop_
_space_group_symop_operation_xyz
x,y,z
x,-y,z
1/2+x,1/2+y,z
1/2+x,1/2-y,z
loop_
_atom_site_type_symbol
_atom_site_label
_atom_site_fract_x
_atom_site_fract_y
_atom_site_fract_z
Si Si1 0.075840 0.774300 0.412230
Si Si2 0.798974 0.415542 0.569520
Si Si3 0.220336 0.353836 0.700418
Si Si4 0.276082 0.257093 0.844022
Si Si5 0.366090 0.365762 0.337205
Si Si6 0.823408 0.000000 0.180519
Si Si7 0.599860 0.088161 0.977279
Si Si8 0.941859 0.500000 0.414847
O O1 0.316736 0.754379 0.370176
O O2 0.187475 0.773573 0.651585
O O3 0.980993 0.820102 0.306560
O O4 0.537882 0.409375 0.386544
O O5 0.932263 0.369474 0.571123
O O6 0.828072 0.417924 0.794648
O O7 0.955459 0.455994 0.534925
O O8 0.240214 0.305869 0.771728
O O9 0.353586 0.358847 0.547762
O O10 0.277132 0.386656 0.879261
O O11 0.578950 0.250245 0.949728
O O12 0.113595 0.380554 0.154975
O O13 0.137857 0.000000 0.266781
O O14 0.671010 0.000000 0.332068
O O15 0.711667 0.041899 0.050215
#
# Coordination Sequence:
#
# PCOD9131770 Si02
#       8
#     4   4   4   4   4   2   4   2
#     4  10  20  36  67  97 136 195 234 291 355 414
#     4  10  24  43  69 102 138 185 231 300 353 435
#     4  10  23  40  68 100 141 186 237 290 358 415
#     4  10  18  35  63  94 134 190 229 284 350 405
#     4  12  21  44  72  98 146 191 240 295 368 422
#     4  12  25  52  73 108 144 190 237 300 363 440
#     4  10  26  45  69 111 139 182 245 301 351 445
#     4  12  25  46  81 100 140 200 229 286 393 424
#
# _framework density 23.508106000000002
#
# number of rings (size 3 to 8) (size 9 to 14) (size 15 to 20)
#    0.857    0.571    4.286    3.000    0.000    1.143 
#    2.571    3.571    0.000    0.000    0.000    0.000 
#    0.000    0.000    0.000    0.000    0.000    0.000 
#
# Total GULP energy -77940.306888 kJ/mol
# GULP energy per Si atom -5567.164778 kJ/mol
# Density = 2.345460 g / cm^3
# Si number density = 23.508106 Si / 1000 Ang^3
#
#
#
# Elastic Constant Matrix: (Units=GPa)
#
#
# Indices 1 2 3 4 5 6 
#
# 1 100.8383 15.4009 10.8116 0.0000 -0.8797 0.0000
# 2 15.4009 97.4081 25.4183 0.0000 -6.9255 0.0000
# 3 10.8116 25.4183 85.6845 0.0000 5.3909 0.0000
# 4 0.0000 0.0000 0.0000 16.8966 0.0000 -14.5041
# 5 -0.8797 -6.9255 5.3909 0.0000 9.7803 0.0000
# 6 0.0000 0.0000 0.0000 -14.5041 0.0000 18.0389
#
#
#
# Elastic Compliance Matrix: (Units=1/GPa)
#
#
# Indices 1 2 3 4 5 6 
#
# 1 0.010225 -0.001342 -0.000922 0.000000 0.000478 0.000000
# 2 -0.001342 0.012346 -0.004181 0.000000 0.010926 0.000000
# 3 -0.000922 -0.004181 0.013694 0.000000 -0.010591 0.000000
# 4 0.000000 0.000000 0.000000 0.191032 0.000000 0.153598
# 5 0.000478 0.010926 -0.010591 0.000000 0.115864 0.000000
# 6 0.000000 0.000000 0.000000 0.153598 0.000000 0.178935
#
#
# Mechanical properties :
#
#
# Convention : Reuss Voigt Hill
#
# Bulk Modulus (GPa) = 42.78055 43.02139 42.90097
# Shear Modulus (GPa) = 9.21189 24.42982 16.82086
#
# Velocity S-wave (km/s) = 1.98169 3.22717 2.67785
# Velocity P-wave (km/s) = 4.84498 5.67685 5.27733
#
# Compressibility (1/GPa) = 0.02337511
#
# Stress axis : x y z
#
# Youngs Moduli (GPa) = 97.80076 80.99808 73.02694
#
# Poissons Ratio (x) = 0.10870 0.06734
# Poissons Ratio (y) = 0.13125 0.30529
# Poissons Ratio (z) = 0.09018 0.33861
#
# Static dielectric constant tensor:
#      x y z
#    x 2.008630 0.000000 0.011710 
#    y 0.000000 1.872540 0.000000 
#    z 0.011710 0.000000 1.929340 
# 
# From -- ./inp_files/7131.got.cif
#   From: 2010.05.17/outbox.cif.g08.bks.cpg/sg8_4_cif.got.tgz:7131.got - 2010.06.03 19:46:02.
