data_PCOD9131565
_publ_section_title
;
Structure prediction by ZEFSAII (Michael W. Deem and Ramdas Pophale) SiO2 
 PCOD9131565
Probable space group: C M
;
_chemical_formula_sum "Si O2"
_cell_formula_units_Z 30
_cell_length_a 15.028280
_cell_length_b 18.163290
_cell_length_c 5.427742
_cell_angle_alpha 90.000000
_cell_angle_beta 115.869725
_cell_angle_gamma 90.000000
_cell_volume 1333.102090
_symmetry_space_group_name_H-M "C M"
_symmetry_group_IT_number 8
_symmetry_cell_setting 'monoclinic'
loop_
_space_group_symop_operation_xyz
x,y,z
x,-y,z
1/2+x,1/2+y,z
1/2+x,1/2-y,z
loop_
_atom_site_type_symbol
_atom_site_label
_atom_site_fract_x
_atom_site_fract_y
_atom_site_fract_z
Si Si1 0.121090 0.780694 0.671370
Si Si2 0.224636 0.500000 0.902488
Si Si3 0.058509 0.422489 0.971890
Si Si4 0.587328 0.761690 0.135992
Si Si5 0.767552 0.581580 0.807976
Si Si6 0.884602 0.614175 0.440721
Si Si7 0.286344 0.346497 0.849923
Si Si8 0.826292 0.220263 0.397965
O O1 0.059424 0.780338 0.347291
O O2 0.192495 0.851070 0.755165
O O3 0.187298 0.705483 0.739214
O O4 0.059715 0.775439 0.846110
O O5 0.266841 0.432506 0.787284
O O6 0.169208 0.437154 0.013213
O O7 0.028240 0.500000 0.061134
O O8 0.992762 0.414002 0.645881
O O9 0.051091 0.346070 0.103047
O O10 0.707632 0.760748 0.266722
O O11 0.721830 0.500000 0.756089
O O12 0.820722 0.591682 0.607067
O O13 0.842089 0.586117 0.131008
O O14 0.878869 0.701987 0.424711
O O15 0.344824 0.315654 0.684714
O O16 0.338675 0.330404 0.173820
#
# Coordination Sequence:
#
# PCOD9131565 Si02
#       8
#     4   2   4   4   4   4   4   4
#     4  10  17  35  53  72 100 142 190 241 262 316
#     4  10  20  36  54  86 120 148 184 230 296 342
#     4  10  21  36  51  86 127 154 177 223 294 367
#     4  10  18  34  55  71 103 148 187 229 265 325
#     4  12  22  35  55  79 112 150 193 234 281 333
#     4  12  22  38  53  79 120 160 183 222 285 353
#     4  10  18  34  55  75 102 145 188 240 265 320
#     4  10  17  35  56  70 102 151 196 231 257 321
#
# _framework density 22.503900999999999
#
# number of rings (size 3 to 8) (size 9 to 14) (size 15 to 20)
#    0.400    1.067    8.000    1.200    0.000    1.600 
#    4.800    1.333    0.000    0.000    0.000    0.000 
#   12.000    0.000    0.000    0.000    0.000    0.000 
#
# Total GULP energy -83520.456560 kJ/mol
# GULP energy per Si atom -5568.030437 kJ/mol
# Density = 2.245268 g / cm^3
# Si number density = 22.503901 Si / 1000 Ang^3
#
#
#
# Elastic Constant Matrix: (Units=GPa)
#
#
# Indices 1 2 3 4 5 6 
#
# 1 56.6874 22.8473 36.3128 0.0000 -10.0387 0.0000
# 2 22.8473 157.4109 25.8777 0.0000 -4.6967 0.0000
# 3 36.3128 25.8777 119.6444 0.0000 -40.3188 0.0000
# 4 0.0000 0.0000 0.0000 -21.9694 0.0000 -0.5903
# 5 -10.0387 -4.6967 -40.3188 0.0000 33.4954 0.0000
# 6 0.0000 0.0000 0.0000 -0.5903 0.0000 24.0067
#
#
#
# Elastic Compliance Matrix: (Units=1/GPa)
#
#
# Indices 1 2 3 4 5 6 
#
# 1 0.022716 -0.002189 -0.007117 0.000000 -0.002066 0.000000
# 2 -0.002189 0.006833 -0.001198 0.000000 -0.001139 0.000000
# 3 -0.007117 -0.001198 0.016828 0.000000 0.017955 0.000000
# 4 0.000000 0.000000 0.000000 -0.045488 0.000000 -0.001118
# 5 -0.002066 -0.001139 0.017955 0.000000 0.050688 0.000000
# 6 0.000000 0.000000 0.000000 -0.001118 0.000000 0.041627
#
#
# Mechanical properties :
#
#
# Convention : Reuss Voigt Hill
#
# Bulk Modulus (GPa) = 39.41657 55.97980 47.69819
# Shear Modulus (GPa) = 40.75998 23.68688 32.22343
#
# Velocity S-wave (km/s) = 4.26048 3.24785 3.78816
# Velocity P-wave (km/s) = 6.46187 6.24454 6.35414
#
# Compressibility (1/GPa) = 0.02537004
#
# Stress axis : x y z
#
# Youngs Moduli (GPa) = 44.02170 146.34061 59.42515
#
# Poissons Ratio (x) = 0.32030 0.42294
# Poissons Ratio (y) = 0.09635 0.07117
# Poissons Ratio (z) = 0.31331 0.17527
#
# Static dielectric constant tensor:
#      x y z
#    x 1.878940 0.000000 -0.016360 
#    y 0.000000 1.837910 0.000000 
#    z -0.016360 0.000000 1.961820 
# 
# From -- ./inp_files/5064.got.cif
#   From: 2010.05.17/outbox.cif.g08.bks.cpg/sg8_3_cif.got.tgz:5064.got - 2010.06.03 19:46:02.
