data_PCOD9131436
_publ_section_title
;
Structure prediction by ZEFSAII (Michael W. Deem and Ramdas Pophale) SiO2 
 PCOD9131436
Probable space group: P C
;
_chemical_formula_sum "Si O2"
_cell_formula_units_Z 16
_cell_length_a 7.142588
_cell_length_b 22.103242
_cell_length_c 5.000647
_cell_angle_alpha 90.000000
_cell_angle_beta 133.532073
_cell_angle_gamma 90.000000
_cell_volume 572.359839
_symmetry_space_group_name_H-M "P C"
_symmetry_group_IT_number 7
_symmetry_cell_setting 'monoclinic'
loop_
_space_group_symop_operation_xyz
x,y,z
x,-y,1/2+z
loop_
_atom_site_type_symbol
_atom_site_label
_atom_site_fract_x
_atom_site_fract_y
_atom_site_fract_z
Si Si1 0.369280 0.103892 0.833880
Si Si2 0.689678 0.381193 0.380742
Si Si3 0.971332 0.032298 0.707871
Si Si4 0.312303 0.540866 0.741471
Si Si5 0.626029 0.253799 0.461405
Si Si6 0.690169 0.868694 0.165703
Si Si7 0.128465 0.769652 0.116376
Si Si8 0.189078 0.358172 0.508388
O O1 0.512604 0.097320 0.698308
O O2 0.169355 0.159887 0.585857
O O3 0.250450 0.043703 0.846301
O O4 0.562873 0.127431 0.248845
O O5 0.612278 0.440013 0.477054
O O6 0.670769 0.323878 0.563268
O O7 0.946847 0.376989 0.457474
O O8 0.450046 0.372887 0.934306
O O9 0.946923 0.094209 0.855666
O O10 0.854030 0.014477 0.305448
O O11 0.246822 0.507561 0.403788
O O12 0.190878 0.602635 0.739580
O O13 0.686622 0.201882 0.737609
O O14 0.847924 0.240327 0.461703
O O15 0.344596 0.244277 0.056793
O O16 0.177404 0.714683 0.957499
#
# Coordination Sequence:
#
# PCOD9131436 Si02
#       8
#     2   2   2   2   2   2   2   2
#     4  11  24  43  68  99 136 181 231 292 356 418
#     4  10  23  45  72 105 142 186 240 297 361 424
#     4  12  26  44  68  98 140 182 236 286 346 428
#     4  12  26  48  74 104 148 194 242 292 356 434
#     4   9  19  41  70 104 141 181 233 299 362 424
#     4  11  24  43  68  99 136 181 231 292 356 418
#     4   9  19  41  70 104 141 181 233 299 362 424
#     4  10  23  45  72 105 142 186 240 297 361 424
#
# _framework density 27.954440000000002
#
# number of rings (size 3 to 8) (size 9 to 14) (size 15 to 20)
#    0.000    1.500    2.500    1.500    1.750    5.000 
#    0.000    0.000    0.000    0.000    0.000    0.000 
#    0.000    0.000    0.000    0.000    0.000    0.000 
#
# Total GULP energy -89434.729884 kJ/mol
# GULP energy per Si atom -5589.670618 kJ/mol
# Density = 2.789081 g / cm^3
# Si number density = 27.954440 Si / 1000 Ang^3
#
#
#
# Elastic Constant Matrix: (Units=GPa)
#
#
# Indices 1 2 3 4 5 6 
#
# 1 177.4759 52.6363 56.3235 0.0000 -13.4109 0.0000
# 2 52.6363 113.1811 28.7217 0.0000 -13.1491 0.0000
# 3 56.3235 28.7217 80.7936 0.0000 -7.9586 0.0000
# 4 0.0000 0.0000 0.0000 23.1586 0.0000 -1.6707
# 5 -13.4109 -13.1491 -7.9586 0.0000 34.1914 0.0000
# 6 0.0000 0.0000 0.0000 -1.6707 0.0000 66.4005
#
#
#
# Elastic Compliance Matrix: (Units=1/GPa)
#
#
# Indices 1 2 3 4 5 6 
#
# 1 0.007860 -0.002378 -0.004524 0.000000 0.001115 0.000000
# 2 -0.002378 0.010741 -0.001889 0.000000 0.002758 0.000000
# 3 -0.004524 -0.001889 0.016331 0.000000 0.001300 0.000000
# 4 0.000000 0.000000 0.000000 0.043259 0.000000 0.001088
# 5 0.001115 0.002758 0.001300 0.000000 0.031048 0.000000
# 6 0.000000 0.000000 0.000000 0.001088 0.000000 0.015088
#
#
# Mechanical properties :
#
#
# Convention : Reuss Voigt Hill
#
# Bulk Modulus (GPa) = 57.63781 71.86818 64.75300
# Shear Modulus (GPa) = 33.85436 40.33469 37.09452
#
# Velocity S-wave (km/s) = 3.48380 3.80264 3.64670
# Velocity P-wave (km/s) = 6.07007 6.71155 6.39885
#
# Compressibility (1/GPa) = 0.01734972
#
# Stress axis : x y z
#
# Youngs Moduli (GPa) = 127.22964 93.10113 61.23393
#
# Poissons Ratio (x) = 0.22136 0.27703
# Poissons Ratio (y) = 0.30250 0.11568
# Poissons Ratio (z) = 0.57561 0.17588
#
# Static dielectric constant tensor:
#      x y z
#    x 2.083510 0.000000 0.070870 
#    y 0.000000 2.495140 0.000000 
#    z 0.070870 0.000000 2.290450 
# 
# From -- ./inp_files/436.got.cif
#   From: 2010.05.17/outbox.cif.g08.bks.cpg/sg7_cif.got.tgz:436.got - 2010.06.03 19:44:50.
