data_PCOD9131300
_publ_section_title
;
Structure prediction by ZEFSAII (Michael W. Deem and Ramdas Pophale) SiO2 
 PCOD9131300
Probable space group: P C
;
_chemical_formula_sum "Si O2"
_cell_formula_units_Z 16
_cell_length_a 6.560379
_cell_length_b 17.511858
_cell_length_c 5.722955
_cell_angle_alpha 90.000000
_cell_angle_beta 80.042930
_cell_angle_gamma 90.000000
_cell_volume 647.575185
_symmetry_space_group_name_H-M "P C"
_symmetry_group_IT_number 7
_symmetry_cell_setting 'monoclinic'
loop_
_space_group_symop_operation_xyz
x,y,z
x,-y,1/2+z
loop_
_atom_site_type_symbol
_atom_site_label
_atom_site_fract_x
_atom_site_fract_y
_atom_site_fract_z
Si Si1 0.523850 0.854781 0.812680
Si Si2 0.127145 0.084868 0.610885
Si Si3 0.933189 0.512512 0.446886
Si Si4 0.254463 0.375662 0.395999
Si Si5 0.961693 0.088618 0.145754
Si Si6 0.254358 0.246656 0.036289
Si Si7 0.945720 0.683947 0.328205
Si Si8 0.557012 0.711027 0.101796
O O1 0.713667 0.903874 0.677391
O O2 0.366317 0.820444 0.651844
O O3 0.371327 0.903246 0.011871
O O4 0.616776 0.777546 0.910369
O O5 0.013079 0.118608 0.401038
O O6 0.053227 0.997192 0.638177
O O7 0.060059 0.116272 0.878185
O O8 0.825140 0.497930 0.716466
O O9 0.137690 0.457002 0.397558
O O10 0.979813 0.601530 0.436711
O O11 0.304886 0.326658 0.157795
O O12 0.083354 0.324128 0.565590
O O13 0.466079 0.366183 0.503167
O O14 0.014573 0.258097 0.016238
O O15 0.363690 0.250691 0.767373
O O16 0.722007 0.697038 0.269218
#
# Coordination Sequence:
#
# PCOD9131300 Si02
#       8
#     2   2   2   2   2   2   2   2
#     4  11  26  45  72 108 153 196 255 308 383 453
#     4  10  25  47  75 112 148 200 242 309 385 442
#     4  10  19  38  69  94 129 187 236 297 374 428
#     4   9  20  41  63  93 134 183 237 302 365 434
#     4  10  25  46  77 113 150 192 251 308 375 455
#     4  10  22  42  65  98 141 189 236 302 370 439
#     4  10  21  41  68  94 141 185 245 307 367 440
#     4  10  24  42  65 104 140 190 246 305 369 449
#
# _framework density 24.707557999999999
#
# number of rings (size 3 to 8) (size 9 to 14) (size 15 to 20)
#    0.000    2.000    1.250    0.000    3.500   10.000 
#    0.000    7.500    0.000    0.000    0.000    0.000 
#    0.000    0.000    0.000    0.000    0.000    0.000 
#
# Total GULP energy -89140.147014 kJ/mol
# GULP energy per Si atom -5571.259188 kJ/mol
# Density = 2.465132 g / cm^3
# Si number density = 24.707558 Si / 1000 Ang^3
#
#
#
# Elastic Constant Matrix: (Units=GPa)
#
#
# Indices 1 2 3 4 5 6 
#
# 1 114.5205 37.8186 15.9262 0.0000 -1.5972 0.0000
# 2 37.8186 108.0937 15.8630 0.0000 -6.5522 0.0000
# 3 15.9262 15.8630 119.3374 0.0000 -4.5575 0.0000
# 4 0.0000 0.0000 0.0000 27.1048 0.0000 2.2294
# 5 -1.5972 -6.5522 -4.5575 0.0000 46.5323 0.0000
# 6 0.0000 0.0000 0.0000 2.2294 0.0000 24.8601
#
#
#
# Elastic Compliance Matrix: (Units=1/GPa)
#
#
# Indices 1 2 3 4 5 6 
#
# 1 0.009965 -0.003369 -0.000890 0.000000 -0.000220 0.000000
# 2 -0.003369 0.010643 -0.000916 0.000000 0.001293 0.000000
# 3 -0.000890 -0.000916 0.008646 0.000000 0.000687 0.000000
# 4 0.000000 0.000000 0.000000 0.037168 0.000000 -0.003333
# 5 -0.000220 0.001293 0.000687 0.000000 0.021732 0.000000
# 6 0.000000 0.000000 0.000000 -0.003333 0.000000 0.040524
#
#
# Mechanical properties :
#
#
# Convention : Reuss Voigt Hill
#
# Bulk Modulus (GPa) = 52.89908 53.46302 53.18105
# Shear Modulus (GPa) = 34.40423 37.85570 36.12996
#
# Velocity S-wave (km/s) = 3.73561 3.91852 3.82816
# Velocity P-wave (km/s) = 6.32953 6.49294 6.41176
#
# Compressibility (1/GPa) = 0.01890392
#
# Stress axis : x y z
#
# Youngs Moduli (GPa) = 100.34639 93.96026 115.65497
#
# Poissons Ratio (x) = 0.31658 0.10299
# Poissons Ratio (y) = 0.33809 0.10590
# Poissons Ratio (z) = 0.08936 0.08604
#
# Static dielectric constant tensor:
#      x y z
#    x 2.054640 0.000000 0.001750 
#    y 0.000000 2.120370 0.000000 
#    z 0.001750 0.000000 2.105340 
# 
# From -- ./inp_files/391.got.cif
#   From: 2010.05.17/outbox.cif.g08.bks.cpg/sg7_cif.got.tgz:391.got - 2010.06.03 19:44:50.
