data_PCOD9131718
_publ_section_title
;
Structure prediction by ZEFSAII (Michael W. Deem and Ramdas Pophale) SiO2 
 PCOD9131718
Probable space group: C M
;
_chemical_formula_sum "Si O2"
_cell_formula_units_Z 32
_cell_length_a 13.079875
_cell_length_b 13.812647
_cell_length_c 9.086589
_cell_angle_alpha 90.000000
_cell_angle_beta 82.096197
_cell_angle_gamma 90.000000
_cell_volume 1626.057951
_symmetry_space_group_name_H-M "C M"
_symmetry_group_IT_number 8
_symmetry_cell_setting 'monoclinic'
loop_
_space_group_symop_operation_xyz
x,y,z
x,-y,z
1/2+x,1/2+y,z
1/2+x,1/2-y,z
loop_
_atom_site_type_symbol
_atom_site_label
_atom_site_fract_x
_atom_site_fract_y
_atom_site_fract_z
Si Si1 0.764160 0.231191 0.481860
Si Si2 0.209416 0.885859 0.723459
Si Si3 0.807715 0.883886 0.760675
Si Si4 0.101549 0.383605 0.965071
Si Si5 0.368335 0.720203 0.170653
Si Si6 0.373075 0.114375 0.942885
Si Si7 0.499617 0.384520 0.934248
Si Si8 0.668414 0.113077 0.259839
O O1 0.722088 0.324250 0.574072
O O2 0.807477 0.161396 0.599558
O O3 0.853321 0.249607 0.343116
O O4 0.674211 0.177480 0.405251
O O5 0.308238 0.869527 0.808702
O O6 0.108041 0.860118 0.838077
O O7 0.202564 0.000000 0.692036
O O8 0.703288 0.848162 0.861996
O O9 0.907369 0.860053 0.838727
O O10 0.803985 0.000000 0.749468
O O11 0.113232 0.500000 0.968803
O O12 0.995021 0.364587 0.903086
O O13 0.096012 0.355859 0.138796
O O14 0.283260 0.633939 0.171461
O O15 0.338022 0.812353 0.077362
O O16 0.472463 0.673853 0.087099
O O17 0.361711 0.000000 0.984651
O O18 0.498244 0.500000 0.961609
O O19 0.654016 0.000000 0.295996
#
# Coordination Sequence:
#
# PCOD9131718 Si02
#       8
#     4   4   4   4   4   4   4   4
#     4  10  22  36  56  90 123 160 188 239 313 363
#     4  10  23  42  61  86 123 164 209 250 292 356
#     4  10  18  33  58  89 119 148 194 247 309 359
#     4   9  18  35  62  87 115 155 198 251 293 350
#     4  10  21  35  60  88 116 159 197 249 298 361
#     4  10  22  40  60  85 117 163 213 244 284 353
#     4  10  20  37  63  88 117 158 201 258 302 351
#     4   9  18  36  59  91 122 147 191 248 310 359
#
# _framework density 19.679494999999999
#
# number of rings (size 3 to 8) (size 9 to 14) (size 15 to 20)
#    0.750    1.500    1.250    1.500    1.750    0.500 
#    2.250    0.000    0.000    9.000    0.000    0.000 
#    0.000    0.000    0.000    0.000    0.000    0.000 
#
# Total GULP energy -89206.463196 kJ/mol
# GULP energy per Si atom -5575.403950 kJ/mol
# Density = 1.963470 g / cm^3
# Si number density = 19.679495 Si / 1000 Ang^3
#
#
#
# Elastic Constant Matrix: (Units=GPa)
#
#
# Indices 1 2 3 4 5 6 
#
# 1 98.9718 39.1539 52.5804 0.0000 4.3019 0.0000
# 2 39.1539 100.8012 57.0388 0.0000 -5.2465 0.0000
# 3 52.5804 57.0388 135.1114 0.0000 -12.1466 0.0000
# 4 0.0000 0.0000 0.0000 42.6406 0.0000 0.8473
# 5 4.3019 -5.2465 -12.1466 0.0000 18.9599 0.0000
# 6 0.0000 0.0000 0.0000 0.8473 0.0000 22.2231
#
#
#
# Elastic Compliance Matrix: (Units=1/GPa)
#
#
# Indices 1 2 3 4 5 6 
#
# 1 0.014251 -0.003161 -0.004861 0.000000 -0.007222 0.000000
# 2 -0.003161 0.013735 -0.004417 0.000000 0.001688 0.000000
# 3 -0.004861 -0.004417 0.011828 0.000000 0.007458 0.000000
# 4 0.000000 0.000000 0.000000 0.023470 0.000000 -0.000895
# 5 -0.007222 0.001688 0.007458 0.000000 0.059627 0.000000
# 6 0.000000 0.000000 0.000000 -0.000895 0.000000 0.045032
#
#
# Mechanical properties :
#
#
# Convention : Reuss Voigt Hill
#
# Bulk Modulus (GPa) = 66.94532 70.27005 68.60769
# Shear Modulus (GPa) = 25.27833 29.17215 27.22524
#
# Velocity S-wave (km/s) = 3.58788 3.85432 3.72349
# Velocity P-wave (km/s) = 7.15930 7.45604 7.30917
#
# Compressibility (1/GPa) = 0.01493756
#
# Stress axis : x y z
#
# Youngs Moduli (GPa) = 70.17279 72.80507 84.54542
#
# Poissons Ratio (x) = 0.23012 0.41095
# Poissons Ratio (y) = 0.22180 0.37341
# Poissons Ratio (z) = 0.34109 0.32156
#
# Static dielectric constant tensor:
#      x y z
#    x 1.704850 0.000000 0.000290 
#    y 0.000000 1.729000 0.000000 
#    z 0.000290 0.000000 1.682210 
# 
# From -- ./inp_files/10740.got.cif
#   From: 2010.05.17/outbox.cif.g08.bks.cpg/sg8_6_cif.got.tgz:10740.got - 2010.06.03 19:46:02.
