data_PCOD9131342
_publ_section_title
;
Structure prediction by ZEFSAII (Michael W. Deem and Ramdas Pophale) SiO2 
 PCOD9131342
Probable space group: P C
;
_chemical_formula_sum "Si O2"
_cell_formula_units_Z 14
_cell_length_a 8.312339
_cell_length_b 15.410109
_cell_length_c 5.464693
_cell_angle_alpha 90.000000
_cell_angle_beta 62.607588
_cell_angle_gamma 90.000000
_cell_volume 621.508684
_symmetry_space_group_name_H-M "P C"
_symmetry_group_IT_number 7
_symmetry_cell_setting 'monoclinic'
loop_
_space_group_symop_operation_xyz
x,y,z
x,-y,1/2+z
loop_
_atom_site_type_symbol
_atom_site_label
_atom_site_fract_x
_atom_site_fract_y
_atom_site_fract_z
Si Si1 0.340310 0.298800 0.619230
Si Si2 0.385766 0.515983 0.202235
Si Si3 0.925439 0.151256 0.511503
Si Si4 0.542161 0.177653 0.801217
Si Si5 0.294714 0.051368 0.245453
Si Si6 0.595098 0.344125 0.048351
Si Si7 0.942074 0.260444 0.002443
O O1 0.434144 0.383322 0.675705
O O2 0.409917 0.207819 0.676918
O O3 0.405191 0.310370 0.297893
O O4 0.130182 0.308424 0.819068
O O5 0.281864 0.495084 0.521332
O O6 0.552149 0.446950 0.057803
O O7 0.717917 0.120538 0.618240
O O8 0.935997 0.191019 0.780494
O O9 0.086543 0.082615 0.379882
O O10 0.953369 0.216964 0.262181
O O11 0.426851 0.131281 0.090373
O O12 0.624881 0.271182 0.821695
O O13 0.327393 0.011413 0.489400
O O14 0.766293 0.322267 0.102212
#
# Coordination Sequence:
#
# PCOD9131342 Si02
#       7
#     2   2   2   2   2   2   2
#     4  11  21  39  67  96 133 178 223 273 318 395
#     4  10  21  37  60  92 135 174 215 273 323 364
#     4  11  24  44  67  99 128 172 215 276 323 403
#     4  11  23  42  74  94 131 176 226 258 339 400
#     4  12  28  45  69 100 136 167 214 283 337 396
#     4  10  22  41  64  99 133 180 220 278 321 393
#     4  11  23  38  69  96 128 175 227 263 329 383
#
# _framework density 22.525834
#
# number of rings (size 3 to 8) (size 9 to 14) (size 15 to 20)
#    0.000    1.143    4.286    1.714    2.000    1.143 
#    0.000    5.714    3.143    0.000    0.000    0.000 
#    0.000    0.000    0.000    0.000    0.000    0.000 
#
# Total GULP energy -77955.609675 kJ/mol
# GULP energy per Si atom -5568.257834 kJ/mol
# Density = 2.247456 g / cm^3
# Si number density = 22.525834 Si / 1000 Ang^3
#
#
#
# Elastic Constant Matrix: (Units=GPa)
#
#
# Indices 1 2 3 4 5 6 
#
# 1 42.5616 18.6771 13.5731 0.0000 -10.6437 0.0000
# 2 18.6771 82.8103 14.4921 0.0000 0.7112 0.0000
# 3 13.5731 14.4921 104.1676 0.0000 2.0359 0.0000
# 4 0.0000 0.0000 0.0000 43.6987 0.0000 5.4480
# 5 -10.6437 0.7112 2.0359 0.0000 40.3330 0.0000
# 6 0.0000 0.0000 0.0000 5.4480 0.0000 29.8724
#
#
#
# Elastic Compliance Matrix: (Units=1/GPa)
#
#
# Indices 1 2 3 4 5 6 
#
# 1 0.029153 -0.006100 -0.003105 0.000000 0.007958 0.000000
# 2 -0.006100 0.013654 -0.001070 0.000000 -0.001797 0.000000
# 3 -0.003105 -0.001070 0.010179 0.000000 -0.001314 0.000000
# 4 0.000000 0.000000 0.000000 0.023416 0.000000 -0.004271
# 5 0.007958 -0.001797 -0.001314 0.000000 0.026992 0.000000
# 6 0.000000 0.000000 0.000000 -0.004271 0.000000 0.034255
#
#
# Mechanical properties :
#
#
# Convention : Reuss Voigt Hill
#
# Bulk Modulus (GPa) = 30.83036 35.89160 33.36098
# Shear Modulus (GPa) = 29.58396 34.96728 32.27562
#
# Velocity S-wave (km/s) = 3.62793 3.94422 3.78938
# Velocity P-wave (km/s) = 5.59156 6.05893 5.82993
#
# Compressibility (1/GPa) = 0.03243556
#
# Stress axis : x y z
#
# Youngs Moduli (GPa) = 34.30235 73.23751 98.24086
#
# Poissons Ratio (x) = 0.44675 0.30509
# Poissons Ratio (y) = 0.20924 0.10509
# Poissons Ratio (z) = 0.10653 0.07834
#
# Static dielectric constant tensor:
#      x y z
#    x 1.922040 0.000000 0.097590 
#    y 0.000000 1.927900 0.000000 
#    z 0.097590 0.000000 1.928260 
# 
# From -- ./inp_files/730.got.cif
#   From: 2010.05.17/outbox.cif.g08.bks.cpg/sg7_cif.got.tgz:730.got - 2010.06.03 19:44:50.
