data_PCOD9131955
_publ_section_title
;
Structure prediction by ZEFSAII (Michael W. Deem and Ramdas Pophale) SiO2 
 PCOD9131955
Probable space group: C M
;
_chemical_formula_sum "Si O2"
_cell_formula_units_Z 28
_cell_length_a 11.948270
_cell_length_b 19.768970
_cell_length_c 17.806712
_cell_angle_alpha 90.000000
_cell_angle_beta 19.042977
_cell_angle_gamma 90.000000
_cell_volume 1372.333444
_symmetry_space_group_name_H-M "C M"
_symmetry_group_IT_number 8
_symmetry_cell_setting 'monoclinic'
loop_
_space_group_symop_operation_xyz
x,y,z
x,-y,z
1/2+x,1/2+y,z
1/2+x,1/2-y,z
loop_
_atom_site_type_symbol
_atom_site_label
_atom_site_fract_x
_atom_site_fract_y
_atom_site_fract_z
Si Si1 0.767130 0.683821 0.276340
Si Si2 0.210813 0.651471 0.850190
Si Si3 0.730960 0.777770 0.510101
Si Si4 0.593657 0.922049 0.177537
Si Si5 0.248323 0.229389 0.052129
Si Si6 0.755149 0.352903 0.703952
Si Si7 0.844001 0.422721 0.494606
O O1 0.384833 0.695931 0.490551
O O2 0.839368 0.630772 0.297269
O O3 0.940445 0.755594 0.189699
O O4 0.980349 0.654365 0.070877
O O5 0.462299 0.717169 0.690065
O O6 0.467608 0.589400 0.696546
O O7 0.957946 0.661651 0.939401
O O8 0.552932 0.837123 0.574524
O O9 0.056742 0.754112 0.253047
O O10 0.592807 0.909142 0.267135
O O11 0.492689 0.000000 0.228874
O O12 0.975653 0.908632 0.905153
O O13 0.526860 0.284733 0.850780
O O14 0.879303 0.373783 0.543067
O O15 0.881903 0.500000 0.495073
#
# Coordination Sequence:
#
# PCOD9131955 Si02
#       7
#     4   4   4   4   4   4   4
#     4  10  20  35  56  86 118 158 191 246 301 351
#     4  10  19  33  56  85 115 152 195 237 295 357
#     4  10  22  35  58  91 121 155 197 247 304 360
#     4  10  21  38  61  86 115 156 208 248 292 357
#     4   9  19  35  54  86 119 148 191 237 300 351
#     4  10  20  39  59  85 118 161 196 242 302 354
#     4  11  22  37  64  89 115 160 208 247 290 358
#
# _framework density 20.403205
#
# number of rings (size 3 to 8) (size 9 to 14) (size 15 to 20)
#    0.000    2.000    2.857    2.143    2.000    1.143 
#    0.000    1.429    0.000    1.714    0.000    0.000 
#    0.000    0.000    0.000    0.000    0.000    0.000 
#
# Total GULP energy -78046.873362 kJ/mol
# GULP energy per Si atom -5574.776669 kJ/mol
# Density = 2.035677 g / cm^3
# Si number density = 20.403205 Si / 1000 Ang^3
#
#
#
# Elastic Constant Matrix: (Units=GPa)
#
#
# Indices 1 2 3 4 5 6 
#
# 1 120.3307 39.2876 33.6752 -0.1058 -17.5481 -0.2430
# 2 39.2876 59.1617 21.2464 -0.2969 -5.4143 -0.1090
# 3 33.6752 21.2464 49.9369 -0.4859 2.8943 -0.4527
# 4 -0.1058 -0.2969 -0.4859 22.7532 0.1549 4.0291
# 5 -17.5481 -5.4143 2.8943 0.1549 42.5085 0.2453
# 6 -0.2430 -0.1090 -0.4527 4.0291 0.2453 25.9016
#
#
#
# Elastic Compliance Matrix: (Units=1/GPa)
#
#
# Indices 1 2 3 4 5 6 
#
# 1 0.012680 -0.005658 -0.006433 -0.000180 0.004953 -0.000036
# 2 -0.005658 0.022900 -0.005984 0.000155 0.000989 -0.000095
# 3 -0.006433 -0.005984 0.027223 0.000443 -0.005275 0.000371
# 4 -0.000180 0.000155 0.000443 0.045206 -0.000209 -0.007023
# 5 0.004953 0.000989 -0.005275 -0.000209 0.026057 -0.000256
# 6 -0.000036 -0.000095 0.000371 -0.007023 -0.000256 0.039708
#
#
# Mechanical properties :
#
#
# Convention : Reuss Voigt Hill
#
# Bulk Modulus (GPa) = 37.51940 46.42754 41.97347
# Shear Modulus (GPa) = 22.85105 27.24732 25.04918
#
# Velocity S-wave (km/s) = 3.35023 3.65834 3.50767
# Velocity P-wave (km/s) = 5.77878 6.37566 6.08454
#
# Compressibility (1/GPa) = 0.02665287
#
# Stress axis : x y z
#
# Youngs Moduli (GPa) = 78.86437 43.66738 36.73392
#
# Poissons Ratio (x) = 0.24707 0.23630
# Poissons Ratio (y) = 0.44622 0.21983
# Poissons Ratio (z) = 0.50731 0.26133
#
# Static dielectric constant tensor:
#      x y z
#    x 1.784800 0.000270 -0.003820 
#    y 0.000270 1.720430 0.000280 
#    z -0.003820 0.000280 1.777370 
# 
# From -- ./inp_files/28959.got.cif
#   From: 2010.05.17/outbox.cif.g08.bks.cpg/sg8_15_cif.got.tgz:28959.got - 2010.06.03 19:46:02.
