data_PCOD9131602
_publ_section_title
;
Structure prediction by ZEFSAII (Michael W. Deem and Ramdas Pophale) SiO2 
 PCOD9131602
Probable space group: C M
;
_chemical_formula_sum "Si O2"
_cell_formula_units_Z 32
_cell_length_a 24.864173
_cell_length_b 7.987066
_cell_length_c 14.564900
_cell_angle_alpha 90.000000
_cell_angle_beta 29.922316
_cell_angle_gamma 90.000000
_cell_volume 1442.837140
_symmetry_space_group_name_H-M "C M"
_symmetry_group_IT_number 8
_symmetry_cell_setting 'monoclinic'
loop_
_space_group_symop_operation_xyz
x,y,z
x,-y,z
1/2+x,1/2+y,z
1/2+x,1/2-y,z
loop_
_atom_site_type_symbol
_atom_site_label
_atom_site_fract_x
_atom_site_fract_y
_atom_site_fract_z
Si Si1 0.893240 0.803553 0.259710
Si Si2 0.798303 0.805238 0.847998
Si Si3 0.863143 0.695825 0.097990
Si Si4 0.626277 0.702699 0.972761
Si Si5 0.480732 0.192954 0.441498
Si Si6 0.438118 0.797781 0.799225
Si Si7 0.629228 0.204122 0.377565
Si Si8 0.810157 0.699534 0.560914
O O1 0.874585 0.775897 0.180363
O O2 0.805735 0.733008 0.459892
O O3 0.895247 0.000000 0.273309
O O4 0.009056 0.732103 0.119519
O O5 0.678756 0.760825 0.990938
O O6 0.881489 0.698496 0.662385
O O7 0.833664 0.769488 0.899278
O O8 0.817434 0.000000 0.800280
O O9 0.884704 0.500000 0.078404
O O10 0.743099 0.722798 0.237088
O O11 0.938539 0.760996 0.903687
O O12 0.624523 0.500000 0.975557
O O13 0.710084 0.760286 0.769488
O O14 0.579434 0.265178 0.354139
O O15 0.421709 0.270491 0.440351
O O16 0.508925 0.000000 0.379723
O O17 0.541855 0.750786 0.585507
O O18 0.431575 0.000000 0.809194
O O19 0.635785 0.000000 0.364775
O O20 0.814728 0.500000 0.567462
#
# Coordination Sequence:
#
# PCOD9131602 Si02
#       8
#     4   4   4   4   4   4   4   4
#     4  11  24  40  57  79 108 144 188 233 274 322
#     4  10  18  29  54  89 116 140 178 225 269 321
#     4  11  24  40  57  79 108 144 188 233 274 322
#     4   9  20  39  59  80 112 150 181 218 274 331
#     4   8  16  33  56  81 114 150 178 213 269 331
#     4   9  20  39  59  80 112 150 181 218 274 331
#     4   9  18  36  60  84 112 145 179 219 272 328
#     4   9  18  36  60  84 112 145 179 219 272 328
#
# _framework density 22.178526999999999
#
# number of rings (size 3 to 8) (size 9 to 14) (size 15 to 20)
#    0.000    2.500    0.000    3.375    0.000    8.000 
#    0.000    5.000    0.000    0.000    0.000    0.000 
#    0.000    0.000    0.000    0.000    0.000    0.000 
#
# Total GULP energy -89321.277641 kJ/mol
# GULP energy per Si atom -5582.579853 kJ/mol
# Density = 2.212805 g / cm^3
# Si number density = 22.178527 Si / 1000 Ang^3
#
#
#
# Elastic Constant Matrix: (Units=GPa)
#
#
# Indices 1 2 3 4 5 6 
#
# 1 72.3385 -4.0504 13.7456 0.0004 26.2732 -0.0006
# 2 -4.0504 27.8928 3.2536 -0.0008 3.9266 0.0011
# 3 13.7456 3.2536 47.4584 -0.0001 13.0104 0.0003
# 4 0.0004 -0.0008 -0.0001 10.5694 0.0001 -7.3968
# 5 26.2732 3.9266 13.0104 0.0001 36.1395 -0.0001
# 6 -0.0006 0.0011 0.0003 -7.3968 -0.0001 9.3031
#
#
#
# Elastic Compliance Matrix: (Units=1/GPa)
#
#
# Indices 1 2 3 4 5 6 
#
# 1 0.019618 0.005078 -0.002185 0.000000 -0.014027 0.000000
# 2 0.005078 0.037828 -0.002136 -0.000001 -0.007033 -0.000005
# 3 -0.002185 -0.002136 0.023689 -0.000001 -0.006708 -0.000001
# 4 0.000000 -0.000001 -0.000001 0.213297 0.000000 0.169591
# 5 -0.014027 -0.007033 -0.006708 0.000000 0.041047 0.000001
# 6 0.000000 -0.000005 -0.000001 0.169591 0.000001 0.242332
#
#
# Mechanical properties :
#
#
# Convention : Reuss Voigt Hill
#
# Bulk Modulus (GPa) = 12.09917 19.28750 15.69334
# Shear Modulus (GPa) = 8.28023 20.18514 14.23269
#
# Velocity S-wave (km/s) = 1.93431 3.02009 2.53599
# Velocity P-wave (km/s) = 3.23356 4.56910 3.95807
#
# Compressibility (1/GPa) = 0.08265027
#
# Stress axis : x y z
#
# Youngs Moduli (GPa) = 50.97329 26.43533 42.21332
#
# Poissons Ratio (x) = -0.13425 0.09222
# Poissons Ratio (y) = -0.25886 0.09018
# Poissons Ratio (z) = 0.11136 0.05647
#
# Static dielectric constant tensor:
#      x y z
#    x 1.825090 0.000000 0.009460 
#    y 0.000000 1.778660 0.000000 
#    z 0.009460 0.000000 1.856490 
# 
# From -- ./inp_files/28112.got.cif
#   From: 2010.05.17/outbox.cif.g08.bks.cpg/sg8_15_cif.got.tgz:28112.got - 2010.06.03 19:46:02.
