data_PCOD9131817
_publ_section_title
;
Structure prediction by ZEFSAII (Michael W. Deem and Ramdas Pophale) SiO2 
 PCOD9131817
Probable space group: C M
;
_chemical_formula_sum "Si O2"
_cell_formula_units_Z 32
_cell_length_a 21.995087
_cell_length_b 9.579259
_cell_length_c 24.740095
_cell_angle_alpha 90.000000
_cell_angle_beta 16.596262
_cell_angle_gamma 90.000000
_cell_volume 1488.868925
_symmetry_space_group_name_H-M "C M"
_symmetry_group_IT_number 8
_symmetry_cell_setting 'monoclinic'
loop_
_space_group_symop_operation_xyz
x,y,z
x,-y,z
1/2+x,1/2+y,z
1/2+x,1/2-y,z
loop_
_atom_site_type_symbol
_atom_site_label
_atom_site_fract_x
_atom_site_fract_y
_atom_site_fract_z
Si Si1 0.036370 0.658944 0.402480
Si Si2 0.886318 0.834158 0.937980
Si Si3 0.154686 0.335590 0.033696
Si Si4 0.266715 0.335023 0.557001
Si Si5 0.396317 0.345315 0.672354
Si Si6 0.523039 0.164386 0.661825
Si Si7 0.785158 0.345792 0.263192
Si Si8 0.125622 0.841959 0.835149
O O1 0.072172 0.500000 0.355213
O O2 0.240142 0.724692 0.258706
O O3 0.964442 0.756105 0.414435
O O4 0.831518 0.656771 0.618455
O O5 0.674359 0.814084 0.082060
O O6 0.062704 0.737739 0.758938
O O7 0.922820 0.805797 0.970349
O O8 0.941379 0.000000 0.886017
O O9 0.210895 0.500000 0.978311
O O10 0.325488 0.232159 0.862063
O O11 0.945205 0.314210 0.176174
O O12 0.271909 0.500000 0.564491
O O13 0.226017 0.317241 0.527859
O O14 0.352346 0.500000 0.731673
O O15 0.519922 0.250015 0.609645
O O16 0.555065 0.359938 0.487192
O O17 0.188292 0.266441 0.828142
O O18 0.493360 0.000000 0.677962
O O19 0.839762 0.500000 0.194124
O O20 0.106391 0.000000 0.872419
#
# Coordination Sequence:
#
# PCOD9131817 Si02
#       8
#     4   4   4   4   4   4   4   4
#     4   9  16  26  43  66  91 119 152 190 230 271
#     4   8  14  25  43  66  90 117 149 186 230 274
#     4   9  17  31  50  71  96 124 153 188 231 278
#     4   9  16  26  42  64  89 116 149 191 234 272
#     4  10  19  30  46  68  93 123 157 191 230 276
#     4  10  20  32  47  69  95 123 156 193 233 276
#     4   9  18  31  48  71  97 124 154 189 230 276
#     4   8  14  25  41  63  89 116 148 188 230 269
#
# _framework density 21.492825
#
# number of rings (size 3 to 8) (size 9 to 14) (size 15 to 20)
#    0.000    3.000    0.000    2.250    0.000    5.500 
#    0.000    0.000    0.000    1.500    0.000    5.250 
#    0.000    0.000    0.000    0.000    0.000    0.000 
#
# Total GULP energy -89131.021188 kJ/mol
# GULP energy per Si atom -5570.688824 kJ/mol
# Density = 2.144391 g / cm^3
# Si number density = 21.492825 Si / 1000 Ang^3
#
#
#
# Elastic Constant Matrix: (Units=GPa)
#
#
# Indices 1 2 3 4 5 6 
#
# 1 87.7508 83.5738 15.3851 -0.0107 -48.8098 0.0017
# 2 83.5738 143.4056 32.5037 -0.0026 -34.4979 0.0231
# 3 15.3851 32.5037 57.0422 0.0313 -18.7267 0.0668
# 4 -0.0107 -0.0026 0.0313 7.2535 0.0085 0.8914
# 5 -48.8098 -34.4979 -18.7267 0.0085 43.5002 0.0034
# 6 0.0017 0.0231 0.0668 0.8914 0.0034 18.0522
#
#
#
# Elastic Compliance Matrix: (Units=1/GPa)
#
#
# Indices 1 2 3 4 5 6 
#
# 1 0.081375 -0.034790 0.021888 -0.000066 0.073140 -0.000055
# 2 -0.034790 0.023991 -0.012643 0.000039 -0.025453 0.000022
# 3 0.021888 -0.012643 0.027488 -0.000111 0.026366 -0.000087
# 4 -0.000066 0.000039 -0.000111 0.138707 -0.000118 -0.006849
# 5 0.073140 -0.025453 0.026366 -0.000118 0.096220 -0.000084
# 6 -0.000055 0.000022 -0.000087 -0.006849 -0.000084 0.055733
#
#
# Mechanical properties :
#
#
# Convention : Reuss Voigt Hill
#
# Bulk Modulus (GPa) = 12.23060 61.23597 36.73328
# Shear Modulus (GPa) = 9.96296 24.21026 17.08661
#
# Velocity S-wave (km/s) = 2.15535 3.35988 2.82262
# Velocity P-wave (km/s) = 3.44920 6.60340 5.26792
#
# Compressibility (1/GPa) = 0.08176214
#
# Stress axis : x y z
#
# Youngs Moduli (GPa) = 12.28879 41.68299 36.37980
#
# Poissons Ratio (x) = 1.45015 -0.79626
# Poissons Ratio (y) = 0.42753 0.45996
# Poissons Ratio (z) = -0.26897 0.52701
#
# Static dielectric constant tensor:
#      x y z
#    x 1.846530 0.000000 0.009930 
#    y 0.000000 1.756690 -0.000010 
#    z 0.009930 -0.000010 1.818220 
# 
# From -- ./inp_files/23735.got.cif
#   From: 2010.05.17/outbox.cif.g08.bks.cpg/sg8_12_cif.got.tgz:23735.got - 2010.06.03 19:46:02.
