data_PCOD9131881
_publ_section_title
;
Structure prediction by ZEFSAII (Michael W. Deem and Ramdas Pophale) SiO2 
 PCOD9131881
Probable space group: C M
;
_chemical_formula_sum "Si O2"
_cell_formula_units_Z 32
_cell_length_a 21.200331
_cell_length_b 8.381048
_cell_length_c 12.631062
_cell_angle_alpha 90.000000
_cell_angle_beta 128.136976
_cell_angle_gamma 90.000000
_cell_volume 1765.223912
_symmetry_space_group_name_H-M "C M"
_symmetry_group_IT_number 8
_symmetry_cell_setting 'monoclinic'
loop_
_space_group_symop_operation_xyz
x,y,z
x,-y,z
1/2+x,1/2+y,z
1/2+x,1/2-y,z
loop_
_atom_site_type_symbol
_atom_site_label
_atom_site_fract_x
_atom_site_fract_y
_atom_site_fract_z
Si Si1 0.471430 0.806509 0.820380
Si Si2 0.211614 0.810971 0.818860
Si Si3 0.892900 0.694788 0.958731
Si Si4 0.809205 0.310244 0.260355
Si Si5 0.155822 0.310536 0.988547
Si Si6 0.425676 0.312545 0.548572
Si Si7 0.565178 0.810615 0.542190
Si Si8 0.448574 0.193979 0.242006
O O1 0.431359 0.753101 0.888439
O O2 0.564514 0.755678 0.910593
O O3 0.426772 0.741390 0.670777
O O4 0.469582 0.000000 0.814299
O O5 0.300274 0.757392 0.877015
O O6 0.182871 0.729235 0.897240
O O7 0.145871 0.774844 0.661521
O O8 0.215194 0.000000 0.843590
O O9 0.894423 0.500000 0.959911
O O10 0.940482 0.748198 0.113137
O O11 0.817011 0.500000 0.280608
O O12 0.844514 0.228882 0.401625
O O13 0.869067 0.260688 0.226235
O O14 0.719888 0.266391 0.134182
O O15 0.157977 0.500000 0.005893
O O16 0.441927 0.500000 0.557980
O O17 0.497161 0.221903 0.560546
O O18 0.524844 0.754582 0.390455
O O19 0.579382 0.000000 0.551849
O O20 0.450093 0.000000 0.242882
#
# Coordination Sequence:
#
# PCOD9131881 Si02
#       8
#     4   4   4   4   4   4   4   4
#     4  10  21  37  57  79 112 153 188 223 274 334
#     4  11  20  33  56  82 109 143 187 234 278 322
#     4   9  18  35  57  80 106 146 190 224 271 335
#     4  10  19  34  57  82 110 141 182 230 282 331
#     4  11  21  33  53  83 114 144 186 231 276 327
#     4  11  21  34  54  81 113 145 186 230 277 328
#     4  10  19  32  53  81 112 143 181 227 280 332
#     4   8  15  30  53  78 102 135 178 221 266 323
#
# _framework density 18.128012999999999
#
# number of rings (size 3 to 8) (size 9 to 14) (size 15 to 20)
#    0.000    2.000    2.500    3.375    0.000    0.500 
#    0.000    2.500    0.000    1.500    0.000    0.000 
#    0.000    0.000    0.000    0.000    0.000    0.000 
#
# Total GULP energy -89303.732780 kJ/mol
# GULP energy per Si atom -5581.483299 kJ/mol
# Density = 1.808675 g / cm^3
# Si number density = 18.128013 Si / 1000 Ang^3
#
#
#
# Elastic Constant Matrix: (Units=GPa)
#
#
# Indices 1 2 3 4 5 6 
#
# 1 97.3758 0.5283 61.5408 0.0000 -10.9797 0.0000
# 2 0.5283 14.6930 -2.9420 0.0000 -1.1317 0.0000
# 3 61.5408 -2.9420 150.9215 0.0000 -12.0545 0.0000
# 4 0.0000 0.0000 0.0000 28.0791 0.0000 4.7728
# 5 -10.9797 -1.1317 -12.0545 0.0000 26.1781 0.0000
# 6 0.0000 0.0000 0.0000 4.7728 0.0000 13.7120
#
#
#
# Elastic Compliance Matrix: (Units=1/GPa)
#
#
# Indices 1 2 3 4 5 6 
#
# 1 0.014147 -0.001359 -0.005529 0.000000 0.003329 0.000000
# 2 -0.001359 0.068804 0.002167 0.000000 0.003402 0.000000
# 3 -0.005529 0.002167 0.009079 0.000000 0.001955 0.000000
# 4 0.000000 0.000000 0.000000 0.037853 0.000000 -0.013176
# 5 0.003329 0.003402 0.001955 0.000000 0.040643 0.000000
# 6 0.000000 0.000000 0.000000 -0.013176 0.000000 0.077515
#
#
# Mechanical properties :
#
#
# Convention : Reuss Voigt Hill
#
# Bulk Modulus (GPa) = 12.10838 42.36051 27.23444
# Shear Modulus (GPa) = 17.54303 27.18471 22.36387
#
# Velocity S-wave (km/s) = 3.11421 3.87666 3.51617
# Velocity P-wave (km/s) = 4.43001 6.59213 5.61610
#
# Compressibility (1/GPa) = 0.08258744
#
# Stress axis : x y z
#
# Youngs Moduli (GPa) = 70.68849 14.53396 110.14437
#
# Poissons Ratio (x) = 0.01976 0.60900
# Poissons Ratio (y) = 0.09610 -0.23872
# Poissons Ratio (z) = 0.39085 -0.03150
#
# Static dielectric constant tensor:
#      x y z
#    x 1.597660 0.000000 0.002980 
#    y 0.000000 1.619220 0.000000 
#    z 0.002980 0.000000 1.630700 
# 
# From -- ./inp_files/23745.got.cif
#   From: 2010.05.17/outbox.cif.g08.bks.cpg/sg8_12_cif.got.tgz:23745.got - 2010.06.03 19:46:02.
