data_PCOD9131683
_publ_section_title
;
Structure prediction by ZEFSAII (Michael W. Deem and Ramdas Pophale) SiO2 
 PCOD9131683
Probable space group: C M
;
_chemical_formula_sum "Si O2"
_cell_formula_units_Z 32
_cell_length_a 21.232637
_cell_length_b 8.479310
_cell_length_c 26.110005
_cell_angle_alpha 90.000000
_cell_angle_beta 157.503412
_cell_angle_gamma 90.000000
_cell_volume 1798.658113
_symmetry_space_group_name_H-M "C M"
_symmetry_group_IT_number 8
_symmetry_cell_setting 'monoclinic'
loop_
_space_group_symop_operation_xyz
x,y,z
x,-y,z
1/2+x,1/2+y,z
1/2+x,1/2-y,z
loop_
_atom_site_type_symbol
_atom_site_label
_atom_site_fract_x
_atom_site_fract_y
_atom_site_fract_z
Si Si1 0.413980 0.307386 0.581700
Si Si2 0.940469 0.691438 0.875760
Si Si3 0.785542 0.309567 0.868961
Si Si4 0.680832 0.309200 0.599490
Si Si5 0.613369 0.686789 0.158310
Si Si6 0.272648 0.311194 0.173291
Si Si7 0.634333 0.188473 0.449997
Si Si8 0.359361 0.690648 0.423510
O O1 0.414677 0.500000 0.581997
O O2 0.597928 0.258822 0.736220
O O3 0.272966 0.253862 0.514564
O O4 0.378977 0.258135 0.496984
O O5 0.943111 0.500000 0.876026
O O6 0.839023 0.732709 0.850965
O O7 0.841494 0.745552 0.751684
O O8 0.127556 0.744014 0.025992
O O9 0.794510 0.500000 0.879358
O O10 0.924059 0.238219 0.009711
O O11 0.681559 0.500000 0.598629
O O12 0.670195 0.247738 0.534156
O O13 0.519566 0.261521 0.510828
O O14 0.627170 0.500000 0.164069
O O15 0.711290 0.764085 0.184056
O O16 0.699740 0.744105 0.274922
O O17 0.281600 0.500000 0.178182
O O18 0.451567 0.242619 0.297600
O O19 0.638103 0.000000 0.453023
O O20 0.353250 0.500000 0.418264
#
# Coordination Sequence:
#
# PCOD9131683 Si02
#       8
#     4   4   4   4   4   4   4   4
#     4   9  19  36  58  80 105 143 185 222 260 314
#     4   8  15  29  54  81  98 123 176 233 259 293
#     4   9  16  33  57  78 101 136 181 220 261 318
#     4  10  18  32  56  81 103 134 183 227 262 313
#     4  11  21  32  50  82 115 137 168 223 279 314
#     4  10  19  34  55  77 104 144 186 217 259 319
#     4  11  22  35  52  80 116 144 173 220 274 316
#     4  10  18  33  58  81 102 139 188 222 256 313
#
# _framework density 17.791041
#
# number of rings (size 3 to 8) (size 9 to 14) (size 15 to 20)
#    0.000    2.250    2.500    2.625    0.000    0.000 
#    0.000    7.500    0.000    4.500    0.000    0.000 
#    0.000    0.000    0.000    0.000    0.000    0.000 
#
# Total GULP energy -89259.072667 kJ/mol
# GULP energy per Si atom -5578.692042 kJ/mol
# Density = 1.775055 g / cm^3
# Si number density = 17.791041 Si / 1000 Ang^3
#
#
#
# Elastic Constant Matrix: (Units=GPa)
#
#
# Indices 1 2 3 4 5 6 
#
# 1 113.6681 20.9617 89.0646 -0.0004 5.2927 -0.0001
# 2 20.9617 19.1940 23.1246 0.0002 -2.1725 -0.0003
# 3 89.0646 23.1246 191.0156 0.0000 -0.2657 -0.0003
# 4 -0.0004 0.0002 0.0000 3.9015 0.0003 12.4862
# 5 5.2927 -2.1725 -0.2657 0.0003 26.0680 -0.0001
# 6 -0.0001 -0.0003 -0.0003 12.4862 -0.0001 10.4844
#
#
#
# Elastic Compliance Matrix: (Units=1/GPa)
#
#
# Indices 1 2 3 4 5 6 
#
# 1 0.015612 -0.010226 -0.006047 -0.000001 -0.004084 0.000001
# 2 -0.010226 0.068356 -0.003496 0.000004 0.007737 -0.000003
# 3 -0.006047 -0.003496 0.008479 0.000000 0.001023 0.000000
# 4 -0.000001 0.000004 0.000000 -0.091168 0.000002 0.108575
# 5 -0.004084 0.007737 0.001023 0.000002 0.039846 -0.000002
# 6 0.000001 -0.000003 0.000000 0.108575 -0.000002 -0.033926
#
#
# Mechanical properties :
#
#
# Convention : Reuss Voigt Hill
#
# Bulk Modulus (GPa) = 18.90086 65.57551 42.23818
# Shear Modulus (GPa) = 77.67176 20.80591 49.23883
#
# Velocity S-wave (km/s) = 6.61457 3.42345 5.26652
# Velocity P-wave (km/s) = 8.30564 7.25020 7.79580
#
# Compressibility (1/GPa) = 0.05290764
#
# Stress axis : x y z
#
# Youngs Moduli (GPa) = 64.05518 14.62936 117.93426
#
# Poissons Ratio (x) = 0.14961 0.71313
# Poissons Ratio (y) = 0.65505 0.41232
# Poissons Ratio (z) = 0.38733 0.05115
#
# Static dielectric constant tensor:
#      x y z
#    x 1.579750 0.000000 -0.001930 
#    y 0.000000 1.608480 0.000000 
#    z -0.001930 0.000000 1.625240 
# 
# From -- ./inp_files/31356.got.cif
#   From: 2010.05.17/outbox.cif.g08.bks.cpg/sg8_16_cif.got.tgz:31356.got - 2010.06.03 19:46:02.
