data_PCOD9131007
_publ_section_title
;
Structure prediction by ZEFSAII (Michael W. Deem and Ramdas Pophale) SiO2 
 PCOD9131007
Probable space group: P M
;
_chemical_formula_sum "Si O2"
_cell_formula_units_Z 13
_cell_length_a 11.446788
_cell_length_b 11.223684
_cell_length_c 12.374164
_cell_angle_alpha 90.000000
_cell_angle_beta 155.688487
_cell_angle_gamma 90.000000
_cell_volume 654.505280
_symmetry_space_group_name_H-M "P M"
_symmetry_group_IT_number 6
_symmetry_cell_setting 'monoclinic'
loop_
_space_group_symop_operation_xyz
x,y,z
x,-y,z
loop_
_atom_site_type_symbol
_atom_site_label
_atom_site_fract_x
_atom_site_fract_y
_atom_site_fract_z
Si Si1 0.489820 0.738791 0.718060
Si Si2 0.799495 0.822361 0.788462
Si Si3 0.625131 0.232643 0.225313
Si Si4 0.359780 0.500000 0.736907
Si Si5 0.891368 0.858109 0.226919
Si Si6 0.005843 0.142093 0.735861
Si Si7 0.277117 0.000000 0.287855
Si Si8 0.704460 0.500000 0.249361
O O1 0.678386 0.726211 0.769999
O O2 0.440674 0.616056 0.737881
O O3 0.185808 0.798577 0.440255
O O4 0.654819 0.826038 0.939508
O O5 0.520845 0.898949 0.522315
O O6 0.936241 0.790744 0.788468
O O7 0.040660 0.897804 0.053743
O O8 0.796224 0.195986 0.261735
O O9 0.642489 0.374901 0.255577
O O10 0.764396 0.166188 0.444322
O O11 0.303944 0.188235 0.941630
O O12 0.029727 0.500000 0.487036
O O13 0.521729 0.500000 0.986464
O O14 0.926590 0.000000 0.264056
O O15 0.023278 0.000000 0.773721
#
# Coordination Sequence:
#
# PCOD9131007 Si02
#       8
#     2   2   2   1   2   2   1   1
#     4  12  25  41  68  99 130 176 222 275 327 399
#     4  11  24  39  65 101 125 180 217 261 331 400
#     4  12  25  44  66  98 128 182 224 273 323 394
#     4  12  22  48  70  90 132 182 226 272 326 398
#     4  12  25  40  63 100 138 164 211 280 349 393
#     4  12  24  41  69  98 140 174 215 270 340 404
#     4  10  20  38  62  88 134 170 216 246 314 406
#     4  12  24  48  70  90 130 180 242 258 330 396
#
# _framework density 19.862331000000001
#
# number of rings (size 3 to 8) (size 9 to 14) (size 15 to 20)
#    0.000    0.308    4.615    5.538    6.462    0.000 
#    0.000    1.538    0.000    0.000    0.000    0.000 
#    0.000    0.000    0.000    0.000    0.000    0.000 
#
# Total GULP energy -72437.531200 kJ/mol
# GULP energy per Si atom -5572.117785 kJ/mol
# Density = 1.981712 g / cm^3
# Si number density = 19.862331 Si / 1000 Ang^3
#
#
#
# Elastic Constant Matrix: (Units=GPa)
#
#
# Indices 1 2 3 4 5 6 
#
# 1 65.0804 10.2052 -11.7058 0.0000 0.3789 0.0000
# 2 10.2052 68.6309 -2.3532 0.0000 7.4866 0.0000
# 3 -11.7058 -2.3532 121.2676 0.0000 17.8088 0.0000
# 4 0.0000 0.0000 0.0000 26.2854 0.0000 -10.8520
# 5 0.3789 7.4866 17.8088 0.0000 18.3045 0.0000
# 6 0.0000 0.0000 0.0000 -10.8520 0.0000 37.2924
#
#
#
# Elastic Compliance Matrix: (Units=1/GPa)
#
#
# Indices 1 2 3 4 5 6 
#
# 1 0.016016 -0.002212 0.001655 0.000000 -0.001038 0.000000
# 2 -0.002212 0.015767 0.001205 0.000000 -0.007575 0.000000
# 3 0.001655 0.001205 0.009925 0.000000 -0.010183 0.000000
# 4 0.000000 0.000000 0.000000 0.043238 0.000000 0.012582
# 5 -0.001038 -0.007575 -0.010183 0.000000 0.067659 0.000000
# 6 0.000000 0.000000 0.000000 0.012582 0.000000 0.030477
#
#
# Mechanical properties :
#
#
# Convention : Reuss Voigt Hill
#
# Bulk Modulus (GPa) = 23.25252 27.47457 25.36354
# Shear Modulus (GPa) = 25.49462 33.63197 29.56329
#
# Velocity S-wave (km/s) = 3.58658 4.11938 3.86218
# Velocity P-wave (km/s) = 5.37435 6.04055 5.71716
#
# Compressibility (1/GPa) = 0.04300609
#
# Stress axis : x y z
#
# Youngs Moduli (GPa) = 62.43670 63.42259 100.75688
#
# Poissons Ratio (x) = 0.14027 -0.16680
# Poissons Ratio (y) = 0.13809 -0.12141
# Poissons Ratio (z) = -0.10336 -0.07642
#
# Static dielectric constant tensor:
#      x y z
#    x 1.732130 0.000000 -0.009720 
#    y 0.000000 1.610950 0.000000 
#    z -0.009720 0.000000 1.656510 
# 
# From -- ./inp_files/5162.got.cif
#   From: 2010.05.17/outbox.cif.g08.bks.cpg/sg6_3_cif.got.tgz:5162.got - 2010.06.03 19:42:10.
