data_PCOD9131272
_publ_section_title
;
Structure prediction by ZEFSAII (Michael W. Deem and Ramdas Pophale) SiO2 
 PCOD9131272
Probable space group: P C
;
_chemical_formula_sum "Si O2"
_cell_formula_units_Z 16
_cell_length_a 17.281654
_cell_length_b 7.800622
_cell_length_c 5.378480
_cell_angle_alpha 90.000000
_cell_angle_beta 76.134300
_cell_angle_gamma 90.000000
_cell_volume 703.932082
_symmetry_space_group_name_H-M "P C"
_symmetry_group_IT_number 7
_symmetry_cell_setting 'monoclinic'
loop_
_space_group_symop_operation_xyz
x,y,z
x,-y,1/2+z
loop_
_atom_site_type_symbol
_atom_site_label
_atom_site_fract_x
_atom_site_fract_y
_atom_site_fract_z
Si Si1 0.721490 0.037059 0.017370
Si Si2 0.391198 0.883718 0.138575
Si Si3 0.248578 0.612975 0.273817
Si Si4 0.862563 0.440905 0.905272
Si Si5 0.926560 0.900472 0.549031
Si Si6 0.551648 0.094015 0.657799
Si Si7 0.677685 0.570035 0.530408
Si Si8 0.110729 0.888017 0.366725
O O1 0.685881 0.226833 0.053861
O O2 0.766692 0.984888 0.227890
O O3 0.647722 0.899260 0.063225
O O4 0.321715 0.746516 0.210500
O O5 0.478504 0.793229 0.115710
O O6 0.385557 0.017525 0.376987
O O7 0.251821 0.504307 0.525278
O O8 0.168621 0.726549 0.330450
O O9 0.898456 0.552300 0.102179
O O10 0.769873 0.494668 0.942524
O O11 0.868702 0.252498 0.012127
O O12 0.017910 0.835425 0.445288
O O13 0.920077 0.955675 0.839914
O O14 0.538887 0.942563 0.459262
O O15 0.639057 0.514268 0.301735
O O16 0.124949 0.005682 0.600668
#
# Coordination Sequence:
#
# PCOD9131272 Si02
#       8
#     2   2   2   2   2   2   2   2
#     4  10  19  33  56  81 103 135 183 226 259 316
#     4  10  19  36  60  77 103 146 179 213 265 328
#     4  12  24  36  55  86 114 138 179 230 271 314
#     4  10  21  36  54  77 110 150 182 214 273 335
#     4  10  21  36  57  82 109 140 185 234 266 306
#     4   8  16  30  53  76  97 128 176 214 252 312
#     4  10  21  36  53  78 113 146 176 220 277 326
#     4  10  21  39  58  79 109 149 184 217 271 327
#
# _framework density 22.729464
#
# number of rings (size 3 to 8) (size 9 to 14) (size 15 to 20)
#    0.000    2.000    0.000    3.750    0.000    2.000 
#    0.000    0.000    0.000   40.500    0.000    0.000 
#    0.000    0.000    0.000    0.000    0.000    0.000 
#
# Total GULP energy -89229.324149 kJ/mol
# GULP energy per Si atom -5576.832759 kJ/mol
# Density = 2.267773 g / cm^3
# Si number density = 22.729464 Si / 1000 Ang^3
#
#
#
# Elastic Constant Matrix: (Units=GPa)
#
#
# Indices 1 2 3 4 5 6 
#
# 1 93.4706 14.2948 27.3097 0.0000 1.4856 0.0000
# 2 14.2948 53.6438 40.2990 0.0000 2.4327 0.0000
# 3 27.3097 40.2990 181.9915 0.0000 20.3435 0.0000
# 4 0.0000 0.0000 0.0000 39.5198 0.0000 8.4844
# 5 1.4856 2.4327 20.3435 0.0000 29.8154 0.0000
# 6 0.0000 0.0000 0.0000 8.4844 0.0000 7.6841
#
#
#
# Elastic Compliance Matrix: (Units=1/GPa)
#
#
# Indices 1 2 3 4 5 6 
#
# 1 0.011389 -0.002078 -0.001304 0.000000 0.000492 0.000000
# 2 -0.002078 0.022818 -0.004920 0.000000 0.001598 0.000000
# 3 -0.001304 -0.004920 0.007283 0.000000 -0.004503 0.000000
# 4 0.000000 0.000000 0.000000 0.033166 0.000000 -0.036620
# 5 0.000492 0.001598 -0.004503 0.000000 0.036457 0.000000
# 6 0.000000 0.000000 0.000000 -0.036620 0.000000 0.170573
#
#
# Mechanical properties :
#
#
# Convention : Reuss Voigt Hill
#
# Bulk Modulus (GPa) = 40.17943 54.76808 47.47375
# Shear Modulus (GPa) = 16.30864 31.88403 24.09633
#
# Velocity S-wave (km/s) = 2.68155 3.74941 3.25951
# Velocity P-wave (km/s) = 5.22525 6.54920 5.92432
#
# Compressibility (1/GPa) = 0.02488836
#
# Stress axis : x y z
#
# Youngs Moduli (GPa) = 87.80030 43.82419 137.30268
#
# Poissons Ratio (x) = 0.09105 0.17904
# Poissons Ratio (y) = 0.18242 0.67548
# Poissons Ratio (z) = 0.11449 0.21560
#
# Static dielectric constant tensor:
#      x y z
#    x 1.916730 0.000000 -0.010120 
#    y 0.000000 1.907720 0.000000 
#    z -0.010120 0.000000 1.918280 
# 
# From -- ./inp_files/1378.got.cif
#   From: 2010.05.17/outbox.cif.g08.bks.cpg/sg7_cif.got.tgz:1378.got - 2010.06.03 19:44:50.
