data_PCOD9131809
_publ_section_title
;
Structure prediction by ZEFSAII (Michael W. Deem and Ramdas Pophale) SiO2 
 PCOD9131809
Probable space group: C M
;
_chemical_formula_sum "Si O2"
_cell_formula_units_Z 32
_cell_length_a 16.588726
_cell_length_b 15.550247
_cell_length_c 12.237145
_cell_angle_alpha 90.000000
_cell_angle_beta 22.867363
_cell_angle_gamma 90.000000
_cell_volume 1226.682833
_symmetry_space_group_name_H-M "C M"
_symmetry_group_IT_number 8
_symmetry_cell_setting 'monoclinic'
loop_
_space_group_symop_operation_xyz
x,y,z
x,-y,z
1/2+x,1/2+y,z
1/2+x,1/2-y,z
loop_
_atom_site_type_symbol
_atom_site_label
_atom_site_fract_x
_atom_site_fract_y
_atom_site_fract_z
Si Si1 0.986820 0.593237 0.871010
Si Si2 0.885247 0.898387 0.759738
Si Si3 0.852100 0.358052 0.257126
Si Si4 0.143130 0.097527 0.976731
Si Si5 0.274208 0.396688 0.126324
Si Si6 0.742011 0.396934 0.625374
Si Si7 0.249012 0.334658 0.373571
Si Si8 0.522349 0.599907 0.364004
O O1 0.064739 0.500000 0.737787
O O2 0.093510 0.667146 0.668960
O O3 0.005212 0.601267 0.977498
O O4 0.747654 0.595979 0.138131
O O5 0.122024 0.892298 0.511407
O O6 0.887883 0.861278 0.633014
O O7 0.755058 0.863919 0.026233
O O8 0.838229 0.000000 0.807072
O O9 0.885179 0.373651 0.343452
O O10 0.850867 0.257453 0.235889
O O11 0.076836 0.138632 0.176288
O O12 0.919996 0.096534 0.195625
O O13 0.218381 0.000000 0.906389
O O14 0.274005 0.135133 0.709994
O O15 0.252852 0.500000 0.149957
O O16 0.509485 0.374690 0.872928
O O17 0.144043 0.360506 0.390768
O O18 0.752455 0.500000 0.621636
O O19 0.455474 0.500000 0.427887
#
# Coordination Sequence:
#
# PCOD9131809 Si02
#       8
#     4   4   4   4   4   4   4   4
#     4  10  20  34  52  75 102 132 165 208 255 296
#     4   8  14  28  51  71  92 124 168 207 235 284
#     4  10  19  28  47  70 103 127 165 201 251 293
#     4   9  17  31  53  74  96 128 168 204 240 293
#     4   8  14  26  44  67  93 122 156 197 242 285
#     4   8  14  27  48  68  90 125 167 203 234 284
#     4  11  21  28  48  75 108 126 157 207 259 293
#     4   8  15  30  53  76  93 126 172 203 233 292
#
# _framework density 26.086611999999999
#
# number of rings (size 3 to 8) (size 9 to 14) (size 15 to 20)
#    0.000    3.000    0.000    4.500    5.250    0.000 
#    0.000    0.000    5.500    1.500    0.000    5.250 
#    0.000    0.000    0.000    0.000    0.000    0.000 
#
# Total GULP energy -89206.189602 kJ/mol
# GULP energy per Si atom -5575.386850 kJ/mol
# Density = 2.602724 g / cm^3
# Si number density = 26.086612 Si / 1000 Ang^3
#
#
#
# Elastic Constant Matrix: (Units=GPa)
#
#
# Indices 1 2 3 4 5 6 
#
# 1 177.9909 -1.9949 67.9702 -0.0112 57.5646 -0.0054
# 2 -1.9949 56.5966 5.6551 -0.0063 6.1449 -0.0019
# 3 67.9702 5.6551 99.0996 -0.0122 73.5332 -0.0057
# 4 -0.0112 -0.0063 -0.0122 39.5141 0.0092 16.3383
# 5 57.5646 6.1449 73.5332 0.0092 85.4502 0.0047
# 6 -0.0054 -0.0019 -0.0057 16.3383 0.0047 5.6377
#
#
#
# Elastic Compliance Matrix: (Units=1/GPa)
#
#
# Indices 1 2 3 4 5 6 
#
# 1 0.007751 0.000873 -0.003998 0.000003 -0.001844 -0.000003
# 2 0.000873 0.017907 -0.000633 -0.000001 -0.001331 0.000010
# 3 -0.003998 -0.000633 0.029980 0.000027 -0.023060 -0.000034
# 4 0.000003 -0.000001 0.000027 -0.127633 -0.000032 0.369885
# 5 -0.001844 -0.001331 -0.023060 -0.000032 0.032885 0.000040
# 6 -0.000003 0.000010 -0.000034 0.369885 0.000040 -0.894564
#
#
# Mechanical properties :
#
#
# Convention : Reuss Voigt Hill
#
# Bulk Modulus (GPa) = 20.77989 52.99420 36.88704
# Shear Modulus (GPa) = -5.49380 43.59084 19.04852
#
# Velocity S-wave (km/s) = -1.45278 4.09223 2.70516
# Velocity P-wave (km/s) = 2.27353 6.53355 4.89163
#
# Compressibility (1/GPa) = 0.04812346
#
# Stress axis : x y z
#
# Youngs Moduli (GPa) = 129.01368 55.84272 33.35563
#
# Poissons Ratio (x) = -0.04874 0.13334
# Poissons Ratio (y) = -0.11261 0.02111
# Poissons Ratio (z) = 0.51575 0.03533
#
# Static dielectric constant tensor:
#      x y z
#    x 2.096160 -0.000010 0.026550 
#    y -0.000010 1.930680 0.000010 
#    z 0.026550 0.000010 2.289850 
# 
# From -- ./inp_files/20594.got.cif
#   From: 2010.05.17/outbox.cif.g08.bks.cpg/sg8_11_cif.got.tgz:20594.got - 2010.06.03 19:46:02.
