data_PCOD9131195
_publ_section_title
;
Structure prediction by ZEFSAII (Michael W. Deem and Ramdas Pophale) SiO2 
 PCOD9131195
Probable space group: P M
;
_chemical_formula_sum "Si O2"
_cell_formula_units_Z 16
_cell_length_a 9.000000
_cell_length_b 9.000000
_cell_length_c 12.000000
_cell_angle_alpha 90.000000
_cell_angle_beta 60.000000
_cell_angle_gamma 90.000000
_cell_volume 841.776692
_symmetry_space_group_name_H-M "P M"
_symmetry_group_IT_number 6
_symmetry_cell_setting 'monoclinic'
loop_
_space_group_symop_operation_xyz
x,y,z
x,-y,z
loop_
_atom_site_type_symbol
_atom_site_label
_atom_site_fract_x
_atom_site_fract_y
_atom_site_fract_z
Si Si1 0.214300 0.822295 0.619340
Si Si2 0.444766 0.835064 0.168243
Si Si3 0.828372 0.829204 0.125544
Si Si4 0.594918 0.175675 0.878572
Si Si5 0.538402 0.820126 0.643509
Si Si6 0.865163 0.179181 0.372254
Si Si7 0.919601 0.324538 0.870492
Si Si8 0.169152 0.672631 0.395529
O O1 0.380348 0.770057 0.626546
O O2 0.189908 0.750196 0.507546
O O3 0.058589 0.772569 0.754512
O O4 0.222262 0.000000 0.602932
O O5 0.632672 0.834736 0.154019
O O6 0.342505 0.703894 0.263206
O O7 0.369581 0.000000 0.220885
O O8 0.455348 0.819870 0.030410
O O9 0.840690 0.782116 0.250405
O O10 0.894205 0.000000 0.092947
O O11 0.917148 0.724811 0.000880
O O12 0.543119 0.222821 0.772741
O O13 0.744368 0.277271 0.873541
O O14 0.649743 0.000000 0.852925
O O15 0.706372 0.777277 0.510947
O O16 0.530777 0.000000 0.648528
O O17 0.026900 0.252115 0.370853
O O18 0.878468 0.000000 0.370535
O O19 0.948402 0.500000 0.849582
O O20 0.132823 0.500000 0.424920
#
# Coordination Sequence:
#
# PCOD9131195 Si02
#       8
#     2   2   2   2   2   2   2   2
#     4  11  22  39  61  83 110 146 190 237 282 332
#     4   9  18  35  59  85 112 146 188 231 275 331
#     4   9  19  37  61  86 111 147 195 237 276 328
#     4   9  18  36  61  86 112 146 189 233 279 332
#     4   9  19  36  61  87 106 135 186 242 284 322
#     4  10  20  37  61  85 110 144 189 238 284 332
#     4  11  22  36  56  86 120 151 184 225 281 341
#     4  12  25  38  54  82 117 151 187 229 285 344
#
# _framework density 19.007415999999999
#
# number of rings (size 3 to 8) (size 9 to 14) (size 15 to 20)
#    0.000    2.000    0.000    4.875    0.000    6.500 
#    0.000    6.250    0.000    0.000    0.000    0.000 
#    0.000    0.000    0.000    0.000    0.000    0.000 
#
# Total GULP energy -89222.235287 kJ/mol
# GULP energy per Si atom -5576.389705 kJ/mol
# Density = 1.896415 g / cm^3
# Si number density = 19.007416 Si / 1000 Ang^3
#
#
#
# Elastic Constant Matrix: (Units=GPa)
#
#
# Indices 1 2 3 4 5 6 
#
# 1 74.0424 24.7308 57.2161 0.0000 36.2706 0.0000
# 2 24.7308 39.8142 29.6298 0.0000 14.6244 0.0000
# 3 57.2161 29.6298 122.4814 0.0000 44.7763 0.0000
# 4 0.0000 0.0000 0.0000 1.9185 0.0000 16.1997
# 5 36.2706 14.6244 44.7763 0.0000 42.1681 0.0000
# 6 0.0000 0.0000 0.0000 16.1997 0.0000 2.6695
#
#
#
# Elastic Compliance Matrix: (Units=1/GPa)
#
#
# Indices 1 2 3 4 5 6 
#
# 1 0.027890 -0.007503 -0.005549 0.000000 -0.015496 0.000000
# 2 -0.007503 0.033182 -0.004371 0.000000 -0.000413 0.000000
# 3 -0.005549 -0.004371 0.015552 0.000000 -0.010225 0.000000
# 4 0.000000 0.000000 0.000000 -0.010375 0.000000 0.062958
# 5 -0.015496 -0.000413 -0.010225 0.000000 0.048044 0.000000
# 6 0.000000 0.000000 0.000000 0.062958 0.000000 -0.007456
#
#
# Mechanical properties :
#
#
# Convention : Reuss Voigt Hill
#
# Bulk Modulus (GPa) = 23.93605 51.05459 37.49532
# Shear Modulus (GPa) = 32.13166 17.66867 24.90016
#
# Velocity S-wave (km/s) = 4.11601 3.05219 3.62335
# Velocity P-wave (km/s) = 5.93372 6.27214 6.10528
#
# Compressibility (1/GPa) = 0.04177799
#
# Stress axis : x y z
#
# Youngs Moduli (GPa) = 35.85460 30.13697 64.29956
#
# Poissons Ratio (x) = 0.22612 0.35679
# Poissons Ratio (y) = 0.26902 0.28108
# Poissons Ratio (z) = 0.19895 0.13174
#
# Static dielectric constant tensor:
#      x y z
#    x 1.697540 0.000000 -0.059700 
#    y 0.000000 1.644100 0.000000 
#    z -0.059700 0.000000 1.682400 
# 
# From -- ./inp_files/3759.got.cif
#   From: 2010.05.17/outbox.ucp.g08.bks.cvg/sg6_2_cif.got.tgz:3759.got - 2010.06.11 12:59:37.
