data_PCOD9131562
_publ_section_title
;
Structure prediction by ZEFSAII (Michael W. Deem and Ramdas Pophale) SiO2 
 PCOD9131562
Probable space group: C M
;
_chemical_formula_sum "Si O2"
_cell_formula_units_Z 32
_cell_length_a 22.420712
_cell_length_b 7.622370
_cell_length_c 22.086233
_cell_angle_alpha 90.000000
_cell_angle_beta 19.613851
_cell_angle_gamma 90.000000
_cell_volume 1267.026313
_symmetry_space_group_name_H-M "C M"
_symmetry_group_IT_number 8
_symmetry_cell_setting 'monoclinic'
loop_
_space_group_symop_operation_xyz
x,y,z
x,-y,z
1/2+x,1/2+y,z
1/2+x,1/2-y,z
loop_
_atom_site_type_symbol
_atom_site_label
_atom_site_fract_x
_atom_site_fract_y
_atom_site_fract_z
Si Si1 0.947900 0.709980 0.680750
Si Si2 0.346404 0.198146 0.002912
Si Si3 0.980204 0.212216 0.313532
Si Si4 0.566501 0.285999 0.095500
Si Si5 0.585341 0.702738 0.673252
Si Si6 0.413478 0.714683 0.119690
Si Si7 0.170779 0.206113 0.775335
Si Si8 0.534299 0.786088 0.460449
O O1 0.936209 0.500000 0.687591
O O2 0.991534 0.766588 0.570983
O O3 0.088090 0.751290 0.599669
O O4 0.758834 0.773529 0.887450
O O5 0.424334 0.196758 0.859850
O O6 0.511201 0.279866 0.880750
O O7 0.332957 0.000000 0.037406
O O8 0.148782 0.277913 0.191492
O O9 0.776919 0.261826 0.520361
O O10 0.019450 0.274401 0.207409
O O11 0.988987 0.000000 0.306350
O O12 0.568633 0.500000 0.095661
O O13 0.427778 0.234823 0.175874
O O14 0.544183 0.500000 0.719674
O O15 0.416902 0.500000 0.115089
O O16 0.234347 0.774983 0.258233
O O17 0.584599 0.776990 0.919471
O O18 0.369704 0.277848 0.576945
O O19 0.198826 0.000000 0.757222
O O20 0.545116 0.000000 0.447320
#
# Coordination Sequence:
#
# PCOD9131562 Si02
#       8
#     4   4   4   4   4   4   4   4
#     4  10  17  33  60  88 118 155 198 236 279 342
#     4  11  24  43  64  84 111 155 206 249 293 347
#     4  10  21  39  63  87 114 151 200 247 289 347
#     4   9  15  29  57  88 113 146 191 239 282 332
#     4  12  25  39  59  89 123 155 190 240 305 358
#     4   9  16  28  51  84 115 144 183 234 286 333
#     4  10  20  35  55  82 115 150 194 244 290 336
#     4   9  17  30  55  86 117 152 190 233 280 339
#
# _framework density 25.255987000000001
#
# number of rings (size 3 to 8) (size 9 to 14) (size 15 to 20)
#    0.000    2.000    2.500    2.250    0.000    4.000 
#    0.000    1.875    0.000    3.000    0.000    0.000 
#    0.000    0.000    0.000    0.000    0.000    0.000 
#
# Total GULP energy -89419.488903 kJ/mol
# GULP energy per Si atom -5588.718056 kJ/mol
# Density = 2.519850 g / cm^3
# Si number density = 25.255987 Si / 1000 Ang^3
#
#
#
# Elastic Constant Matrix: (Units=GPa)
#
#
# Indices 1 2 3 4 5 6 
#
# 1 79.7496 -9.9608 16.9742 0.0008 -28.0974 -0.0002
# 2 -9.9608 55.2256 2.2783 -0.0073 2.3812 0.0019
# 3 16.9742 2.2783 124.6706 -0.0088 -42.1001 0.0021
# 4 0.0008 -0.0073 -0.0088 1.2417 0.0019 -8.2587
# 5 -28.0974 2.3812 -42.1001 0.0019 48.5981 0.0001
# 6 -0.0002 0.0019 0.0021 -8.2587 0.0001 10.0962
#
#
#
# Elastic Compliance Matrix: (Units=1/GPa)
#
#
# Indices 1 2 3 4 5 6 
#
# 1 0.016218 0.002429 0.001235 0.000002 0.010328 0.000001
# 2 0.002429 0.018580 -0.000712 -0.000018 -0.000123 -0.000018
# 3 0.001235 -0.000712 0.011476 -0.000010 0.010691 -0.000011
# 4 0.000002 -0.000018 -0.000010 -0.181360 0.000000 -0.148352
# 5 0.010328 -0.000123 0.010691 0.000000 0.035815 -0.000002
# 6 0.000001 -0.000018 -0.000011 -0.148352 -0.000002 -0.022305
#
#
# Mechanical properties :
#
#
# Convention : Reuss Voigt Hill
#
# Bulk Modulus (GPa) = 19.16461 30.91435 25.03948
# Shear Modulus (GPa) = -45.41891 28.67748 -8.37072
#
# Velocity S-wave (km/s) = -4.24529 3.37333 -1.82251
# Velocity P-wave (km/s) = 4.05282 5.23827 2.34672
#
# Compressibility (1/GPa) = 0.05217952
#
# Stress axis : x y z
#
# Youngs Moduli (GPa) = 61.65824 53.82047 87.13764
#
# Poissons Ratio (x) = -0.13073 -0.10762
# Poissons Ratio (y) = -0.14977 0.06201
# Poissons Ratio (z) = -0.07615 0.03830
#
# Static dielectric constant tensor:
#      x y z
#    x 2.054350 0.000000 -0.011360 
#    y 0.000000 1.930890 0.000000 
#    z -0.011360 0.000000 1.994510 
# 
# From -- ./inp_files/32366.got.cif
#   From: 2010.05.17/outbox.cif.g08.bks.cpg/sg8_17_cif.got.tgz:32366.got - 2010.06.03 19:46:02.
