data_PCOD9131989
_publ_section_title
;
Structure prediction by ZEFSAII (Michael W. Deem and Ramdas Pophale) SiO2 
 PCOD9131989
Probable space group: C M
;
_chemical_formula_sum "Si O2"
_cell_formula_units_Z 32
_cell_length_a 18.545044
_cell_length_b 23.452726
_cell_length_c 5.225051
_cell_angle_alpha 90.000000
_cell_angle_beta 127.657758
_cell_angle_gamma 90.000000
_cell_volume 1799.112036
_symmetry_space_group_name_H-M "C M"
_symmetry_group_IT_number 8
_symmetry_cell_setting 'monoclinic'
loop_
_space_group_symop_operation_xyz
x,y,z
x,-y,z
1/2+x,1/2+y,z
1/2+x,1/2-y,z
loop_
_atom_site_type_symbol
_atom_site_label
_atom_site_fract_x
_atom_site_fract_y
_atom_site_fract_z
Si Si1 0.658510 0.599748 0.506780
Si Si2 0.366759 0.067401 0.853137
Si Si3 0.827564 0.733366 0.514684
Si Si4 0.464505 0.319146 0.568502
Si Si5 0.411122 0.134838 0.450788
Si Si6 0.629445 0.724937 0.277245
Si Si7 0.483082 0.222274 0.254976
Si Si8 0.550326 0.434946 0.769319
O O1 0.759228 0.581929 0.636660
O O2 0.651168 0.668326 0.489570
O O3 0.625946 0.576941 0.711874
O O4 0.593042 0.575428 0.142260
O O5 0.415090 0.098700 0.718805
O O6 0.378033 0.000000 0.854628
O O7 0.401869 0.091385 0.198543
O O8 0.828559 0.680168 0.318056
O O9 0.725614 0.744262 0.376050
O O10 0.878369 0.789207 0.516934
O O11 0.895707 0.710558 0.886291
O O12 0.467738 0.287711 0.304695
O O13 0.473030 0.386647 0.568642
O O14 0.555965 0.297347 0.910667
O O15 0.484616 0.180851 0.503649
O O16 0.577573 0.775289 0.311995
O O17 0.519632 0.500000 0.678737
#
# Coordination Sequence:
#
# PCOD9131989 Si02
#       8
#     4   4   4   4   4   4   4   4
#     4  11  21  34  49  79 110 148 189 217 262 340
#     4  12  23  35  53  79 113 154 189 224 272 333
#     4  10  20  36  55  80 114 148 185 235 282 332
#     4   9  21  32  52  80 112 144 190 227 273 335
#     4  11  21  36  53  76 110 146 189 229 271 321
#     4  10  19  34  56  81 113 151 179 229 288 330
#     4  10  19  36  56  79 112 148 186 237 279 334
#     4  11  21  35  51  74 111 151 184 224 269 323
#
# _framework density 17.786550999999999
#
# number of rings (size 3 to 8) (size 9 to 14) (size 15 to 20)
#    0.000    1.500    3.750    2.250    1.750    2.000 
#    0.000    0.000    0.000    0.000    0.000    1.750 
#    0.000    0.000    0.000    0.000    0.000    0.000 
#
# Total GULP energy -89179.307428 kJ/mol
# GULP energy per Si atom -5573.706714 kJ/mol
# Density = 1.774607 g / cm^3
# Si number density = 17.786551 Si / 1000 Ang^3
#
#
#
# Elastic Constant Matrix: (Units=GPa)
#
#
# Indices 1 2 3 4 5 6 
#
# 1 125.8222 35.4791 32.2037 0.0000 3.5610 0.0000
# 2 35.4791 92.7104 25.1337 0.0000 4.6048 0.0000
# 3 32.2037 25.1337 36.4867 0.0000 -7.8348 0.0000
# 4 0.0000 0.0000 0.0000 22.7971 0.0000 -6.1413
# 5 3.5610 4.6048 -7.8348 0.0000 30.6418 0.0000
# 6 0.0000 0.0000 0.0000 -6.1413 0.0000 23.6961
#
#
#
# Elastic Compliance Matrix: (Units=1/GPa)
#
#
# Indices 1 2 3 4 5 6 
#
# 1 0.010833 -0.001457 -0.009291 0.000000 -0.003416 0.000000
# 2 -0.001457 0.014096 -0.009356 0.000000 -0.004341 0.000000
# 3 -0.009291 -0.009356 0.045060 0.000000 0.014007 0.000000
# 4 0.000000 0.000000 0.000000 0.047158 0.000000 0.012222
# 5 -0.003416 -0.004341 0.014007 0.000000 0.037266 0.000000
# 6 0.000000 0.000000 0.000000 0.012222 0.000000 0.045369
#
#
# Mechanical properties :
#
#
# Convention : Reuss Voigt Hill
#
# Bulk Modulus (GPa) = 33.57868 48.96137 41.27003
# Shear Modulus (GPa) = 20.00657 26.24052 23.12355
#
# Velocity S-wave (km/s) = 3.35746 3.84513 3.60954
# Velocity P-wave (km/s) = 5.82664 6.87752 6.37378
#
# Compressibility (1/GPa) = 0.02978080
#
# Stress axis : x y z
#
# Youngs Moduli (GPa) = 92.30720 70.94229 22.19239
#
# Poissons Ratio (x) = 0.10338 0.20620
# Poissons Ratio (y) = 0.13452 0.20763
# Poissons Ratio (z) = 0.85766 0.66373
#
# Static dielectric constant tensor:
#      x y z
#    x 1.649340 0.000000 -0.051160 
#    y 0.000000 1.632090 0.000000 
#    z -0.051160 0.000000 1.653020 
# 
# From -- ./inp_files/5152.got.cif
#   From: 2010.05.17/outbox.cif.g08.bks.cpg/sg8_3_cif.got.tgz:5152.got - 2010.06.03 19:46:02.
