data_PCOD9131863
_publ_section_title
;
Structure prediction by ZEFSAII (Michael W. Deem and Ramdas Pophale) SiO2 
 PCOD9131863
Probable space group: C M
;
_chemical_formula_sum "Si O2"
_cell_formula_units_Z 32
_cell_length_a 28.978491
_cell_length_b 8.699468
_cell_length_c 9.444696
_cell_angle_alpha 90.000000
_cell_angle_beta 48.020934
_cell_angle_gamma 90.000000
_cell_volume 1769.997791
_symmetry_space_group_name_H-M "C M"
_symmetry_group_IT_number 8
_symmetry_cell_setting 'monoclinic'
loop_
_space_group_symop_operation_xyz
x,y,z
x,-y,z
1/2+x,1/2+y,z
1/2+x,1/2-y,z
loop_
_atom_site_type_symbol
_atom_site_label
_atom_site_fract_x
_atom_site_fract_y
_atom_site_fract_z
Si Si1 0.862480 0.182902 0.298100
Si Si2 0.977751 0.685551 0.887449
Si Si3 0.099296 0.315755 0.814558
Si Si4 0.090574 0.185375 0.147841
Si Si5 0.358072 0.813193 0.623105
Si Si6 0.724179 0.323091 0.903958
Si Si7 0.477653 0.185402 0.558912
Si Si8 0.230960 0.823231 0.545693
O O1 0.869877 0.250035 0.441677
O O2 0.795596 0.240665 0.378107
O O3 0.862326 0.000000 0.305272
O O4 0.919421 0.242315 0.087727
O O5 0.972254 0.500000 0.907989
O O6 0.042651 0.729061 0.828691
O O7 0.977867 0.729338 0.722676
O O8 0.102021 0.500000 0.817132
O O9 0.166809 0.254012 0.629087
O O10 0.085333 0.249948 0.999574
O O11 0.033879 0.239262 0.358737
O O12 0.093193 0.000000 0.134027
O O13 0.156697 0.243859 0.075172
O O14 0.290265 0.755565 0.813384
O O15 0.413312 0.772076 0.614613
O O16 0.355013 0.000000 0.619047
O O17 0.723338 0.500000 0.954877
O O18 0.727340 0.322734 0.725509
O O19 0.483786 0.000000 0.537570
O O20 0.233325 0.000000 0.494710
#
# Coordination Sequence:
#
# PCOD9131863 Si02
#       8
#     4   4   4   4   4   4   4   4
#     4  11  21  33  54  82 108 136 174 216 260 314
#     4  10  22  38  52  71 106 147 181 217 262 309
#     4  10  19  33  55  80 106 138 177 218 260 308
#     4  10  19  32  52  77 105 134 167 213 266 315
#     4   9  17  33  56  77 100 133 174 216 258 306
#     4   7  13  27  48  73  97 123 157 201 250 299
#     4  10  21  36  53  73 101 140 180 217 260 309
#     4   9  17  32  54  79 107 135 168 214 266 314
#
# _framework density 18.079118000000001
#
# number of rings (size 3 to 8) (size 9 to 14) (size 15 to 20)
#    0.000    2.500    0.000    4.500    0.000    5.000 
#    0.000    1.875    0.000    1.500    0.000    0.000 
#    0.000    0.000    0.000    0.000    0.000    0.000 
#
# Total GULP energy -89212.471711 kJ/mol
# GULP energy per Si atom -5575.779482 kJ/mol
# Density = 1.803797 g / cm^3
# Si number density = 18.079118 Si / 1000 Ang^3
#
#
#
# Elastic Constant Matrix: (Units=GPa)
#
#
# Indices 1 2 3 4 5 6 
#
# 1 164.6272 54.2125 124.1995 0.0000 -38.9678 0.0000
# 2 54.2125 45.1084 34.9924 0.0000 -10.5289 0.0000
# 3 124.1995 34.9924 75.8076 0.0000 -22.5220 0.0000
# 4 0.0000 0.0000 0.0000 24.6715 0.0000 -11.3287
# 5 -38.9678 -10.5289 -22.5220 0.0000 28.1556 0.0000
# 6 0.0000 0.0000 0.0000 -11.3287 0.0000 19.8739
#
#
#
# Elastic Compliance Matrix: (Units=1/GPa)
#
#
# Indices 1 2 3 4 5 6 
#
# 1 -0.025385 -0.002744 0.042125 0.000000 -0.002464 0.000000
# 2 -0.002744 0.034239 -0.011324 0.000000 -0.000052 0.000000
# 3 0.042125 -0.011324 -0.045299 0.000000 0.017831 0.000000
# 4 0.000000 0.000000 0.000000 0.054903 0.000000 0.031296
# 5 -0.002464 -0.000052 0.017831 0.000000 0.046351 0.000000
# 6 0.000000 0.000000 0.000000 0.031296 0.000000 0.068157
#
#
# Mechanical properties :
#
#
# Convention : Reuss Voigt Hill
#
# Bulk Modulus (GPa) = 50.84530 79.15023 64.99777
# Shear Modulus (GPa) = 59.94488 19.34946 39.64717
#
# Velocity S-wave (km/s) = 5.76446 3.27504 4.68801
# Velocity P-wave (km/s) = 8.51411 7.62733 8.08289
#
# Compressibility (1/GPa) = 0.01966750
#
# Stress axis : x y z
#
# Youngs Moduli (GPa) = -39.39293 29.20614 -22.07559
#
# Poissons Ratio (x) = 0.08015 0.92993
# Poissons Ratio (y) = -0.10810 -0.24999
# Poissons Ratio (z) = 1.65942 0.33074
#
# Static dielectric constant tensor:
#      x y z
#    x 1.634460 0.000000 -0.031050 
#    y 0.000000 1.617730 0.000000 
#    z -0.031050 0.000000 1.593350 
# 
# From -- ./inp_files/17327.got.cif
#   From: 2010.05.17/outbox.cif.g08.bks.cpg/sg8_9_cif.got.tgz:17327.got - 2010.06.03 19:46:02.
