data_PCOD9131069
_publ_section_title
;
Structure prediction by ZEFSAII (Michael W. Deem and Ramdas Pophale) SiO2 
 PCOD9131069
Probable space group: P M
;
_chemical_formula_sum "Si O2"
_cell_formula_units_Z 16
_cell_length_a 7.352323
_cell_length_b 8.978657
_cell_length_c 19.089012
_cell_angle_alpha 90.000000
_cell_angle_beta 40.841577
_cell_angle_gamma 90.000000
_cell_volume 824.094603
_symmetry_space_group_name_H-M "P M"
_symmetry_group_IT_number 6
_symmetry_cell_setting 'monoclinic'
loop_
_space_group_symop_operation_xyz
x,y,z
x,-y,z
loop_
_atom_site_type_symbol
_atom_site_label
_atom_site_fract_x
_atom_site_fract_y
_atom_site_fract_z
Si Si1 0.245170 0.174357 0.307580
Si Si2 0.713489 0.824594 0.864747
Si Si3 0.679659 0.329472 0.089591
Si Si4 0.135465 0.320805 0.850377
Si Si5 0.224722 0.677409 0.462156
Si Si6 0.251529 0.328990 0.082551
Si Si7 0.815663 0.176194 0.304730
Si Si8 0.731863 0.823923 0.693839
O O1 0.536342 0.225543 0.188299
O O2 0.185294 0.270099 0.393518
O O3 0.009897 0.196678 0.316621
O O4 0.254055 0.000000 0.322951
O O5 0.767299 0.806064 0.766997
O O6 0.948237 0.742681 0.841984
O O7 0.713317 0.000000 0.882042
O O8 0.417994 0.754879 0.973386
O O9 0.696523 0.500000 0.110236
O O10 0.468353 0.330048 0.084769
O O11 0.971079 0.282466 0.970417
O O12 0.144682 0.500000 0.843873
O O13 0.438441 0.250417 0.760157
O O14 0.225762 0.500000 0.466661
O O15 0.522012 0.743660 0.398564
O O16 0.980826 0.746391 0.579974
O O17 0.193098 0.500000 0.080930
O O18 0.982261 0.246488 0.190818
O O19 0.777366 0.000000 0.305360
O O20 0.725897 0.000000 0.679693
#
# Coordination Sequence:
#
# PCOD9131069 Si02
#       8
#     2   2   2   2   2   2   2   2
#     4  10  21  38  62  89 119 154 191 237 290 344
#     4  10  21  38  61  88 120 157 194 237 290 346
#     4   8  16  32  55  86 121 153 188 230 281 343
#     4  10  21  38  62  90 120 154 192 239 291 344
#     4  12  26  42  61  84 114 153 198 246 290 342
#     4   9  17  32  57  89 123 154 188 234 287 346
#     4  10  21  39  63  89 119 154 192 237 290 347
#     4  11  25  43  61  83 114 153 199 246 289 342
#
# _framework density 19.415244000000001
#
# number of rings (size 3 to 8) (size 9 to 14) (size 15 to 20)
#    0.000    2.000    0.000    4.125    0.000    9.000 
#    0.000    3.750    0.000    0.000    0.000    0.000 
#    0.000    0.000    0.000    0.000    0.000    0.000 
#
# Total GULP energy -89435.545622 kJ/mol
# GULP energy per Si atom -5589.721601 kJ/mol
# Density = 1.937105 g / cm^3
# Si number density = 19.415244 Si / 1000 Ang^3
#
#
#
# Elastic Constant Matrix: (Units=GPa)
#
#
# Indices 1 2 3 4 5 6 
#
# 1 88.2399 64.4180 60.7437 0.0000 -15.2674 0.0000
# 2 64.4180 167.6563 118.1144 0.0000 -5.6695 0.0000
# 3 60.7437 118.1144 196.1073 0.0000 -23.9579 0.0000
# 4 0.0000 0.0000 0.0000 41.3060 0.0000 -1.4906
# 5 -15.2674 -5.6695 -23.9579 0.0000 29.1705 0.0000
# 6 0.0000 0.0000 0.0000 -1.4906 0.0000 13.1919
#
#
#
# Elastic Compliance Matrix: (Units=1/GPa)
#
#
# Indices 1 2 3 4 5 6 
#
# 1 0.017491 -0.005691 -0.001119 0.000000 0.007129 0.000000
# 2 -0.005691 0.012536 -0.006507 0.000000 -0.005886 0.000000
# 3 -0.001119 -0.006507 0.010158 0.000000 0.006492 0.000000
# 4 0.000000 0.000000 0.000000 0.024309 0.000000 0.002747
# 5 0.007129 -0.005886 0.006492 0.000000 0.042201 0.000000
# 6 0.000000 0.000000 0.000000 0.002747 0.000000 0.076115
#
#
# Mechanical properties :
#
#
# Convention : Reuss Voigt Hill
#
# Bulk Modulus (GPa) = 73.79236 104.28396 89.03816
# Shear Modulus (GPa) = 23.36868 30.64883 27.00876
#
# Velocity S-wave (km/s) = 3.47309 3.97747 3.73381
# Velocity P-wave (km/s) = 7.36024 8.65579 8.03417
#
# Compressibility (1/GPa) = 0.01355154
#
# Stress axis : x y z
#
# Youngs Moduli (GPa) = 57.17084 79.76844 98.44327
#
# Poissons Ratio (x) = 0.45397 0.11018
# Poissons Ratio (y) = 0.32536 0.64055
# Poissons Ratio (z) = 0.06399 0.51904
#
# Static dielectric constant tensor:
#      x y z
#    x 1.698100 0.000000 0.000700 
#    y 0.000000 1.645890 0.000000 
#    z 0.000700 0.000000 1.644710 
# 
# From -- ./inp_files/5897.got.cif
#   From: 2010.05.17/outbox.cif.g08.bks.cpg/sg6_3_cif.got.tgz:5897.got - 2010.06.03 19:42:10.
