data_PCOD9131675
_publ_section_title
;
Structure prediction by ZEFSAII (Michael W. Deem and Ramdas Pophale) SiO2 
 PCOD9131675
Probable space group: C M
;
_chemical_formula_sum "Si O2"
_cell_formula_units_Z 32
_cell_length_a 20.827164
_cell_length_b 7.946597
_cell_length_c 25.998453
_cell_angle_alpha 90.000000
_cell_angle_beta 156.825752
_cell_angle_gamma 90.000000
_cell_volume 1693.305454
_symmetry_space_group_name_H-M "C M"
_symmetry_group_IT_number 8
_symmetry_cell_setting 'monoclinic'
loop_
_space_group_symop_operation_xyz
x,y,z
x,-y,z
1/2+x,1/2+y,z
1/2+x,1/2-y,z
loop_
_atom_site_type_symbol
_atom_site_label
_atom_site_fract_x
_atom_site_fract_y
_atom_site_fract_z
Si Si1 0.210520 0.793024 0.126130
Si Si2 0.537852 0.195575 0.824195
Si Si3 0.539833 0.796425 0.167573
Si Si4 0.335345 0.297592 0.838477
Si Si5 0.210912 0.703448 0.636116
Si Si6 0.355945 0.798174 0.341574
Si Si7 0.337640 0.803649 0.112554
Si Si8 0.234265 0.799265 0.874114
O O1 0.290693 0.735872 0.238365
O O2 0.307235 0.733167 0.146792
O O3 0.209572 0.000000 0.124988
O O4 0.022149 0.738209 0.982945
O O5 0.355844 0.248304 0.704295
O O6 0.591744 0.228947 0.805349
O O7 0.559378 0.000000 0.851573
O O8 0.667163 0.292246 0.955704
O O9 0.717763 0.741111 0.281693
O O10 0.473257 0.732553 0.173538
O O11 0.535907 0.000000 0.165481
O O12 0.405291 0.740416 0.026148
O O13 0.341153 0.500000 0.840117
O O14 0.260628 0.235859 0.729784
O O15 0.235294 0.249879 0.815520
O O16 0.204598 0.500000 0.633406
O O17 0.034069 0.766274 0.488230
O O18 0.367730 0.000000 0.346047
O O19 0.377437 0.000000 0.148828
O O20 0.229146 0.000000 0.874506
#
# Coordination Sequence:
#
# PCOD9131675 Si02
#       8
#     4   4   4   4   4   4   4   4
#     4   9  16  30  54  79 102 135 179 218 252 304
#     4  11  21  33  53  80 108 139 178 221 263 315
#     4   9  18  31  50  75 105 137 169 213 267 311
#     4  10  18  32  55  79 105 139 179 221 262 309
#     4  10  21  37  54  75 109 148 176 212 268 320
#     4  10  20  34  54  77 104 140 179 213 255 317
#     4   9  17  33  54  77 106 140 175 216 267 312
#     4  10  20  34  54  80 109 138 173 222 270 314
#
# _framework density 18.897950000000002
#
# number of rings (size 3 to 8) (size 9 to 14) (size 15 to 20)
#    0.000    2.250    2.500    2.250    0.000    3.000 
#    0.000    1.875    0.000    1.500    0.000    0.000 
#    0.000    0.000    0.000    0.000    0.000    0.000 
#
# Total GULP energy -89270.883582 kJ/mol
# GULP energy per Si atom -5579.430224 kJ/mol
# Density = 1.885494 g / cm^3
# Si number density = 18.897950 Si / 1000 Ang^3
#
#
#
# Elastic Constant Matrix: (Units=GPa)
#
#
# Indices 1 2 3 4 5 6 
#
# 1 171.3574 1.2467 91.7267 -0.0003 14.9660 0.0000
# 2 1.2467 14.7931 4.0350 -0.0005 -5.8258 0.0001
# 3 91.7267 4.0350 127.2430 -0.0012 11.3569 -0.0003
# 4 -0.0003 -0.0005 -0.0012 9.4058 -0.0002 6.0782
# 5 14.9660 -5.8258 11.3569 -0.0002 26.2573 0.0000
# 6 0.0000 0.0001 -0.0003 6.0782 0.0000 19.0644
#
#
#
# Elastic Compliance Matrix: (Units=1/GPa)
#
#
# Indices 1 2 3 4 5 6 
#
# 1 0.009670 0.000001 -0.006739 -0.000001 -0.002597 0.000000
# 2 0.000001 0.076049 -0.004075 0.000005 0.018636 -0.000002
# 3 -0.006739 -0.004075 0.013089 0.000001 -0.002725 0.000000
# 4 -0.000001 0.000005 0.000001 0.133906 0.000002 -0.042693
# 5 -0.002597 0.018636 -0.002725 0.000002 0.044878 -0.000001
# 6 0.000000 -0.000002 0.000000 -0.042693 -0.000001 0.066065
#
#
# Mechanical properties :
#
#
# Convention : Reuss Voigt Hill
#
# Bulk Modulus (GPa) = 12.95653 56.37893 34.66773
# Shear Modulus (GPa) = 12.78731 25.37117 19.07924
#
# Velocity S-wave (km/s) = 2.60407 3.66804 3.18086
# Velocity P-wave (km/s) = 3.98905 6.91646 5.64579
#
# Compressibility (1/GPa) = 0.07718114
#
# Stress axis : x y z
#
# Youngs Moduli (GPa) = 103.41305 13.14936 76.39729
#
# Poissons Ratio (x) = -0.00001 0.51485
# Poissons Ratio (y) = -0.00006 0.31134
# Poissons Ratio (z) = 0.69691 0.05359
#
# Static dielectric constant tensor:
#      x y z
#    x 1.666360 0.000000 -0.002420 
#    y 0.000000 1.677050 0.000000 
#    z -0.002420 0.000000 1.632800 
# 
# From -- ./inp_files/16862.got.cif
#   From: 2010.05.17/outbox.cif.g08.bks.cpg/sg8_9_cif.got.tgz:16862.got - 2010.06.03 19:46:02.
