data_PCOD9131094
_publ_section_title
;
Structure prediction by ZEFSAII (Michael W. Deem and Ramdas Pophale) SiO2 
 PCOD9131094
Probable space group: P M
;
_chemical_formula_sum "Si O2"
_cell_formula_units_Z 16
_cell_length_a 9.799536
_cell_length_b 7.949319
_cell_length_c 8.510603
_cell_angle_alpha 90.000000
_cell_angle_beta 89.060070
_cell_angle_gamma 90.000000
_cell_volume 662.883683
_symmetry_space_group_name_H-M "P M"
_symmetry_group_IT_number 6
_symmetry_cell_setting 'monoclinic'
loop_
_space_group_symop_operation_xyz
x,y,z
x,-y,z
loop_
_atom_site_type_symbol
_atom_site_label
_atom_site_fract_x
_atom_site_fract_y
_atom_site_fract_z
Si Si1 0.689480 0.304476 0.310690
Si Si2 0.539409 0.693538 0.009480
Si Si3 0.190572 0.703769 0.329677
Si Si4 0.291938 0.804112 0.817311
Si Si5 0.790388 0.809540 0.836740
Si Si6 0.444191 0.803202 0.503875
Si Si7 0.929865 0.703762 0.511653
Si Si8 0.043900 0.304600 0.013439
O O1 0.712986 0.500000 0.270264
O O2 0.582286 0.289373 0.455089
O O3 0.831758 0.235897 0.371672
O O4 0.613786 0.229573 0.161031
O O5 0.499274 0.500000 0.043245
O O6 0.405624 0.785197 0.950709
O O7 0.658306 0.699096 0.876415
O O8 0.203876 0.500000 0.326254
O O9 0.336479 0.779882 0.364946
O O10 0.121236 0.756547 0.167748
O O11 0.083876 0.752918 0.468523
O O12 0.366446 0.737627 0.659617
O O13 0.258430 0.000000 0.794097
O O14 0.154817 0.711963 0.872349
O O15 0.867249 0.766470 0.674463
O O16 0.740960 0.000000 0.832233
O O17 0.905280 0.786241 0.968256
O O18 0.475182 0.000000 0.527242
O O19 0.925234 0.500000 0.513648
O O20 0.008948 0.500000 0.037916
#
# Coordination Sequence:
#
# PCOD9131094 Si02
#       8
#     2   2   2   2   2   2   2   2
#     4  10  22  40  63  89 117 151 198 248 294 348
#     4  11  23  41  64  90 119 157 202 247 295 354
#     4  10  22  40  63  89 117 151 198 248 294 348
#     4  11  24  41  60  90 126 159 198 245 296 354
#     4  12  25  40  60  90 124 158 197 246 298 354
#     4  11  24  39  58  86 122 159 196 239 292 352
#     4  10  21  40  64  88 116 154 197 246 298 352
#     4  11  23  41  64  90 119 157 202 247 295 354
#
# _framework density 24.136966000000001
#
# number of rings (size 3 to 8) (size 9 to 14) (size 15 to 20)
#    0.000    1.250    0.000    5.625    0.000   14.000 
#    0.000    1.250    0.000    0.000    0.000    0.000 
#    0.000    0.000    0.000    0.000    0.000    0.000 
#
# Total GULP energy -89610.857836 kJ/mol
# GULP energy per Si atom -5600.678615 kJ/mol
# Density = 2.408203 g / cm^3
# Si number density = 24.136966 Si / 1000 Ang^3
#
#
#
# Elastic Constant Matrix: (Units=GPa)
#
#
# Indices 1 2 3 4 5 6 
#
# 1 102.2664 -5.1384 -4.1239 0.0000 -0.0506 0.0000
# 2 -5.1384 39.2390 -4.3218 0.0000 1.3261 0.0000
# 3 -4.1239 -4.3218 67.4790 0.0000 -0.2898 0.0000
# 4 0.0000 0.0000 0.0000 33.2970 0.0000 35.6547
# 5 -0.0506 1.3261 -0.2898 0.0000 42.1869 0.0000
# 6 0.0000 0.0000 0.0000 35.6547 0.0000 -80.1122
#
#
#
# Elastic Compliance Matrix: (Units=1/GPa)
#
#
# Indices 1 2 3 4 5 6 
#
# 1 0.009875 0.001370 0.000691 0.000000 -0.000026 0.000000
# 2 0.001370 0.025883 0.001738 0.000000 -0.000800 0.000000
# 3 0.000691 0.001738 0.014973 0.000000 0.000049 0.000000
# 4 0.000000 0.000000 0.000000 0.020339 0.000000 0.009052
# 5 -0.000026 -0.000800 0.000049 0.000000 0.023729 0.000000
# 6 0.000000 0.000000 0.000000 0.009052 0.000000 -0.008454
#
#
# Mechanical properties :
#
#
# Convention : Reuss Voigt Hill
#
# Bulk Modulus (GPa) = 17.14394 20.20180 18.67287
# Shear Modulus (GPa) = 50.92125 13.91224 32.41674
#
# Velocity S-wave (km/s) = 4.59811 2.40341 3.66872
# Velocity P-wave (km/s) = 5.94208 4.01119 5.06942
#
# Compressibility (1/GPa) = 0.05832964
#
# Stress axis : x y z
#
# Youngs Moduli (GPa) = 101.26497 38.63581 66.78603
#
# Poissons Ratio (x) = -0.05294 -0.04616
# Poissons Ratio (y) = -0.13875 -0.11607
# Poissons Ratio (z) = -0.06999 -0.06715
#
# Static dielectric constant tensor:
#      x y z
#    x 1.853560 0.000000 0.004220 
#    y 0.000000 1.873250 0.000000 
#    z 0.004220 0.000000 1.987710 
# 
# From -- ./inp_files/2685.got.cif
#   From: 2010.05.17/outbox.cif.g08.bks.cpg/sg6_2_cif.got.tgz:2685.got - 2010.06.03 19:42:10.
