data_PCOD9131720
_publ_section_title
;
Structure prediction by ZEFSAII (Michael W. Deem and Ramdas Pophale) SiO2 
 PCOD9131720
Probable space group: C M
;
_chemical_formula_sum "Si O2"
_cell_formula_units_Z 24
_cell_length_a 18.342828
_cell_length_b 7.592316
_cell_length_c 13.877090
_cell_angle_alpha 90.000000
_cell_angle_beta 34.311287
_cell_angle_gamma 90.000000
_cell_volume 1089.377400
_symmetry_space_group_name_H-M "C M"
_symmetry_group_IT_number 8
_symmetry_cell_setting 'monoclinic'
loop_
_space_group_symop_operation_xyz
x,y,z
x,-y,z
1/2+x,1/2+y,z
1/2+x,1/2-y,z
loop_
_atom_site_type_symbol
_atom_site_label
_atom_site_fract_x
_atom_site_fract_y
_atom_site_fract_z
Si Si1 0.332870 0.000000 0.716051
Si Si2 0.231929 0.000000 0.616448
Si Si3 0.600274 0.794386 0.202819
Si Si4 0.159978 0.292724 0.556118
Si Si5 0.442263 0.500000 0.023609
Si Si6 0.373435 0.795499 0.959422
Si Si7 0.573197 0.797201 0.449512
Si Si8 0.045848 0.000000 0.117766
O O1 0.320320 0.000000 0.613929
O O2 0.423153 0.832555 0.642575
O O3 0.193967 0.000000 0.915814
O O4 0.241773 0.829589 0.537713
O O5 0.087943 0.000000 0.820533
O O6 0.755341 0.773150 0.024164
O O7 0.576770 0.724747 0.337961
O O8 0.533285 0.671297 0.197945
O O9 0.566189 0.000000 0.230942
O O10 0.194758 0.500000 0.520736
O O11 0.149842 0.224418 0.457123
O O12 0.012452 0.281619 0.756975
O O13 0.377834 0.673430 0.049033
O O14 0.455064 0.500000 0.123824
O O15 0.351336 0.000000 0.005562
O O16 0.621165 0.000000 0.386135
#
# Coordination Sequence:
#
# PCOD9131720 Si02
#       8
#     2   2   4   4   2   4   4   2
#     4   9  18  39  58  78 114 153 176 231 284 322
#     4   9  18  31  58  80 105 139 184 229 275 324
#     4  11  21  35  58  83 117 147 189 233 279 329
#     4   9  17  33  56  82 107 139 184 232 272 323
#     4   9  20  35  52  84 115 137 182 239 281 318
#     4  10  18  33  59  84 108 143 188 233 276 329
#     4   8  18  34  56  74 113 148 174 225 281 317
#     4  11  22  37  62  84 110 153 192 227 278 340
#
# _framework density 22.030932
#
# number of rings (size 3 to 8) (size 9 to 14) (size 15 to 20)
#    0.500    2.000    1.667    1.000    0.000    1.333 
#    0.000    4.167    5.500    0.000    0.000    0.000 
#    0.000    0.000    0.000    0.000    0.000    0.000 
#
# Total GULP energy -66978.534016 kJ/mol
# GULP energy per Si atom -5581.544501 kJ/mol
# Density = 2.198079 g / cm^3
# Si number density = 22.030932 Si / 1000 Ang^3
#
#
#
# Elastic Constant Matrix: (Units=GPa)
#
#
# Indices 1 2 3 4 5 6 
#
# 1 112.6954 55.7729 23.1871 0.0000 48.2379 0.0000
# 2 55.7729 122.1941 31.9110 0.0000 29.2918 0.0001
# 3 23.1871 31.9110 93.6753 0.0000 12.9534 0.0000
# 4 0.0000 0.0000 0.0000 19.2824 0.0000 10.3689
# 5 48.2379 29.2918 12.9534 0.0000 56.9162 0.0000
# 6 0.0000 0.0001 0.0000 10.3689 0.0000 31.3209
#
#
#
# Elastic Compliance Matrix: (Units=1/GPa)
#
#
# Indices 1 2 3 4 5 6 
#
# 1 0.015978 -0.004398 -0.000926 0.000000 -0.011067 0.000000
# 2 -0.004398 0.011201 -0.002525 0.000000 -0.001463 0.000000
# 3 -0.000926 -0.002525 0.011849 0.000000 -0.000612 0.000000
# 4 0.000000 0.000000 0.000000 0.063092 0.000000 -0.020887
# 5 -0.011067 -0.001463 -0.000612 0.000000 0.027842 0.000000
# 6 0.000000 0.000000 0.000000 -0.020887 0.000000 0.038842
#
#
# Mechanical properties :
#
#
# Convention : Reuss Voigt Hill
#
# Bulk Modulus (GPa) = 42.86325 61.14520 52.00422
# Shear Modulus (GPa) = 26.00385 36.01682 31.01033
#
# Velocity S-wave (km/s) = 3.43933 4.04769 3.75585
# Velocity P-wave (km/s) = 5.93887 7.04695 6.51651
#
# Compressibility (1/GPa) = 0.02333001
#
# Stress axis : x y z
#
# Youngs Moduli (GPa) = 62.58666 89.27801 84.39358
#
# Poissons Ratio (x) = 0.39262 0.07818
# Poissons Ratio (y) = 0.27524 0.21308
# Poissons Ratio (z) = 0.05798 0.22541
#
# Static dielectric constant tensor:
#      x y z
#    x 1.798320 0.000000 -0.030070 
#    y 0.000000 1.779240 0.000000 
#    z -0.030070 0.000000 1.868540 
# 
# From -- ./inp_files/22709.got.cif
#   From: 2010.05.17/outbox.cif.g08.bks.cpg/sg8_12_cif.got.tgz:22709.got - 2010.06.03 19:46:02.
