data_PCOD9131908
_publ_section_title
;
Structure prediction by ZEFSAII (Michael W. Deem and Ramdas Pophale) SiO2 
 PCOD9131908
Probable space group: C M
;
_chemical_formula_sum "Si O2"
_cell_formula_units_Z 24
_cell_length_a 5.581007
_cell_length_b 22.183095
_cell_length_c 7.439509
_cell_angle_alpha 90.000000
_cell_angle_beta 90.140923
_cell_angle_gamma 90.000000
_cell_volume 921.038249
_symmetry_space_group_name_H-M "C M"
_symmetry_group_IT_number 8
_symmetry_cell_setting 'monoclinic'
loop_
_space_group_symop_operation_xyz
x,y,z
x,-y,z
1/2+x,1/2+y,z
1/2+x,1/2-y,z
loop_
_atom_site_type_symbol
_atom_site_label
_atom_site_fract_x
_atom_site_fract_y
_atom_site_fract_z
Si Si1 0.937890 0.354889 0.924280
Si Si2 0.938154 0.886677 0.049437
Si Si3 0.107426 0.369297 0.543112
Si Si4 0.108511 0.105562 0.423988
Si Si5 0.647019 0.500000 0.714746
Si Si6 0.406560 0.253202 0.212981
Si Si7 0.647065 0.000000 0.724121
O O1 0.915558 0.298341 0.058490
O O2 0.016827 0.336863 0.723583
O O3 0.673613 0.385525 0.923253
O O4 0.165244 0.396709 0.984845
O O5 0.021747 0.919401 0.231560
O O6 0.916863 0.816656 0.110192
O O7 0.378328 0.354315 0.483944
O O8 0.138427 0.440236 0.599570
O O9 0.878341 0.366886 0.408531
O O10 0.139142 0.055636 0.576195
O O11 0.401186 0.500000 0.824663
O O12 0.893516 0.500000 0.820775
O O13 0.656788 0.249161 0.315762
#
# Coordination Sequence:
#
# PCOD9131908 Si02
#       7
#     4   4   4   4   2   4   2
#     4  10  19  33  53  74  99 134 167 203 253 302
#     4  10  19  33  53  74  99 134 167 203 253 302
#     4  10  19  33  53  76 101 131 170 208 244 293
#     4  10  19  33  53  76 101 131 170 208 244 293
#     4   8  16  30  48  70 100 134 160 196 252 298
#     4   8  16  30  50  66  90 128 166 192 238 302
#     4   8  16  30  48  70 100 134 160 196 252 298
#
# _framework density 26.057551
#
# number of rings (size 3 to 8) (size 9 to 14) (size 15 to 20)
#    0.000    2.667    0.000    2.000    0.000    0.000 
#    0.000    1.667    0.000   54.000    0.000    0.000 
#    0.000    0.000    0.000    0.000    0.000    0.000 
#
# Total GULP energy -66950.678785 kJ/mol
# GULP energy per Si atom -5579.223232 kJ/mol
# Density = 2.599824 g / cm^3
# Si number density = 26.057551 Si / 1000 Ang^3
#
#
#
# Elastic Constant Matrix: (Units=GPa)
#
#
# Indices 1 2 3 4 5 6 
#
# 1 308.9825 21.4075 17.5451 0.0000 -1.3074 0.0000
# 2 21.4075 78.7373 9.1228 0.0000 0.5271 0.0000
# 3 17.5451 9.1228 87.5521 0.0000 -0.0571 0.0000
# 4 0.0000 0.0000 0.0000 29.8117 0.0000 -0.0925
# 5 -1.3074 0.5271 -0.0571 0.0000 53.3617 0.0000
# 6 0.0000 0.0000 0.0000 -0.0925 0.0000 39.7497
#
#
#
# Elastic Compliance Matrix: (Units=1/GPa)
#
#
# Indices 1 2 3 4 5 6 
#
# 1 0.003328 -0.000838 -0.000579 0.000000 0.000089 0.000000
# 2 -0.000838 0.013068 -0.001194 0.000000 -0.000151 0.000000
# 3 -0.000579 -0.001194 0.011662 0.000000 0.000010 0.000000
# 4 0.000000 0.000000 0.000000 0.033544 0.000000 0.000078
# 5 0.000089 -0.000151 0.000010 0.000000 0.018744 0.000000
# 6 0.000000 0.000000 0.000000 0.000078 0.000000 0.025158
#
#
# Mechanical properties :
#
#
# Convention : Reuss Voigt Hill
#
# Bulk Modulus (GPa) = 43.79273 63.49142 53.64207
# Shear Modulus (GPa) = 42.25194 53.06440 47.65817
#
# Velocity S-wave (km/s) = 4.03114 4.51758 4.28127
# Velocity P-wave (km/s) = 6.20559 7.18541 6.71340
#
# Compressibility (1/GPa) = 0.02283484
#
# Stress axis : x y z
#
# Youngs Moduli (GPa) = 300.49997 76.52460 85.74650
#
# Poissons Ratio (x) = 0.06415 0.04969
# Poissons Ratio (y) = 0.25189 0.10236
# Poissons Ratio (z) = 0.17413 0.09135
#
# Static dielectric constant tensor:
#      x y z
#    x 2.167940 0.000000 0.022520 
#    y 0.000000 2.138810 0.000000 
#    z 0.022520 0.000000 2.020210 
# 
# From -- ./inp_files/6920.got.cif
#   From: 2010.05.17/outbox.cif.g08.bks.cpg/sg8_4_cif.got.tgz:6920.got - 2010.06.03 19:46:02.
