data_PCOD9131920
_publ_section_title
;
Structure prediction by ZEFSAII (Michael W. Deem and Ramdas Pophale) SiO2 
 PCOD9131920
Probable space group: C M
;
_chemical_formula_sum "Si O2"
_cell_formula_units_Z 30
_cell_length_a 16.622778
_cell_length_b 12.857614
_cell_length_c 13.647099
_cell_angle_alpha 90.000000
_cell_angle_beta 156.654508
_cell_angle_gamma 90.000000
_cell_volume 1155.847608
_symmetry_space_group_name_H-M "C M"
_symmetry_group_IT_number 8
_symmetry_cell_setting 'monoclinic'
loop_
_space_group_symop_operation_xyz
x,y,z
x,-y,z
1/2+x,1/2+y,z
1/2+x,1/2-y,z
loop_
_atom_site_type_symbol
_atom_site_label
_atom_site_fract_x
_atom_site_fract_y
_atom_site_fract_z
Si Si1 0.757920 0.380122 0.335290
Si Si2 0.972372 0.656500 0.298412
Si Si3 0.576958 0.000000 0.239347
Si Si4 0.397573 0.885469 0.915015
Si Si5 0.526666 0.616784 0.888614
Si Si6 0.846582 0.113623 0.108317
Si Si7 0.400834 0.837559 0.695470
Si Si8 0.170512 0.319006 0.716147
O O1 0.817407 0.500000 0.381120
O O2 0.744474 0.369991 0.436506
O O3 0.944888 0.309713 0.509743
O O4 0.570860 0.361280 0.053593
O O5 0.126823 0.634928 0.560312
O O6 0.024965 0.591367 0.262642
O O7 0.748974 0.624050 0.087199
O O8 0.961807 0.781369 0.269141
O O9 0.624642 0.095978 0.207865
O O10 0.374475 0.882458 0.774086
O O11 0.274059 0.792567 0.821729
O O12 0.335015 0.000000 0.891655
O O13 0.447121 0.500000 0.782276
O O14 0.405320 0.713292 0.710942
O O15 0.623048 0.125455 0.907839
O O16 0.796948 0.117677 0.937081
O O17 0.930690 0.000000 0.229766
#
# Coordination Sequence:
#
# PCOD9131920 Si02
#       8
#     4   4   2   4   4   4   4   4
#     4   9  18  34  57  82  99 134 177 221 262 308
#     4  10  19  33  57  84 103 136 177 223 268 310
#     4  10  20  36  56  74 108 142 184 208 264 326
#     4  10  21  36  53  74 109 147 176 210 262 326
#     4   9  18  33  58  80 103 131 178 223 265 311
#     4  10  19  34  55  83 105 134 176 229 266 303
#     4  10  19  34  56  76 107 141 177 214 263 315
#     4  10  19  33  54  80 104 135 181 217 260 311
#
# _framework density 25.954975999999998
#
# number of rings (size 3 to 8) (size 9 to 14) (size 15 to 20)
#    0.400    1.867    2.000    2.400    1.867    0.533 
#    2.400    1.333    0.000    4.800    0.000    0.000 
#    0.000    0.000    0.000    0.000    0.000    0.000 
#
# Total GULP energy -83768.923265 kJ/mol
# GULP energy per Si atom -5584.594884 kJ/mol
# Density = 2.589590 g / cm^3
# Si number density = 25.954976 Si / 1000 Ang^3
#
#
#
# Elastic Constant Matrix: (Units=GPa)
#
#
# Indices 1 2 3 4 5 6 
#
# 1 103.9337 49.5049 56.9516 0.0035 -23.2749 0.0030
# 2 49.5049 209.8543 55.5623 0.0020 -4.0384 0.0034
# 3 56.9516 55.5623 84.8999 0.0015 -6.8056 0.0026
# 4 0.0035 0.0020 0.0015 35.1913 0.0027 -14.5049
# 5 -23.2749 -4.0384 -6.8056 0.0027 47.8485 0.0037
# 6 0.0030 0.0034 0.0026 -14.5049 0.0037 26.3163
#
#
#
# Elastic Compliance Matrix: (Units=1/GPa)
#
#
# Indices 1 2 3 4 5 6 
#
# 1 0.017408 -0.001244 -0.010311 -0.000003 0.006896 -0.000004
# 2 -0.001244 0.005853 -0.003040 0.000000 -0.000543 0.000000
# 3 -0.010311 -0.003040 0.020495 0.000001 -0.002357 0.000000
# 4 -0.000003 0.000000 0.000001 0.036769 -0.000005 0.020266
# 5 0.006896 -0.000543 -0.002357 -0.000005 0.023873 -0.000007
# 6 -0.000004 0.000000 0.000000 0.020266 -0.000007 0.049170
#
#
# Mechanical properties :
#
#
# Convention : Reuss Voigt Hill
#
# Bulk Modulus (GPa) = 68.64269 80.30282 74.47275
# Shear Modulus (GPa) = 26.65064 37.64918 32.14991
#
# Velocity S-wave (km/s) = 3.20785 3.81275 3.52331
# Velocity P-wave (km/s) = 6.34229 7.09853 6.73104
#
# Compressibility (1/GPa) = 0.01456819
#
# Stress axis : x y z
#
# Youngs Moduli (GPa) = 57.44401 170.85324 48.79159
#
# Poissons Ratio (x) = 0.21254 0.50307
# Poissons Ratio (y) = 0.07146 0.14830
# Poissons Ratio (z) = 0.59229 0.51931
#
# Static dielectric constant tensor:
#      x y z
#    x 2.067460 0.000000 0.028530 
#    y 0.000000 1.994120 0.000000 
#    z 0.028530 0.000000 2.133220 
# 
# From -- ./inp_files/27918.got.cif
#   From: 2010.05.17/outbox.cif.g08.bks.cpg/sg8_14_cif.got.tgz:27918.got - 2010.06.03 19:46:02.
