data_PCOD9131053
_publ_section_title
;
Structure prediction by ZEFSAII (Michael W. Deem and Ramdas Pophale) SiO2 
 PCOD9131053
Probable space group: P M
;
_chemical_formula_sum "Si O2"
_cell_formula_units_Z 16
_cell_length_a 14.391112
_cell_length_b 8.811199
_cell_length_c 19.159792
_cell_angle_alpha 90.000000
_cell_angle_beta 18.815833
_cell_angle_gamma 90.000000
_cell_volume 783.585885
_symmetry_space_group_name_H-M "P M"
_symmetry_group_IT_number 6
_symmetry_cell_setting 'monoclinic'
loop_
_space_group_symop_operation_xyz
x,y,z
x,-y,z
loop_
_atom_site_type_symbol
_atom_site_label
_atom_site_fract_x
_atom_site_fract_y
_atom_site_fract_z
Si Si1 0.831400 0.321311 0.288540
Si Si2 0.808197 0.178604 0.447584
Si Si3 0.302975 0.179401 0.593675
Si Si4 0.603412 0.679931 0.247135
Si Si5 0.184131 0.320341 0.894495
Si Si6 0.048003 0.679744 0.563224
Si Si7 0.116084 0.681655 0.362396
Si Si8 0.748979 0.181558 0.910364
O O1 0.831140 0.500000 0.301453
O O2 0.935490 0.237436 0.283771
O O3 0.505387 0.267649 0.503496
O O4 0.023977 0.292886 0.082746
O O5 0.472705 0.225339 0.685440
O O6 0.955680 0.255494 0.409138
O O7 0.841047 0.000000 0.429105
O O8 0.461878 0.215688 0.407168
O O9 0.976215 0.228888 0.809370
O O10 0.309198 0.000000 0.604324
O O11 0.582861 0.500000 0.282990
O O12 0.393142 0.697743 0.331033
O O13 0.942186 0.714595 0.007682
O O14 0.254222 0.500000 0.840724
O O15 0.985983 0.500000 0.616098
O O16 0.974068 0.726934 0.537401
O O17 0.887002 0.769811 0.738188
O O18 0.118411 0.500000 0.358474
O O19 0.440584 0.742154 0.133838
O O20 0.724156 0.000000 0.931309
#
# Coordination Sequence:
#
# PCOD9131053 Si02
#       8
#     2   2   2   2   2   2   2   2
#     4  10  21  39  63  87 115 152 192 236 282 335
#     4  12  26  41  58  82 114 151 193 242 291 342
#     4   9  17  31  54  87 122 151 183 226 282 344
#     4   8  15  31  56  86 116 146 184 229 280 339
#     4   9  19  37  61  87 115 148 185 229 283 341
#     4   9  19  37  61  87 114 148 190 234 282 337
#     4  11  24  41  60  82 111 151 200 245 281 332
#     4  10  21  37  59  88 121 153 185 231 289 342
#
# _framework density 20.418949999999999
#
# number of rings (size 3 to 8) (size 9 to 14) (size 15 to 20)
#    0.000    2.250    0.000    3.375    0.000    7.000 
#    0.000    2.500    0.000    0.000    0.000    0.000 
#    0.000    0.000    0.000    0.000    0.000    0.000 
#
# Total GULP energy -89333.484516 kJ/mol
# GULP energy per Si atom -5583.342782 kJ/mol
# Density = 2.037248 g / cm^3
# Si number density = 20.418950 Si / 1000 Ang^3
#
#
#
# Elastic Constant Matrix: (Units=GPa)
#
#
# Indices 1 2 3 4 5 6 
#
# 1 102.8914 24.7492 -0.7288 0.0000 5.2081 0.0000
# 2 24.7492 50.1323 10.7801 0.0000 0.8842 0.0000
# 3 -0.7288 10.7801 41.0085 0.0000 4.4662 0.0000
# 4 0.0000 0.0000 0.0000 42.6274 0.0000 -11.4844
# 5 5.2081 0.8842 4.4662 0.0000 17.2318 0.0000
# 6 0.0000 0.0000 0.0000 -11.4844 0.0000 22.3780
#
#
#
# Elastic Compliance Matrix: (Units=1/GPa)
#
#
# Indices 1 2 3 4 5 6 
#
# 1 0.011369 -0.006018 0.002186 0.000000 -0.003694 0.000000
# 2 -0.006018 0.024330 -0.006755 0.000000 0.002321 0.000000
# 3 0.002186 -0.006755 0.026996 0.000000 -0.007311 0.000000
# 4 0.000000 0.000000 0.000000 0.027223 0.000000 0.013971
# 5 -0.003694 0.002321 -0.007311 0.000000 0.060925 0.000000
# 6 0.000000 0.000000 0.000000 0.013971 0.000000 0.051857
#
#
# Mechanical properties :
#
#
# Convention : Reuss Voigt Hill
#
# Bulk Modulus (GPa) = 24.08405 29.29255 26.68830
# Shear Modulus (GPa) = 21.03381 27.06289 24.04835
#
# Velocity S-wave (km/s) = 3.21302 3.64453 3.43555
# Velocity P-wave (km/s) = 5.05818 5.66454 5.36993
#
# Compressibility (1/GPa) = 0.04152125
#
# Stress axis : x y z
#
# Youngs Moduli (GPa) = 87.95939 41.10214 37.04242
#
# Poissons Ratio (x) = 0.24733 -0.08098
# Poissons Ratio (y) = 0.52930 0.25024
# Poissons Ratio (z) = -0.19230 0.27766
#
# Static dielectric constant tensor:
#      x y z
#    x 1.746950 0.000000 0.008920 
#    y 0.000000 1.686170 0.000000 
#    z 0.008920 0.000000 1.737090 
# 
# From -- ./inp_files/5938.got.cif
#   From: 2010.05.17/outbox.cif.g08.bks.cpg/sg6_3_cif.got.tgz:5938.got - 2010.06.03 19:42:10.
