data_PCOD9131522
_publ_section_title
;
Structure prediction by ZEFSAII (Michael W. Deem and Ramdas Pophale) SiO2 
 PCOD9131522
Probable space group: C M
;
_chemical_formula_sum "Si O2"
_cell_formula_units_Z 32
_cell_length_a 23.878725
_cell_length_b 8.776403
_cell_length_c 11.898965
_cell_angle_alpha 90.000000
_cell_angle_beta 45.150142
_cell_angle_gamma 90.000000
_cell_volume 1767.897005
_symmetry_space_group_name_H-M "C M"
_symmetry_group_IT_number 8
_symmetry_cell_setting 'monoclinic'
loop_
_space_group_symop_operation_xyz
x,y,z
x,-y,z
1/2+x,1/2+y,z
1/2+x,1/2-y,z
loop_
_atom_site_type_symbol
_atom_site_label
_atom_site_fract_x
_atom_site_fract_y
_atom_site_fract_z
Si Si1 0.210720 0.316063 0.210500
Si Si2 0.252912 0.816821 0.619746
Si Si3 0.437939 0.316408 0.999407
Si Si4 0.581615 0.317291 0.954403
Si Si5 0.638739 0.820233 0.090255
Si Si6 0.317713 0.320502 0.741811
Si Si7 0.775898 0.683025 0.327217
Si Si8 0.874431 0.681757 0.877993
O O1 0.215466 0.500000 0.206189
O O2 0.144146 0.271874 0.213187
O O3 0.209153 0.249382 0.337873
O O4 0.292539 0.250297 0.043748
O O5 0.164816 0.769063 0.781732
O O6 0.313931 0.742929 0.621020
O O7 0.264425 0.777802 0.473597
O O8 0.258240 0.000000 0.623639
O O9 0.435317 0.500000 0.996415
O O10 0.358375 0.254491 0.169813
O O11 0.510395 0.267519 0.975533
O O12 0.439329 0.248510 0.871501
O O13 0.580585 0.500000 0.958378
O O14 0.581541 0.259757 0.082701
O O15 0.623169 0.000000 0.109348
O O16 0.728088 0.796188 0.916122
O O17 0.333098 0.500000 0.721898
O O18 0.375175 0.236749 0.748135
O O19 0.778126 0.500000 0.312202
O O20 0.872772 0.500000 0.886267
#
# Coordination Sequence:
#
# PCOD9131522 Si02
#       8
#     4   4   4   4   4   4   4   4
#     4   9  16  27  43  65  92 119 151 190 229 269
#     4   9  18  32  48  69  95 121 153 189 227 273
#     4  10  19  31  47  68  94 122 155 191 227 271
#     4   9  18  31  48  68  91 121 153 188 227 268
#     4   8  15  26  42  65  90 115 146 187 229 267
#     4   9  16  27  44  67  92 118 150 188 230 270
#     4  10  19  30  47  70  95 123 152 187 231 274
#     4  10  17  26  43  66  91 119 152 190 230 268
#
# _framework density 18.100601999999999
#
# number of rings (size 3 to 8) (size 9 to 14) (size 15 to 20)
#    0.000    2.750    0.000    4.875    0.000    5.500 
#    0.000    0.000    0.000    1.500    0.000    5.250 
#    0.000    0.000    0.000    0.000    0.000    0.000 
#
# Total GULP energy -89105.485033 kJ/mol
# GULP energy per Si atom -5569.092815 kJ/mol
# Density = 1.805940 g / cm^3
# Si number density = 18.100602 Si / 1000 Ang^3
#
#
#
# Elastic Constant Matrix: (Units=GPa)
#
#
# Indices 1 2 3 4 5 6 
#
# 1 171.1160 52.8066 49.0994 0.0000 55.6173 0.0000
# 2 52.8066 53.8259 25.0418 0.0000 25.3246 0.0000
# 3 49.0994 25.0418 50.6808 0.0000 38.2277 0.0000
# 4 0.0000 0.0000 0.0000 16.8304 0.0000 11.0176
# 5 55.6173 25.3246 38.2277 0.0000 37.9998 0.0000
# 6 0.0000 0.0000 0.0000 11.0176 0.0000 29.8293
#
#
#
# Elastic Compliance Matrix: (Units=1/GPa)
#
#
# Indices 1 2 3 4 5 6 
#
# 1 0.012599 -0.005287 0.006874 0.000000 -0.021832 0.000000
# 2 -0.005287 0.029294 -0.001922 0.000000 -0.009852 0.000000
# 3 0.006874 -0.001922 0.085592 0.000000 -0.094885 0.000000
# 4 0.000000 0.000000 0.000000 0.078364 0.000000 -0.028944
# 5 -0.021832 -0.009852 -0.094885 0.000000 0.160290 0.000000
# 6 0.000000 0.000000 0.000000 -0.028944 0.000000 0.044215
#
#
# Mechanical properties :
#
#
# Convention : Reuss Voigt Hill
#
# Bulk Modulus (GPa) = 7.88542 58.83536 33.36039
# Shear Modulus (GPa) = 11.03035 26.84355 18.93695
#
# Velocity S-wave (km/s) = 2.47126 3.85518 3.23802
# Velocity P-wave (km/s) = 3.53677 7.23821 5.69651
#
# Compressibility (1/GPa) = 0.12681631
#
# Stress axis : x y z
#
# Youngs Moduli (GPa) = 79.37028 34.13632 11.68338
#
# Poissons Ratio (x) = 0.18047 -0.08031
# Poissons Ratio (y) = 0.41961 0.02245
# Poissons Ratio (z) = -0.54558 0.06560
#
# Static dielectric constant tensor:
#      x y z
#    x 1.666450 0.000000 0.031780 
#    y 0.000000 1.608410 0.000000 
#    z 0.031780 0.000000 1.643290 
# 
# From -- ./inp_files/24246.got.cif
#   From: 2010.05.17/outbox.cif.g08.bks.cpg/sg8_13_cif.got.tgz:24246.got - 2010.06.03 19:46:02.
