data_PCOD9131001
_publ_section_title
;
Structure prediction by ZEFSAII (Michael W. Deem and Ramdas Pophale) SiO2 
 PCOD9131001
Probable space group: P M
;
_chemical_formula_sum "Si O2"
_cell_formula_units_Z 13
_cell_length_a 7.900828
_cell_length_b 7.162895
_cell_length_c 12.136721
_cell_angle_alpha 90.000000
_cell_angle_beta 123.468687
_cell_angle_gamma 90.000000
_cell_volume 572.962442
_symmetry_space_group_name_H-M "P M"
_symmetry_group_IT_number 6
_symmetry_cell_setting 'monoclinic'
loop_
_space_group_symop_operation_xyz
x,y,z
x,-y,z
loop_
_atom_site_type_symbol
_atom_site_label
_atom_site_fract_x
_atom_site_fract_y
_atom_site_fract_z
Si Si1 0.345540 0.226039 0.011760
Si Si2 0.755367 0.774874 0.538146
Si Si3 0.525519 0.773815 0.849095
Si Si4 0.161668 0.225262 0.549607
Si Si5 0.162621 0.500000 0.340068
Si Si6 0.880013 0.772659 0.824210
Si Si7 0.357038 0.223968 0.264771
O O1 0.410687 0.274759 0.158354
O O2 0.347220 0.000000 0.008085
O O3 0.475599 0.290549 0.954342
O O4 0.112508 0.285299 0.913901
O O5 0.784665 0.713192 0.673738
O O6 0.545430 0.714181 0.408957
O O7 0.950730 0.727839 0.535365
O O8 0.747591 0.000000 0.537140
O O9 0.344244 0.727112 0.699146
O O10 0.736811 0.712997 0.872265
O O11 0.528558 0.000000 0.853527
O O12 0.173173 0.337381 0.441003
O O13 0.169386 0.000000 0.533952
O O14 0.169933 0.336580 0.245897
O O15 0.881367 0.000000 0.824370
O O16 0.329869 0.000000 0.260306
#
# Coordination Sequence:
#
# PCOD9131001 Si02
#       7
#     2   2   2   2   1   2   2
#     4   9  17  33  55  84 120 155 194 243 299 358
#     4   9  17  34  61  90 119 156 200 248 300 353
#     4   9  16  30  57  90 119 151 197 246 295 357
#     4  10  20  37  61  91 123 154 199 255 300 352
#     4  12  24  38  58  86 122 162 202 248 302 356
#     4   9  15  27  55  88 116 152 198 244 295 353
#     4  10  22  40  61  86 120 160 201 247 300 358
#
# _framework density 22.689095999999999
#
# number of rings (size 3 to 8) (size 9 to 14) (size 15 to 20)
#    0.000    2.462    1.538    1.385    0.000    3.077 
#    2.769    0.769    0.000    0.923    0.000    0.000 
#    0.000    0.000    0.000    0.000    0.000    0.000 
#
# Total GULP energy -72420.659521 kJ/mol
# GULP energy per Si atom -5570.819963 kJ/mol
# Density = 2.263745 g / cm^3
# Si number density = 22.689096 Si / 1000 Ang^3
#
#
#
# Elastic Constant Matrix: (Units=GPa)
#
#
# Indices 1 2 3 4 5 6 
#
# 1 111.2899 15.6328 61.7809 0.0000 -42.7794 0.0000
# 2 15.6328 142.4763 9.2353 0.0000 -16.5335 0.0000
# 3 61.7809 9.2353 77.0845 0.0000 -26.9451 0.0000
# 4 0.0000 0.0000 0.0000 -49.0345 0.0000 8.0928
# 5 -42.7794 -16.5335 -26.9451 0.0000 44.0183 0.0000
# 6 0.0000 0.0000 0.0000 8.0928 0.0000 -26.4237
#
#
#
# Elastic Compliance Matrix: (Units=1/GPa)
#
#
# Indices 1 2 3 4 5 6 
#
# 1 0.020490 -0.000013 -0.012037 0.000000 0.012540 0.000000
# 2 -0.000013 0.007339 0.000115 0.000000 0.002815 0.000000
# 3 -0.012037 0.000115 0.023577 0.000000 0.002777 0.000000
# 4 0.000000 0.000000 0.000000 -0.021480 0.000000 -0.006579
# 5 0.012540 0.002815 0.002777 0.000000 0.037662 0.000000
# 6 0.000000 0.000000 0.000000 -0.006579 0.000000 -0.039860
#
#
# Mechanical properties :
#
#
# Convention : Reuss Voigt Hill
#
# Bulk Modulus (GPa) = 36.31583 56.01650 46.16616
# Shear Modulus (GPa) = 82.26621 9.99214 46.12917
#
# Velocity S-wave (km/s) = 6.02800 2.10083 4.51388
# Velocity P-wave (km/s) = 8.03054 5.53417 6.89625
#
# Compressibility (1/GPa) = 0.02753620
#
# Stress axis : x y z
#
# Youngs Moduli (GPa) = 48.80447 136.25307 42.41385
#
# Poissons Ratio (x) = 0.00174 0.51054
# Poissons Ratio (y) = 0.00062 -0.00487
# Poissons Ratio (z) = 0.58746 -0.01563
#
# Static dielectric constant tensor:
#      x y z
#    x 1.833530 0.000000 0.013720 
#    y 0.000000 1.894850 0.000000 
#    z 0.013720 0.000000 1.799920 
# 
# From -- ./inp_files/4523.got.cif
#   From: 2010.05.17/outbox.cif.g08.bks.cpg/sg6_3_cif.got.tgz:4523.got - 2010.06.03 19:42:10.
