data_PCOD9131556
_publ_section_title
;
Structure prediction by ZEFSAII (Michael W. Deem and Ramdas Pophale) SiO2 
 PCOD9131556
Probable space group: C M
;
_chemical_formula_sum "Si O2"
_cell_formula_units_Z 32
_cell_length_a 13.202656
_cell_length_b 17.179853
_cell_length_c 7.690806
_cell_angle_alpha 90.000000
_cell_angle_beta 132.609588
_cell_angle_gamma 90.000000
_cell_volume 1283.869456
_symmetry_space_group_name_H-M "C M"
_symmetry_group_IT_number 8
_symmetry_cell_setting 'monoclinic'
loop_
_space_group_symop_operation_xyz
x,y,z
x,-y,z
1/2+x,1/2+y,z
1/2+x,1/2-y,z
loop_
_atom_site_type_symbol
_atom_site_label
_atom_site_fract_x
_atom_site_fract_y
_atom_site_fract_z
Si Si1 0.028100 0.909124 0.939150
Si Si2 0.770219 0.706981 0.222445
Si Si3 0.282695 0.698409 0.594770
Si Si4 0.726355 0.875527 0.084838
Si Si5 0.958062 0.412565 0.588689
Si Si6 0.033078 0.086564 0.363471
Si Si7 0.066042 0.410287 0.261928
Si Si8 0.315689 0.146636 0.778219
O O1 0.898004 0.867084 0.702836
O O2 0.038084 0.000000 0.905582
O O3 0.158462 0.857130 0.044840
O O4 0.019001 0.902679 0.139246
O O5 0.751813 0.747860 0.390978
O O6 0.748739 0.783063 0.081567
O O7 0.907299 0.656972 0.407513
O O8 0.146185 0.650407 0.476006
O O9 0.344742 0.761279 0.799576
O O10 0.648897 0.896874 0.175119
O O11 0.880123 0.907372 0.259449
O O12 0.618864 0.907719 0.820156
O O13 0.921773 0.500000 0.488576
O O14 0.873452 0.395688 0.670255
O O15 0.150908 0.139502 0.584550
O O16 0.087687 0.000000 0.456595
O O17 0.080979 0.500000 0.331125
O O18 0.908037 0.389899 0.036336
#
# Coordination Sequence:
#
# PCOD9131556 Si02
#       8
#     4   4   4   4   4   4   4   4
#     4  11  21  35  59  89 118 147 188 240 285 336
#     4  10  19  35  56  81 112 148 191 231 274 336
#     4  10  19  33  53  83 112 143 185 232 281 326
#     4  10  21  35  54  82 115 146 185 237 282 333
#     4  10  17  32  55  79 106 142 188 230 271 331
#     4  11  21  36  57  89 119 148 187 238 291 335
#     4  10  19  34  57  81 106 145 190 232 274 332
#     4  10  19  32  57  80 110 147 190 234 274 329
#
# _framework density 24.924654
#
# number of rings (size 3 to 8) (size 9 to 14) (size 15 to 20)
#    0.000    1.750    2.500    6.750    0.000    0.000 
#    2.250    0.000    0.000    0.000    0.000    0.000 
#    0.000    0.000    0.000    0.000    0.000    0.000 
#
# Total GULP energy -89475.808578 kJ/mol
# GULP energy per Si atom -5592.238036 kJ/mol
# Density = 2.486792 g / cm^3
# Si number density = 24.924654 Si / 1000 Ang^3
#
#
#
# Elastic Constant Matrix: (Units=GPa)
#
#
# Indices 1 2 3 4 5 6 
#
# 1 78.8301 2.3500 24.8396 0.0000 1.2484 0.0000
# 2 2.3500 201.8257 37.5467 0.0000 9.6278 0.0000
# 3 24.8396 37.5467 102.7284 0.0000 41.9908 0.0000
# 4 0.0000 0.0000 0.0000 69.7310 0.0000 -4.1295
# 5 1.2484 9.6278 41.9908 0.0000 34.3727 0.0000
# 6 0.0000 0.0000 0.0000 -4.1295 0.0000 -12.7130
#
#
#
# Elastic Compliance Matrix: (Units=1/GPa)
#
#
# Indices 1 2 3 4 5 6 
#
# 1 0.014768 0.000768 -0.007080 0.000000 0.007898 0.000000
# 2 0.000768 0.005411 -0.003061 0.000000 0.002196 0.000000
# 3 -0.007080 -0.003061 0.024188 0.000000 -0.028434 0.000000
# 4 0.000000 0.000000 0.000000 0.014070 0.000000 -0.004570
# 5 0.007898 0.002196 -0.028434 0.000000 0.062926 0.000000
# 6 0.000000 0.000000 0.000000 -0.004570 0.000000 -0.077175
#
#
# Mechanical properties :
#
#
# Convention : Reuss Voigt Hill
#
# Bulk Modulus (GPa) = 39.02969 56.98410 48.00689
# Shear Modulus (GPa) = 69.95595 39.52136 54.73865
#
# Velocity S-wave (km/s) = 5.30357 3.98632 4.69141
# Velocity P-wave (km/s) = 7.29362 6.64077 6.97484
#
# Compressibility (1/GPa) = 0.02562152
#
# Stress axis : x y z
#
# Youngs Moduli (GPa) = 67.71184 184.82559 41.34359
#
# Poissons Ratio (x) = -0.14203 0.29271
# Poissons Ratio (y) = -0.05203 0.12655
# Poissons Ratio (z) = 0.47940 0.56573
#
# Static dielectric constant tensor:
#      x y z
#    x 2.071820 0.000000 -0.069240 
#    y 0.000000 1.930480 0.000000 
#    z -0.069240 0.000000 1.975640 
# 
# From -- ./inp_files/23411.got.cif
#   From: 2010.05.17/outbox.cif.g08.bks.cpg/sg8_12_cif.got.tgz:23411.got - 2010.06.03 19:46:02.
