data_PCOD9131105
_publ_section_title
;
Structure prediction by ZEFSAII (Michael W. Deem and Ramdas Pophale) SiO2 
 PCOD9131105
Probable space group: P M
;
_chemical_formula_sum "Si O2"
_cell_formula_units_Z 10
_cell_length_a 6.800917
_cell_length_b 11.782522
_cell_length_c 6.042777
_cell_angle_alpha 90.000000
_cell_angle_beta 97.810394
_cell_angle_gamma 90.000000
_cell_volume 479.727524
_symmetry_space_group_name_H-M "P M"
_symmetry_group_IT_number 6
_symmetry_cell_setting 'monoclinic'
loop_
_space_group_symop_operation_xyz
x,y,z
x,-y,z
loop_
_atom_site_type_symbol
_atom_site_label
_atom_site_fract_x
_atom_site_fract_y
_atom_site_fract_z
Si Si1 0.254230 0.627490 0.143540
Si Si2 0.759115 0.000000 0.417499
Si Si3 0.002036 0.768219 0.397205
Si Si4 0.381810 0.762551 0.766381
Si Si5 0.546378 0.000000 0.895067
Si Si6 0.645037 0.628825 0.515869
O O1 0.173870 0.500000 0.153876
O O2 0.455121 0.633104 0.321731
O O3 0.094983 0.724206 0.181568
O O4 0.323889 0.658238 0.911998
O O5 0.889183 0.113764 0.410332
O O6 0.655504 0.000000 0.655851
O O7 0.643656 0.000000 0.159157
O O8 0.848225 0.670054 0.440520
O O9 0.198012 0.775070 0.575182
O O10 0.585686 0.722004 0.686642
O O11 0.421847 0.884052 0.878277
O O12 0.661238 0.500000 0.600608
#
# Coordination Sequence:
#
# PCOD9131105 Si02
#       6
#     2   1   2   2   1   2
#     4  10  23  41  65  99 137 182 229 283 346 414
#     4  12  27  47  74 103 138 186 236 286 351 416
#     4  11  24  42  68  99 136 177 233 287 345 411
#     4  11  24  42  68  97 136 180 230 287 347 410
#     4  12  27  47  74 101 140 186 234 288 351 416
#     4  10  21  41  65  94 136 181 225 282 344 411
#
# _framework density 20.845165000000001
#
# number of rings (size 3 to 8) (size 9 to 14) (size 15 to 20)
#    0.000    1.200    2.000    3.000    5.600    4.800 
#    0.000    0.000    0.000    0.000    0.000    0.000 
#    0.000    0.000    0.000    0.000    0.000    0.000 
#
# Total GULP energy -55678.161226 kJ/mol
# GULP energy per Si atom -5567.816123 kJ/mol
# Density = 2.079772 g / cm^3
# Si number density = 20.845165 Si / 1000 Ang^3
#
#
#
# Elastic Constant Matrix: (Units=GPa)
#
#
# Indices 1 2 3 4 5 6 
#
# 1 62.4741 22.0603 12.6562 0.0000 -12.2097 0.0000
# 2 22.0603 101.5215 -6.4027 0.0000 11.9560 0.0000
# 3 12.6562 -6.4027 52.2793 0.0000 -0.8406 0.0000
# 4 0.0000 0.0000 0.0000 27.5321 0.0000 -2.5219
# 5 -12.2097 11.9560 -0.8406 0.0000 21.4790 0.0000
# 6 0.0000 0.0000 0.0000 -2.5219 0.0000 42.4410
#
#
#
# Elastic Compliance Matrix: (Units=1/GPa)
#
#
# Indices 1 2 3 4 5 6 
#
# 1 0.023263 -0.007469 -0.006271 0.000000 0.017136 0.000000
# 2 -0.007469 0.013014 0.003219 0.000000 -0.011364 0.000000
# 3 -0.006271 0.003219 0.020967 0.000000 -0.004536 0.000000
# 4 0.000000 0.000000 0.000000 0.036520 0.000000 0.002170
# 5 0.017136 -0.011364 -0.004536 0.000000 0.062446 0.000000
# 6 0.000000 0.000000 0.000000 0.002170 0.000000 0.023691
#
#
# Mechanical properties :
#
#
# Convention : Reuss Voigt Hill
#
# Bulk Modulus (GPa) = 27.62086 30.32250 28.97168
# Shear Modulus (GPa) = 23.47298 30.82117 27.14708
#
# Velocity S-wave (km/s) = 3.35933 3.84940 3.61268
# Velocity P-wave (km/s) = 5.32222 5.85963 5.59738
#
# Compressibility (1/GPa) = 0.03620452
#
# Stress axis : x y z
#
# Youngs Moduli (GPa) = 42.98634 76.83824 47.69293
#
# Poissons Ratio (x) = 0.57387 0.29908
# Poissons Ratio (y) = 0.32105 -0.15353
# Poissons Ratio (z) = 0.26956 -0.24736
#
# Static dielectric constant tensor:
#      x y z
#    x 1.697760 0.000000 0.015140 
#    y 0.000000 1.704950 0.000000 
#    z 0.015140 0.000000 1.805010 
# 
# From -- ./inp_files/159.got.cif
#   From: 2010.05.17/outbox.cif.g08.bks.cpg/sg6_1_cif.got.tgz:159.got - 2010.06.03 19:42:10.
