data_PCOD9131589
_publ_section_title
;
Structure prediction by ZEFSAII (Michael W. Deem and Ramdas Pophale) SiO2 
 PCOD9131589
Probable space group: C M
;
_chemical_formula_sum "Si O2"
_cell_formula_units_Z 32
_cell_length_a 25.128136
_cell_length_b 8.963951
_cell_length_c 19.196982
_cell_angle_alpha 90.000000
_cell_angle_beta 153.048983
_cell_angle_gamma 90.000000
_cell_volume 1959.792143
_symmetry_space_group_name_H-M "C M"
_symmetry_group_IT_number 8
_symmetry_cell_setting 'monoclinic'
loop_
_space_group_symop_operation_xyz
x,y,z
x,-y,z
1/2+x,1/2+y,z
1/2+x,1/2-y,z
loop_
_atom_site_type_symbol
_atom_site_label
_atom_site_fract_x
_atom_site_fract_y
_atom_site_fract_z
Si Si1 0.132380 0.677204 0.096090
Si Si2 0.309636 0.829043 0.202626
Si Si3 0.479175 0.177408 0.672652
Si Si4 0.739088 0.822369 0.366062
Si Si5 0.946019 0.822979 0.247513
Si Si6 0.438602 0.322735 0.776134
Si Si7 0.171191 0.676543 0.444174
Si Si8 0.717375 0.329318 0.944760
O O1 0.120528 0.500000 0.070830
O O2 0.248154 0.736675 0.191224
O O3 0.152063 0.705620 0.200685
O O4 0.022488 0.761921 0.934213
O O5 0.418839 0.749990 0.291628
O O6 0.334335 0.000000 0.251252
O O7 0.217870 0.833049 0.030398
O O8 0.361224 0.235970 0.498413
O O9 0.465635 0.235448 0.736265
O O10 0.599097 0.248965 0.783571
O O11 0.486635 0.000000 0.679857
O O12 0.686199 0.784013 0.379901
O O13 0.765631 0.000000 0.398992
O O14 0.069047 0.768883 0.361090
O O15 0.937472 0.000000 0.241837
O O16 0.839012 0.758796 0.074825
O O17 0.456697 0.500000 0.786292
O O18 0.299817 0.300461 0.627606
O O19 0.142933 0.500000 0.415533
O O20 0.724148 0.500000 0.928526
#
# Coordination Sequence:
#
# PCOD9131589 Si02
#       8
#     4   4   4   4   4   4   4   4
#     4  11  20  32  51  77 104 131 166 206 248 295
#     4   9  18  30  48  72  98 130 161 196 244 296
#     4  11  19  29  48  75 101 126 165 211 247 286
#     4   9  21  36  50  70 104 141 165 196 248 304
#     4  10  18  29  48  75 100 122 161 214 252 284
#     4  10  19  31  49  70  98 133 166 203 247 295
#     4   9  18  34  51  69  96 133 170 200 242 299
#     4   9  17  29  47  70  97 128 158 194 244 295
#
# _framework density 16.328261999999999
#
# number of rings (size 3 to 8) (size 9 to 14) (size 15 to 20)
#    0.750    1.500    1.250    4.125    0.000    3.500 
#    0.000    0.000    0.000    1.500    0.000    5.250 
#    0.000    0.000    0.000    0.000    0.000    0.000 
#
# Total GULP energy -89094.871825 kJ/mol
# GULP energy per Si atom -5568.429489 kJ/mol
# Density = 1.629110 g / cm^3
# Si number density = 16.328262 Si / 1000 Ang^3
#
#
#
# Elastic Constant Matrix: (Units=GPa)
#
#
# Indices 1 2 3 4 5 6 
#
# 1 58.3951 33.2109 37.3227 0.0000 12.0075 0.0000
# 2 33.2109 96.8331 46.0583 0.0000 10.2985 0.0000
# 3 37.3227 46.0583 79.4632 0.0000 5.3055 0.0000
# 4 0.0000 0.0000 0.0000 17.0995 0.0000 3.4399
# 5 12.0075 10.2985 5.3055 0.0000 25.6777 0.0000
# 6 0.0000 0.0000 0.0000 3.4399 0.0000 22.4418
#
#
#
# Elastic Compliance Matrix: (Units=1/GPa)
#
#
# Indices 1 2 3 4 5 6 
#
# 1 0.027674 -0.003603 -0.010284 0.000000 -0.009371 0.000000
# 2 -0.003603 0.015159 -0.006895 0.000000 -0.002970 0.000000
# 3 -0.010284 -0.006895 0.021198 0.000000 0.003195 0.000000
# 4 0.000000 0.000000 0.000000 0.060342 0.000000 -0.009249
# 5 -0.009371 -0.002970 0.003195 0.000000 0.043857 0.000000
# 6 0.000000 0.000000 0.000000 -0.009249 0.000000 0.045977
#
#
# Mechanical properties :
#
#
# Convention : Reuss Voigt Hill
#
# Bulk Modulus (GPa) = 44.51313 51.98615 48.24964
# Shear Modulus (GPa) = 18.99260 20.91708 19.95484
#
# Velocity S-wave (km/s) = 3.41423 3.58304 3.49965
# Velocity P-wave (km/s) = 6.54700 7.00177 6.77820
#
# Compressibility (1/GPa) = 0.02246528
#
# Stress axis : x y z
#
# Youngs Moduli (GPa) = 36.13547 65.96958 47.17415
#
# Poissons Ratio (x) = 0.23770 0.48513
# Poissons Ratio (y) = 0.13020 0.32529
# Poissons Ratio (z) = 0.37161 0.45489
#
# Static dielectric constant tensor:
#      x y z
#    x 1.536790 0.000000 0.002710 
#    y 0.000000 1.545310 0.000000 
#    z 0.002710 0.000000 1.557850 
# 
# From -- ./inp_files/30053.got.cif
#   From: 2010.05.17/outbox.cif.g08.bks.cpg/sg8_16_cif.got.tgz:30053.got - 2010.06.03 19:46:02.
