data_PCOD9131530
_publ_section_title
;
Structure prediction by ZEFSAII (Michael W. Deem and Ramdas Pophale) SiO2 
 PCOD9131530
Probable space group: C M
;
_chemical_formula_sum "Si O2"
_cell_formula_units_Z 28
_cell_length_a 7.708235
_cell_length_b 28.044394
_cell_length_c 5.379242
_cell_angle_alpha 90.000000
_cell_angle_beta 114.566252
_cell_angle_gamma 90.000000
_cell_volume 1057.586235
_symmetry_space_group_name_H-M "C M"
_symmetry_group_IT_number 8
_symmetry_cell_setting 'monoclinic'
loop_
_space_group_symop_operation_xyz
x,y,z
x,-y,z
1/2+x,1/2+y,z
1/2+x,1/2-y,z
loop_
_atom_site_type_symbol
_atom_site_label
_atom_site_fract_x
_atom_site_fract_y
_atom_site_fract_z
Si Si1 0.797160 0.378815 0.797650
Si Si2 0.909414 0.713220 0.652304
Si Si3 0.091981 0.000000 0.200316
Si Si4 0.852545 0.892819 0.555556
Si Si5 0.845640 0.000000 0.557084
Si Si6 0.577805 0.767166 0.253176
Si Si7 0.423243 0.340871 0.099581
Si Si8 0.812749 0.597028 0.309368
O O1 0.775253 0.322961 0.728352
O O2 0.586569 0.401731 0.688410
O O3 0.913611 0.396292 0.629778
O O4 0.908804 0.391123 0.110182
O O5 0.778289 0.758215 0.510407
O O6 0.971131 0.702095 0.404435
O O7 0.073264 0.717509 0.959800
O O8 0.225418 0.045264 0.257243
O O9 0.978827 0.000000 0.391362
O O10 0.949435 0.000000 0.884559
O O11 0.824619 0.862291 0.287844
O O12 0.758884 0.945813 0.499538
O O13 0.827511 0.860920 0.789227
O O14 0.478840 0.714696 0.162125
O O15 0.631312 0.367005 0.211494
#
# Coordination Sequence:
#
# PCOD9131530 Si02
#       8
#     4   4   2   4   2   4   4   4
#     4  10  18  31  48  68 100 146 184 212 282 344
#     4  12  25  40  61  84 113 151 205 250 293 347
#     4  12  16  24  38  74  98 150 174 220 258 352
#     4  10  17  27  47  67 109 142 184 209 281 354
#     4  12  16  24  38  74  98 150 174 220 258 352
#     4  12  25  40  61  84 113 151 205 250 293 347
#     4  10  18  31  48  68 100 146 184 212 282 344
#     4  10  17  27  47  67 109 142 184 209 281 354
#
# _framework density 26.475383000000001
#
# number of rings (size 3 to 8) (size 9 to 14) (size 15 to 20)
#    0.000    1.143    8.571    2.571    4.000    0.000 
#    0.000    0.000    0.000    0.000    0.000    0.000 
#    0.000    0.000    0.000  149.143    0.000    0.286 
#
# Total GULP energy -78153.119220 kJ/mol
# GULP energy per Si atom -5582.365659 kJ/mol
# Density = 2.641512 g / cm^3
# Si number density = 26.475383 Si / 1000 Ang^3
#
#
#
# Elastic Constant Matrix: (Units=GPa)
#
#
# Indices 1 2 3 4 5 6 
#
# 1 66.3468 7.5152 54.9413 0.0000 -8.1498 0.0000
# 2 7.5152 119.2402 56.6353 0.0000 -18.7188 0.0000
# 3 54.9413 56.6353 219.2894 0.0000 -74.4792 0.0000
# 4 0.0000 0.0000 0.0000 32.6740 0.0000 -8.2052
# 5 -8.1498 -18.7188 -74.4792 0.0000 64.0587 0.0000
# 6 0.0000 0.0000 0.0000 -8.2052 0.0000 27.3803
#
#
#
# Elastic Compliance Matrix: (Units=1/GPa)
#
#
# Indices 1 2 3 4 5 6 
#
# 1 0.020289 0.001322 -0.007299 0.000000 -0.005519 0.000000
# 2 0.001322 0.009646 -0.002988 0.000000 -0.000487 0.000000
# 3 -0.007299 -0.002988 0.010822 0.000000 0.010781 0.000000
# 4 0.000000 0.000000 0.000000 0.033096 0.000000 0.009918
# 5 -0.005519 -0.000487 0.010781 0.000000 0.027301 0.000000
# 6 0.000000 0.000000 0.000000 0.009918 0.000000 0.039495
#
#
# Mechanical properties :
#
#
# Convention : Reuss Voigt Hill
#
# Bulk Modulus (GPa) = 43.80823 71.45111 57.62967
# Shear Modulus (GPa) = 30.08647 43.87491 36.98069
#
# Velocity S-wave (km/s) = 3.37470 4.07528 3.74143
# Velocity P-wave (km/s) = 5.63627 7.01358 6.36230
#
# Compressibility (1/GPa) = 0.02282676
#
# Stress axis : x y z
#
# Youngs Moduli (GPa) = 49.28791 103.67250 92.40300
#
# Poissons Ratio (x) = -0.13702 0.67445
# Poissons Ratio (y) = -0.06514 0.27607
# Poissons Ratio (z) = 0.35975 0.30974
#
# Static dielectric constant tensor:
#      x y z
#    x 2.123000 0.000000 -0.011460 
#    y 0.000000 2.123150 0.000000 
#    z -0.011460 0.000000 2.156880 
# 
# From -- ./inp_files/2044.got.cif
#   From: 2010.05.17/outbox.cif.g08.bks.cpg/sg8_2_cif.got.tgz:2044.got - 2010.06.03 19:46:02.
