data_PCOD9131059
_publ_section_title
;
Structure prediction by ZEFSAII (Michael W. Deem and Ramdas Pophale) SiO2 
 PCOD9131059
Probable space group: P M
;
_chemical_formula_sum "Si O2"
_cell_formula_units_Z 16
_cell_length_a 12.270291
_cell_length_b 8.290451
_cell_length_c 9.810353
_cell_angle_alpha 90.000000
_cell_angle_beta 52.984650
_cell_angle_gamma 90.000000
_cell_volume 796.853655
_symmetry_space_group_name_H-M "P M"
_symmetry_group_IT_number 6
_symmetry_cell_setting 'monoclinic'
loop_
_space_group_symop_operation_xyz
x,y,z
x,-y,z
loop_
_atom_site_type_symbol
_atom_site_label
_atom_site_fract_x
_atom_site_fract_y
_atom_site_fract_z
Si Si1 0.570280 0.686228 0.782980
Si Si2 0.545852 0.311647 0.295139
Si Si3 0.840455 0.804502 0.973294
Si Si4 0.405674 0.189837 0.146543
Si Si5 0.859048 0.195148 0.643280
Si Si6 0.098828 0.197074 0.960352
Si Si7 0.402805 0.189082 0.664345
Si Si8 0.107994 0.803442 0.267698
O O1 0.561513 0.500000 0.751125
O O2 0.724707 0.746235 0.666483
O O3 0.471532 0.786885 0.759582
O O4 0.516056 0.713752 0.976175
O O5 0.537717 0.500000 0.271840
O O6 0.698376 0.252801 0.145572
O O7 0.439721 0.219291 0.277508
O O8 0.497764 0.277817 0.484341
O O9 0.838150 0.000000 0.974794
O O10 0.854982 0.751545 0.804495
O O11 0.970650 0.752067 0.965161
O O12 0.256065 0.243197 0.212653
O O13 0.420943 0.000000 0.104717
O O14 0.990936 0.250261 0.459738
O O15 0.858375 0.000000 0.645381
O O16 0.246219 0.247884 0.790547
O O17 0.100188 0.000000 0.960038
O O18 0.087451 0.249435 0.126845
O O19 0.400835 0.000000 0.631470
O O20 0.105289 0.000000 0.268378
#
# Coordination Sequence:
#
# PCOD9131059 Si02
#       8
#     2   2   2   2   2   2   2   2
#     4  12  24  40  62  91 129 164 202 256 310 363
#     4  12  26  42  60  91 130 165 204 255 312 366
#     4  10  21  38  62  90 122 162 208 253 302 362
#     4  11  21  40  68  93 119 160 212 257 304 364
#     4  10  21  37  62  92 122 160 208 254 301 360
#     4   9  19  37  62  93 121 152 203 261 305 353
#     4  11  23  42  68  93 120 161 210 257 305 368
#     4   9  19  36  62  95 121 150 203 263 303 352
#
# _framework density 20.078970000000002
#
# number of rings (size 3 to 8) (size 9 to 14) (size 15 to 20)
#    0.000    1.500    2.500    3.000    3.500    0.000 
#    0.000    2.500    0.000    0.000    0.000    0.000 
#    0.000    0.000    0.000    0.000    0.000    0.000 
#
# Total GULP energy -89403.672207 kJ/mol
# GULP energy per Si atom -5587.729513 kJ/mol
# Density = 2.003327 g / cm^3
# Si number density = 20.078970 Si / 1000 Ang^3
#
#
#
# Elastic Constant Matrix: (Units=GPa)
#
#
# Indices 1 2 3 4 5 6 
#
# 1 105.8142 21.2790 18.0224 0.0000 -17.7244 0.0000
# 2 21.2790 29.3142 22.8349 0.0000 -6.7144 0.0000
# 3 18.0224 22.8349 97.7087 0.0000 -18.3725 0.0000
# 4 0.0000 0.0000 0.0000 -27.3626 0.0000 38.9213
# 5 -17.7244 -6.7144 -18.3725 0.0000 32.1911 0.0000
# 6 0.0000 0.0000 0.0000 38.9213 0.0000 -18.3864
#
#
#
# Elastic Compliance Matrix: (Units=1/GPa)
#
#
# Indices 1 2 3 4 5 6 
#
# 1 0.011798 -0.007871 0.000645 0.000000 0.005223 0.000000
# 2 -0.007871 0.047314 -0.009595 0.000000 0.000059 0.000000
# 3 0.000645 -0.009595 0.013497 0.000000 0.006057 0.000000
# 4 0.000000 0.000000 0.000000 0.018173 0.000000 0.038469
# 5 0.005223 0.000059 0.006057 0.000000 0.037409 0.000000
# 6 0.000000 0.000000 0.000000 0.038469 0.000000 0.027044
#
#
# Mechanical properties :
#
#
# Convention : Reuss Voigt Hill
#
# Bulk Modulus (GPa) = 25.66151 39.67886 32.67019
# Shear Modulus (GPa) = 24.76913 8.66847 16.71880
#
# Velocity S-wave (km/s) = 3.51605 2.08004 2.88870
# Velocity P-wave (km/s) = 5.41217 5.05698 5.23759
#
# Compressibility (1/GPa) = 0.03896887
#
# Stress axis : x y z
#
# Youngs Moduli (GPa) = 84.75862 21.13553 74.09226
#
# Poissons Ratio (x) = 0.16635 -0.04781
# Poissons Ratio (y) = 0.66710 0.71088
# Poissons Ratio (z) = -0.05469 0.20279
#
# Static dielectric constant tensor:
#      x y z
#    x 1.670920 0.000000 -0.004260 
#    y 0.000000 1.686690 0.000000 
#    z -0.004260 0.000000 1.678180 
# 
# From -- ./inp_files/3737.got.cif
#   From: 2010.05.17/outbox.cif.g08.bks.cpg/sg6_2_cif.got.tgz:3737.got - 2010.06.03 19:42:10.
