data_PCOD9131637
_publ_section_title
;
Structure prediction by ZEFSAII (Michael W. Deem and Ramdas Pophale) SiO2 
 PCOD9131637
Probable space group: C M
;
_chemical_formula_sum "Si O2"
_cell_formula_units_Z 24
_cell_length_a 14.197867
_cell_length_b 17.806851
_cell_length_c 8.182095
_cell_angle_alpha 90.000000
_cell_angle_beta 28.609697
_cell_angle_gamma 90.000000
_cell_volume 990.525297
_symmetry_space_group_name_H-M "C M"
_symmetry_group_IT_number 8
_symmetry_cell_setting 'monoclinic'
loop_
_space_group_symop_operation_xyz
x,y,z
x,-y,z
1/2+x,1/2+y,z
1/2+x,1/2-y,z
loop_
_atom_site_type_symbol
_atom_site_label
_atom_site_fract_x
_atom_site_fract_y
_atom_site_fract_z
Si Si1 0.923280 0.411794 0.658050
Si Si2 0.487907 0.337304 0.322341
Si Si3 0.456536 0.162716 0.284209
Si Si4 0.954112 0.668672 0.919353
Si Si5 0.990343 0.168660 0.687176
Si Si6 0.021188 0.911797 0.948461
O O1 0.888993 0.500000 0.698986
O O2 0.028880 0.382293 0.333922
O O3 0.020374 0.390578 0.682549
O O4 0.713719 0.367680 0.985140
O O5 0.472227 0.250010 0.303263
O O6 0.405975 0.341005 0.632460
O O7 0.415562 0.382314 0.272629
O O8 0.230719 0.132344 0.621422
O O9 0.538475 0.159011 0.974080
O O10 0.972215 0.750006 0.803285
O O11 0.722230 0.658652 0.303260
O O12 0.924097 0.109405 0.923952
O O13 0.055559 0.000000 0.907394
#
# Coordination Sequence:
#
# PCOD9131637 Si02
#       6
#     4   4   4   4   4   4
#     4  10  21  35  54  85 114 139 187 245 278 316
#     4  10  18  31  53  79 111 144 181 223 281 328
#     4  10  18  31  53  79 111 144 181 223 281 328
#     4  10  20  34  55  83 111 148 188 228 279 337
#     4  10  20  34  55  83 111 148 188 228 279 337
#     4  10  21  35  54  85 114 139 187 245 278 316
#
# _framework density 24.229565999999998
#
# number of rings (size 3 to 8) (size 9 to 14) (size 15 to 20)
#    0.000    2.000    3.333    2.000    0.000    7.333 
#    0.000    0.000    0.000    1.000    0.000   21.000 
#    0.000    0.000    0.000    0.000    0.000    0.000 
#
# Total GULP energy -66999.792265 kJ/mol
# GULP energy per Si atom -5583.316022 kJ/mol
# Density = 2.417442 g / cm^3
# Si number density = 24.229566 Si / 1000 Ang^3
#
#
#
# Elastic Constant Matrix: (Units=GPa)
#
#
# Indices 1 2 3 4 5 6 
#
# 1 199.8791 69.7620 87.3721 -0.0353 82.7760 -0.0399
# 2 69.7620 199.2047 59.8558 -0.0394 29.8153 -0.0484
# 3 87.3721 59.8558 170.7088 -0.0574 43.6832 -0.0532
# 4 -0.0353 -0.0394 -0.0574 62.4414 -0.0055 57.5449
# 5 82.7760 29.8153 43.6832 -0.0055 69.0877 -0.0341
# 6 -0.0399 -0.0484 -0.0532 57.5449 -0.0341 118.7485
#
#
#
# Elastic Compliance Matrix: (Units=1/GPa)
#
#
# Indices 1 2 3 4 5 6 
#
# 1 0.011258 -0.001548 -0.002313 0.000006 -0.011358 -0.000004
# 2 -0.001548 0.005941 -0.001323 0.000001 0.000127 0.000001
# 3 -0.002313 -0.001323 0.007934 0.000006 -0.001674 -0.000001
# 4 0.000006 0.000001 0.000006 0.028939 -0.000016 -0.014024
# 5 -0.011358 0.000127 -0.001674 -0.000016 0.029087 0.000012
# 6 -0.000004 0.000001 -0.000001 -0.014024 0.000012 0.015217
#
#
# Mechanical properties :
#
#
# Convention : Reuss Voigt Hill
#
# Bulk Modulus (GPa) = 67.72843 111.53025 89.62934
# Shear Modulus (GPa) = 43.98891 73.57570 58.78230
#
# Velocity S-wave (km/s) = 4.26550 5.51652 4.93085
# Velocity P-wave (km/s) = 7.22999 9.31164 8.33605
#
# Compressibility (1/GPa) = 0.01476485
#
# Stress axis : x y z
#
# Youngs Moduli (GPa) = 88.82568 168.33511 126.03615
#
# Poissons Ratio (x) = 0.26052 0.29151
# Poissons Ratio (y) = 0.13747 0.16680
# Poissons Ratio (z) = 0.20545 0.22278
#
# Static dielectric constant tensor:
#      x y z
#    x 2.120810 -0.000010 -0.014710 
#    y -0.000010 1.745100 0.000010 
#    z -0.014710 0.000010 1.958890 
# 
# From -- ./inp_files/15143.got.cif
#   From: 2010.05.17/outbox.cif.g08.bks.cpg/sg8_8_cif.got.tgz:15143.got - 2010.06.03 19:46:02.
