data_PCOD9131982
_publ_section_title
;
Structure prediction by ZEFSAII (Michael W. Deem and Ramdas Pophale) SiO2 
 PCOD9131982
Probable space group: C M
;
_chemical_formula_sum "Si O2"
_cell_formula_units_Z 32
_cell_length_a 5.100470
_cell_length_b 25.653286
_cell_length_c 13.724079
_cell_angle_alpha 90.000000
_cell_angle_beta 78.695917
_cell_angle_gamma 90.000000
_cell_volume 1760.875316
_symmetry_space_group_name_H-M "C M"
_symmetry_group_IT_number 8
_symmetry_cell_setting 'monoclinic'
loop_
_space_group_symop_operation_xyz
x,y,z
x,-y,z
1/2+x,1/2+y,z
1/2+x,1/2-y,z
loop_
_atom_site_type_symbol
_atom_site_label
_atom_site_fract_x
_atom_site_fract_y
_atom_site_fract_z
Si Si1 0.510900 0.561544 0.240120
Si Si2 0.109535 0.602652 0.677693
Si Si3 0.102847 0.937141 0.014163
Si Si4 0.969622 0.281707 0.630517
Si Si5 0.610758 0.781821 0.390633
Si Si6 0.955582 0.397155 0.350161
Si Si7 0.173040 0.938366 0.565979
Si Si8 0.176855 0.562779 0.890699
O O1 0.578455 0.500000 0.237609
O O2 0.221731 0.570074 0.308523
O O3 0.735059 0.591729 0.284378
O O4 0.508912 0.579649 0.127823
O O5 0.032747 0.663026 0.673103
O O6 0.388266 0.589500 0.602978
O O7 0.151681 0.586649 0.786000
O O8 0.868163 0.571221 0.643803
O O9 0.410901 0.925616 0.971733
O O10 0.925912 0.918214 0.936604
O O11 0.073801 0.000000 0.015835
O O12 0.166162 0.237508 0.658259
O O13 0.040484 0.286945 0.510643
O O14 0.413775 0.737643 0.362968
O O15 0.545875 0.837227 0.348849
O O16 0.823067 0.414285 0.461885
O O17 0.129375 0.000000 0.555427
O O18 0.195422 0.500000 0.876949
#
# Coordination Sequence:
#
# PCOD9131982 Si02
#       8
#     4   4   4   4   4   4   4   4
#     4  11  22  37  57  83 116 150 188 228 272 332
#     4  12  23  37  56  83 113 154 187 223 277 332
#     4   9  19  35  55  79 107 142 185 235 273 310
#     4  10  21  37  57  78 106 144 190 240 274 311
#     4  10  21  37  57  78 106 143 189 241 275 311
#     4  12  23  37  56  83 112 154 188 223 277 332
#     4  12  24  36  51  80 123 157 182 210 264 341
#     4  10  19  34  55  80 111 144 183 226 273 329
#
# _framework density 18.172779999999999
#
# number of rings (size 3 to 8) (size 9 to 14) (size 15 to 20)
#    0.000    1.250    1.250    6.000    3.500    3.000 
#    0.000    0.000    0.000    0.000    0.000   17.500 
#    0.000    0.000    0.000    0.000    0.000    0.000 
#
# Total GULP energy -89418.549550 kJ/mol
# GULP energy per Si atom -5588.659347 kJ/mol
# Density = 1.813142 g / cm^3
# Si number density = 18.172780 Si / 1000 Ang^3
#
#
#
# Elastic Constant Matrix: (Units=GPa)
#
#
# Indices 1 2 3 4 5 6 
#
# 1 60.3868 3.8207 6.3224 0.0000 14.7656 0.0000
# 2 3.8207 56.9042 21.7648 0.0000 -2.9914 0.0000
# 3 6.3224 21.7648 55.8223 0.0000 6.6459 0.0000
# 4 0.0000 0.0000 0.0000 2.8364 0.0000 3.5432
# 5 14.7656 -2.9914 6.6459 0.0000 21.7308 0.0000
# 6 0.0000 0.0000 0.0000 3.5432 0.0000 27.3163
#
#
#
# Elastic Compliance Matrix: (Units=1/GPa)
#
#
# Indices 1 2 3 4 5 6 
#
# 1 0.020104 -0.002181 0.000244 0.000000 -0.014035 0.000000
# 2 -0.002181 0.021545 -0.009011 0.000000 0.007204 0.000000
# 3 0.000244 -0.009011 0.022382 0.000000 -0.008251 0.000000
# 4 0.000000 0.000000 0.000000 0.420724 0.000000 -0.054572
# 5 -0.014035 0.007204 -0.008251 0.000000 0.059069 0.000000
# 6 0.000000 0.000000 0.000000 -0.054572 0.000000 0.043687
#
#
# Mechanical properties :
#
#
# Convention : Reuss Voigt Hill
#
# Bulk Modulus (GPa) = 23.73272 26.32546 25.02909
# Shear Modulus (GPa) = 8.01987 19.79042 13.90515
#
# Velocity S-wave (km/s) = 2.10302 3.30360 2.76916
# Velocity P-wave (km/s) = 4.35715 5.39160 4.90174
#
# Compressibility (1/GPa) = 0.04213592
#
# Stress axis : x y z
#
# Youngs Moduli (GPa) = 49.74090 46.41450 44.67889
#
# Poissons Ratio (x) = 0.10124 -0.01092
# Poissons Ratio (y) = 0.10849 0.40259
# Poissons Ratio (z) = -0.01216 0.41823
#
# Static dielectric constant tensor:
#      x y z
#    x 1.629440 0.000000 0.006500 
#    y 0.000000 1.608790 0.000000 
#    z 0.006500 0.000000 1.612870 
# 
# From -- ./inp_files/18171.got.cif
#   From: 2010.05.17/outbox.cif.g08.bks.cpg/sg8_10_cif.got.tgz:18171.got - 2010.06.03 19:46:02.
