data_PCOD9131082
_publ_section_title
;
Structure prediction by ZEFSAII (Michael W. Deem and Ramdas Pophale) SiO2 
 PCOD9131082
Probable space group: P M
;
_chemical_formula_sum "Si O2"
_cell_formula_units_Z 16
_cell_length_a 12.517639
_cell_length_b 9.174824
_cell_length_c 12.836911
_cell_angle_alpha 90.000000
_cell_angle_beta 144.795527
_cell_angle_gamma 90.000000
_cell_volume 849.918092
_symmetry_space_group_name_H-M "P M"
_symmetry_group_IT_number 6
_symmetry_cell_setting 'monoclinic'
loop_
_space_group_symop_operation_xyz
x,y,z
x,-y,z
loop_
_atom_site_type_symbol
_atom_site_label
_atom_site_fract_x
_atom_site_fract_y
_atom_site_fract_z
Si Si1 0.887400 0.167718 0.395550
Si Si2 0.957837 0.326392 0.242127
Si Si3 0.330000 0.827238 0.479864
Si Si4 0.457987 0.172279 0.348697
Si Si5 0.878626 0.174291 0.626762
Si Si6 0.575767 0.825070 0.876080
Si Si7 0.448051 0.832919 0.999453
Si Si8 0.214362 0.672596 0.986451
O O1 0.964088 0.270713 0.366931
O O2 0.930771 0.208834 0.548541
O O3 0.663625 0.168871 0.205921
O O4 0.948407 0.000000 0.425684
O O5 0.950271 0.500000 0.231102
O O6 0.140887 0.262896 0.334257
O O7 0.770694 0.256996 0.044616
O O8 0.429760 0.805878 0.448883
O O9 0.464521 0.788476 0.683144
O O10 0.286579 0.000000 0.455564
O O11 0.665018 0.210507 0.477646
O O12 0.430887 0.000000 0.304239
O O13 0.312900 0.263370 0.166585
O O14 0.012564 0.258950 0.810210
O O15 0.898825 0.000000 0.655848
O O16 0.611361 0.000000 0.906533
O O17 0.453119 0.793651 0.881499
O O18 0.380241 0.000000 0.957096
O O19 0.333266 0.729146 0.982359
O O20 0.208374 0.500000 0.984262
#
# Coordination Sequence:
#
# PCOD9131082 Si02
#       8
#     2   2   2   2   2   2   2   2
#     4   9  18  36  62  87 118 157 202 252 295 343
#     4  11  23  37  57  90 130 162 192 237 302 369
#     4  10  22  41  67  91 114 154 210 257 293 346
#     4  10  22  44  67  87 114 155 210 259 295 342
#     4  10  21  39  63  88 115 155 206 254 299 346
#     4   9  20  39  62  89 118 155 204 252 297 344
#     4   9  17  35  60  86 119 157 200 247 295 349
#     4  12  25  37  56  90 128 161 194 238 304 373
#
# _framework density 18.825344000000001
#
# number of rings (size 3 to 8) (size 9 to 14) (size 15 to 20)
#    0.000    2.000    1.250    3.000    1.750    5.000 
#    0.000    2.500    0.000    0.000    0.000    0.000 
#    0.000    0.000    0.000    0.000    0.000    0.000 
#
# Total GULP energy -89403.578979 kJ/mol
# GULP energy per Si atom -5587.723686 kJ/mol
# Density = 1.878250 g / cm^3
# Si number density = 18.825344 Si / 1000 Ang^3
#
#
#
# Elastic Constant Matrix: (Units=GPa)
#
#
# Indices 1 2 3 4 5 6 
#
# 1 43.8881 17.6845 18.2314 0.0000 -14.7214 0.0000
# 2 17.6845 43.6564 36.1561 0.0000 -10.2435 0.0000
# 3 18.2314 36.1561 93.7644 0.0000 -24.9659 0.0000
# 4 0.0000 0.0000 0.0000 1.4112 0.0000 -10.2839
# 5 -14.7214 -10.2435 -24.9659 0.0000 21.5047 0.0000
# 6 0.0000 0.0000 0.0000 -10.2839 0.0000 -19.1643
#
#
#
# Elastic Compliance Matrix: (Units=1/GPa)
#
#
# Indices 1 2 3 4 5 6 
#
# 1 0.033052 -0.011406 0.003690 0.000000 0.021478 0.000000
# 2 -0.011406 0.037619 -0.013889 0.000000 -0.006014 0.000000
# 3 0.003690 -0.013889 0.020574 0.000000 0.019796 0.000000
# 4 0.000000 0.000000 0.000000 0.144306 0.000000 -0.077438
# 5 0.021478 -0.006014 0.019796 0.000000 0.081322 0.000000
# 6 0.000000 0.000000 0.000000 -0.077438 0.000000 -0.010626
#
#
# Mechanical properties :
#
#
# Convention : Reuss Voigt Hill
#
# Bulk Modulus (GPa) = 20.81806 36.16144 28.48975
# Shear Modulus (GPa) = 13.68105 8.03278 10.85691
#
# Velocity S-wave (km/s) = 2.69873 2.06791 2.40410
# Velocity P-wave (km/s) = 4.55998 4.99523 4.78256
#
# Compressibility (1/GPa) = 0.04803521
#
# Stress axis : x y z
#
# Youngs Moduli (GPa) = 30.25498 26.58263 48.60438
#
# Poissons Ratio (x) = 0.30319 -0.17936
# Poissons Ratio (y) = 0.34508 0.67509
# Poissons Ratio (z) = -0.11164 0.36922
#
# Static dielectric constant tensor:
#      x y z
#    x 1.641690 0.000000 -0.001390 
#    y 0.000000 1.620970 0.000000 
#    z -0.001390 0.000000 1.653830 
# 
# From -- ./inp_files/5063.got.cif
#   From: 2010.05.17/outbox.cif.g08.bks.cpg/sg6_3_cif.got.tgz:5063.got - 2010.06.03 19:42:10.
