data_PCOD9131023
_publ_section_title
;
Structure prediction by ZEFSAII (Michael W. Deem and Ramdas Pophale) SiO2 
 PCOD9131023
Probable space group: P M
;
_chemical_formula_sum "Si O2"
_cell_formula_units_Z 14
_cell_length_a 5.397261
_cell_length_b 17.298137
_cell_length_c 6.581542
_cell_angle_alpha 90.000000
_cell_angle_beta 60.380311
_cell_angle_gamma 90.000000
_cell_volume 534.173881
_symmetry_space_group_name_H-M "P M"
_symmetry_group_IT_number 6
_symmetry_cell_setting 'monoclinic'
loop_
_space_group_symop_operation_xyz
x,y,z
x,-y,z
loop_
_atom_site_type_symbol
_atom_site_label
_atom_site_fract_x
_atom_site_fract_y
_atom_site_fract_z
Si Si1 0.285180 0.339450 0.322210
Si Si2 0.746807 0.909006 0.512136
Si Si3 0.173790 0.352255 0.896266
Si Si4 0.708423 0.778472 0.060473
Si Si5 0.704188 0.740224 0.597139
Si Si6 0.926033 0.500000 0.764361
Si Si7 0.067488 0.915240 0.805609
Si Si8 0.392305 0.500000 0.254592
O O1 0.425382 0.254419 0.274704
O O2 0.459879 0.415595 0.323992
O O3 0.961562 0.320485 0.512778
O O4 0.267644 0.364623 0.089872
O O5 0.779665 0.816531 0.433689
O O6 0.967774 0.910128 0.611823
O O7 0.404988 0.905168 0.692696
O O8 0.777046 0.000000 0.419069
O O9 0.422900 0.309724 0.668727
O O10 0.059798 0.426815 0.828187
O O11 0.927940 0.289485 0.013860
O O12 0.645802 0.774081 0.844355
O O13 0.869552 0.858707 0.013125
O O14 0.049676 0.500000 0.478925
O O15 0.590091 0.500000 0.966054
O O16 0.996601 0.000000 0.904741
#
# Coordination Sequence:
#
# PCOD9131023 Si02
#       8
#     2   2   2   2   2   1   2   1
#     4  11  25  41  65  93 132 172 226 287 350 420
#     4   9  17  33  59  93 128 175 231 286 350 423
#     4  11  23  41  65  93 127 170 229 277 345 421
#     4  10  20  40  61  90 128 169 224 280 343 422
#     4  10  22  38  63  93 125 179 220 289 347 421
#     4  12  27  45  72  99 136 184 226 290 357 425
#     4   9  17  32  60  92 129 176 229 286 351 422
#     4  12  27  47  70  99 138 182 228 288 357 427
#
# _framework density 26.208696
#
# number of rings (size 3 to 8) (size 9 to 14) (size 15 to 20)
#    0.000    1.714    2.857    1.286    4.000    1.714 
#    0.000    0.714    0.000    1.714    0.000    0.000 
#    0.000    0.000    0.000    0.000    0.000    0.000 
#
# Total GULP energy -77957.634869 kJ/mol
# GULP energy per Si atom -5568.402491 kJ/mol
# Density = 2.614904 g / cm^3
# Si number density = 26.208696 Si / 1000 Ang^3
#
#
#
# Elastic Constant Matrix: (Units=GPa)
#
#
# Indices 1 2 3 4 5 6 
#
# 1 63.5917 25.5619 4.3254 0.0000 -5.9003 0.0000
# 2 25.5619 206.5312 8.1261 0.0000 -24.7876 0.0000
# 3 4.3254 8.1261 91.3871 0.0000 -2.7687 0.0000
# 4 0.0000 0.0000 0.0000 32.3512 0.0000 -13.5001
# 5 -5.9003 -24.7876 -2.7687 0.0000 30.6339 0.0000
# 6 0.0000 0.0000 0.0000 -13.5001 0.0000 31.3621
#
#
#
# Elastic Compliance Matrix: (Units=1/GPa)
#
#
# Indices 1 2 3 4 5 6 
#
# 1 0.016658 -0.001839 -0.000574 0.000000 0.001669 0.000000
# 2 -0.001839 0.005577 -0.000284 0.000000 0.004133 0.000000
# 3 -0.000574 -0.000284 0.011015 0.000000 0.000655 0.000000
# 4 0.000000 0.000000 0.000000 0.037679 0.000000 0.016219
# 5 0.001669 0.004133 0.000655 0.000000 0.036368 0.000000
# 6 0.000000 0.000000 0.000000 0.016219 0.000000 0.038867
#
#
# Mechanical properties :
#
#
# Convention : Reuss Voigt Hill
#
# Bulk Modulus (GPa) = 35.89903 48.61519 42.25711
# Shear Modulus (GPa) = 31.08614 40.43588 35.76101
#
# Velocity S-wave (km/s) = 3.44772 3.93216 3.69788
# Velocity P-wave (km/s) = 5.43839 6.26142 5.86436
#
# Compressibility (1/GPa) = 0.02785591
#
# Stress axis : x y z
#
# Youngs Moduli (GPa) = 60.02980 179.31994 90.78759
#
# Poissons Ratio (x) = 0.32975 0.05215
# Poissons Ratio (y) = 0.11039 0.02575
# Poissons Ratio (z) = 0.03448 0.05086
#
# Static dielectric constant tensor:
#      x y z
#    x 2.241130 0.000000 0.151200 
#    y 0.000000 2.084190 0.000000 
#    z 0.151200 0.000000 2.123890 
# 
# From -- ./inp_files/439.got.cif
#   From: 2010.05.17/outbox.cif.g08.bks.cpg/sg6_1_cif.got.tgz:439.got - 2010.06.03 19:42:10.
