data_PCOD9131531
_publ_section_title
;
Structure prediction by ZEFSAII (Michael W. Deem and Ramdas Pophale) SiO2 
 PCOD9131531
Probable space group: C M
;
_chemical_formula_sum "Si O2"
_cell_formula_units_Z 32
_cell_length_a 14.675269
_cell_length_b 13.643942
_cell_length_c 11.941711
_cell_angle_alpha 90.000000
_cell_angle_beta 31.517664
_cell_angle_gamma 90.000000
_cell_volume 1249.959691
_symmetry_space_group_name_H-M "C M"
_symmetry_group_IT_number 8
_symmetry_cell_setting 'monoclinic'
loop_
_space_group_symop_operation_xyz
x,y,z
x,-y,z
1/2+x,1/2+y,z
1/2+x,1/2-y,z
loop_
_atom_site_type_symbol
_atom_site_label
_atom_site_fract_x
_atom_site_fract_y
_atom_site_fract_z
Si Si1 0.583590 0.618728 0.904660
Si Si2 0.430925 0.231664 0.456063
Si Si3 0.720251 0.111720 0.569730
Si Si4 0.675509 0.387134 0.045329
Si Si5 0.373342 0.111444 0.310222
Si Si6 0.960731 0.109220 0.801327
Si Si7 0.352562 0.885070 0.080670
Si Si8 0.003800 0.707902 0.619649
O O1 0.617331 0.500000 0.865133
O O2 0.748195 0.683001 0.691668
O O3 0.443366 0.634662 0.951615
O O4 0.554952 0.643627 0.065755
O O5 0.379207 0.340319 0.469592
O O6 0.476847 0.170825 0.296849
O O7 0.542465 0.222213 0.450286
O O8 0.668878 0.179962 0.520314
O O9 0.747419 0.000000 0.508414
O O10 0.547958 0.116309 0.827290
O O11 0.635376 0.500000 0.107815
O O12 0.728931 0.343390 0.111185
O O13 0.866168 0.378835 0.785324
O O14 0.365744 0.153491 0.192715
O O15 0.170768 0.104437 0.560527
O O16 0.442351 0.000000 0.233041
O O17 0.910613 0.194986 0.768380
O O18 0.890516 0.000000 0.852919
O O19 0.300221 0.000000 0.149360
#
# Coordination Sequence:
#
# PCOD9131531 Si02
#       8
#     4   4   4   4   4   4   4   4
#     4   8  13  24  42  65  89 110 144 195 234 263
#     4  10  18  28  48  71  95 121 161 201 237 280
#     4  10  19  32  49  74  99 125 157 199 245 288
#     4   8  14  24  42  68  89 111 147 191 233 274
#     4   9  16  29  49  70  91 120 155 199 241 277
#     4   9  16  26  43  66  93 120 152 194 236 276
#     4   8  15  27  46  69  96 122 149 190 243 286
#     4  10  17  28  46  67  96 123 162 195 234 286
#
# _framework density 25.600826000000001
#
# number of rings (size 3 to 8) (size 9 to 14) (size 15 to 20)
#    0.000    3.000    2.500    2.250    0.000    2.000 
#    0.000    0.000    8.250    0.000    0.000    5.250 
#    0.000    0.000    0.000    0.000    0.000    0.000 
#
# Total GULP energy -89343.232687 kJ/mol
# GULP energy per Si atom -5583.952043 kJ/mol
# Density = 2.554256 g / cm^3
# Si number density = 25.600826 Si / 1000 Ang^3
#
#
#
# Elastic Constant Matrix: (Units=GPa)
#
#
# Indices 1 2 3 4 5 6 
#
# 1 167.9667 52.0616 61.5041 -0.0007 61.4829 0.0002
# 2 52.0616 124.2064 33.4920 -0.0005 25.5800 0.0002
# 3 61.5041 33.4920 58.2411 -0.0010 26.4358 0.0007
# 4 -0.0007 -0.0005 -0.0010 29.1184 0.0009 11.6995
# 5 61.4829 25.5800 26.4358 0.0009 61.6855 -0.0005
# 6 0.0002 0.0002 0.0007 11.6995 -0.0005 31.5997
#
#
#
# Elastic Compliance Matrix: (Units=1/GPa)
#
#
# Indices 1 2 3 4 5 6 
#
# 1 0.012590 -0.001186 -0.008865 0.000000 -0.008258 0.000000
# 2 -0.001186 0.009841 -0.003838 0.000000 -0.001254 0.000000
# 3 -0.008865 -0.003838 0.029803 0.000001 -0.002345 -0.000001
# 4 0.000000 0.000000 0.000001 0.040344 -0.000002 -0.014937
# 5 -0.008258 -0.001254 -0.002345 -0.000002 0.025967 0.000001
# 6 0.000000 0.000000 -0.000001 -0.014937 0.000001 0.037176
#
#
# Mechanical properties :
#
#
# Convention : Reuss Voigt Hill
#
# Bulk Modulus (GPa) = 40.88830 71.61440 56.25135
# Shear Modulus (GPa) = 26.08911 38.03782 32.06347
#
# Velocity S-wave (km/s) = 3.19576 3.85880 3.54282
# Velocity P-wave (km/s) = 5.44273 6.92011 6.22540
#
# Compressibility (1/GPa) = 0.02445687
#
# Stress axis : x y z
#
# Youngs Moduli (GPa) = 79.42876 101.61207 33.55367
#
# Poissons Ratio (x) = 0.12051 0.29746
# Poissons Ratio (y) = 0.09420 0.12876
# Poissons Ratio (z) = 0.70414 0.38994
#
# Static dielectric constant tensor:
#      x y z
#    x 2.033200 0.000000 0.005920 
#    y 0.000000 2.028310 0.000000 
#    z 0.005920 0.000000 2.129630 
# 
# From -- ./inp_files/22073.got.cif
#   From: 2010.05.17/outbox.cif.g08.bks.cpg/sg8_12_cif.got.tgz:22073.got - 2010.06.03 19:46:02.
