data_PCOD9131339
_publ_section_title
;
Structure prediction by ZEFSAII (Michael W. Deem and Ramdas Pophale) SiO2 
 PCOD9131339
Probable space group: P C
;
_chemical_formula_sum "Si O2"
_cell_formula_units_Z 16
_cell_length_a 15.335641
_cell_length_b 7.654787
_cell_length_c 5.484168
_cell_angle_alpha 90.000000
_cell_angle_beta 92.688622
_cell_angle_gamma 90.000000
_cell_volume 643.083644
_symmetry_space_group_name_H-M "P C"
_symmetry_group_IT_number 7
_symmetry_cell_setting 'monoclinic'
loop_
_space_group_symop_operation_xyz
x,y,z
x,-y,1/2+z
loop_
_atom_site_type_symbol
_atom_site_label
_atom_site_fract_x
_atom_site_fract_y
_atom_site_fract_z
Si Si1 0.011320 0.803397 0.717530
Si Si2 0.450316 0.598091 0.232058
Si Si3 0.250932 0.611188 0.156982
Si Si4 0.080400 0.797786 0.227340
Si Si5 0.856467 0.401417 0.071153
Si Si6 0.518896 0.947152 0.069240
Si Si7 0.719953 0.937013 0.073701
Si Si8 0.668858 0.537068 0.066526
O O1 0.061171 0.720902 0.492241
O O2 0.910831 0.772038 0.634534
O O3 0.045700 0.002423 0.741433
O O4 0.030665 0.722649 0.984607
O O5 0.455502 0.543869 0.515232
O O6 0.351275 0.671215 0.185229
O O7 0.515724 0.751290 0.164896
O O8 0.238518 0.482624 0.391222
O O9 0.181402 0.766474 0.180011
O O10 0.878662 0.526918 0.304907
O O11 0.750999 0.402220 0.064516
O O12 0.478849 0.951845 0.794431
O O13 0.619514 0.009357 0.054380
O O14 0.709605 0.729205 0.074857
O O15 0.761626 0.999615 0.329358
O O16 0.620897 0.484148 0.305546
#
# Coordination Sequence:
#
# PCOD9131339 Si02
#       8
#     2   2   2   2   2   2   2   2
#     4  10  21  37  57  82 114 141 192 245 292 349
#     4  10  21  38  59  86 126 160 201 252 301 353
#     4  10  21  37  57  84 114 155 196 244 299 346
#     4  10  21  37  56  83 111 148 193 242 295 353
#     4  10  21  37  61  81 113 148 185 241 297 354
#     4  10  21  38  58  92 124 166 204 244 296 355
#     4  10  21  38  63  89 128 161 201 248 298 353
#     4  10  21  38  63  89 118 155 202 246 298 363
#
# _framework density 24.880123999999999
#
# number of rings (size 3 to 8) (size 9 to 14) (size 15 to 20)
#    0.000    2.000    0.000    3.000    0.000    4.000 
#    4.500    0.000   66.000    0.000    0.000    0.000 
#    0.000    0.000    0.000    0.000    0.000    0.000 
#
# Total GULP energy -89371.424052 kJ/mol
# GULP energy per Si atom -5585.714003 kJ/mol
# Density = 2.482350 g / cm^3
# Si number density = 24.880124 Si / 1000 Ang^3
#
#
#
# Elastic Constant Matrix: (Units=GPa)
#
#
# Indices 1 2 3 4 5 6 
#
# 1 74.8293 15.3499 20.1140 0.0000 1.6542 0.0000
# 2 15.3499 65.0015 30.4101 0.0000 0.5625 0.0000
# 3 20.1140 30.4101 241.1589 0.0000 -6.1831 0.0000
# 4 0.0000 0.0000 0.0000 31.0458 0.0000 -3.6239
# 5 1.6542 0.5625 -6.1831 0.0000 34.1208 0.0000
# 6 0.0000 0.0000 0.0000 -3.6239 0.0000 40.5040
#
#
#
# Elastic Compliance Matrix: (Units=1/GPa)
#
#
# Indices 1 2 3 4 5 6 
#
# 1 0.014212 -0.002960 -0.000832 0.000000 -0.000791 0.000000
# 2 -0.002960 0.016979 -0.001907 0.000000 -0.000482 0.000000
# 3 -0.000832 -0.001907 0.004479 0.000000 0.000883 0.000000
# 4 0.000000 0.000000 0.000000 0.032550 0.000000 0.002912
# 5 -0.000791 -0.000482 0.000883 0.000000 0.029514 0.000000
# 6 0.000000 0.000000 0.000000 0.002912 0.000000 0.024949
#
#
# Mechanical properties :
#
#
# Convention : Reuss Voigt Hill
#
# Bulk Modulus (GPa) = 41.19818 56.97086 49.08452
# Shear Modulus (GPa) = 35.16835 42.14183 38.65509
#
# Velocity S-wave (km/s) = 3.76375 4.12004 3.94592
# Velocity P-wave (km/s) = 5.95671 6.75136 6.36644
#
# Compressibility (1/GPa) = 0.02427291
#
# Stress axis : x y z
#
# Youngs Moduli (GPa) = 70.36234 58.89501 223.25696
#
# Poissons Ratio (x) = 0.17432 0.18584
# Poissons Ratio (y) = 0.20826 0.42566
# Poissons Ratio (z) = 0.05857 0.11229
#
# Static dielectric constant tensor:
#      x y z
#    x 1.990640 0.000000 -0.016790 
#    y 0.000000 1.931470 0.000000 
#    z -0.016790 0.000000 2.068130 
# 
# From -- ./inp_files/1272.got.cif
#   From: 2010.05.17/outbox.cif.g08.bks.cpg/sg7_cif.got.tgz:1272.got - 2010.06.03 19:44:50.
