data_PCOD9131740
_publ_section_title
;
Structure prediction by ZEFSAII (Michael W. Deem and Ramdas Pophale) SiO2 
 PCOD9131740
Probable space group: C M
;
_chemical_formula_sum "Si O2"
_cell_formula_units_Z 28
_cell_length_a 9.463641
_cell_length_b 27.462970
_cell_length_c 8.990903
_cell_angle_alpha 90.000000
_cell_angle_beta 149.174658
_cell_angle_gamma 90.000000
_cell_volume 1197.395057
_symmetry_space_group_name_H-M "C M"
_symmetry_group_IT_number 8
_symmetry_cell_setting 'monoclinic'
loop_
_space_group_symop_operation_xyz
x,y,z
x,-y,z
1/2+x,1/2+y,z
1/2+x,1/2-y,z
loop_
_atom_site_type_symbol
_atom_site_label
_atom_site_fract_x
_atom_site_fract_y
_atom_site_fract_z
Si Si1 0.960280 0.776796 0.741110
Si Si2 0.717629 0.655132 0.399989
Si Si3 0.621827 0.704562 0.589184
Si Si4 0.592313 0.000000 0.878645
Si Si5 0.786967 0.600102 0.868024
Si Si6 0.199292 0.601102 0.972560
Si Si7 0.427731 0.161823 0.264393
Si Si8 0.037646 0.000000 0.539647
O O1 0.895297 0.736201 0.805009
O O2 0.739566 0.820303 0.569142
O O3 0.942159 0.766054 0.546631
O O4 0.270926 0.794966 0.036973
O O5 0.561084 0.695423 0.359181
O O6 0.757827 0.659041 0.262676
O O7 0.023827 0.643797 0.737433
O O8 0.521710 0.609871 0.261470
O O9 0.642861 0.649595 0.673189
O O10 0.655909 0.950265 0.853697
O O11 0.761073 0.000000 0.190070
O O12 0.273455 0.000000 0.628235
O O13 0.888075 0.614736 0.124214
O O14 0.053927 0.596210 0.001799
O O15 0.604974 0.550778 0.688671
#
# Coordination Sequence:
#
# PCOD9131740 Si02
#       8
#     4   4   4   2   4   4   4   2
#     4  11  24  40  61  88 120 163 205 252 309 372
#     4  11  22  37  59  85 120 159 200 248 310 368
#     4  10  22  40  62  90 124 162 208 258 309 373
#     4  10  18  34  58  88 118 148 203 256 301 362
#     4   9  21  40  63  89 122 163 211 261 309 368
#     4  10  20  36  59  86 113 156 200 250 304 363
#     4  11  24  41  60  88 125 163 204 255 311 372
#     4  10  20  36  62  92 118 160 211 260 309 366
#
# _framework density 23.384094999999999
#
# number of rings (size 3 to 8) (size 9 to 14) (size 15 to 20)
#    0.000    1.714    0.000    5.143    0.000   11.429 
#    0.000    1.429    0.000    0.000    0.000    0.000 
#    0.000    0.000    0.000    0.000    0.000    0.000 
#
# Total GULP energy -77991.983611 kJ/mol
# GULP energy per Si atom -5570.855972 kJ/mol
# Density = 2.333087 g / cm^3
# Si number density = 23.384095 Si / 1000 Ang^3
#
#
#
# Elastic Constant Matrix: (Units=GPa)
#
#
# Indices 1 2 3 4 5 6 
#
# 1 130.6230 20.8442 15.2956 0.0000 -17.7013 0.0000
# 2 20.8442 92.8545 17.8171 0.0000 -7.2941 0.0000
# 3 15.2956 17.8171 68.1402 0.0000 -3.4489 0.0000
# 4 0.0000 0.0000 0.0000 33.5083 0.0000 6.1967
# 5 -17.7013 -7.2941 -3.4489 0.0000 33.2018 0.0000
# 6 0.0000 0.0000 0.0000 6.1967 0.0000 17.1939
#
#
#
# Elastic Compliance Matrix: (Units=1/GPa)
#
#
# Indices 1 2 3 4 5 6 
#
# 1 0.008591 -0.001341 -0.001368 0.000000 0.004144 0.000000
# 2 -0.001341 0.011709 -0.002681 0.000000 0.001579 0.000000
# 3 -0.001368 -0.002681 0.015700 0.000000 0.000312 0.000000
# 4 0.000000 0.000000 0.000000 0.031974 0.000000 -0.011524
# 5 0.004144 0.001579 0.000312 0.000000 0.032707 0.000000
# 6 0.000000 0.000000 0.000000 -0.011524 0.000000 0.062313
#
#
# Mechanical properties :
#
#
# Convention : Reuss Voigt Hill
#
# Bulk Modulus (GPa) = 39.65011 44.39240 42.02125
# Shear Modulus (GPa) = 27.44526 32.62486 30.03506
#
# Velocity S-wave (km/s) = 3.42961 3.73925 3.58777
# Velocity P-wave (km/s) = 5.71627 6.13742 5.93059
#
# Compressibility (1/GPa) = 0.02522061
#
# Stress axis : x y z
#
# Youngs Moduli (GPa) = 116.39692 85.40508 63.69612
#
# Poissons Ratio (x) = 0.11449 0.08715
# Poissons Ratio (y) = 0.15604 0.17075
# Poissons Ratio (z) = 0.15926 0.22895
#
# Static dielectric constant tensor:
#      x y z
#    x 1.889520 0.000000 -0.073100 
#    y 0.000000 2.051600 0.000000 
#    z -0.073100 0.000000 1.966500 
# 
# From -- ./inp_files/9251.got.cif
#   From: 2010.05.17/outbox.cif.g08.bks.cpg/sg8_5_cif.got.tgz:9251.got - 2010.06.03 19:46:02.
