data_PCOD9131722
_publ_section_title
;
Structure prediction by ZEFSAII (Michael W. Deem and Ramdas Pophale) SiO2 
 PCOD9131722
Probable space group: C M
;
_chemical_formula_sum "Si O2"
_cell_formula_units_Z 24
_cell_length_a 20.845078
_cell_length_b 7.585217
_cell_length_c 19.468233
_cell_angle_alpha 90.000000
_cell_angle_beta 158.260996
_cell_angle_gamma 90.000000
_cell_volume 1140.104426
_symmetry_space_group_name_H-M "C M"
_symmetry_group_IT_number 8
_symmetry_cell_setting 'monoclinic'
loop_
_space_group_symop_operation_xyz
x,y,z
x,-y,z
1/2+x,1/2+y,z
1/2+x,1/2-y,z
loop_
_atom_site_type_symbol
_atom_site_label
_atom_site_fract_x
_atom_site_fract_y
_atom_site_fract_z
Si Si1 0.826490 0.216637 0.008740
Si Si2 0.509439 0.796342 0.605526
Si Si3 0.124135 0.784211 0.198795
Si Si4 0.828055 0.208935 0.165630
Si Si5 0.606956 0.705911 0.551668
Si Si6 0.495878 0.711048 0.920995
O O1 0.845817 0.277616 0.106083
O O2 0.984854 0.268491 0.117217
O O3 0.823307 0.000000 0.005294
O O4 0.647910 0.279539 0.796340
O O5 0.317015 0.720052 0.408000
O O6 0.592164 0.792240 0.611745
O O7 0.485696 0.000000 0.602284
O O8 0.127787 0.000000 0.200325
O O9 0.064401 0.726242 0.063678
O O10 0.965468 0.280339 0.357844
O O11 0.862575 0.000000 0.195944
O O12 0.635690 0.234832 0.003523
O O13 0.568720 0.500000 0.524896
O O14 0.801017 0.723792 0.716542
O O15 0.489354 0.500000 0.916325
#
# Coordination Sequence:
#
# PCOD9131722 Si02
#       6
#     4   4   4   4   4   4
#     4   9  18  34  56  83 112 143 185 233 278 326
#     4  10  18  33  59  85 107 142 193 237 272 323
#     4   9  17  30  55  85 105 135 185 235 272 314
#     4  10  22  38  57  85 119 149 181 231 289 336
#     4  11  22  35  55  85 119 150 183 228 284 342
#     4  11  21  36  60  85 112 147 193 236 273 331
#
# _framework density 21.050704
#
# number of rings (size 3 to 8) (size 9 to 14) (size 15 to 20)
#    0.000    2.000    3.333    1.000    0.000    2.000 
#    0.000    5.833    0.000    0.000    0.000    0.000 
#    0.000    0.000    0.000    0.000    0.000    0.000 
#
# Total GULP energy -67038.841714 kJ/mol
# GULP energy per Si atom -5586.570143 kJ/mol
# Density = 2.100279 g / cm^3
# Si number density = 21.050704 Si / 1000 Ang^3
#
#
#
# Elastic Constant Matrix: (Units=GPa)
#
#
# Indices 1 2 3 4 5 6 
#
# 1 97.5198 -8.7824 12.2352 0.0000 0.2665 0.0000
# 2 -8.7824 47.2928 -9.3040 0.0001 -8.9818 0.0000
# 3 12.2352 -9.3040 103.7070 0.0001 6.3080 0.0000
# 4 0.0000 0.0001 0.0001 8.9906 0.0000 6.3205
# 5 0.2665 -8.9818 6.3080 0.0000 33.8437 0.0000
# 6 0.0000 0.0000 0.0000 6.3205 0.0000 14.7004
#
#
#
# Elastic Compliance Matrix: (Units=1/GPa)
#
#
# Indices 1 2 3 4 5 6 
#
# 1 0.010560 0.001859 -0.001117 0.000000 0.000618 0.000000
# 2 0.001859 0.022880 0.001482 0.000000 0.005781 0.000000
# 3 -0.001117 0.001482 0.009996 0.000000 -0.001461 0.000000
# 4 0.000000 0.000000 0.000000 0.159413 0.000000 -0.068540
# 5 0.000618 0.005781 -0.001461 0.000000 0.031349 0.000000
# 6 0.000000 0.000000 0.000000 -0.068540 0.000000 0.097495
#
#
# Mechanical properties :
#
#
# Convention : Reuss Voigt Hill
#
# Bulk Modulus (GPa) = 20.88414 26.31302 23.59858
# Shear Modulus (GPa) = 14.56850 28.46498 21.51674
#
# Velocity S-wave (km/s) = 2.63357 3.68123 3.20056
# Velocity P-wave (km/s) = 4.38064 5.53133 4.98927
#
# Compressibility (1/GPa) = 0.04788322
#
# Stress axis : x y z
#
# Youngs Moduli (GPa) = 94.69568 43.70724 100.03904
#
# Poissons Ratio (x) = -0.08124 0.11172
# Poissons Ratio (y) = -0.17602 -0.14823
# Poissons Ratio (z) = 0.10575 -0.06476
#
# Static dielectric constant tensor:
#      x y z
#    x 1.705640 0.000000 -0.014360 
#    y 0.000000 1.817390 0.000000 
#    z -0.014360 0.000000 1.747290 
# 
# From -- ./inp_files/15696.got.cif
#   From: 2010.05.17/outbox.cif.g08.bks.cpg/sg8_8_cif.got.tgz:15696.got - 2010.06.03 19:46:02.
