data_PCOD9131187
_publ_section_title
;
Structure prediction by ZEFSAII (Michael W. Deem and Ramdas Pophale) SiO2 
 PCOD9131187
Probable space group: P M
;
_chemical_formula_sum "Si O2"
_cell_formula_units_Z 12
_cell_length_a 4.862041
_cell_length_b 16.978316
_cell_length_c 6.916981
_cell_angle_alpha 90.000000
_cell_angle_beta 131.760917
_cell_angle_gamma 90.000000
_cell_volume 425.920133
_symmetry_space_group_name_H-M "P M"
_symmetry_group_IT_number 6
_symmetry_cell_setting 'monoclinic'
loop_
_space_group_symop_operation_xyz
x,y,z
x,-y,z
loop_
_atom_site_type_symbol
_atom_site_label
_atom_site_fract_x
_atom_site_fract_y
_atom_site_fract_z
Si Si1 0.635360 0.584126 0.040700
Si Si2 0.503598 0.585121 0.525827
Si Si3 0.285939 0.914415 0.886303
Si Si4 0.501546 0.744172 0.909724
Si Si5 0.332457 0.253598 0.383930
Si Si6 0.464650 0.084156 0.539047
O O1 0.463334 0.500000 0.015163
O O2 0.053968 0.585502 0.313431
O O3 0.640321 0.585239 0.809381
O O4 0.410966 0.663554 0.979743
O O5 0.618447 0.500000 0.494790
O O6 0.587501 0.669649 0.467517
O O7 0.450286 0.827691 0.989876
O O8 0.228677 0.914209 0.624765
O O9 0.891511 0.915680 0.804336
O O10 0.472018 0.000000 0.010021
O O11 0.313696 0.744907 0.611795
O O12 0.942702 0.737310 0.098677
O O13 0.441957 0.163014 0.404951
O O14 0.396396 0.000000 0.409116
#
# Coordination Sequence:
#
# PCOD9131187 Si02
#       6
#     2   2   2   2   2   2
#     4   8  13  22  39  65  96 130 168 210 257 309
#     4   8  13  22  39  65  96 130 168 210 257 309
#     4   9  18  34  55  79 108 142 180 223 271 323
#     4   9  17  30  49  74 104 138 176 219 266 317
#     4   9  17  30  49  74 104 138 176 219 266 317
#     4   9  18  34  55  79 108 142 180 223 271 323
#
# _framework density 28.174296999999999
#
# number of rings (size 3 to 8) (size 9 to 14) (size 15 to 20)
#    0.000    3.333    0.000    0.000    0.000    0.667 
#    0.000    6.667    0.000   19.000    0.000    0.000 
#    0.000   58.667    0.000    0.000    0.000   14.000 
#
# Total GULP energy -67000.030415 kJ/mol
# GULP energy per Si atom -5583.335868 kJ/mol
# Density = 2.811017 g / cm^3
# Si number density = 28.174297 Si / 1000 Ang^3
#
#
#
# Elastic Constant Matrix: (Units=GPa)
#
#
# Indices 1 2 3 4 5 6 
#
# 1 68.7413 11.8632 45.0382 0.0000 -15.7599 0.0000
# 2 11.8632 340.5616 15.3244 0.0000 0.7973 0.0000
# 3 45.0382 15.3244 135.6725 0.0000 -10.2029 0.0000
# 4 0.0000 0.0000 0.0000 17.2928 0.0000 36.2378
# 5 -15.7599 0.7973 -10.2029 0.0000 57.8682 0.0000
# 6 0.0000 0.0000 0.0000 36.2378 0.0000 -62.7326
#
#
#
# Elastic Compliance Matrix: (Units=1/GPa)
#
#
# Indices 1 2 3 4 5 6 
#
# 1 0.019625 -0.000417 -0.006147 0.000000 0.004267 0.000000
# 2 -0.000417 0.002961 -0.000210 0.000000 -0.000191 0.000000
# 3 -0.006147 -0.000210 0.009434 0.000000 -0.000008 0.000000
# 4 0.000000 0.000000 0.000000 0.026160 0.000000 0.015112
# 5 0.004267 -0.000191 -0.000008 0.000000 0.018444 0.000000
# 6 0.000000 0.000000 0.000000 0.015112 0.000000 -0.007211
#
#
# Mechanical properties :
#
#
# Convention : Reuss Voigt Hill
#
# Bulk Modulus (GPa) = 54.13721 76.60300 65.37011
# Shear Modulus (GPa) = 56.10539 34.00233 45.05386
#
# Velocity S-wave (km/s) = 4.46732 3.47775 4.00323
# Velocity P-wave (km/s) = 6.77245 6.58592 6.67983
#
# Compressibility (1/GPa) = 0.01847158
#
# Stress axis : x y z
#
# Youngs Moduli (GPa) = 50.95636 337.75025 105.99573
#
# Poissons Ratio (x) = 0.14084 0.65152
# Poissons Ratio (y) = 0.02125 0.02230
# Poissons Ratio (z) = 0.31321 0.07106
#
# Static dielectric constant tensor:
#      x y z
#    x 2.092580 0.000000 0.029350 
#    y 0.000000 2.364950 0.000000 
#    z 0.029350 0.000000 2.121810 
# 
# From -- ./inp_files/406.got.cif
#   From: 2010.05.17/outbox.cif.g08.bks.cpg/sg6_1_cif.got.tgz:406.got - 2010.06.03 19:42:10.
