data_PCOD9131086
_publ_section_title
;
Structure prediction by ZEFSAII (Michael W. Deem and Ramdas Pophale) SiO2 
 PCOD9131086
Probable space group: P M
;
_chemical_formula_sum "Si O2"
_cell_formula_units_Z 14
_cell_length_a 8.795196
_cell_length_b 12.429971
_cell_length_c 6.038820
_cell_angle_alpha 90.000000
_cell_angle_beta 94.103631
_cell_angle_gamma 90.000000
_cell_volume 658.495589
_symmetry_space_group_name_H-M "P M"
_symmetry_group_IT_number 6
_symmetry_cell_setting 'monoclinic'
loop_
_space_group_symop_operation_xyz
x,y,z
x,-y,z
loop_
_atom_site_type_symbol
_atom_site_label
_atom_site_fract_x
_atom_site_fract_y
_atom_site_fract_z
Si Si1 0.956310 0.719431 0.889540
Si Si2 0.077457 0.500000 0.728065
Si Si3 0.472980 0.817286 0.782658
Si Si4 0.224693 0.500000 0.243517
Si Si5 0.226807 0.876334 0.083271
Si Si6 0.705896 0.259387 0.180747
Si Si7 0.764370 0.881338 0.567990
Si Si8 0.411873 0.705542 0.379994
O O1 0.858528 0.798703 0.724826
O O2 0.997330 0.616074 0.748096
O O3 0.091214 0.793519 0.005063
O O4 0.846124 0.682156 0.080047
O O5 0.138172 0.500000 0.477304
O O6 0.159402 0.500000 0.984815
O O7 0.338131 0.881104 0.881981
O O8 0.587367 0.877173 0.627099
O O9 0.400966 0.717728 0.642018
O O10 0.585897 0.775292 0.982491
O O11 0.323402 0.607395 0.268859
O O12 0.183582 0.000000 0.137949
O O13 0.331656 0.814184 0.276044
O O14 0.770707 0.155655 0.315023
O O15 0.591426 0.312105 0.345090
O O16 0.825215 0.000000 0.606687
#
# Coordination Sequence:
#
# PCOD9131086 Si02
#       8
#     2   1   2   1   2   2   2   2
#     4  11  24  43  64  96 137 178 229 276 350 413
#     4  12  28  47  75 101 141 185 228 290 354 413
#     4   9  20  39  61  91 129 174 226 284 335 401
#     4  12  26  47  75 105 137 183 230 290 352 415
#     4  11  22  37  62  96 133 175 224 281 341 414
#     4   9  22  40  63  93 131 174 224 279 338 410
#     4  10  21  39  64  95 133 181 226 283 344 410
#     4  10  22  42  68  97 131 171 234 283 349 403
#
# _framework density 21.260584000000001
#
# number of rings (size 3 to 8) (size 9 to 14) (size 15 to 20)
#    0.000    1.714    1.429    1.714    4.000   10.286 
#    0.000    6.429    0.000    0.000    0.000    0.000 
#    0.000    0.000    0.000    0.000    0.000    0.000 
#
# Total GULP energy -77945.480413 kJ/mol
# GULP energy per Si atom -5567.534315 kJ/mol
# Density = 2.121219 g / cm^3
# Si number density = 21.260584 Si / 1000 Ang^3
#
#
#
# Elastic Constant Matrix: (Units=GPa)
#
#
# Indices 1 2 3 4 5 6 
#
# 1 82.1920 15.8538 11.9356 0.0000 0.6453 0.0000
# 2 15.8538 79.8829 -2.1368 0.0000 7.1749 0.0000
# 3 11.9356 -2.1368 77.5844 0.0000 8.3747 0.0000
# 4 0.0000 0.0000 0.0000 -29.7359 0.0000 15.9522
# 5 0.6453 7.1749 8.3747 0.0000 35.3322 0.0000
# 6 0.0000 0.0000 0.0000 15.9522 0.0000 14.4982
#
#
#
# Elastic Compliance Matrix: (Units=1/GPa)
#
#
# Indices 1 2 3 4 5 6 
#
# 1 0.012997 -0.002712 -0.002163 0.000000 0.000826 0.000000
# 2 -0.002712 0.013348 0.001100 0.000000 -0.002922 0.000000
# 3 -0.002163 0.001100 0.013621 0.000000 -0.003412 0.000000
# 4 0.000000 0.000000 0.000000 -0.021147 0.000000 0.023268
# 5 0.000826 -0.002922 -0.003412 0.000000 0.029690 0.000000
# 6 0.000000 0.000000 0.000000 0.023268 0.000000 0.043373
#
#
# Mechanical properties :
#
#
# Convention : Reuss Voigt Hill
#
# Bulk Modulus (GPa) = 30.84814 32.32937 31.58875
# Shear Modulus (GPa) = 45.35684 18.28600 31.82142
#
# Velocity S-wave (km/s) = 4.62386 2.93591 3.87296
# Velocity P-wave (km/s) = 6.56108 5.17030 5.90677
#
# Compressibility (1/GPa) = 0.03241687
#
# Stress axis : x y z
#
# Youngs Moduli (GPa) = 76.93890 74.91573 73.41796
#
# Poissons Ratio (x) = 0.20314 0.15883
# Poissons Ratio (y) = 0.20862 -0.08077
# Poissons Ratio (z) = 0.16645 -0.08242
#
# Static dielectric constant tensor:
#      x y z
#    x 1.818830 0.000000 -0.037260 
#    y 0.000000 2.268190 0.000000 
#    z -0.037260 0.000000 1.826070 
# 
# From -- ./inp_files/1022.got.cif
#   From: 2010.05.17/outbox.cif.g08.bks.cpg/sg6_1_cif.got.tgz:1022.got - 2010.06.03 19:42:10.
