data_PCOD9131018
_publ_section_title
;
Structure prediction by ZEFSAII (Michael W. Deem and Ramdas Pophale) SiO2 
 PCOD9131018
Probable space group: P M
;
_chemical_formula_sum "Si O2"
_cell_formula_units_Z 16
_cell_length_a 5.037311
_cell_length_b 21.763427
_cell_length_c 5.221330
_cell_angle_alpha 90.000000
_cell_angle_beta 80.831900
_cell_angle_gamma 90.000000
_cell_volume 565.097507
_symmetry_space_group_name_H-M "P M"
_symmetry_group_IT_number 6
_symmetry_cell_setting 'monoclinic'
loop_
_space_group_symop_operation_xyz
x,y,z
x,-y,z
loop_
_atom_site_type_symbol
_atom_site_label
_atom_site_fract_x
_atom_site_fract_y
_atom_site_fract_z
Si Si1 0.509500 0.932439 0.392840
Si Si2 0.712765 0.435481 0.203545
Si Si3 0.951782 0.196831 0.976019
Si Si4 0.615626 0.295520 0.144269
Si Si5 0.222102 0.295537 0.731917
Si Si6 0.075421 0.434496 0.652193
Si Si7 0.352214 0.801539 0.398074
Si Si8 0.053190 0.933379 0.050038
O O1 0.439361 0.865399 0.516009
O O2 0.342383 0.930502 0.147404
O O3 0.827320 0.932327 0.305921
O O4 0.443028 0.000000 0.514491
O O5 0.553843 0.500000 0.206387
O O6 0.588328 0.368688 0.212659
O O7 0.893578 0.436689 0.428446
O O8 0.895763 0.436202 0.928854
O O9 0.647691 0.207827 0.146626
O O10 0.141015 0.193171 0.199933
O O11 0.958348 0.124106 0.897647
O O12 0.936106 0.287617 0.995643
O O13 0.434026 0.272764 0.432575
O O14 0.450596 0.292143 0.907565
O O15 0.115254 0.222414 0.685764
O O16 0.183253 0.365267 0.649424
O O17 0.232697 0.500000 0.647424
O O18 0.019365 0.000000 0.930514
#
# Coordination Sequence:
#
# PCOD9131018 Si02
#       8
#     2   2   2   2   2   2   2   2
#     4   9  17  33  58  89 121 167 222 274 338 409
#     4  10  22  41  66  93 127 173 217 269 337 404
#     4  10  20  39  58  84 123 162 212 266 330 402
#     4  11  22  37  61  90 122 161 216 266 326 400
#     4  11  24  37  60  93 122 165 216 272 334 398
#     4  10  22  42  66  92 128 173 217 269 336 404
#     4  10  22  37  58  89 121 167 213 271 338 400
#     4   9  17  32  59  88 122 168 219 275 339 409
#
# _framework density 28.313696
#
# number of rings (size 3 to 8) (size 9 to 14) (size 15 to 20)
#    0.000    2.000    2.500    0.750    3.500    1.500 
#    0.000    1.250    0.000    1.500    0.000    0.000 
#    0.000    0.000    0.000    0.000    0.000    0.000 
#
# Total GULP energy -89173.556948 kJ/mol
# GULP energy per Si atom -5573.347309 kJ/mol
# Density = 2.824925 g / cm^3
# Si number density = 28.313696 Si / 1000 Ang^3
#
#
#
# Elastic Constant Matrix: (Units=GPa)
#
#
# Indices 1 2 3 4 5 6 
#
# 1 110.0098 44.3242 43.5425 0.0000 -5.5847 0.0000
# 2 44.3242 320.6693 68.8039 0.0000 -39.3388 0.0000
# 3 43.5425 68.8039 160.0600 0.0000 -22.5646 0.0000
# 4 0.0000 0.0000 0.0000 12.7990 0.0000 -36.3196
# 5 -5.5847 -39.3388 -22.5646 0.0000 66.6839 0.0000
# 6 0.0000 0.0000 0.0000 -36.3196 0.0000 170.7456
#
#
#
# Elastic Compliance Matrix: (Units=1/GPa)
#
#
# Indices 1 2 3 4 5 6 
#
# 1 0.010444 -0.000974 -0.002499 0.000000 -0.000546 0.000000
# 2 -0.000974 0.003698 -0.001080 0.000000 0.001734 0.000000
# 3 -0.002499 -0.001080 0.007637 0.000000 0.001738 0.000000
# 4 0.000000 0.000000 0.000000 0.197108 0.000000 0.041927
# 5 -0.000546 0.001734 0.001738 0.000000 0.016562 0.000000
# 6 0.000000 0.000000 0.000000 0.041927 0.000000 0.014775
#
#
# Mechanical properties :
#
#
# Convention : Reuss Voigt Hill
#
# Bulk Modulus (GPa) = 78.91779 100.45335 89.68557
# Shear Modulus (GPa) = 18.97146 78.98360 48.97753
#
# Velocity S-wave (km/s) = 2.59133 5.28739 4.16362
# Velocity P-wave (km/s) = 6.07343 8.53411 7.40667
#
# Compressibility (1/GPa) = 0.01267141
#
# Stress axis : x y z
#
# Youngs Moduli (GPa) = 95.74674 270.44387 130.94541
#
# Poissons Ratio (x) = 0.26350 0.32728
# Poissons Ratio (y) = 0.09329 0.14141
# Poissons Ratio (z) = 0.23930 0.29206
#
# Static dielectric constant tensor:
#      x y z
#    x 2.338720 0.000000 -0.419860 
#    y 0.000000 2.511670 0.000000 
#    z -0.419860 0.000000 2.350250 
# 
# From -- ./inp_files/623.got.cif
#   From: 2010.05.17/outbox.cif.g08.bks.cpg/sg6_1_cif.got.tgz:623.got - 2010.06.03 19:42:10.
