data_PCOD9131716
_publ_section_title
;
Structure prediction by ZEFSAII (Michael W. Deem and Ramdas Pophale) SiO2 
 PCOD9131716
Probable space group: C M
;
_chemical_formula_sum "Si O2"
_cell_formula_units_Z 32
_cell_length_a 8.333293
_cell_length_b 22.084098
_cell_length_c 10.755658
_cell_angle_alpha 90.000000
_cell_angle_beta 57.102312
_cell_angle_gamma 90.000000
_cell_volume 1661.985934
_symmetry_space_group_name_H-M "C M"
_symmetry_group_IT_number 8
_symmetry_cell_setting 'monoclinic'
loop_
_space_group_symop_operation_xyz
x,y,z
x,-y,z
1/2+x,1/2+y,z
1/2+x,1/2-y,z
loop_
_atom_site_type_symbol
_atom_site_label
_atom_site_fract_x
_atom_site_fract_y
_atom_site_fract_z
Si Si1 0.747110 0.292018 0.324680
Si Si2 0.389720 0.360556 0.509044
Si Si3 0.469948 0.353777 0.886649
Si Si4 0.539388 0.875766 0.493244
Si Si5 0.748902 0.729946 0.620997
Si Si6 0.725178 0.928847 0.788490
Si Si7 0.343167 0.930577 0.796970
Si Si8 0.139048 0.323947 0.209626
O O1 0.599289 0.346338 0.373469
O O2 0.739263 0.278587 0.475889
O O3 0.674024 0.234568 0.280839
O O4 0.961310 0.307943 0.196586
O O5 0.253134 0.370879 0.451202
O O6 0.307177 0.299789 0.613362
O O7 0.365724 0.415307 0.613391
O O8 0.565744 0.297427 0.769899
O O9 0.329252 0.392142 0.854914
O O10 0.649919 0.391632 0.865737
O O11 0.332004 0.335778 0.056637
O O12 0.420478 0.815844 0.584680
O O13 0.437398 0.926438 0.618854
O O14 0.556736 0.875502 0.337540
O O15 0.513457 0.910659 0.821968
O O16 0.715894 0.000000 0.821690
O O17 0.297346 0.000000 0.845517
#
# Coordination Sequence:
#
# PCOD9131716 Si02
#       8
#     4   4   4   4   4   4   4   4
#     4  11  19  35  56  80 125 158 195 240 302 375
#     4  11  17  34  63  84 115 160 195 261 296 348
#     4  11  23  38  59  92 127 160 206 255 317 372
#     4   9  18  33  58  86 114 148 202 239 300 369
#     4  10  18  33  58  86 115 158 201 243 302 364
#     4  10  22  39  63  93 118 158 212 257 303 358
#     4   9  20  41  65  86 114 158 214 268 300 351
#     4  11  22  37  52  89 127 164 193 243 322 381
#
# _framework density 19.254075
#
# number of rings (size 3 to 8) (size 9 to 14) (size 15 to 20)
#    0.000    1.750    5.000    0.375    0.000    1.000 
#    9.000    1.250    0.000    1.500    0.000    0.000 
#    0.000    0.000    0.000    0.000    0.000    0.000 
#
# Total GULP energy -89098.117445 kJ/mol
# GULP energy per Si atom -5568.632340 kJ/mol
# Density = 1.921025 g / cm^3
# Si number density = 19.254075 Si / 1000 Ang^3
#
#
#
# Elastic Constant Matrix: (Units=GPa)
#
#
# Indices 1 2 3 4 5 6 
#
# 1 96.8760 15.7824 32.8529 0.0000 -24.7834 0.0000
# 2 15.7824 29.5119 6.4218 0.0000 -11.7755 0.0000
# 3 32.8529 6.4218 82.8290 0.0000 -33.0213 0.0000
# 4 0.0000 0.0000 0.0000 12.4982 0.0000 -2.4287
# 5 -24.7834 -11.7755 -33.0213 0.0000 30.0737 0.0000
# 6 0.0000 0.0000 0.0000 -2.4287 0.0000 22.9905
#
#
#
# Elastic Compliance Matrix: (Units=1/GPa)
#
#
# Indices 1 2 3 4 5 6 
#
# 1 0.013549 -0.003878 -0.002183 0.000000 0.007251 0.000000
# 2 -0.003878 0.042791 0.006449 0.000000 0.020640 0.000000
# 3 -0.002183 0.006449 0.022638 0.000000 0.025583 0.000000
# 4 0.000000 0.000000 0.000000 0.081688 0.000000 0.008629
# 5 0.007251 0.020640 0.025583 0.000000 0.075400 0.000000
# 6 0.000000 0.000000 0.000000 0.008629 0.000000 0.044408
#
#
# Mechanical properties :
#
#
# Convention : Reuss Voigt Hill
#
# Bulk Modulus (GPa) = 12.53837 35.48121 24.00979
# Shear Modulus (GPa) = 16.32481 23.38980 19.85730
#
# Velocity S-wave (km/s) = 2.91497 3.48918 3.21492
# Velocity P-wave (km/s) = 4.22559 5.89070 5.12620
#
# Compressibility (1/GPa) = 0.07975520
#
# Stress axis : x y z
#
# Youngs Moduli (GPa) = 73.80383 23.36952 44.17332
#
# Poissons Ratio (x) = 0.09062 0.09643
# Poissons Ratio (y) = 0.28620 -0.28488
# Poissons Ratio (z) = 0.16111 -0.15071
#
# Static dielectric constant tensor:
#      x y z
#    x 1.740830 0.000000 0.005150 
#    y 0.000000 1.705020 0.000000 
#    z 0.005150 0.000000 1.672250 
# 
# From -- ./inp_files/19258.got.cif
#   From: 2010.05.17/outbox.cif.g08.bks.cpg/sg8_10_cif.got.tgz:19258.got - 2010.06.03 19:46:02.
