data_PCOD9131206
_publ_section_title
;
Structure prediction by ZEFSAII (Michael W. Deem and Ramdas Pophale) SiO2 
 PCOD9131206
Probable space group: P C
;
_chemical_formula_sum "Si O2"
_cell_formula_units_Z 16
_cell_length_a 17.122251
_cell_length_b 7.065762
_cell_length_c 5.481586
_cell_angle_alpha 90.000000
_cell_angle_beta 80.491546
_cell_angle_gamma 90.000000
_cell_volume 654.060709
_symmetry_space_group_name_H-M "P C"
_symmetry_group_IT_number 7
_symmetry_cell_setting 'monoclinic'
loop_
_space_group_symop_operation_xyz
x,y,z
x,-y,1/2+z
loop_
_atom_site_type_symbol
_atom_site_label
_atom_site_fract_x
_atom_site_fract_y
_atom_site_fract_z
Si Si1 0.227550 0.900826 0.840690
Si Si2 0.021869 0.268914 0.099348
Si Si3 0.348935 0.529694 0.302772
Si Si4 0.083945 0.298072 0.565873
Si Si5 0.404681 0.961150 0.264892
Si Si6 0.850186 0.622427 0.594733
Si Si7 0.523068 0.397844 0.190516
Si Si8 0.679427 0.622186 0.756321
O O1 0.175411 0.721469 0.942294
O O2 0.207624 0.956268 0.574217
O O3 0.323492 0.913974 0.802714
O O4 0.069371 0.205245 0.835980
O O5 0.049926 0.490299 0.105800
O O6 0.038454 0.200180 0.364053
O O7 0.929383 0.257254 0.085094
O O8 0.304785 0.510303 0.577510
O O9 0.378293 0.744523 0.272701
O O10 0.427344 0.393821 0.261447
O O11 0.449280 0.996776 0.492664
O O12 0.853648 0.524499 0.324545
O O13 0.764379 0.719560 0.671690
O O14 0.534991 0.557527 0.398815
O O15 0.596753 0.269594 0.240771
O O16 0.679582 0.464963 0.531884
#
# Coordination Sequence:
#
# PCOD9131206 Si02
#       8
#     2   2   2   2   2   2   2   2
#     4  10  21  37  56  66  94 130 170 204 258 309
#     4  10  17  28  46  72 100 121 159 206 257 295
#     4  10  19  33  58  82 108 138 176 227 267 309
#     4  10  18  30  49  68  93 127 159 206 253 298
#     4  10  21  38  60  77 108 142 177 220 265 331
#     4  10  14  23  36  61  95 137 152 194 243 309
#     4   8  14  25  39  67  98 133 157 202 245 304
#     4   8  14  20  34  55  94 136 160 179 240 307
#
# _framework density 24.462564
#
# number of rings (size 3 to 8) (size 9 to 14) (size 15 to 20)
#    0.000    2.500    2.500    1.500    0.000    0.000 
#    0.000    0.000   66.000    0.000    0.000    0.000 
#    0.000    2.000    0.000    0.750    0.000    0.000 
#
# Total GULP energy -89067.962363 kJ/mol
# GULP energy per Si atom -5566.747648 kJ/mol
# Density = 2.440689 g / cm^3
# Si number density = 24.462564 Si / 1000 Ang^3
#
#
#
# Elastic Constant Matrix: (Units=GPa)
#
#
# Indices 1 2 3 4 5 6 
#
# 1 145.2133 19.5913 18.8471 0.0000 -6.4939 0.0000
# 2 19.5913 51.7550 14.7445 0.0000 0.2107 0.0000
# 3 18.8471 14.7445 230.2291 0.0000 20.7400 0.0000
# 4 0.0000 0.0000 0.0000 16.2999 0.0000 -4.0315
# 5 -6.4939 0.2107 20.7400 0.0000 43.5182 0.0000
# 6 0.0000 0.0000 0.0000 -4.0315 0.0000 10.9332
#
#
#
# Elastic Compliance Matrix: (Units=1/GPa)
#
#
# Indices 1 2 3 4 5 6 
#
# 1 0.007377 -0.002639 -0.000559 0.000000 0.001380 0.000000
# 2 -0.002639 0.020636 -0.001109 0.000000 0.000035 0.000000
# 3 -0.000559 -0.001109 0.004668 0.000000 -0.002303 0.000000
# 4 0.000000 0.000000 0.000000 0.067507 0.000000 0.024892
# 5 0.001380 0.000035 -0.002303 0.000000 0.024282 0.000000
# 6 0.000000 0.000000 0.000000 0.024892 0.000000 0.100643
#
#
# Mechanical properties :
#
#
# Convention : Reuss Voigt Hill
#
# Bulk Modulus (GPa) = 41.54971 59.28481 50.41726
# Shear Modulus (GPa) = 20.68266 39.08456 29.88361
#
# Velocity S-wave (km/s) = 2.91087 4.00150 3.49894
# Velocity P-wave (km/s) = 5.32160 6.75550 6.08097
#
# Compressibility (1/GPa) = 0.02406755
#
# Stress axis : x y z
#
# Youngs Moduli (GPa) = 135.56174 48.45813 214.23772
#
# Poissons Ratio (x) = 0.12787 0.11980
# Poissons Ratio (y) = 0.35770 0.23753
# Poissons Ratio (z) = 0.07581 0.05373
#
# Static dielectric constant tensor:
#      x y z
#    x 2.028300 0.000000 -0.003940 
#    y 0.000000 1.933950 0.000000 
#    z -0.003940 0.000000 2.009670 
# 
# From -- ./inp_files/1374.got.cif
#   From: 2010.05.17/outbox.cif.g08.bks.cpg/sg7_cif.got.tgz:1374.got - 2010.06.03 19:44:50.
