data_PCOD9131516
_publ_section_title
;
Structure prediction by ZEFSAII (Michael W. Deem and Ramdas Pophale) SiO2 
 PCOD9131516
Probable space group: C M
;
_chemical_formula_sum "Si O2"
_cell_formula_units_Z 32
_cell_length_a 23.853576
_cell_length_b 8.855316
_cell_length_c 9.268741
_cell_angle_alpha 90.000000
_cell_angle_beta 113.150240
_cell_angle_gamma 90.000000
_cell_volume 1800.193682
_symmetry_space_group_name_H-M "C M"
_symmetry_group_IT_number 8
_symmetry_cell_setting 'monoclinic'
loop_
_space_group_symop_operation_xyz
x,y,z
x,-y,z
1/2+x,1/2+y,z
1/2+x,1/2-y,z
loop_
_atom_site_type_symbol
_atom_site_label
_atom_site_fract_x
_atom_site_fract_y
_atom_site_fract_z
Si Si1 0.502400 0.823551 0.639680
Si Si2 0.749932 0.681575 0.551562
Si Si3 0.993425 0.675675 0.279405
Si Si4 0.869410 0.317972 0.491881
Si Si5 0.249862 0.681434 0.871588
Si Si6 0.369089 0.320511 0.174214
Si Si7 0.626407 0.817664 0.426557
Si Si8 0.126373 0.820212 0.750237
O O1 0.497814 0.813694 0.459410
O O2 0.435472 0.771204 0.622466
O O3 0.561582 0.731894 0.748625
O O4 0.511443 0.000000 0.684096
O O5 0.744181 0.500000 0.551794
O O6 0.810784 0.722224 0.526315
O O7 0.755469 0.748290 0.717885
O O8 0.688206 0.752277 0.421798
O O9 0.984232 0.500000 0.234960
O O10 0.933661 0.766248 0.174645
O O11 0.060565 0.722524 0.292664
O O12 0.872135 0.500000 0.483056
O O13 0.863242 0.251494 0.326244
O O14 0.244536 0.500000 0.856205
O O15 0.187759 0.748230 0.877299
O O16 0.310331 0.721539 0.021012
O O17 0.370515 0.500000 0.189655
O O18 0.625731 0.746465 0.586464
O O19 0.629148 0.000000 0.440331
O O20 0.130860 0.000000 0.751143
#
# Coordination Sequence:
#
# PCOD9131516 Si02
#       8
#     4   4   4   4   4   4   4   4
#     4   8  14  27  44  63  90 121 148 184 232 277
#     4  10  19  31  49  73  95 122 158 193 229 274
#     4   8  15  27  44  65  91 121 152 187 231 274
#     4   9  19  33  49  70  97 125 154 188 233 281
#     4  10  20  33  47  68  97 127 155 189 233 279
#     4  10  20  31  48  72  95 122 158 193 230 274
#     4   9  16  27  43  65  92 122 152 187 231 275
#     4  10  17  25  42  68  91 116 153 195 231 268
#
# _framework density 17.775866000000001
#
# number of rings (size 3 to 8) (size 9 to 14) (size 15 to 20)
#    0.000    2.750    0.000    5.625    0.000    8.000 
#    0.000    0.000    0.000    1.500    0.000    1.750 
#    0.000    0.000    0.000    0.000    0.000    0.000 
#
# Total GULP energy -89101.650090 kJ/mol
# GULP energy per Si atom -5568.853131 kJ/mol
# Density = 1.773541 g / cm^3
# Si number density = 17.775866 Si / 1000 Ang^3
#
#
#
# Elastic Constant Matrix: (Units=GPa)
#
#
# Indices 1 2 3 4 5 6 
#
# 1 142.4533 48.8049 56.8934 0.0000 55.7216 0.0000
# 2 48.8049 59.5175 34.8401 0.0000 26.0045 0.0000
# 3 56.8934 34.8401 71.3380 0.0000 42.8518 0.0000
# 4 0.0000 0.0000 0.0000 21.4564 0.0000 10.2709
# 5 55.7216 26.0045 42.8518 0.0000 37.5513 0.0000
# 6 0.0000 0.0000 0.0000 10.2709 0.0000 27.1009
#
#
#
# Elastic Compliance Matrix: (Units=1/GPa)
#
#
# Indices 1 2 3 4 5 6 
#
# 1 0.018402 -0.005366 0.006725 0.000000 -0.031264 0.000000
# 2 -0.005366 0.026366 -0.007670 0.000000 -0.001543 0.000000
# 3 0.006725 -0.007670 0.048340 0.000000 -0.059830 0.000000
# 4 0.000000 0.000000 0.000000 0.056935 0.000000 -0.021578
# 5 -0.031264 -0.001543 -0.059830 0.000000 0.142366 0.000000
# 6 0.000000 0.000000 0.000000 -0.021578 0.000000 0.045077
#
#
# Mechanical properties :
#
#
# Convention : Reuss Voigt Hill
#
# Bulk Modulus (GPa) = 12.42477 61.59837 37.01157
# Shear Modulus (GPa) = 13.26482 26.07307 19.66894
#
# Velocity S-wave (km/s) = 2.73468 3.83400 3.33001
# Velocity P-wave (km/s) = 4.12021 7.37071 5.97091
#
# Compressibility (1/GPa) = 0.08048436
#
# Stress axis : x y z
#
# Youngs Moduli (GPa) = 54.34332 37.92717 20.68684
#
# Poissons Ratio (x) = 0.20353 -0.13911
# Poissons Ratio (y) = 0.29162 0.15867
# Poissons Ratio (z) = -0.36545 0.29091
#
# Static dielectric constant tensor:
#      x y z
#    x 1.672450 0.000000 0.041440 
#    y 0.000000 1.591340 0.000000 
#    z 0.041440 0.000000 1.611330 
# 
# From -- ./inp_files/24256.got.cif
#   From: 2010.05.17/outbox.cif.g08.bks.cpg/sg8_13_cif.got.tgz:24256.got - 2010.06.03 19:46:02.
