data_PCOD9131905
_publ_section_title
;
Structure prediction by ZEFSAII (Michael W. Deem and Ramdas Pophale) SiO2 
 PCOD9131905
Probable space group: C M
;
_chemical_formula_sum "Si O2"
_cell_formula_units_Z 32
_cell_length_a 23.309275
_cell_length_b 7.492546
_cell_length_c 28.691495
_cell_angle_alpha 90.000000
_cell_angle_beta 162.485721
_cell_angle_gamma 90.000000
_cell_volume 1507.982452
_symmetry_space_group_name_H-M "C M"
_symmetry_group_IT_number 8
_symmetry_cell_setting 'monoclinic'
loop_
_space_group_symop_operation_xyz
x,y,z
x,-y,z
1/2+x,1/2+y,z
1/2+x,1/2-y,z
loop_
_atom_site_type_symbol
_atom_site_label
_atom_site_fract_x
_atom_site_fract_y
_atom_site_fract_z
Si Si1 0.751680 0.794956 0.022640
Si Si2 0.536619 0.218296 0.573283
Si Si3 0.792186 0.781027 0.948978
Si Si4 0.470827 0.782282 0.627615
Si Si5 0.837776 0.204333 0.733065
Si Si6 0.215300 0.784832 0.251969
Si Si7 0.045428 0.781381 0.326999
Si Si8 0.020060 0.208962 0.412890
O O1 0.889900 0.717522 0.169172
O O2 0.815601 0.000000 0.066748
O O3 0.765059 0.718042 0.981048
O O4 0.534238 0.793880 0.871210
O O5 0.525904 0.275640 0.618235
O O6 0.720862 0.278556 0.686667
O O7 0.350151 0.273242 0.399394
O O8 0.539699 0.000000 0.574887
O O9 0.622630 0.723108 0.783721
O O10 0.787466 0.000000 0.945253
O O11 0.999116 0.725021 0.090612
O O12 0.256870 0.729066 0.474945
O O13 0.472396 0.000000 0.628525
O O14 0.686652 0.207766 0.573514
O O15 0.886954 0.000000 0.781562
O O16 0.323618 0.730049 0.288916
O O17 0.213970 0.000000 0.251608
O O18 0.009347 0.722045 0.352035
O O19 0.037563 0.000000 0.321762
O O20 0.068270 0.000000 0.448075
#
# Coordination Sequence:
#
# PCOD9131905 Si02
#       8
#     4   4   4   4   4   4   4   4
#     4  10  19  33  52  75 101 133 169 208 249 296
#     4   8  15  27  44  65  94 125 155 194 246 296
#     4   9  17  28  48  74  98 126 167 210 249 292
#     4   9  15  26  45  71  97 124 162 210 251 290
#     4  10  20  34  51  75 103 133 166 206 252 299
#     4   9  17  31  49  72  99 129 163 205 252 298
#     4   9  18  30  48  73 101 130 166 208 250 292
#     4  10  19  33  52  75 101 134 170 205 245 297
#
# _framework density 21.220407000000002
#
# number of rings (size 3 to 8) (size 9 to 14) (size 15 to 20)
#    0.000    2.750    0.000    3.000    0.000    6.000 
#    0.000    3.125    0.000    0.000    0.000   21.875 
#    0.000    0.000    0.000    0.000    0.000    0.000 
#
# Total GULP energy -89340.261949 kJ/mol
# GULP energy per Si atom -5583.766372 kJ/mol
# Density = 2.117211 g / cm^3
# Si number density = 21.220407 Si / 1000 Ang^3
#
#
#
# Elastic Constant Matrix: (Units=GPa)
#
#
# Indices 1 2 3 4 5 6 
#
# 1 225.9609 -1.5532 121.2647 -0.0146 -14.5564 -0.0005
# 2 -1.5532 56.1395 -5.7947 -0.0319 -2.9543 0.0037
# 3 121.2647 -5.7947 163.4757 -0.0208 5.9670 0.0155
# 4 -0.0146 -0.0319 -0.0208 5.8794 0.0025 2.6192
# 5 -14.5564 -2.9543 5.9670 0.0025 25.3069 0.0029
# 6 -0.0005 0.0037 0.0155 2.6192 0.0029 9.3378
#
#
#
# Elastic Compliance Matrix: (Units=1/GPa)
#
#
# Indices 1 2 3 4 5 6 
#
# 1 0.008221 -0.000099 -0.006329 -0.000011 0.006209 0.000012
# 2 -0.000099 0.017976 0.000642 0.000117 0.001890 -0.000042
# 3 -0.006329 0.000642 0.011060 0.000042 -0.006173 -0.000029
# 4 -0.000011 0.000117 0.000042 0.194373 -0.000015 -0.054520
# 5 0.006209 0.001890 -0.006173 -0.000015 0.044763 0.000000
# 6 0.000012 -0.000042 -0.000029 -0.054520 0.000000 0.122384
#
#
# Mechanical properties :
#
#
# Convention : Reuss Voigt Hill
#
# Bulk Modulus (GPa) = 38.93353 74.82331 56.87842
# Shear Modulus (GPa) = 11.93575 30.21544 21.07559
#
# Velocity S-wave (km/s) = 2.37421 3.77753 3.15489
# Velocity P-wave (km/s) = 5.08949 7.37313 6.33505
#
# Compressibility (1/GPa) = 0.02568480
#
# Stress axis : x y z
#
# Youngs Moduli (GPa) = 121.63748 55.63033 90.41899
#
# Poissons Ratio (x) = 0.00551 0.57222
# Poissons Ratio (y) = 0.01204 -0.05802
# Poissons Ratio (z) = 0.76979 -0.03570
#
# Static dielectric constant tensor:
#      x y z
#    x 1.739390 0.000010 -0.004800 
#    y 0.000010 1.818330 -0.000030 
#    z -0.004800 -0.000030 1.709860 
# 
# From -- ./inp_files/16228.got.cif
#   From: 2010.05.17/outbox.cif.g08.bks.cpg/sg8_9_cif.got.tgz:16228.got - 2010.06.03 19:46:02.
