data_PCOD9131129
_publ_section_title
;
Structure prediction by ZEFSAII (Michael W. Deem and Ramdas Pophale) SiO2 
 PCOD9131129
Probable space group: P M
;
_chemical_formula_sum "Si O2"
_cell_formula_units_Z 10
_cell_length_a 5.131197
_cell_length_b 10.533882
_cell_length_c 8.884298
_cell_angle_alpha 90.000000
_cell_angle_beta 121.592304
_cell_angle_gamma 90.000000
_cell_volume 409.040696
_symmetry_space_group_name_H-M "P M"
_symmetry_group_IT_number 6
_symmetry_cell_setting 'monoclinic'
loop_
_space_group_symop_operation_xyz
x,y,z
x,-y,z
loop_
_atom_site_type_symbol
_atom_site_label
_atom_site_fract_x
_atom_site_fract_y
_atom_site_fract_z
Si Si1 0.835910 0.647519 0.057330
Si Si2 0.711063 0.222677 0.561570
Si Si3 0.753473 0.138380 0.247138
Si Si4 0.101143 0.133266 0.936901
Si Si5 0.294344 0.639461 0.664086
O O1 0.933677 0.500000 0.098588
O O2 0.884136 0.728199 0.224658
O O3 0.496145 0.644408 0.878899
O O4 0.013461 0.737092 0.993426
O O5 0.944063 0.137448 0.728193
O O6 0.939583 0.338798 0.591947
O O7 0.629426 0.160602 0.378472
O O8 0.438188 0.259828 0.590945
O O9 0.917136 0.000000 0.297232
O O10 0.463703 0.127111 0.049368
O O11 0.996049 0.000000 0.980061
O O12 0.344288 0.500000 0.614055
#
# Coordination Sequence:
#
# PCOD9131129 Si02
#       5
#     2   2   2   2   2
#     4  10  22  41  67  97 131 175 221 272 333 398
#     4  11  23  42  66  98 130 176 225 271 332 394
#     4  11  24  42  65  98 130 172 223 275 328 397
#     4  10  22  43  65  93 132 177 219 275 332 391
#     4  10  22  42  67  96 136 176 219 273 334 398
#
# _framework density 24.447448000000001
#
# number of rings (size 3 to 8) (size 9 to 14) (size 15 to 20)
#    0.000    1.600    2.000    1.800    2.800    3.200 
#    0.000    2.000    0.000    0.000    0.000    0.000 
#    0.000    0.000    0.000    0.000    0.000    0.000 
#
# Total GULP energy -55767.794329 kJ/mol
# GULP energy per Si atom -5576.779433 kJ/mol
# Density = 2.439180 g / cm^3
# Si number density = 24.447448 Si / 1000 Ang^3
#
#
#
# Elastic Constant Matrix: (Units=GPa)
#
#
# Indices 1 2 3 4 5 6 
#
# 1 41.8472 6.3613 6.5089 0.0000 -4.3839 0.0000
# 2 6.3613 205.6329 36.6129 0.0000 -20.6085 0.0000
# 3 6.5089 36.6129 88.2898 0.0000 -14.3718 0.0000
# 4 0.0000 0.0000 0.0000 10.4134 0.0000 -7.2569
# 5 -4.3839 -20.6085 -14.3718 0.0000 43.5813 0.0000
# 6 0.0000 0.0000 0.0000 -7.2569 0.0000 -103.7308
#
#
#
# Elastic Compliance Matrix: (Units=1/GPa)
#
#
# Indices 1 2 3 4 5 6 
#
# 1 0.024351 -0.000326 -0.001359 0.000000 0.001847 0.000000
# 2 -0.000326 0.005403 -0.001908 0.000000 0.001893 0.000000
# 3 -0.001359 -0.001908 0.012732 0.000000 0.003160 0.000000
# 4 0.000000 0.000000 0.000000 0.091566 0.000000 -0.006406
# 5 0.001847 0.001893 0.003160 0.000000 0.025068 0.000000
# 6 0.000000 0.000000 0.000000 -0.006406 0.000000 -0.009192
#
#
# Mechanical properties :
#
#
# Convention : Reuss Voigt Hill
#
# Bulk Modulus (GPa) = 28.32998 48.30401 38.31699
# Shear Modulus (GPa) = 29.60657 9.13857 19.37257
#
# Velocity S-wave (km/s) = 3.48376 1.93550 2.81804
# Velocity P-wave (km/s) = 5.27213 4.97957 5.12794
#
# Compressibility (1/GPa) = 0.03529830
#
# Stress axis : x y z
#
# Youngs Moduli (GPa) = 41.06616 185.09709 78.54097
#
# Poissons Ratio (x) = 0.06037 0.10676
# Poissons Ratio (y) = 0.01339 0.14988
# Poissons Ratio (z) = 0.05582 0.35321
#
# Static dielectric constant tensor:
#      x y z
#    x 1.948510 0.000000 -0.004130 
#    y 0.000000 2.551810 0.000000 
#    z -0.004130 0.000000 1.949470 
# 
# From -- ./inp_files/773.got.cif
#   From: 2010.05.17/outbox.cif.g08.bks.cpg/sg6_1_cif.got.tgz:773.got - 2010.06.03 19:42:10.
