data_PCOD9131149
_publ_section_title
;
Structure prediction by ZEFSAII (Michael W. Deem and Ramdas Pophale) SiO2 
 PCOD9131149
Probable space group: P M
;
_chemical_formula_sum "Si O2"
_cell_formula_units_Z 14
_cell_length_a 6.921948
_cell_length_b 13.742148
_cell_length_c 9.858486
_cell_angle_alpha 90.000000
_cell_angle_beta 130.085950
_cell_angle_gamma 90.000000
_cell_volume 717.463227
_symmetry_space_group_name_H-M "P M"
_symmetry_group_IT_number 6
_symmetry_cell_setting 'monoclinic'
loop_
_space_group_symop_operation_xyz
x,y,z
x,-y,z
loop_
_atom_site_type_symbol
_atom_site_label
_atom_site_fract_x
_atom_site_fract_y
_atom_site_fract_z
Si Si1 0.183600 0.884513 0.913210
Si Si2 0.770840 0.395088 0.306324
Si Si3 0.396864 0.750796 0.233283
Si Si4 0.467984 0.745805 0.844174
Si Si5 0.007038 0.392416 0.710562
Si Si6 0.957165 0.612371 0.111736
Si Si7 0.662726 0.772351 0.642291
O O1 0.380546 0.838750 0.893115
O O2 0.896969 0.848134 0.753008
O O3 0.195434 0.000000 0.919399
O O4 0.263049 0.837817 0.093513
O O5 0.637119 0.500000 0.220612
O O6 0.607352 0.297717 0.232116
O O7 0.981738 0.389793 0.286546
O O8 0.879616 0.399116 0.505489
O O9 0.514445 0.778475 0.432287
O O10 0.203806 0.661452 0.163560
O O11 0.257820 0.667928 0.795307
O O12 0.483597 0.776073 0.692633
O O13 0.729162 0.687923 0.984788
O O14 0.055231 0.500000 0.785150
O O15 0.811095 0.331236 0.711122
O O16 0.911919 0.500000 0.048726
#
# Coordination Sequence:
#
# PCOD9131149 Si02
#       7
#     2   2   2   2   2   2   2
#     4  11  25  45  66  88 118 160 212 267 320 363
#     4   9  18  34  55  85 125 165 203 245 292 358
#     4  11  21  41  65  89 124 163 205 251 308 365
#     4  11  21  40  58  92 126 167 200 259 305 366
#     4   9  19  34  56  87 125 168 208 243 295 364
#     4  11  21  33  59  95 130 166 201 241 299 371
#     4  10  23  41  65  90 126 159 207 260 309 365
#
# _framework density 19.513195
#
# number of rings (size 3 to 8) (size 9 to 14) (size 15 to 20)
#    0.000    1.714    2.857    1.714    0.000    2.857 
#    0.000    0.000    0.000    0.000    0.000    0.000 
#    0.000    0.000    0.000    0.000    0.000    0.000 
#
# Total GULP energy -78066.039996 kJ/mol
# GULP energy per Si atom -5576.145714 kJ/mol
# Density = 1.946878 g / cm^3
# Si number density = 19.513195 Si / 1000 Ang^3
#
#
#
# Elastic Constant Matrix: (Units=GPa)
#
#
# Indices 1 2 3 4 5 6 
#
# 1 47.3068 4.1610 16.4117 0.0000 -25.3126 0.0000
# 2 4.1610 130.4756 30.6682 0.0000 -7.4600 0.0000
# 3 16.4117 30.6682 83.4965 0.0000 -9.8364 0.0000
# 4 0.0000 0.0000 0.0000 8.6065 0.0000 -13.1965
# 5 -25.3126 -7.4600 -9.8364 0.0000 33.3030 0.0000
# 6 0.0000 0.0000 0.0000 -13.1965 0.0000 10.0179
#
#
#
# Elastic Compliance Matrix: (Units=1/GPa)
#
#
# Indices 1 2 3 4 5 6 
#
# 1 0.037184 0.001461 -0.004639 0.000000 0.027219 0.000000
# 2 0.001461 0.008478 -0.003157 0.000000 0.002077 0.000000
# 3 -0.004639 -0.003157 0.014037 0.000000 -0.000087 0.000000
# 4 0.000000 0.000000 0.000000 -0.113933 0.000000 -0.150083
# 5 0.027219 0.002077 -0.000087 0.000000 0.051156 0.000000
# 6 0.000000 0.000000 0.000000 -0.150083 0.000000 -0.097882
#
#
# Mechanical properties :
#
#
# Convention : Reuss Voigt Hill
#
# Bulk Modulus (GPa) = 21.26264 40.41785 30.84025
# Shear Modulus (GPa) = -68.85775 24.38802 -22.23487
#
# Velocity S-wave (km/s) = -5.94680 3.53912 -3.37928
# Velocity P-wave (km/s) = 6.01933 6.12034 0.78301
#
# Compressibility (1/GPa) = 0.04703085
#
# Stress axis : x y z
#
# Youngs Moduli (GPa) = 26.89348 117.94692 71.23782
#
# Poissons Ratio (x) = -0.17229 0.33045
# Poissons Ratio (y) = -0.03929 0.22486
# Poissons Ratio (z) = 0.12475 0.37230
#
# Static dielectric constant tensor:
#      x y z
#    x 1.690600 0.000000 -0.001230 
#    y 0.000000 1.674400 0.000000 
#    z -0.001230 0.000000 1.740300 
# 
# From -- ./inp_files/2192.got.cif
#   From: 2010.05.17/outbox.cif.g08.bks.cpg/sg6_2_cif.got.tgz:2192.got - 2010.06.03 19:42:10.
