data_PCOD9131550
_publ_section_title
;
Structure prediction by ZEFSAII (Michael W. Deem and Ramdas Pophale) SiO2 
 PCOD9131550
Probable space group: C M
;
_chemical_formula_sum "Si O2"
_cell_formula_units_Z 20
_cell_length_a 29.642467
_cell_length_b 7.756892
_cell_length_c 5.369162
_cell_angle_alpha 90.000000
_cell_angle_beta 57.085300
_cell_angle_gamma 90.000000
_cell_volume 1036.380419
_symmetry_space_group_name_H-M "C M"
_symmetry_group_IT_number 8
_symmetry_cell_setting 'monoclinic'
loop_
_space_group_symop_operation_xyz
x,y,z
x,-y,z
1/2+x,1/2+y,z
1/2+x,1/2-y,z
loop_
_atom_site_type_symbol
_atom_site_label
_atom_site_fract_x
_atom_site_fract_y
_atom_site_fract_z
Si Si1 0.019280 0.500000 0.759110
Si Si2 0.175392 0.194597 0.790728
Si Si3 0.738044 0.205778 0.102781
Si Si4 0.863659 0.291394 0.725629
Si Si5 0.589643 0.000000 0.048022
Si Si6 0.914632 0.698560 0.072707
O O1 0.053973 0.500000 0.404860
O O2 0.053931 0.500000 0.905454
O O3 0.978377 0.663540 0.881720
O O4 0.210736 0.222910 0.435812
O O5 0.154542 0.000000 0.853264
O O6 0.210722 0.222911 0.933665
O O7 0.128124 0.333931 0.932508
O O8 0.730953 0.000000 0.124059
O O9 0.800904 0.250308 0.914133
O O10 0.870858 0.500000 0.703955
O O11 0.892221 0.222140 0.391878
O O12 0.892294 0.222165 0.887630
O O13 0.892697 0.500000 0.138431
#
# Coordination Sequence:
#
# PCOD9131550 Si02
#       6
#     2   4   4   4   2   4
#     4  10  20  36  64  90 118 164 214 272 318 362
#     4  12  25  43  63  91 132 169 214 267 318 388
#     4  12  23  40  60  92 134 172 209 264 318 381
#     4  10  17  31  55  83 117 155 203 242 300 375
#     4  12  22  40  66  90 124 166 218 270 320 364
#     4   8  17  31  52  86 111 146 208 253 290 379
#
# _framework density 19.297934000000001
#
# number of rings (size 3 to 8) (size 9 to 14) (size 15 to 20)
#    0.600    0.800    2.000    5.400    0.000    1.600 
#    0.000    0.000    0.000    7.200    0.000    0.000 
#    0.000    0.000    0.000    0.000    0.000    0.000 
#
# Total GULP energy -55811.175043 kJ/mol
# GULP energy per Si atom -5581.117504 kJ/mol
# Density = 1.925401 g / cm^3
# Si number density = 19.297934 Si / 1000 Ang^3
#
#
#
# Elastic Constant Matrix: (Units=GPa)
#
#
# Indices 1 2 3 4 5 6 
#
# 1 197.7783 36.6726 112.4073 0.0000 17.7423 0.0000
# 2 36.6726 92.1744 38.3618 0.0000 5.2928 0.0000
# 3 112.4073 38.3618 208.8303 0.0000 16.2565 0.0000
# 4 0.0000 0.0000 0.0000 60.8099 0.0000 14.5813
# 5 17.7423 5.2928 16.2565 0.0000 40.4517 0.0000
# 6 0.0000 0.0000 0.0000 14.5813 0.0000 56.8257
#
#
#
# Elastic Compliance Matrix: (Units=1/GPa)
#
#
# Indices 1 2 3 4 5 6 
#
# 1 0.007554 -0.001377 -0.003684 0.000000 -0.001652 0.000000
# 2 -0.001377 0.012017 -0.001436 0.000000 -0.000391 0.000000
# 3 -0.003684 -0.001436 0.007118 0.000000 -0.001057 0.000000
# 4 0.000000 0.000000 0.000000 0.017523 0.000000 -0.004496
# 5 -0.001652 -0.000391 -0.001057 0.000000 0.025921 0.000000
# 6 0.000000 0.000000 0.000000 -0.004496 0.000000 0.018751
#
#
# Mechanical properties :
#
#
# Convention : Reuss Voigt Hill
#
# Bulk Modulus (GPa) = 73.02493 97.07406 85.04949
# Shear Modulus (GPa) = 46.97343 52.37355 49.67349
#
# Velocity S-wave (km/s) = 4.93903 5.21521 5.07900
# Velocity P-wave (km/s) = 8.39335 9.31002 8.86354
#
# Compressibility (1/GPa) = 0.01369395
#
# Stress axis : x y z
#
# Youngs Moduli (GPa) = 132.38466 83.21610 140.49335
#
# Poissons Ratio (x) = 0.11459 0.51763
# Poissons Ratio (y) = 0.18230 0.20172
# Poissons Ratio (z) = 0.48775 0.11948
#
# Static dielectric constant tensor:
#      x y z
#    x 1.892040 0.000000 0.297590 
#    y 0.000000 1.663260 0.000000 
#    z 0.297590 0.000000 1.980780 
# 
# From -- ./inp_files/5758.got.cif
#   From: 2010.05.17/outbox.cif.g08.bks.cpg/sg8_3_cif.got.tgz:5758.got - 2010.06.03 19:46:02.
