data_PCOD9131928
_publ_section_title
;
Structure prediction by ZEFSAII (Michael W. Deem and Ramdas Pophale) SiO2 
 PCOD9131928
Probable space group: C M
;
_chemical_formula_sum "Si O2"
_cell_formula_units_Z 26
_cell_length_a 20.077630
_cell_length_b 7.230186
_cell_length_c 9.598185
_cell_angle_alpha 90.000000
_cell_angle_beta 139.247898
_cell_angle_gamma 90.000000
_cell_volume 909.542281
_symmetry_space_group_name_H-M "C M"
_symmetry_group_IT_number 8
_symmetry_cell_setting 'monoclinic'
loop_
_space_group_symop_operation_xyz
x,y,z
x,-y,z
1/2+x,1/2+y,z
1/2+x,1/2-y,z
loop_
_atom_site_type_symbol
_atom_site_label
_atom_site_fract_x
_atom_site_fract_y
_atom_site_fract_z
Si Si1 0.845070 0.276374 0.228670
Si Si2 0.637158 0.724908 0.434759
Si Si3 0.261812 0.206413 0.380434
Si Si4 0.288493 0.500000 0.914036
Si Si5 0.575250 0.711953 0.621900
Si Si6 0.053208 0.287467 0.909076
Si Si7 0.921260 0.713186 0.942060
O O1 0.834245 0.500000 0.202914
O O2 0.828326 0.212794 0.361854
O O3 0.771398 0.162709 0.012044
O O4 0.960631 0.221109 0.376123
O O5 0.639342 0.500000 0.445007
O O6 0.727200 0.785131 0.473828
O O7 0.638193 0.804939 0.593811
O O8 0.531268 0.777794 0.194193
O O9 0.302577 0.000000 0.468911
O O10 0.152217 0.190378 0.127683
O O11 0.346034 0.340776 0.907596
O O12 0.608510 0.500000 0.687695
O O13 0.557124 0.780927 0.749133
O O14 0.064294 0.500000 0.968285
O O15 0.952064 0.226028 0.832592
O O16 0.885987 0.500000 0.890820
#
# Coordination Sequence:
#
# PCOD9131928 Si02
#       7
#     4   4   4   2   4   4   4
#     4  11  22  37  60  89 118 153 195 240 290 345
#     4   9  16  33  57  83 110 148 195 236 282 337
#     4   9  20  37  60  83 114 153 192 239 292 347
#     4  12  20  34  58  86 118 150 190 246 284 342
#     4  11  20  34  60  88 117 154 194 242 291 340
#     4  10  22  35  57  86 119 153 195 240 289 348
#     4  10  19  33  54  85 111 148 194 239 283 339
#
# _framework density 28.585808
#
# number of rings (size 3 to 8) (size 9 to 14) (size 15 to 20)
#    0.000    1.846    3.077    1.385    3.231    0.615 
#    0.000    0.000    3.385    0.000    0.000    0.000 
#    0.000    0.000    0.000    0.000    0.000    0.000 
#
# Total GULP energy -72607.561307 kJ/mol
# GULP energy per Si atom -5585.197024 kJ/mol
# Density = 2.852075 g / cm^3
# Si number density = 28.585808 Si / 1000 Ang^3
#
#
#
# Elastic Constant Matrix: (Units=GPa)
#
#
# Indices 1 2 3 4 5 6 
#
# 1 213.3220 0.1404 38.3337 0.0000 -52.7002 0.0000
# 2 0.1404 186.8525 -9.2584 0.0000 -25.9705 0.0000
# 3 38.3337 -9.2584 161.5028 0.0000 -51.3295 0.0000
# 4 0.0000 0.0000 0.0000 -22.1384 0.0000 -30.6061
# 5 -52.7002 -25.9705 -51.3295 0.0000 77.0223 0.0000
# 6 0.0000 0.0000 0.0000 -30.6061 0.0000 23.8583
#
#
#
# Elastic Compliance Matrix: (Units=1/GPa)
#
#
# Indices 1 2 3 4 5 6 
#
# 1 0.005698 0.000560 -0.000027 0.000000 0.004069 0.000000
# 2 0.000560 0.005850 0.001207 0.000000 0.003160 0.000000
# 3 -0.000027 0.001207 0.008108 0.000000 0.005792 0.000000
# 4 0.000000 0.000000 0.000000 -0.016286 0.000000 -0.020893
# 5 0.004069 0.003160 0.005792 0.000000 0.020693 0.000000
# 6 0.000000 0.000000 0.000000 -0.020893 0.000000 0.015112
#
#
# Mechanical properties :
#
#
# Convention : Reuss Voigt Hill
#
# Bulk Modulus (GPa) = 43.22306 68.90097 56.06202
# Shear Modulus (GPa) = 115.18785 51.24587 83.21686
#
# Velocity S-wave (km/s) = 6.35476 4.23863 5.40134
# Velocity P-wave (km/s) = 8.30646 6.93615 7.65204
#
# Compressibility (1/GPa) = 0.02313580
#
# Stress axis : x y z
#
# Youngs Moduli (GPa) = 175.51557 170.92850 123.33095
#
# Poissons Ratio (x) = -0.09571 0.00332
# Poissons Ratio (y) = -0.09828 -0.14884
# Poissons Ratio (z) = 0.00473 -0.20628
#
# Static dielectric constant tensor:
#      x y z
#    x 2.225960 0.000000 0.052750 
#    y 0.000000 2.187680 0.000000 
#    z 0.052750 0.000000 2.331460 
# 
# From -- ./inp_files/15691.got.cif
#   From: 2010.05.17/outbox.cif.g08.bks.cpg/sg8_8_cif.got.tgz:15691.got - 2010.06.03 19:46:02.
