data_PCOD9131485
_publ_section_title
;
Structure prediction by ZEFSAII (Michael W. Deem and Ramdas Pophale) SiO2 
 PCOD9131485
Probable space group: P C
;
_chemical_formula_sum "Si O2"
_cell_formula_units_Z 8
_cell_length_a 5.201279
_cell_length_b 10.727865
_cell_length_c 5.345199
_cell_angle_alpha 90.000000
_cell_angle_beta 78.674334
_cell_angle_gamma 90.000000
_cell_volume 292.446744
_symmetry_space_group_name_H-M "P C"
_symmetry_group_IT_number 7
_symmetry_cell_setting 'monoclinic'
loop_
_space_group_symop_operation_xyz
x,y,z
x,-y,1/2+z
loop_
_atom_site_type_symbol
_atom_site_label
_atom_site_fract_x
_atom_site_fract_y
_atom_site_fract_z
Si Si1 0.186620 0.966552 0.313440
Si Si2 0.464565 0.749056 0.429352
Si Si3 0.074158 0.569567 0.620973
Si Si4 0.769231 0.188695 0.365780
O O1 0.201808 0.821491 0.376148
O O2 0.330117 0.022604 0.524658
O O3 0.935180 0.058296 0.340598
O O4 0.379696 0.609948 0.521443
O O5 0.576392 0.806174 0.663685
O O6 0.654447 0.777090 0.160897
O O7 0.008958 0.531586 0.347902
O O8 0.952510 0.692551 0.768967
#
# Coordination Sequence:
#
# PCOD9131485 Si02
#       4
#     2   2   2   2
#     4  12  26  48  76 114 158 192 252 314 380 464
#     4  12  28  50  79 114 155 204 250 310 392 452
#     4  12  28  52  78 110 156 196 266 318 362 450
#     4  12  28  50  79 114 155 204 250 310 392 452
#
# _framework density 27.355411
#
# number of rings (size 3 to 8) (size 9 to 14) (size 15 to 20)
#    0.000    0.000    2.500    6.000    3.500   12.000 
#    0.000    0.000    0.000    0.000    0.000    0.000 
#    0.000    0.000    0.000    0.000    0.000    0.000 
#
# Total GULP energy -44619.757832 kJ/mol
# GULP energy per Si atom -5577.469729 kJ/mol
# Density = 2.729315 g / cm^3
# Si number density = 27.355411 Si / 1000 Ang^3
#
#
#
# Elastic Constant Matrix: (Units=GPa)
#
#
# Indices 1 2 3 4 5 6 
#
# 1 70.5315 24.4943 35.0724 0.0000 -3.1707 0.0000
# 2 24.4943 69.3867 38.2519 0.0000 -18.8659 0.0000
# 3 35.0724 38.2519 282.4203 0.0000 -16.5821 0.0000
# 4 0.0000 0.0000 0.0000 58.1269 0.0000 9.9236
# 5 -3.1707 -18.8659 -16.5821 0.0000 49.6565 0.0000
# 6 0.0000 0.0000 0.0000 9.9236 0.0000 36.4520
#
#
#
# Elastic Compliance Matrix: (Units=1/GPa)
#
#
# Indices 1 2 3 4 5 6 
#
# 1 0.016738 -0.005538 -0.001417 0.000000 -0.001508 0.000000
# 2 -0.005538 0.018917 -0.001503 0.000000 0.006332 0.000000
# 3 -0.001417 -0.001503 0.003959 0.000000 0.000661 0.000000
# 4 0.000000 0.000000 0.000000 0.018042 0.000000 -0.004912
# 5 -0.001508 0.006332 0.000661 0.000000 0.022668 0.000000
# 6 0.000000 0.000000 0.000000 -0.004912 0.000000 0.028770
#
#
# Mechanical properties :
#
#
# Convention : Reuss Voigt Hill
#
# Bulk Modulus (GPa) = 44.05465 68.66398 56.35932
# Shear Modulus (GPa) = 37.43181 50.48174 43.95677
#
# Velocity S-wave (km/s) = 3.70314 4.30048 4.01294
# Velocity P-wave (km/s) = 5.86718 7.05790 6.48991
#
# Compressibility (1/GPa) = 0.02269908
#
# Stress axis : x y z
#
# Youngs Moduli (GPa) = 59.74410 52.86312 252.58042
#
# Poissons Ratio (x) = 0.29273 0.35795
# Poissons Ratio (y) = 0.33084 0.37955
# Poissons Ratio (z) = 0.08467 0.07944
#
# Static dielectric constant tensor:
#      x y z
#    x 2.224350 0.000000 -0.066450 
#    y 0.000000 2.228660 0.000000 
#    z -0.066450 0.000000 2.141540 
# 
# From -- ./inp_files/70.got.cif
#   From: 2010.05.17/outbox.cif.g08.bks.cpg/sg7_cif.got.tgz:70.got - 2010.06.03 19:44:50.
