data_PCOD9131399
_publ_section_title
;
Structure prediction by ZEFSAII (Michael W. Deem and Ramdas Pophale) SiO2 
 PCOD9131399
Probable space group: P C
;
_chemical_formula_sum "Si O2"
_cell_formula_units_Z 14
_cell_length_a 6.529116
_cell_length_b 22.427886
_cell_length_c 5.613396
_cell_angle_alpha 90.000000
_cell_angle_beta 46.908609
_cell_angle_gamma 90.000000
_cell_volume 600.273059
_symmetry_space_group_name_H-M "P C"
_symmetry_group_IT_number 7
_symmetry_cell_setting 'monoclinic'
loop_
_space_group_symop_operation_xyz
x,y,z
x,-y,1/2+z
loop_
_atom_site_type_symbol
_atom_site_label
_atom_site_fract_x
_atom_site_fract_y
_atom_site_fract_z
Si Si1 0.116550 0.710361 0.854360
Si Si2 0.465789 0.008008 0.575271
Si Si3 0.242975 0.818546 0.073457
Si Si4 0.538360 0.277325 0.637684
Si Si5 0.720395 0.898269 0.579300
Si Si6 0.217478 0.615432 0.132804
Si Si7 0.746288 0.464725 0.177096
O O1 0.424364 0.714104 0.495533
O O2 0.088568 0.765616 0.055810
O O3 0.084928 0.647015 0.007434
O O4 0.871474 0.718989 0.857754
O O5 0.626599 0.069773 0.400489
O O6 0.308547 0.994919 0.451805
O O7 0.686654 0.953722 0.427380
O O8 0.419994 0.784768 0.134879
O O9 0.015620 0.865953 0.342996
O O10 0.471329 0.851598 0.728469
O O11 0.393533 0.331270 0.611959
O O12 0.973638 0.588077 0.485758
O O13 0.436737 0.563229 0.907226
O O14 0.782733 0.498194 0.401265
#
# Coordination Sequence:
#
# PCOD9131399 Si02
#       7
#     2   2   2   2   2   2   2
#     4  11  24  43  71 101 137 183 232 288 364 415
#     4   8  20  42  62  98 130 182 226 276 346 418
#     4  11  24  42  66 106 132 176 231 292 354 422
#     4  11  24  43  71 101 137 183 232 288 364 415
#     4  10  22  41  66  94 141 176 234 286 350 422
#     4  11  26  46  72 102 146 188 239 290 354 418
#     4  12  28  47  74 110 151 188 244 290 350 410
#
# _framework density 23.322717999999998
#
# number of rings (size 3 to 8) (size 9 to 14) (size 15 to 20)
#    0.857    0.571    0.000    4.286    6.000    9.143 
#    0.000    0.000    0.000    0.000    0.000    0.000 
#    0.000    0.000    0.000    0.000    0.000    0.000 
#
# Total GULP energy -78201.760332 kJ/mol
# GULP energy per Si atom -5585.840024 kJ/mol
# Density = 2.326963 g / cm^3
# Si number density = 23.322718 Si / 1000 Ang^3
#
#
#
# Elastic Constant Matrix: (Units=GPa)
#
#
# Indices 1 2 3 4 5 6 
#
# 1 77.7305 25.1389 25.3290 0.0000 -3.2921 0.0000
# 2 25.1389 78.5708 17.2059 0.0000 1.5766 0.0000
# 3 25.3290 17.2059 61.9145 0.0000 -12.9651 0.0000
# 4 0.0000 0.0000 0.0000 38.0167 0.0000 0.0034
# 5 -3.2921 1.5766 -12.9651 0.0000 42.4325 0.0000
# 6 0.0000 0.0000 0.0000 0.0034 0.0000 20.9624
#
#
#
# Elastic Compliance Matrix: (Units=1/GPa)
#
#
# Indices 1 2 3 4 5 6 
#
# 1 0.015895 -0.003878 -0.005487 0.000000 -0.000299 0.000000
# 2 -0.003878 0.014623 -0.002836 0.000000 -0.001711 0.000000
# 3 -0.005487 -0.002836 0.020424 0.000000 0.005920 0.000000
# 4 0.000000 0.000000 0.000000 0.026304 0.000000 -0.000004
# 5 -0.000299 -0.001711 0.005920 0.000000 0.025416 0.000000
# 6 0.000000 0.000000 0.000000 -0.000004 0.000000 0.047704
#
#
# Mechanical properties :
#
#
# Convention : Reuss Voigt Hill
#
# Bulk Modulus (GPa) = 37.67892 39.28483 38.48187
# Shear Modulus (GPa) = 27.23089 30.31844 28.77467
#
# Velocity S-wave (km/s) = 3.42068 3.60940 3.51630
# Velocity P-wave (km/s) = 5.63843 5.85243 5.74643
#
# Compressibility (1/GPa) = 0.02654004
#
# Stress axis : x y z
#
# Youngs Moduli (GPa) = 62.91474 68.38366 48.96221
#
# Poissons Ratio (x) = 0.26518 0.26868
# Poissons Ratio (y) = 0.24397 0.13884
# Poissons Ratio (z) = 0.34524 0.19391
#
# Static dielectric constant tensor:
#      x y z
#    x 1.878750 0.000000 0.064540 
#    y 0.000000 1.872290 0.000000 
#    z 0.064540 0.000000 1.862970 
# 
# From -- ./inp_files/370.got.cif
#   From: 2010.05.17/outbox.cif.g08.bks.cpg/sg7_cif.got.tgz:370.got - 2010.06.03 19:44:50.
