data_PCOD9131218
_publ_section_title
;
Structure prediction by ZEFSAII (Michael W. Deem and Ramdas Pophale) SiO2 
 PCOD9131218
Probable space group: P C
;
_chemical_formula_sum "Si O2"
_cell_formula_units_Z 16
_cell_length_a 24.687129
_cell_length_b 6.711896
_cell_length_c 5.236061
_cell_angle_alpha 90.000000
_cell_angle_beta 129.515750
_cell_angle_gamma 90.000000
_cell_volume 669.311240
_symmetry_space_group_name_H-M "P C"
_symmetry_group_IT_number 7
_symmetry_cell_setting 'monoclinic'
loop_
_space_group_symop_operation_xyz
x,y,z
x,-y,1/2+z
loop_
_atom_site_type_symbol
_atom_site_label
_atom_site_fract_x
_atom_site_fract_y
_atom_site_fract_z
Si Si1 0.154980 0.293998 0.015560
Si Si2 0.512166 0.636586 0.169972
Si Si3 0.654980 0.206002 0.254376
Si Si4 0.359073 0.366358 0.291102
Si Si5 0.859074 0.866358 0.703396
Si Si6 0.012166 0.136586 0.743082
Si Si7 0.711327 0.244149 0.924941
Si Si8 0.211326 0.744149 0.183074
O O1 0.188514 0.511062 0.074141
O O2 0.203135 0.184582 0.369560
O O3 0.076599 0.285465 0.889593
O O4 0.157631 0.196192 0.744634
O O5 0.516193 0.468988 0.406219
O O6 0.576599 0.785465 0.410061
O O7 0.434931 0.731537 0.973442
O O8 0.657631 0.303808 0.541211
O O9 0.688514 0.988938 0.396998
O O10 0.703135 0.315418 0.189304
O O11 0.356201 0.457960 0.566858
O O12 0.289687 0.241151 0.024125
O O13 0.789687 0.741151 0.554051
O O14 0.856201 0.957960 0.410407
O O15 0.934931 0.768463 0.976198
O O16 0.016193 0.968987 0.530996
#
# Coordination Sequence:
#
# PCOD9131218 Si02
#       8
#     2   2   2   2   2   2   2   2
#     4  10  18  30  49  78  96 127 159 212 238 285
#     4  10  21  32  48  75 107 129 158 198 253 295
#     4  10  18  30  49  78  96 127 159 212 238 285
#     4  10  16  30  48  75  97 120 164 209 237 276
#     4  10  16  30  48  75  97 120 164 209 237 276
#     4  10  21  32  48  75 107 129 158 198 253 295
#     4  10  17  30  53  76  94 122 173 205 240 276
#     4  10  17  30  53  76  94 122 173 205 240 276
#
# _framework density 23.905172
#
# number of rings (size 3 to 8) (size 9 to 14) (size 15 to 20)
#    0.000    2.000    5.000    1.500    0.000    0.000 
#    0.000    0.000    0.000    0.000   39.000    0.000 
#    0.000    0.000    0.000    0.000    0.000    0.000 
#
# Total GULP energy -89267.538830 kJ/mol
# GULP energy per Si atom -5579.221177 kJ/mol
# Density = 2.385076 g / cm^3
# Si number density = 23.905172 Si / 1000 Ang^3
#
#
#
# Elastic Constant Matrix: (Units=GPa)
#
#
# Indices 1 2 3 4 5 6 
#
# 1 109.0853 -16.9764 30.3884 0.0000 5.2708 0.0000
# 2 -16.9764 54.6657 -16.3778 0.0000 7.9190 0.0000
# 3 30.3884 -16.3778 110.1613 0.0000 8.9681 0.0000
# 4 0.0000 0.0000 0.0000 2.7169 0.0000 27.7204
# 5 5.2708 7.9190 8.9681 0.0000 88.4613 0.0000
# 6 0.0000 0.0000 0.0000 27.7204 0.0000 0.6222
#
#
#
# Elastic Compliance Matrix: (Units=1/GPa)
#
#
# Indices 1 2 3 4 5 6 
#
# 1 0.010263 0.002554 -0.002403 0.000000 -0.000596 0.000000
# 2 0.002554 0.020146 0.002470 0.000000 -0.002206 0.000000
# 3 -0.002403 0.002470 0.010198 0.000000 -0.001112 0.000000
# 4 0.000000 0.000000 0.000000 -0.000812 0.000000 0.036154
# 5 -0.000596 -0.002206 -0.001112 0.000000 0.011650 0.000000
# 6 0.000000 0.000000 0.000000 0.036154 0.000000 -0.003544
#
#
# Mechanical properties :
#
#
# Convention : Reuss Voigt Hill
#
# Bulk Modulus (GPa) = 21.81089 29.77566 25.79328
# Shear Modulus (GPa) = 86.29250 36.81862 61.55556
#
# Velocity S-wave (km/s) = 6.01467 3.92879 5.07994
# Velocity P-wave (km/s) = 7.57487 5.75007 6.72465
#
# Compressibility (1/GPa) = 0.04584865
#
# Stress axis : x y z
#
# Youngs Moduli (GPa) = 97.43999 49.63848 98.05668
#
# Poissons Ratio (x) = -0.12676 0.23561
# Poissons Ratio (y) = -0.24882 -0.24222
# Poissons Ratio (z) = 0.23413 -0.12262
#
# Static dielectric constant tensor:
#      x y z
#    x 1.961350 0.000000 -0.041340 
#    y 0.000000 2.668480 0.000000 
#    z -0.041340 0.000000 1.958220 
# 
# From -- ./inp_files/1458.got.cif
#   From: 2010.05.17/outbox.cif.g08.bks.cpg/sg7_cif.got.tgz:1458.got - 2010.06.03 19:44:50.
