data_PCOD9131390
_publ_section_title
;
Structure prediction by ZEFSAII (Michael W. Deem and Ramdas Pophale) SiO2 
 PCOD9131390
Probable space group: P C
;
_chemical_formula_sum "Si O2"
_cell_formula_units_Z 12
_cell_length_a 5.476599
_cell_length_b 19.143892
_cell_length_c 4.873110
_cell_angle_alpha 90.000000
_cell_angle_beta 82.313142
_cell_angle_gamma 90.000000
_cell_volume 506.322401
_symmetry_space_group_name_H-M "P C"
_symmetry_group_IT_number 7
_symmetry_cell_setting 'monoclinic'
loop_
_space_group_symop_operation_xyz
x,y,z
x,-y,1/2+z
loop_
_atom_site_type_symbol
_atom_site_label
_atom_site_fract_x
_atom_site_fract_y
_atom_site_fract_z
Si Si1 0.261070 0.631732 0.414930
Si Si2 0.127215 0.147396 0.113667
Si Si3 0.626564 0.827369 0.602436
Si Si4 0.295972 0.274601 0.404993
Si Si5 0.765256 0.547481 0.425331
Si Si6 0.788577 0.953839 0.909423
O O1 0.217216 0.661179 0.725454
O O2 0.518702 0.590013 0.385541
O O3 0.023438 0.588279 0.351781
O O4 0.293842 0.698335 0.211399
O O5 0.396600 0.153010 0.947505
O O6 0.133009 0.208029 0.344107
O O7 0.900995 0.166955 0.950975
O O8 0.057004 0.075485 0.274471
O O9 0.626809 0.888581 0.832841
O O10 0.560801 0.753875 0.754254
O O11 0.759821 0.478468 0.238722
O O12 0.751076 0.978848 0.221664
#
# Coordination Sequence:
#
# PCOD9131390 Si02
#       6
#     2   2   2   2   2   2
#     4  12  26  39  76  91 126 172 204 250 300 380
#     4   8  20  40  58  88 124 160 196 276 302 362
#     4   8  20  40  58  88 124 160 196 276 302 362
#     4  10  24  43  62  99 124 158 218 248 322 358
#     4  12  26  46  66  98 134 164 204 250 300 356
#     4  10  22  38  60  86 118 166 214 248 318 382
#
# _framework density 23.700315
#
# number of rings (size 3 to 8) (size 9 to 14) (size 15 to 20)
#    2.000    0.000    0.000    3.000    4.667    4.000 
#    0.000    0.000    0.000    0.000    0.000    0.000 
#    0.000    0.000    0.000    0.000    0.000    0.000 
#
# Total GULP energy -66894.152523 kJ/mol
# GULP energy per Si atom -5574.512710 kJ/mol
# Density = 2.364637 g / cm^3
# Si number density = 23.700315 Si / 1000 Ang^3
#
#
#
# Elastic Constant Matrix: (Units=GPa)
#
#
# Indices 1 2 3 4 5 6 
#
# 1 165.2169 35.0895 17.5736 0.0000 10.1096 0.0000
# 2 35.0895 88.6596 6.1387 0.0000 5.2895 0.0000
# 3 17.5736 6.1387 66.0934 0.0000 -2.7710 0.0000
# 4 0.0000 0.0000 0.0000 29.9663 0.0000 8.7952
# 5 10.1096 5.2895 -2.7710 0.0000 9.7998 0.0000
# 6 0.0000 0.0000 0.0000 8.7952 0.0000 44.8487
#
#
#
# Elastic Compliance Matrix: (Units=1/GPa)
#
#
# Indices 1 2 3 4 5 6 
#
# 1 0.007161 -0.002297 -0.001972 0.000000 -0.006704 0.000000
# 2 -0.002297 0.012514 -0.000744 0.000000 -0.004595 0.000000
# 3 -0.001972 -0.000744 0.016015 0.000000 0.006964 0.000000
# 4 0.000000 0.000000 0.000000 0.035409 0.000000 -0.006944
# 5 -0.006704 -0.004595 0.006964 0.000000 0.113408 0.000000
# 6 0.000000 0.000000 0.000000 -0.006944 0.000000 0.023659
#
#
# Mechanical properties :
#
#
# Convention : Reuss Voigt Hill
#
# Bulk Modulus (GPa) = 38.96556 48.61929 43.79243
# Shear Modulus (GPa) = 22.05100 34.33416 28.19258
#
# Velocity S-wave (km/s) = 3.05357 3.81028 3.45272
# Velocity P-wave (km/s) = 5.37671 6.31794 5.86623
#
# Compressibility (1/GPa) = 0.02566369
#
# Stress axis : x y z
#
# Youngs Moduli (GPa) = 139.65394 79.91031 62.43985
#
# Poissons Ratio (x) = 0.18359 0.12311
# Poissons Ratio (y) = 0.32085 0.04646
# Poissons Ratio (z) = 0.27534 0.05946
#
# Static dielectric constant tensor:
#      x y z
#    x 2.008800 0.000000 -0.008010 
#    y 0.000000 1.869360 0.000000 
#    z -0.008010 0.000000 1.793860 
# 
# From -- ./inp_files/266.got.cif
#   From: 2010.05.17/outbox.cif.g08.bks.cpg/sg7_cif.got.tgz:266.got - 2010.06.03 19:44:50.
