data_PCOD9131186
_publ_section_title
;
Structure prediction by ZEFSAII (Michael W. Deem and Ramdas Pophale) SiO2 
 PCOD9131186
Probable space group: P M
;
_chemical_formula_sum "Si O2"
_cell_formula_units_Z 10
_cell_length_a 17.130946
_cell_length_b 10.838598
_cell_length_c 11.365237
_cell_angle_alpha 90.000000
_cell_angle_beta 11.507346
_cell_angle_gamma 90.000000
_cell_volume 420.980380
_symmetry_space_group_name_H-M "P M"
_symmetry_group_IT_number 6
_symmetry_cell_setting 'monoclinic'
loop_
_space_group_symop_operation_xyz
x,y,z
x,-y,z
loop_
_atom_site_type_symbol
_atom_site_label
_atom_site_fract_x
_atom_site_fract_y
_atom_site_fract_z
Si Si1 0.650120 0.134757 0.568220
Si Si2 0.883893 0.634756 0.334423
Si Si3 0.354556 0.634753 0.394238
Si Si4 0.619246 0.249993 0.364296
Si Si5 0.588236 0.865245 0.160586
O O1 0.593546 0.250010 0.740395
O O2 0.531358 0.169583 0.610752
O O3 0.514918 0.000000 0.808317
O O4 0.119189 0.125578 0.864396
O O5 0.704388 0.500000 0.618855
O O6 0.119212 0.625557 0.864347
O O7 0.231342 0.669607 0.910769
O O8 0.534084 0.500000 0.109781
O O9 0.644860 0.749998 0.988333
O O10 0.007130 0.669600 0.817848
O O11 0.707125 0.169578 0.117858
O O12 0.723434 0.000000 0.920485
#
# Coordination Sequence:
#
# PCOD9131186 Si02
#       5
#     2   2   2   2   2
#     4   8  13  18  22  27  32  36  41  46  50  55
#     4   8  13  18  22  27  32  36  41  46  50  55
#     4   8  13  18  22  27  32  36  41  46  50  55
#     4   8  12  16  24  28  30  36  42  46  50  54
#     4   8  13  18  22  27  32  36  41  46  50  55
#
# _framework density 23.754076000000001
#
# number of rings (size 3 to 8) (size 9 to 14) (size 15 to 20)
#    0.000    4.800    0.000    1.200    0.000    3.200 
#    0.000    0.000    0.000    0.000    0.000    0.000 
#    0.000    0.000    0.000    0.000    0.000    0.000 
#
# Total GULP energy -55681.920454 kJ/mol
# GULP energy per Si atom -5568.192045 kJ/mol
# Density = 2.370001 g / cm^3
# Si number density = 23.754076 Si / 1000 Ang^3
#
#
#
# Elastic Constant Matrix: (Units=GPa)
#
#
# Indices 1 2 3 4 5 6 
#
# 1 97.4805 50.8604 39.4463 0.0000 -33.7716 0.0000
# 2 50.8604 288.1387 25.6978 0.0000 -26.8631 0.0000
# 3 39.4463 25.6978 60.1583 0.0000 -6.2156 0.0000
# 4 0.0000 0.0000 0.0000 -27.0494 0.0000 -1.6474
# 5 -33.7716 -26.8631 -6.2156 0.0000 42.6788 0.0000
# 6 0.0000 0.0000 0.0000 -1.6474 0.0000 -25.4448
#
#
#
# Elastic Compliance Matrix: (Units=1/GPa)
#
#
# Indices 1 2 3 4 5 6 
#
# 1 0.020181 -0.001296 -0.011283 0.000000 0.013510 0.000000
# 2 -0.001296 0.003882 -0.000672 0.000000 0.001320 0.000000
# 3 -0.011283 -0.000672 0.023699 0.000000 -0.005900 0.000000
# 4 0.000000 0.000000 0.000000 -0.037116 0.000000 0.002403
# 5 0.013510 0.001320 -0.005900 0.000000 0.034093 0.000000
# 6 0.000000 0.000000 0.000000 0.002403 0.000000 -0.039456
#
#
# Mechanical properties :
#
#
# Convention : Reuss Voigt Hill
#
# Bulk Modulus (GPa) = 47.03894 75.30960 61.17427
# Shear Modulus (GPa) = 128.62347 20.02179 74.32263
#
# Velocity S-wave (km/s) = 7.36651 2.90639 5.59967
# Velocity P-wave (km/s) = 9.60206 6.56014 8.22298
#
# Compressibility (1/GPa) = 0.02125898
#
# Stress axis : x y z
#
# Youngs Moduli (GPa) = 49.55086 257.57425 42.19608
#
# Poissons Ratio (x) = 0.33392 0.47611
# Poissons Ratio (y) = 0.06424 0.02835
# Poissons Ratio (z) = 0.55910 0.17309
#
# Static dielectric constant tensor:
#      x y z
#    x 1.884500 0.000000 -0.025100 
#    y 0.000000 2.061130 0.000000 
#    z -0.025100 0.000000 1.861050 
# 
# From -- ./inp_files/5683.got.cif
#   From: 2010.05.17/outbox.cif.g08.bks.cpg/sg6_3_cif.got.tgz:5683.got - 2010.06.03 19:42:10.
