data_PCOD9131442
_publ_section_title
;
Structure prediction by ZEFSAII (Michael W. Deem and Ramdas Pophale) SiO2 
 PCOD9131442
Probable space group: P C
;
_chemical_formula_sum "Si O2"
_cell_formula_units_Z 16
_cell_length_a 5.166040
_cell_length_b 26.998010
_cell_length_c 4.978907
_cell_angle_alpha 90.000000
_cell_angle_beta 126.697862
_cell_angle_gamma 90.000000
_cell_volume 556.786211
_symmetry_space_group_name_H-M "P C"
_symmetry_group_IT_number 7
_symmetry_cell_setting 'monoclinic'
loop_
_space_group_symop_operation_xyz
x,y,z
x,-y,1/2+z
loop_
_atom_site_type_symbol
_atom_site_label
_atom_site_fract_x
_atom_site_fract_y
_atom_site_fract_z
Si Si1 0.796600 0.466367 0.272390
Si Si2 0.559704 0.860107 0.859061
Si Si3 0.302442 0.265397 0.361653
Si Si4 0.342369 0.604189 0.201628
Si Si5 0.847388 0.965465 0.587658
Si Si6 0.699679 0.797002 0.457463
Si Si7 0.165959 0.914573 0.185030
Si Si8 0.867247 0.329755 0.743168
O O1 0.785488 0.487669 0.563153
O O2 0.117571 0.435051 0.412717
O O3 0.511768 0.428378 0.035903
O O4 0.727007 0.817812 0.774460
O O5 0.288564 0.873848 0.472839
O O6 0.568310 0.837802 0.163294
O O7 0.785073 0.908886 0.024393
O O8 0.436791 0.246947 0.737295
O O9 0.649476 0.286254 0.472285
O O10 0.066433 0.220747 0.117298
O O11 0.063240 0.309132 0.121504
O O12 0.613163 0.630265 0.192684
O O13 0.117548 0.645308 0.199171
O O14 0.475315 0.950803 0.379326
O O15 0.925663 0.994297 0.366813
O O16 0.081610 0.919398 0.810157
#
# Coordination Sequence:
#
# PCOD9131442 Si02
#       8
#     2   2   2   2   2   2   2   2
#     4  12  27  48  76 110 147 194 245 300 364 434
#     4  11  24  42  65  97 132 174 226 279 347 414
#     4  10  24  44  71 103 140 184 236 287 355 424
#     4  12  26  48  76 106 150 192 242 302 364 428
#     4  11  24  41  62  91 127 170 219 277 342 409
#     4  11  24  43  69  99 138 180 226 289 349 419
#     4  10  24  40  65  93 128 172 222 279 339 416
#     4  11  25  46  72 109 144 192 242 299 360 436
#
# _framework density 28.736348
#
# number of rings (size 3 to 8) (size 9 to 14) (size 15 to 20)
#    0.000    1.000    0.000    5.250    0.000   12.000 
#    0.000    0.000    0.000    0.000    0.000    0.000 
#    0.000    0.000    0.000    0.000    0.000    0.000 
#
# Total GULP energy -89394.471362 kJ/mol
# GULP energy per Si atom -5587.154460 kJ/mol
# Density = 2.867094 g / cm^3
# Si number density = 28.736348 Si / 1000 Ang^3
#
#
#
# Elastic Constant Matrix: (Units=GPa)
#
#
# Indices 1 2 3 4 5 6 
#
# 1 100.3216 23.8728 56.0574 0.0000 -14.2984 0.0000
# 2 23.8728 90.9435 63.4193 0.0000 -12.7269 0.0000
# 3 56.0574 63.4193 206.6523 0.0000 19.9903 0.0000
# 4 0.0000 0.0000 0.0000 92.9904 0.0000 20.8560
# 5 -14.2984 -12.7269 19.9903 0.0000 54.2808 0.0000
# 6 0.0000 0.0000 0.0000 20.8560 0.0000 29.4432
#
#
#
# Elastic Compliance Matrix: (Units=1/GPa)
#
#
# Indices 1 2 3 4 5 6 
#
# 1 0.012873 0.000087 -0.003991 0.000000 0.004881 0.000000
# 2 0.000087 0.015460 -0.005310 0.000000 0.005603 0.000000
# 3 -0.003991 -0.005310 0.008061 0.000000 -0.005265 0.000000
# 4 0.000000 0.000000 0.000000 0.012785 0.000000 -0.009056
# 5 0.004881 0.005603 -0.005265 0.000000 0.022961 0.000000
# 6 0.000000 0.000000 0.000000 -0.009056 0.000000 0.040379
#
#
# Mechanical properties :
#
#
# Convention : Reuss Voigt Hill
#
# Bulk Modulus (GPa) = 55.66232 76.06850 65.86541
# Shear Modulus (GPa) = 36.51369 52.31406 44.41388
#
# Velocity S-wave (km/s) = 3.56848 4.27134 3.93563
# Velocity P-wave (km/s) = 6.03248 7.13123 6.60474
#
# Compressibility (1/GPa) = 0.01796547
#
# Stress axis : x y z
#
# Youngs Moduli (GPa) = 77.68268 64.68204 124.06153
#
# Poissons Ratio (x) = -0.00562 0.49510
# Poissons Ratio (y) = -0.00675 0.65879
# Poissons Ratio (z) = 0.31001 0.34347
#
# Static dielectric constant tensor:
#      x y z
#    x 2.302680 0.000000 -0.004040 
#    y 0.000000 2.572110 0.000000 
#    z -0.004040 0.000000 2.198480 
# 
# From -- ./inp_files/460.got.cif
#   From: 2010.05.17/outbox.cif.g08.bks.cpg/sg7_cif.got.tgz:460.got - 2010.06.03 19:44:50.
