data_PCOD9131853
_publ_section_title
;
Structure prediction by ZEFSAII (Michael W. Deem and Ramdas Pophale) SiO2 
 PCOD9131853
Probable space group: C M
;
_chemical_formula_sum "Si O2"
_cell_formula_units_Z 32
_cell_length_a 12.854075
_cell_length_b 23.690427
_cell_length_c 6.842210
_cell_angle_alpha 90.000000
_cell_angle_beta 89.712323
_cell_angle_gamma 90.000000
_cell_volume 2083.553437
_symmetry_space_group_name_H-M "C M"
_symmetry_group_IT_number 8
_symmetry_cell_setting 'monoclinic'
loop_
_space_group_symop_operation_xyz
x,y,z
x,-y,z
1/2+x,1/2+y,z
1/2+x,1/2-y,z
loop_
_atom_site_type_symbol
_atom_site_label
_atom_site_fract_x
_atom_site_fract_y
_atom_site_fract_z
Si Si1 0.535540 0.880442 0.228530
Si Si2 0.648355 0.224806 0.432027
Si Si3 0.195933 0.771212 0.030186
Si Si4 0.464109 0.064525 0.623423
Si Si5 0.789633 0.827359 0.765730
Si Si6 0.381445 0.156373 0.889092
Si Si7 0.169185 0.434545 0.894388
Si Si8 0.502402 0.269200 0.765743
O O1 0.583431 0.824167 0.323952
O O2 0.489579 0.917700 0.403223
O O3 0.445870 0.863917 0.076751
O O4 0.622973 0.913146 0.101746
O O5 0.696588 0.263182 0.261945
O O6 0.733314 0.194557 0.569121
O O7 0.573717 0.260714 0.574607
O O8 0.241714 0.713719 0.933506
O O9 0.269657 0.820987 0.953855
O O10 0.080360 0.778503 0.945914
O O11 0.385156 0.107294 0.728595
O O12 0.571959 0.069883 0.744779
O O13 0.429517 0.000000 0.636022
O O14 0.755227 0.890546 0.818463
O O15 0.912094 0.815446 0.751707
O O16 0.444010 0.209668 0.800278
O O17 0.201141 0.500000 0.903643
#
# Coordination Sequence:
#
# PCOD9131853 Si02
#       8
#     4   4   4   4   4   4   4   4
#     4  11  17  30  48  74 102 127 158 191 243 291
#     4  11  18  30  49  72 101 129 157 195 244 288
#     4  10  20  33  49  72 101 131 162 199 243 289
#     4  10  19  32  50  72 102 131 159 198 243 290
#     4  10  20  32  49  73  99 131 163 199 239 296
#     4  10  20  31  50  72 100 132 162 198 238 292
#     4  10  19  32  48  73 101 129 161 198 241 292
#     4  10  20  32  48  72 101 130 165 196 241 292
#
# _framework density 15.358377000000001
#
# number of rings (size 3 to 8) (size 9 to 14) (size 15 to 20)
#    0.000    1.750    5.000    1.875    1.750    1.500 
#    0.000    0.000    0.000    0.750    0.000    0.875 
#    0.000    0.000    0.000    0.000    0.000    0.000 
#
# Total GULP energy -89244.327084 kJ/mol
# GULP energy per Si atom -5577.770443 kJ/mol
# Density = 1.532342 g / cm^3
# Si number density = 15.358377 Si / 1000 Ang^3
#
#
#
# Elastic Constant Matrix: (Units=GPa)
#
#
# Indices 1 2 3 4 5 6 
#
# 1 57.7553 36.7383 14.8217 0.0000 -9.9381 0.0000
# 2 36.7383 101.7204 29.6569 0.0000 -15.6698 0.0000
# 3 14.8217 29.6569 91.6257 0.0000 -16.5489 0.0000
# 4 0.0000 0.0000 0.0000 12.8924 0.0000 -1.6419
# 5 -9.9381 -15.6698 -16.5489 0.0000 12.3975 0.0000
# 6 0.0000 0.0000 0.0000 -1.6419 0.0000 23.2255
#
#
#
# Elastic Compliance Matrix: (Units=1/GPa)
#
#
# Indices 1 2 3 4 5 6 
#
# 1 0.023453 -0.006960 0.000350 0.000000 0.010471 0.000000
# 2 -0.006960 0.014439 -0.001659 0.000000 0.010456 0.000000
# 3 0.000350 -0.001659 0.014582 0.000000 0.017648 0.000000
# 4 0.000000 0.000000 0.000000 0.078270 0.000000 0.005533
# 5 0.010471 0.010456 0.017648 0.000000 0.125830 0.000000
# 6 0.000000 0.000000 0.000000 0.005533 0.000000 0.043447
#
#
# Mechanical properties :
#
#
# Convention : Reuss Voigt Hill
#
# Bulk Modulus (GPa) = 27.82662 45.94837 36.88749
# Shear Modulus (GPa) = 15.21897 21.02872 18.12384
#
# Velocity S-wave (km/s) = 3.15131 3.70429 3.43893
# Velocity P-wave (km/s) = 5.60344 6.94824 6.31176
#
# Compressibility (1/GPa) = 0.03593681
#
# Stress axis : x y z
#
# Youngs Moduli (GPa) = 42.63764 69.25686 68.57822
#
# Poissons Ratio (x) = 0.48200 -0.02400
# Poissons Ratio (y) = 0.29674 0.11378
# Poissons Ratio (z) = -0.01492 0.11491
#
# Static dielectric constant tensor:
#      x y z
#    x 1.497220 0.000000 -0.004010 
#    y 0.000000 1.505020 0.000000 
#    z -0.004010 0.000000 1.520510 
# 
# From -- ./inp_files/3114.got.cif
#   From: 2010.05.17/outbox.cif.g08.bks.cpg/sg8_2_cif.got.tgz:3114.got - 2010.06.03 19:46:02.
