data_PCOD9131064
_publ_section_title
;
Structure prediction by ZEFSAII (Michael W. Deem and Ramdas Pophale) SiO2 
 PCOD9131064
Probable space group: P M
;
_chemical_formula_sum "Si O2"
_cell_formula_units_Z 14
_cell_length_a 7.100994
_cell_length_b 11.338736
_cell_length_c 10.433781
_cell_angle_alpha 90.000000
_cell_angle_beta 131.683778
_cell_angle_gamma 90.000000
_cell_volume 627.401026
_symmetry_space_group_name_H-M "P M"
_symmetry_group_IT_number 6
_symmetry_cell_setting 'monoclinic'
loop_
_space_group_symop_operation_xyz
x,y,z
x,-y,z
loop_
_atom_site_type_symbol
_atom_site_label
_atom_site_fract_x
_atom_site_fract_y
_atom_site_fract_z
Si Si1 0.617580 0.133806 0.427660
Si Si2 0.359301 0.868899 0.721296
Si Si3 0.887263 0.137052 0.807623
Si Si4 0.973298 0.626549 0.165182
Si Si5 0.418655 0.373479 0.878616
Si Si6 0.078532 0.127765 0.330462
Si Si7 0.341775 0.292864 0.122511
O O1 0.799739 0.174642 0.625083
O O2 0.341360 0.126574 0.369769
O O3 0.570976 0.218491 0.286998
O O4 0.684736 0.000000 0.421146
O O5 0.636644 0.857864 0.782322
O O6 0.161181 0.869034 0.515283
O O7 0.347858 0.000000 0.777973
O O8 0.317487 0.751000 0.782986
O O9 0.955983 0.000000 0.830920
O O10 0.117190 0.206717 0.972900
O O11 0.990354 0.500000 0.243842
O O12 0.958293 0.748915 0.235576
O O13 0.210532 0.635501 0.177629
O O14 0.711212 0.623105 0.969650
O O15 0.301138 0.500000 0.786591
O O16 0.417126 0.365811 0.032171
O O17 0.951495 0.000000 0.245100
#
# Coordination Sequence:
#
# PCOD9131064 Si02
#       7
#     2   2   2   2   2   2   2
#     4   8  16  31  54  87 118 145 189 241 290 348
#     4   9  18  36  60  88 118 149 192 243 290 348
#     4   9  17  33  59  88 118 151 191 241 294 349
#     4  10  21  38  59  82 113 154 194 238 291 343
#     4  11  24  39  56  85 120 153 195 241 284 346
#     4   8  16  33  59  86 113 147 189 239 293 346
#     4  11  20  36  61  80 113 159 195 237 291 344
#
# _framework density 22.314276
#
# number of rings (size 3 to 8) (size 9 to 14) (size 15 to 20)
#    0.000    2.571    1.429    2.571    0.000    2.857 
#    2.571    0.000    0.000    1.714    0.000    0.000 
#    0.000    0.000    0.000    0.000    0.000    0.000 
#
# Total GULP energy -78117.093016 kJ/mol
# GULP energy per Si atom -5579.792358 kJ/mol
# Density = 2.226349 g / cm^3
# Si number density = 22.314276 Si / 1000 Ang^3
#
#
#
# Elastic Constant Matrix: (Units=GPa)
#
#
# Indices 1 2 3 4 5 6 
#
# 1 73.7879 27.2941 2.0340 0.0000 -3.8574 0.0000
# 2 27.2941 216.2986 67.7837 0.0000 -12.5992 0.0000
# 3 2.0340 67.7837 61.5563 0.0000 -2.2447 0.0000
# 4 0.0000 0.0000 0.0000 -44.1042 0.0000 -7.0121
# 5 -3.8574 -12.5992 -2.2447 0.0000 30.0820 0.0000
# 6 0.0000 0.0000 0.0000 -7.0121 0.0000 9.7434
#
#
#
# Elastic Compliance Matrix: (Units=1/GPa)
#
#
# Indices 1 2 3 4 5 6 
#
# 1 0.014460 -0.002487 0.002297 0.000000 0.000984 0.000000
# 2 -0.002487 0.007662 -0.008272 0.000000 0.002273 0.000000
# 3 0.002297 -0.008272 0.025231 0.000000 -0.001287 0.000000
# 4 0.000000 0.000000 0.000000 -0.020346 0.000000 -0.014642
# 5 0.000984 0.002273 -0.001287 0.000000 0.034225 0.000000
# 6 0.000000 0.000000 0.000000 -0.014642 0.000000 0.092096
#
#
# Mechanical properties :
#
#
# Convention : Reuss Voigt Hill
#
# Bulk Modulus (GPa) = 32.86330 60.65183 46.75756
# Shear Modulus (GPa) = 27.71697 16.11298 21.91498
#
# Velocity S-wave (km/s) = 3.52819 2.69009 3.13726
# Velocity P-wave (km/s) = 5.59973 6.07359 5.84147
#
# Compressibility (1/GPa) = 0.03042908
#
# Stress axis : x y z
#
# Youngs Moduli (GPa) = 69.15395 130.51991 39.63384
#
# Poissons Ratio (x) = 0.32463 -0.09103
# Poissons Ratio (y) = 0.17200 0.32784
# Poissons Ratio (z) = -0.15884 1.07962
#
# Static dielectric constant tensor:
#      x y z
#    x 1.878360 0.000000 -0.023030 
#    y 0.000000 1.875420 0.000000 
#    z -0.023030 0.000000 1.802600 
# 
# From -- ./inp_files/3077.got.cif
#   From: 2010.05.17/outbox.cif.g08.bks.cpg/sg6_2_cif.got.tgz:3077.got - 2010.06.03 19:42:10.
