data_PCOD9131935
_publ_section_title
;
Structure prediction by ZEFSAII (Michael W. Deem and Ramdas Pophale) SiO2 
 PCOD9131935
Probable space group: C M
;
_chemical_formula_sum "Si O2"
_cell_formula_units_Z 32
_cell_length_a 23.094849
_cell_length_b 8.387529
_cell_length_c 11.558449
_cell_angle_alpha 90.000000
_cell_angle_beta 131.503403
_cell_angle_gamma 90.000000
_cell_volume 1676.803003
_symmetry_space_group_name_H-M "C M"
_symmetry_group_IT_number 8
_symmetry_cell_setting 'monoclinic'
loop_
_space_group_symop_operation_xyz
x,y,z
x,-y,z
1/2+x,1/2+y,z
1/2+x,1/2-y,z
loop_
_atom_site_type_symbol
_atom_site_label
_atom_site_fract_x
_atom_site_fract_y
_atom_site_fract_z
Si Si1 0.796610 0.193152 0.561640
Si Si2 0.170111 0.310025 0.798464
Si Si3 0.983899 0.694431 0.178956
Si Si4 0.330329 0.809906 0.107628
Si Si5 0.957344 0.308800 0.879454
Si Si6 0.108590 0.187807 0.953232
Si Si7 0.268179 0.310305 0.261532
Si Si8 0.645170 0.194811 0.502781
O O1 0.874667 0.254472 0.722843
O O2 0.789243 0.244168 0.418194
O O3 0.721115 0.245955 0.533200
O O4 0.797608 0.000000 0.564165
O O5 0.159516 0.500000 0.791287
O O6 0.120198 0.231390 0.834096
O O7 0.149717 0.255267 0.642501
O O8 0.259140 0.269980 0.945535
O O9 0.985120 0.500000 0.180943
O O10 0.912146 0.743312 0.164345
O O11 0.066290 0.748262 0.337277
O O12 0.969764 0.745278 0.028416
O O13 0.318016 0.769118 0.225832
O O14 0.323590 0.000000 0.083850
O O15 0.961238 0.500000 0.882639
O O16 0.026586 0.241661 0.893405
O O17 0.118576 0.000000 0.980933
O O18 0.178675 0.273000 0.114234
O O19 0.279076 0.500000 0.268967
O O20 0.645221 0.000000 0.502216
#
# Coordination Sequence:
#
# PCOD9131935 Si02
#       8
#     4   4   4   4   4   4   4   4
#     4  10  21  37  57  81 112 146 181 226 275 322
#     4  10  19  33  56  82 108 142 182 221 267 325
#     4   9  19  35  55  80 108 141 180 224 274 323
#     4  10  19  33  55  81 111 144 179 222 269 320
#     4  11  22  37  58  81 109 144 184 227 272 327
#     4  11  22  37  57  81 112 145 181 226 274 324
#     4  10  20  36  58  82 111 147 184 222 270 325
#     4   9  18  34  56  80 107 141 181 224 271 324
#
# _framework density 19.083936000000001
#
# number of rings (size 3 to 8) (size 9 to 14) (size 15 to 20)
#    0.000    2.000    0.000    5.625    0.000    4.000 
#    0.000    3.750    0.000    6.750    0.000    0.000 
#    0.000    0.000    0.000    0.000    0.000    0.000 
#
# Total GULP energy -89383.047889 kJ/mol
# GULP energy per Si atom -5586.440493 kJ/mol
# Density = 1.904050 g / cm^3
# Si number density = 19.083936 Si / 1000 Ang^3
#
#
#
# Elastic Constant Matrix: (Units=GPa)
#
#
# Indices 1 2 3 4 5 6 
#
# 1 151.3370 -5.8760 91.5509 0.0000 13.0527 0.0000
# 2 -5.8760 8.9420 -5.8689 0.0000 -1.5517 0.0000
# 3 91.5509 -5.8689 147.2360 0.0000 -16.1635 0.0000
# 4 0.0000 0.0000 0.0000 24.3160 0.0000 4.6959
# 5 13.0527 -1.5517 -16.1635 0.0000 29.9846 0.0000
# 6 0.0000 0.0000 0.0000 4.6959 0.0000 18.6547
#
#
#
# Elastic Compliance Matrix: (Units=1/GPa)
#
#
# Indices 1 2 3 4 5 6 
#
# 1 0.013251 0.000665 -0.009398 0.000000 -0.010800 0.000000
# 2 0.000665 0.117169 0.005199 0.000000 0.008576 0.000000
# 3 -0.009398 0.005199 0.014159 0.000000 0.011993 0.000000
# 4 0.000000 0.000000 0.000000 0.043227 0.000000 -0.010881
# 5 -0.010800 0.008576 0.011993 0.000000 0.044961 0.000000
# 6 0.000000 0.000000 0.000000 -0.010881 0.000000 0.056345
#
#
# Mechanical properties :
#
#
# Convention : Reuss Voigt Hill
#
# Bulk Modulus (GPa) = 7.27225 51.90299 29.58762
# Shear Modulus (GPa) = 14.61915 29.77165 22.19540
#
# Velocity S-wave (km/s) = 2.77075 3.95402 3.41404
# Velocity P-wave (km/s) = 3.74901 6.93555 5.57481
#
# Compressibility (1/GPa) = 0.13750896
#
# Stress axis : x y z
#
# Youngs Moduli (GPa) = 75.46874 8.53469 70.62431
#
# Poissons Ratio (x) = -0.00567 0.66375
# Poissons Ratio (y) = -0.05017 -0.36714
# Poissons Ratio (z) = 0.70927 -0.04437
#
# Static dielectric constant tensor:
#      x y z
#    x 1.644950 0.000000 -0.013110 
#    y 0.000000 1.658140 0.000000 
#    z -0.013110 0.000000 1.636080 
# 
# From -- ./inp_files/23909.got.cif
#   From: 2010.05.17/outbox.cif.g08.bks.cpg/sg8_12_cif.got.tgz:23909.got - 2010.06.03 19:46:02.
