data_PCOD9131465
_publ_section_title
;
Structure prediction by ZEFSAII (Michael W. Deem and Ramdas Pophale) SiO2 
 PCOD9131465
Probable space group: P C
;
_chemical_formula_sum "Si O2"
_cell_formula_units_Z 14
_cell_length_a 6.712863
_cell_length_b 20.790585
_cell_length_c 5.170347
_cell_angle_alpha 90.000000
_cell_angle_beta 130.524517
_cell_angle_gamma 90.000000
_cell_volume 548.505406
_symmetry_space_group_name_H-M "P C"
_symmetry_group_IT_number 7
_symmetry_cell_setting 'monoclinic'
loop_
_space_group_symop_operation_xyz
x,y,z
x,-y,1/2+z
loop_
_atom_site_type_symbol
_atom_site_label
_atom_site_fract_x
_atom_site_fract_y
_atom_site_fract_z
Si Si1 0.414300 0.657599 0.245770
Si Si2 0.122097 0.539511 0.264764
Si Si3 0.351309 0.207675 0.917997
Si Si4 0.219159 0.956209 0.792360
Si Si5 0.818936 0.234992 0.688910
Si Si6 0.683990 0.877769 0.396955
Si Si7 0.710218 0.367167 0.489199
O O1 0.330279 0.732066 0.199219
O O2 0.661663 0.652582 0.650526
O O3 0.233964 0.605790 0.240321
O O4 0.479843 0.636838 0.009591
O O5 0.191915 0.488318 0.103241
O O6 0.822092 0.561331 0.062542
O O7 0.485138 0.140358 0.957877
O O8 0.053077 0.197695 0.748116
O O9 0.542266 0.232366 0.306488
O O10 0.479029 0.912156 0.032814
O O11 0.224739 0.009959 0.020385
O O12 0.949203 0.918007 0.623839
O O13 0.774860 0.194894 0.908040
O O14 0.891024 0.309955 0.762845
#
# Coordination Sequence:
#
# PCOD9131465 Si02
#       7
#     2   2   2   2   2   2   2
#     4  11  24  45  68 101 142 186 238 315 377 432
#     4  12  26  44  68 100 138 198 248 294 366 462
#     4  11  24  44  74 111 149 190 247 321 383 438
#     4  12  30  52  78 110 162 204 246 302 362 444
#     4  11  24  44  74 111 149 190 247 321 383 438
#     4  12  26  48  80 112 144 204 256 302 374 452
#     4  11  24  45  68 101 142 186 238 315 377 432
#
# _framework density 25.523904000000002
#
# number of rings (size 3 to 8) (size 9 to 14) (size 15 to 20)
#    0.000    0.571    2.857    4.286    6.000    3.429 
#    0.000    0.000    0.000    0.000    0.000    0.000 
#    0.000    0.000    0.000    0.000    0.000    0.000 
#
# Total GULP energy -78150.191532 kJ/mol
# GULP energy per Si atom -5582.156538 kJ/mol
# Density = 2.546581 g / cm^3
# Si number density = 25.523904 Si / 1000 Ang^3
#
#
#
# Elastic Constant Matrix: (Units=GPa)
#
#
# Indices 1 2 3 4 5 6 
#
# 1 93.6660 36.3770 29.7003 0.0000 -14.1975 0.0000
# 2 36.3770 80.0980 19.2640 0.0000 2.0548 0.0000
# 3 29.7003 19.2640 66.7146 0.0000 7.0172 0.0000
# 4 0.0000 0.0000 0.0000 33.9779 0.0000 9.8911
# 5 -14.1975 2.0548 7.0172 0.0000 38.5880 0.0000
# 6 0.0000 0.0000 0.0000 9.8911 0.0000 50.9179
#
#
#
# Elastic Compliance Matrix: (Units=1/GPa)
#
#
# Indices 1 2 3 4 5 6 
#
# 1 0.016093 -0.006005 -0.006206 0.000000 0.007369 0.000000
# 2 -0.006005 0.015657 -0.001557 0.000000 -0.002760 0.000000
# 3 -0.006206 -0.001557 0.018792 0.000000 -0.005618 0.000000
# 4 0.000000 0.000000 0.000000 0.031195 0.000000 -0.006060
# 5 0.007369 -0.002760 -0.005618 0.000000 0.029795 0.000000
# 6 0.000000 0.000000 0.000000 -0.006060 0.000000 0.020817
#
#
# Mechanical properties :
#
#
# Convention : Reuss Voigt Hill
#
# Bulk Modulus (GPa) = 43.46576 45.68457 44.57517
# Shear Modulus (GPa) = 29.84101 35.03925 32.44013
#
# Velocity S-wave (km/s) = 3.42298 3.70915 3.56893
# Velocity P-wave (km/s) = 5.71741 6.02340 5.87240
#
# Compressibility (1/GPa) = 0.02300661
#
# Stress axis : x y z
#
# Youngs Moduli (GPa) = 62.13780 63.86734 53.21311
#
# Poissons Ratio (x) = 0.38355 0.33021
# Poissons Ratio (y) = 0.37317 0.08287
# Poissons Ratio (z) = 0.38560 0.09946
#
# Static dielectric constant tensor:
#      x y z
#    x 2.149040 0.000000 0.075480 
#    y 0.000000 2.072380 0.000000 
#    z 0.075480 0.000000 2.084400 
# 
# From -- ./inp_files/201.got.cif
#   From: 2010.05.17/outbox.cif.g08.bks.cpg/sg7_cif.got.tgz:201.got - 2010.06.03 19:44:50.
