data_PCOD9131621
_publ_section_title
;
Structure prediction by ZEFSAII (Michael W. Deem and Ramdas Pophale) SiO2 
 PCOD9131621
Probable space group: C M
;
_chemical_formula_sum "Si O2"
_cell_formula_units_Z 32
_cell_length_a 25.396320
_cell_length_b 7.720232
_cell_length_c 14.630225
_cell_angle_alpha 90.000000
_cell_angle_beta 150.443635
_cell_angle_gamma 90.000000
_cell_volume 1414.963537
_symmetry_space_group_name_H-M "C M"
_symmetry_group_IT_number 8
_symmetry_cell_setting 'monoclinic'
loop_
_space_group_symop_operation_xyz
x,y,z
x,-y,z
1/2+x,1/2+y,z
1/2+x,1/2-y,z
loop_
_atom_site_type_symbol
_atom_site_label
_atom_site_fract_x
_atom_site_fract_y
_atom_site_fract_z
Si Si1 0.818100 0.291222 0.267380
Si Si2 0.731914 0.287014 0.692921
Si Si3 0.368732 0.698807 0.152049
Si Si4 0.692649 0.705200 0.429658
Si Si5 0.963894 0.293535 0.115600
Si Si6 0.858170 0.293307 0.531197
Si Si7 0.641788 0.302530 0.739249
Si Si8 0.086223 0.790865 0.846719
O O1 0.819897 0.500000 0.272079
O O2 0.891218 0.237578 0.291836
O O3 0.843898 0.222925 0.406817
O O4 0.697723 0.234568 0.059071
O O5 0.726270 0.500000 0.686338
O O6 0.708503 0.224329 0.555966
O O7 0.655106 0.223994 0.658900
O O8 0.852679 0.237502 0.902311
O O9 0.335978 0.500000 0.096165
O O10 0.459633 0.729487 0.214308
O O11 0.265159 0.807158 0.963200
O O12 0.714037 0.500000 0.468004
O O13 0.568241 0.730071 0.221033
O O14 0.773436 0.776821 0.476094
O O15 0.965412 0.500000 0.119308
O O16 0.841245 0.500000 0.500142
O O17 0.981010 0.261547 0.741816
O O18 0.603790 0.500000 0.670990
O O19 0.581321 0.221539 0.734458
O O20 0.089401 0.000000 0.846267
#
# Coordination Sequence:
#
# PCOD9131621 Si02
#       8
#     4   4   4   4   4   4   4   4
#     4   9  19  37  55  75 108 147 175 209 267 324
#     4   8  16  33  56  77 104 138 169 206 263 320
#     4  10  18  30  53  84 109 133 171 220 263 311
#     4  10  21  37  54  77 106 140 183 226 260 302
#     4  10  20  36  56  79 108 143 174 210 264 323
#     4  10  22  37  53  75 107 142 181 225 265 304
#     4   8  15  31  53  77 106 139 169 207 264 327
#     4   9  18  33  54  76 102 136 176 217 264 319
#
# _framework density 22.615421999999999
#
# number of rings (size 3 to 8) (size 9 to 14) (size 15 to 20)
#    0.000    2.750    0.000    3.000    0.000    5.000 
#    0.000    4.375    0.000    0.000    0.000    0.000 
#    0.000    0.000    0.000    0.000    0.000    0.000 
#
# Total GULP energy -89328.837662 kJ/mol
# GULP energy per Si atom -5583.052354 kJ/mol
# Density = 2.256395 g / cm^3
# Si number density = 22.615422 Si / 1000 Ang^3
#
#
#
# Elastic Constant Matrix: (Units=GPa)
#
#
# Indices 1 2 3 4 5 6 
#
# 1 103.7931 11.6931 34.3308 0.0000 29.7522 0.0000
# 2 11.6931 45.3652 -3.5751 0.0000 -6.8935 0.0000
# 3 34.3308 -3.5751 58.7177 0.0000 10.2755 0.0000
# 4 0.0000 0.0000 0.0000 13.5976 0.0000 7.0807
# 5 29.7522 -6.8935 10.2755 0.0000 38.7048 0.0000
# 6 0.0000 0.0000 0.0000 7.0807 0.0000 7.1404
#
#
#
# Elastic Compliance Matrix: (Units=1/GPa)
#
#
# Indices 1 2 3 4 5 6 
#
# 1 0.016328 -0.006599 -0.007914 0.000000 -0.011626 0.000000
# 2 -0.006599 0.025351 0.003905 0.000000 0.008551 0.000000
# 3 -0.007914 0.003905 0.021718 0.000000 0.001013 0.000000
# 4 0.000000 0.000000 0.000000 0.152065 0.000000 -0.150793
# 5 -0.011626 0.008551 0.001013 0.000000 0.036027 0.000000
# 6 0.000000 0.000000 0.000000 -0.150793 0.000000 0.289579
#
#
# Mechanical properties :
#
#
# Convention : Reuss Voigt Hill
#
# Bulk Modulus (GPa) = 23.70642 32.53041 28.11841
# Shear Modulus (GPa) = 8.67536 22.91705 15.79620
#
# Velocity S-wave (km/s) = 1.96070 3.18675 2.64573
# Velocity P-wave (km/s) = 3.95360 5.28733 4.66834
#
# Compressibility (1/GPa) = 0.04218267
#
# Stress axis : x y z
#
# Youngs Moduli (GPa) = 61.24440 39.44560 46.04435
#
# Poissons Ratio (x) = 0.26030 0.36439
# Poissons Ratio (y) = 0.40414 -0.17982
# Poissons Ratio (z) = 0.48468 -0.15405
#
# Static dielectric constant tensor:
#      x y z
#    x 1.855060 0.000000 -0.013380 
#    y 0.000000 1.820830 0.000000 
#    z -0.013380 0.000000 1.860930 
# 
# From -- ./inp_files/26551.got.cif
#   From: 2010.05.17/outbox.cif.g08.bks.cpg/sg8_14_cif.got.tgz:26551.got - 2010.06.03 19:46:02.
