data_PCOD9131483
_publ_section_title
;
Structure prediction by ZEFSAII (Michael W. Deem and Ramdas Pophale) SiO2 
 PCOD9131483
Probable space group: P C
;
_chemical_formula_sum "Si O2"
_cell_formula_units_Z 12
_cell_length_a 9.052079
_cell_length_b 13.624963
_cell_length_c 5.273812
_cell_angle_alpha 90.000000
_cell_angle_beta 127.595208
_cell_angle_gamma 90.000000
_cell_volume 515.371336
_symmetry_space_group_name_H-M "P C"
_symmetry_group_IT_number 7
_symmetry_cell_setting 'monoclinic'
loop_
_space_group_symop_operation_xyz
x,y,z
x,-y,1/2+z
loop_
_atom_site_type_symbol
_atom_site_label
_atom_site_fract_x
_atom_site_fract_y
_atom_site_fract_z
Si Si1 0.940800 0.558805 0.517440
Si Si2 0.803737 0.058278 0.642706
Si Si3 0.682372 0.256695 0.761351
Si Si4 0.277405 0.318114 0.363338
Si Si5 0.414521 0.835914 0.322854
Si Si6 0.221902 0.882458 0.618788
O O1 0.892339 0.514087 0.194617
O O2 0.836498 0.661443 0.456250
O O3 0.161073 0.584222 0.747901
O O4 0.736887 0.168624 0.631770
O O5 0.030216 0.061312 0.884105
O O6 0.744048 0.009662 0.316835
O O7 0.489774 0.312786 0.484308
O O8 0.618770 0.200171 0.952454
O O9 0.299087 0.266893 0.663214
O O10 0.171802 0.233605 0.094711
O O11 0.359644 0.885241 0.524868
O O12 0.332064 0.898275 0.998327
#
# Coordination Sequence:
#
# PCOD9131483 Si02
#       6
#     2   2   2   2   2   2
#     4  12  27  41  70 105 135 179 237 279 347 422
#     4  12  25  40  68 103 136 184 234 279 339 417
#     4   9  23  49  67  99 148 177 225 297 343 394
#     4   8  22  41  69  91 132 181 216 277 347 394
#     4   8  19  36  70  86 122 185 209 262 351 388
#     4   9  18  39  62  92 125 170 217 270 333 389
#
# _framework density 23.284179999999999
#
# number of rings (size 3 to 8) (size 9 to 14) (size 15 to 20)
#    2.000    0.000    1.667    1.000    2.333    8.000 
#    0.000   11.667    0.000    0.000    0.000    0.000 
#    0.000    0.000    0.000    0.000    0.000    0.000 
#
# Total GULP energy -66878.097425 kJ/mol
# GULP energy per Si atom -5573.174785 kJ/mol
# Density = 2.323118 g / cm^3
# Si number density = 23.284180 Si / 1000 Ang^3
#
#
#
# Elastic Constant Matrix: (Units=GPa)
#
#
# Indices 1 2 3 4 5 6 
#
# 1 133.2688 47.2028 44.5927 0.0000 -6.9802 0.0000
# 2 47.2028 68.4260 15.3123 0.0000 -2.2091 0.0000
# 3 44.5927 15.3123 66.2533 0.0000 -20.9620 0.0000
# 4 0.0000 0.0000 0.0000 20.3726 0.0000 16.4951
# 5 -6.9802 -2.2091 -20.9620 0.0000 44.5216 0.0000
# 6 0.0000 0.0000 0.0000 16.4951 0.0000 36.7592
#
#
#
# Elastic Compliance Matrix: (Units=1/GPa)
#
#
# Indices 1 2 3 4 5 6 
#
# 1 0.012280 -0.006908 -0.007247 0.000000 -0.001830 0.000000
# 2 -0.006908 0.019341 0.000165 0.000000 -0.000046 0.000000
# 3 -0.007247 0.000165 0.023003 0.000000 0.009702 0.000000
# 4 0.000000 0.000000 0.000000 0.077097 0.000000 -0.034596
# 5 -0.001830 -0.000046 0.009702 0.000000 0.026740 0.000000
# 6 0.000000 0.000000 0.000000 -0.034596 0.000000 0.042729
#
#
# Mechanical properties :
#
#
# Convention : Reuss Voigt Hill
#
# Bulk Modulus (GPa) = 37.53286 53.57375 45.55330
# Shear Modulus (GPa) = 21.00384 31.05336 26.02860
#
# Velocity S-wave (km/s) = 3.00670 3.65590 3.34708
# Velocity P-wave (km/s) = 5.31113 6.39370 5.87739
#
# Compressibility (1/GPa) = 0.02664332
#
# Stress axis : x y z
#
# Youngs Moduli (GPa) = 81.43570 51.70242 43.47243
#
# Poissons Ratio (x) = 0.35717 0.31506
# Poissons Ratio (y) = 0.56258 -0.00718
# Poissons Ratio (z) = 0.59019 -0.00854
#
# Static dielectric constant tensor:
#      x y z
#    x 1.910390 0.000000 0.036320 
#    y 0.000000 1.848260 0.000000 
#    z 0.036320 0.000000 1.933090 
# 
# From -- ./inp_files/771.got.cif
#   From: 2010.05.17/outbox.cif.g08.bks.cpg/sg7_cif.got.tgz:771.got - 2010.06.03 19:44:50.
