data_PCOD9131420
_publ_section_title
;
Structure prediction by ZEFSAII (Michael W. Deem and Ramdas Pophale) SiO2 
 PCOD9131420
Probable space group: P C
;
_chemical_formula_sum "Si O2"
_cell_formula_units_Z 10
_cell_length_a 7.153950
_cell_length_b 15.754677
_cell_length_c 5.061147
_cell_angle_alpha 90.000000
_cell_angle_beta 135.558737
_cell_angle_gamma 90.000000
_cell_volume 399.404205
_symmetry_space_group_name_H-M "P C"
_symmetry_group_IT_number 7
_symmetry_cell_setting 'monoclinic'
loop_
_space_group_symop_operation_xyz
x,y,z
x,-y,1/2+z
loop_
_atom_site_type_symbol
_atom_site_label
_atom_site_fract_x
_atom_site_fract_y
_atom_site_fract_z
Si Si1 0.294180 0.941004 0.097410
Si Si2 0.185851 0.444067 0.796510
Si Si3 0.673598 0.667548 0.798238
Si Si4 0.937141 0.164872 0.528049
Si Si5 0.481828 0.188578 0.422064
O O1 0.001425 0.904097 0.872574
O O2 0.340387 0.000049 0.393988
O O3 0.434157 0.852223 0.157965
O O4 0.232095 0.518765 0.634053
O O5 0.886344 0.407704 0.506247
O O6 0.392675 0.370183 0.926164
O O7 0.594258 0.715847 0.994512
O O8 0.828535 0.745140 0.813138
O O9 0.708693 0.135658 0.497891
O O10 0.205028 0.180827 0.975421
#
# Coordination Sequence:
#
# PCOD9131420 Si02
#       5
#     2   2   2   2   2
#     4  12  26  48  74 110 152 192 250 320 362 426
#     4  12  26  48  74 114 144 188 236 306 376 426
#     4  10  22  50  72 106 150 194 244 300 348 474
#     4  10  23  48  73 104 144 201 251 288 377 423
#     4  10  23  48  73 104 144 201 251 288 377 423
#
# _framework density 25.037292999999998
#
# number of rings (size 3 to 8) (size 9 to 14) (size 15 to 20)
#    1.200    0.000    4.000    1.200    0.000    4.800 
#    7.200    0.000    0.000    0.000    0.000    0.000 
#    0.000    0.000    0.000    0.000    0.000    0.000 
#
# Total GULP energy -55786.433832 kJ/mol
# GULP energy per Si atom -5578.643383 kJ/mol
# Density = 2.498031 g / cm^3
# Si number density = 25.037293 Si / 1000 Ang^3
#
#
#
# Elastic Constant Matrix: (Units=GPa)
#
#
# Indices 1 2 3 4 5 6 
#
# 1 121.2399 14.5250 50.3079 0.0000 12.3726 0.0000
# 2 14.5250 71.1686 14.4878 0.0000 2.4734 0.0000
# 3 50.3079 14.4878 86.2560 0.0000 13.3345 0.0000
# 4 0.0000 0.0000 0.0000 30.3885 0.0000 13.5415
# 5 12.3726 2.4734 13.3345 0.0000 50.5065 0.0000
# 6 0.0000 0.0000 0.0000 13.5415 0.0000 66.2128
#
#
#
# Elastic Compliance Matrix: (Units=1/GPa)
#
#
# Indices 1 2 3 4 5 6 
#
# 1 0.010998 -0.000968 -0.006091 0.000000 -0.001039 0.000000
# 2 -0.000968 0.014634 -0.001896 0.000000 0.000021 0.000000
# 3 -0.006091 -0.001896 0.015867 0.000000 -0.002604 0.000000
# 4 0.000000 0.000000 0.000000 0.036207 0.000000 -0.007405
# 5 -0.001039 0.000021 -0.002604 0.000000 0.020740 0.000000
# 6 0.000000 0.000000 0.000000 -0.007405 0.000000 0.016617
#
#
# Mechanical properties :
#
#
# Convention : Reuss Voigt Hill
#
# Bulk Modulus (GPa) = 42.39644 48.58956 45.49300
# Shear Modulus (GPa) = 35.50199 42.71114 39.10657
#
# Velocity S-wave (km/s) = 3.76967 4.13474 3.95642
# Velocity P-wave (km/s) = 5.99311 6.49952 6.25144
#
# Compressibility (1/GPa) = 0.02358689
#
# Stress axis : x y z
#
# Youngs Moduli (GPa) = 90.92935 68.33351 63.02378
#
# Poissons Ratio (x) = 0.06618 0.38388
# Poissons Ratio (y) = 0.08806 0.11952
# Poissons Ratio (z) = 0.55385 0.12959
#
# Static dielectric constant tensor:
#      x y z
#    x 1.939590 0.000000 -0.015960 
#    y 0.000000 1.982150 0.000000 
#    z -0.015960 0.000000 2.063070 
# 
# From -- ./inp_files/738.got.cif
#   From: 2010.05.17/outbox.cif.g08.bks.cpg/sg7_cif.got.tgz:738.got - 2010.06.03 19:44:50.
