data_PCOD9131500
_publ_section_title
;
Structure prediction by ZEFSAII (Michael W. Deem and Ramdas Pophale) SiO2 
 PCOD9131500
Probable space group: C M
;
_chemical_formula_sum "Si O2"
_cell_formula_units_Z 28
_cell_length_a 5.354589
_cell_length_b 14.682280
_cell_length_c 15.630094
_cell_angle_alpha 90.000000
_cell_angle_beta 102.742971
_cell_angle_gamma 90.000000
_cell_volume 1198.533989
_symmetry_space_group_name_H-M "C M"
_symmetry_group_IT_number 8
_symmetry_cell_setting 'monoclinic'
loop_
_space_group_symop_operation_xyz
x,y,z
x,-y,z
1/2+x,1/2+y,z
1/2+x,1/2-y,z
loop_
_atom_site_type_symbol
_atom_site_label
_atom_site_fract_x
_atom_site_fract_y
_atom_site_fract_z
Si Si1 0.281750 0.712076 0.737730
Si Si2 0.412399 0.687905 0.446954
Si Si3 0.433596 0.000000 0.747776
Si Si4 0.672326 0.649996 0.177747
Si Si5 0.219460 0.357743 0.250696
Si Si6 0.082876 0.867920 0.631729
Si Si7 0.105548 0.189981 0.973068
Si Si8 0.008347 0.000000 0.863701
O O1 0.161512 0.762982 0.646313
O O2 0.394063 0.622617 0.699936
O O3 0.544011 0.767359 0.783135
O O4 0.541215 0.596726 0.916756
O O5 0.670396 0.746869 0.450243
O O6 0.339797 0.638393 0.353507
O O7 0.466396 0.620071 0.530589
O O8 0.339829 0.081321 0.678746
O O9 0.714532 0.000000 0.808041
O O10 0.241449 0.000000 0.813862
O O11 0.417820 0.605761 0.196249
O O12 0.678584 0.750802 0.221841
O O13 0.935791 0.603527 0.224395
O O14 0.660095 0.661736 0.075501
O O15 0.359921 0.242600 0.959843
#
# Coordination Sequence:
#
# PCOD9131500 Si02
#       8
#     4   4   2   4   4   4   4   2
#     4   8  16  32  56  86 104 138 220 258 300 384
#     4  12  18  29  54  91 131 163 226 282 311 387
#     4  12  30  50  68  86 148 176 226 300 376 406
#     4  10  16  31  58  96 130 176 215 262 344 416
#     4  10  16  27  50 101 134 166 219 274 321 390
#     4  10  22  39  62  87 120 179 214 278 337 397
#     4  12  23  47  78 104 143 188 232 287 373 439
#     4  12  32  54  68 116 136 180 238 320 360 434
#
# _framework density 23.361877
#
# number of rings (size 3 to 8) (size 9 to 14) (size 15 to 20)
#    0.857    0.571    7.143    0.857    2.000    0.000 
#    7.714    0.000    0.000    1.714    0.000    0.000 
#    0.000    0.000    0.000    0.000    0.000    0.000 
#
# Total GULP energy -77971.019122 kJ/mol
# GULP energy per Si atom -5569.358509 kJ/mol
# Density = 2.330870 g / cm^3
# Si number density = 23.361877 Si / 1000 Ang^3
#
#
#
# Elastic Constant Matrix: (Units=GPa)
#
#
# Indices 1 2 3 4 5 6 
#
# 1 180.0836 19.4077 7.8941 0.0000 4.9183 0.0000
# 2 19.4077 93.4804 20.5571 0.0000 2.7342 0.0000
# 3 7.8941 20.5571 131.7464 0.0000 14.5814 0.0000
# 4 0.0000 0.0000 0.0000 89.3965 0.0000 3.3958
# 5 4.9183 2.7342 14.5814 0.0000 35.4652 0.0000
# 6 0.0000 0.0000 0.0000 3.3958 0.0000 10.6721
#
#
#
# Elastic Compliance Matrix: (Units=1/GPa)
#
#
# Indices 1 2 3 4 5 6 
#
# 1 0.005698 -0.001144 -0.000089 0.000000 -0.000665 0.000000
# 2 -0.001144 0.011308 -0.001694 0.000000 -0.000017 0.000000
# 3 -0.000089 -0.001694 0.008218 0.000000 -0.003236 0.000000
# 4 0.000000 0.000000 0.000000 0.011323 0.000000 -0.003603
# 5 -0.000665 -0.000017 -0.003236 0.000000 0.029621 0.000000
# 6 0.000000 0.000000 0.000000 -0.003603 0.000000 0.094849
#
#
# Mechanical properties :
#
#
# Convention : Reuss Voigt Hill
#
# Bulk Modulus (GPa) = 51.62665 55.66981 53.64823
# Shear Modulus (GPa) = 28.84698 50.93684 39.89191
#
# Velocity S-wave (km/s) = 3.51777 4.67448 4.13675
# Velocity P-wave (km/s) = 6.21661 7.28117 6.76985
#
# Compressibility (1/GPa) = 0.01936984
#
# Stress axis : x y z
#
# Youngs Moduli (GPa) = 175.48945 88.43336 121.68170
#
# Poissons Ratio (x) = 0.10116 0.01087
# Poissons Ratio (y) = 0.20075 0.20614
# Poissons Ratio (z) = 0.01567 0.14981
#
# Static dielectric constant tensor:
#      x y z
#    x 2.025900 0.000000 -0.033450 
#    y 0.000000 2.032950 0.000000 
#    z -0.033450 0.000000 1.865700 
# 
# From -- ./inp_files/24938.got.cif
#   From: 2010.05.17/outbox.cif.g08.bks.cpg/sg8_13_cif.got.tgz:24938.got - 2010.06.03 19:46:02.
