data_PCOD9131751
_publ_section_title
;
Structure prediction by ZEFSAII (Michael W. Deem and Ramdas Pophale) SiO2 
 PCOD9131751
Probable space group: C M
;
_chemical_formula_sum "Si O2"
_cell_formula_units_Z 26
_cell_length_a 6.833552
_cell_length_b 15.741689
_cell_length_c 13.038433
_cell_angle_alpha 90.000000
_cell_angle_beta 44.812195
_cell_angle_gamma 90.000000
_cell_volume 988.507616
_symmetry_space_group_name_H-M "C M"
_symmetry_group_IT_number 8
_symmetry_cell_setting 'monoclinic'
loop_
_space_group_symop_operation_xyz
x,y,z
x,-y,z
1/2+x,1/2+y,z
1/2+x,1/2-y,z
loop_
_atom_site_type_symbol
_atom_site_label
_atom_site_fract_x
_atom_site_fract_y
_atom_site_fract_z
Si Si1 0.928620 0.665244 0.653260
Si Si2 0.055973 0.135986 0.594751
Si Si3 0.269369 0.500000 0.817851
Si Si4 0.457916 0.648331 0.346605
Si Si5 0.580818 0.148331 0.289097
Si Si6 0.482762 0.864014 0.040951
Si Si7 0.110115 0.834756 0.982443
O O1 0.749793 0.630394 0.625428
O O2 0.769366 0.649161 0.817852
O O3 0.950563 0.767262 0.628434
O O4 0.246665 0.633559 0.519219
O O5 0.274727 0.112503 0.424076
O O6 0.816069 0.072790 0.712138
O O7 0.222668 0.427210 0.923564
O O8 0.519367 0.750000 0.317851
O O9 0.269367 0.626488 0.317852
O O10 0.764008 0.612503 0.211626
O O11 0.792069 0.133559 0.116484
O O12 0.288942 0.869606 0.010274
O O13 0.588172 0.767263 0.007269
#
# Coordination Sequence:
#
# PCOD9131751 Si02
#       7
#     4   4   2   4   4   4   4
#     4  10  18  34  62  87 105 142 196 233 263 324
#     4  10  21  36  58  84 113 148 184 230 278 330
#     4  12  24  36  56  82 122 146 182 224 298 330
#     4   8  16  31  52  83 106 136 180 230 268 315
#     4   8  16  31  52  83 106 136 180 230 268 315
#     4  10  21  36  58  84 113 148 184 230 278 330
#     4  10  18  34  62  87 105 142 196 233 263 324
#
# _framework density 26.302275000000002
#
# number of rings (size 3 to 8) (size 9 to 14) (size 15 to 20)
#    0.000    2.462    1.538    0.923    0.000    0.000 
#    0.000    7.692    0.000    1.846    0.000    0.000 
#    0.000    0.000    0.000    0.000    0.000    0.000 
#
# Total GULP energy -72443.139570 kJ/mol
# GULP energy per Si atom -5572.549198 kJ/mol
# Density = 2.624241 g / cm^3
# Si number density = 26.302275 Si / 1000 Ang^3
#
#
#
# Elastic Constant Matrix: (Units=GPa)
#
#
# Indices 1 2 3 4 5 6 
#
# 1 75.1433 2.8025 46.7596 -0.0002 -6.6391 0.0000
# 2 2.8025 31.9374 44.4577 0.0001 -11.0944 0.0000
# 3 46.7596 44.4577 320.5067 -0.0005 12.8802 0.0002
# 4 -0.0002 0.0001 -0.0005 13.2887 0.0002 64.4658
# 5 -6.6391 -11.0944 12.8802 0.0002 55.5041 0.0000
# 6 0.0000 0.0000 0.0002 64.4658 0.0000 20.4105
#
#
#
# Elastic Compliance Matrix: (Units=1/GPa)
#
#
# Indices 1 2 3 4 5 6 
#
# 1 0.015248 0.003806 -0.002883 0.000000 0.003254 0.000000
# 2 0.003806 0.044900 -0.007230 0.000000 0.011108 0.000000
# 3 -0.002883 -0.007230 0.004659 0.000000 -0.002871 0.000000
# 4 0.000000 0.000000 0.000000 -0.005254 0.000000 0.016595
# 5 0.003254 0.011108 -0.002871 0.000000 0.021292 0.000000
# 6 0.000000 0.000000 0.000000 0.016595 0.000000 -0.003421
#
#
# Mechanical properties :
#
#
# Convention : Reuss Voigt Hill
#
# Bulk Modulus (GPa) = 19.16004 68.40300 43.78152
# Shear Modulus (GPa) = 46.53967 40.07849 43.30908
#
# Velocity S-wave (km/s) = 4.21101 3.90778 4.06222
# Velocity P-wave (km/s) = 5.56272 6.81351 6.21964
#
# Compressibility (1/GPa) = 0.05219195
#
# Stress axis : x y z
#
# Youngs Moduli (GPa) = 65.58434 22.27181 214.64261
#
# Poissons Ratio (x) = -0.08476 0.61885
# Poissons Ratio (y) = -0.24959 1.55180
# Poissons Ratio (z) = 0.18909 0.16102
#
# Static dielectric constant tensor:
#      x y z
#    x 2.265720 0.000000 0.055290 
#    y 0.000000 2.036470 0.000000 
#    z 0.055290 0.000000 2.147680 
# 
# From -- ./inp_files/25408.got.cif
#   From: 2010.05.17/outbox.cif.g08.bks.cpg/sg8_13_cif.got.tgz:25408.got - 2010.06.03 19:46:02.
