data_PCOD9131564
_publ_section_title
;
Structure prediction by ZEFSAII (Michael W. Deem and Ramdas Pophale) SiO2 
 PCOD9131564
Probable space group: C M
;
_chemical_formula_sum "Si O2"
_cell_formula_units_Z 32
_cell_length_a 10.336850
_cell_length_b 16.290295
_cell_length_c 12.243741
_cell_angle_alpha 90.000000
_cell_angle_beta 53.179299
_cell_angle_gamma 90.000000
_cell_volume 1650.443693
_symmetry_space_group_name_H-M "C M"
_symmetry_group_IT_number 8
_symmetry_cell_setting 'monoclinic'
loop_
_space_group_symop_operation_xyz
x,y,z
x,-y,z
1/2+x,1/2+y,z
1/2+x,1/2-y,z
loop_
_atom_site_type_symbol
_atom_site_label
_atom_site_fract_x
_atom_site_fract_y
_atom_site_fract_z
Si Si1 0.141830 0.405337 0.905400
Si Si2 0.368070 0.683473 0.625415
Si Si3 0.548959 0.666598 0.144286
Si Si4 0.689396 0.850349 0.319524
Si Si5 0.075425 0.664424 0.608715
Si Si6 0.855050 0.595378 0.902539
Si Si7 0.650271 0.349366 0.334144
Si Si8 0.012896 0.362751 0.194958
O O1 0.153901 0.500000 0.866517
O O2 0.283743 0.358660 0.771709
O O3 0.970559 0.374416 0.942935
O O4 0.125528 0.398477 0.042929
O O5 0.457640 0.763904 0.625113
O O6 0.507452 0.632188 0.492012
O O7 0.225530 0.696902 0.607266
O O8 0.375369 0.632519 0.198648
O O9 0.599056 0.630259 0.236823
O O10 0.529186 0.764142 0.171298
O O11 0.691368 0.646901 0.988346
O O12 0.647231 0.876600 0.463626
O O13 0.669292 0.750502 0.328814
O O14 0.574027 0.883992 0.284251
O O15 0.965777 0.607562 0.740509
O O16 0.815141 0.500000 0.938225
O O17 0.825378 0.385100 0.273712
#
# Coordination Sequence:
#
# PCOD9131564 Si02
#       8
#     4   4   4   4   4   4   4   4
#     4  10  21  38  55  77 110 148 186 222 264 318
#     4  10  20  35  58  84 109 140 180 227 271 320
#     4  10  17  34  55  83 108 136 180 223 269 319
#     4   9  19  31  55  85 110 134 172 229 276 313
#     4  10  20  36  57  84 109 141 181 222 275 320
#     4  10  21  37  56  78 109 147 186 224 262 319
#     4   9  17  31  55  84 108 134 179 223 268 318
#     4  10  19  34  57  83 109 142 176 222 271 323
#
# _framework density 19.388725999999998
#
# number of rings (size 3 to 8) (size 9 to 14) (size 15 to 20)
#    0.000    2.250    2.500    0.750    5.250    0.000 
#    2.250    3.125    0.000    0.000    0.000    0.000 
#    0.000    0.000    0.000    0.000    0.000    0.000 
#
# Total GULP energy -89221.626042 kJ/mol
# GULP energy per Si atom -5576.351628 kJ/mol
# Density = 1.934460 g / cm^3
# Si number density = 19.388726 Si / 1000 Ang^3
#
#
#
# Elastic Constant Matrix: (Units=GPa)
#
#
# Indices 1 2 3 4 5 6 
#
# 1 99.2154 12.7311 36.5369 0.0000 -8.6029 0.0000
# 2 12.7311 11.7404 7.2852 0.0000 -7.9369 0.0000
# 3 36.5369 7.2852 104.9270 0.0000 -11.9266 0.0000
# 4 0.0000 0.0000 0.0000 -6.9598 0.0000 3.3595
# 5 -8.6029 -7.9369 -11.9266 0.0000 37.6482 0.0000
# 6 0.0000 0.0000 0.0000 3.3595 0.0000 6.6618
#
#
#
# Elastic Compliance Matrix: (Units=1/GPa)
#
#
# Indices 1 2 3 4 5 6 
#
# 1 0.012967 -0.012283 -0.003755 0.000000 -0.000816 0.000000
# 2 -0.012283 0.113239 -0.001235 0.000000 0.020675 0.000000
# 3 -0.003755 -0.001235 0.011200 0.000000 0.002430 0.000000
# 4 0.000000 0.000000 0.000000 -0.115554 0.000000 0.058273
# 5 -0.000816 0.020675 0.002430 0.000000 0.031504 0.000000
# 6 0.000000 0.000000 0.000000 0.058273 0.000000 0.120724
#
#
# Mechanical properties :
#
#
# Convention : Reuss Voigt Hill
#
# Bulk Modulus (GPa) = 9.72201 36.55437 23.13819
# Shear Modulus (GPa) = 20.58347 18.09200 19.33773
#
# Velocity S-wave (km/s) = 3.26179 3.05801 3.16154
# Velocity P-wave (km/s) = 4.38301 5.60026 5.02861
#
# Compressibility (1/GPa) = 0.10285944
#
# Stress axis : x y z
#
# Youngs Moduli (GPa) = 77.11658 8.83086 89.28569
#
# Poissons Ratio (x) = 0.10847 0.33530
# Poissons Ratio (y) = 0.94722 0.11029
# Poissons Ratio (z) = 0.28960 0.01091
#
# Static dielectric constant tensor:
#      x y z
#    x 1.683050 0.000000 0.005430 
#    y 0.000000 1.681090 0.000000 
#    z 0.005430 0.000000 1.687940 
# 
# From -- ./inp_files/19268.got.cif
#   From: 2010.05.17/outbox.cif.g08.bks.cpg/sg8_10_cif.got.tgz:19268.got - 2010.06.03 19:46:02.
