data_PCOD9131453
_publ_section_title
;
Structure prediction by ZEFSAII (Michael W. Deem and Ramdas Pophale) SiO2 
 PCOD9131453
Probable space group: P C
;
_chemical_formula_sum "Si O2"
_cell_formula_units_Z 14
_cell_length_a 4.934977
_cell_length_b 20.402760
_cell_length_c 4.974032
_cell_angle_alpha 90.000000
_cell_angle_beta 119.089232
_cell_angle_gamma 90.000000
_cell_volume 437.649345
_symmetry_space_group_name_H-M "P C"
_symmetry_group_IT_number 7
_symmetry_cell_setting 'monoclinic'
loop_
_space_group_symop_operation_xyz
x,y,z
x,-y,1/2+z
loop_
_atom_site_type_symbol
_atom_site_label
_atom_site_fract_x
_atom_site_fract_y
_atom_site_fract_z
Si Si1 0.371120 0.110347 0.688860
Si Si2 0.020544 0.286021 0.640114
Si Si3 0.571556 0.640042 0.307451
Si Si4 0.095377 0.470992 0.309488
Si Si5 0.939533 0.199017 0.125342
Si Si6 0.593473 0.587616 0.820352
Si Si7 0.066398 0.979668 0.389402
O O1 0.325563 0.037661 0.537614
O O2 0.203065 0.158505 0.404136
O O3 0.175735 0.091442 0.861809
O O4 0.672285 0.147705 0.925204
O O5 0.347261 0.296593 0.644150
O O6 0.834435 0.250821 0.305527
O O7 0.409789 0.360161 0.039612
O O8 0.023004 0.240627 0.901852
O O9 0.826783 0.591329 0.611518
O O10 0.799980 0.649921 0.120959
O O11 0.388837 0.585040 0.025996
O O12 0.879776 0.470292 0.516099
O O13 0.302297 0.527723 0.604504
O O14 0.875462 0.988487 0.560333
#
# Coordination Sequence:
#
# PCOD9131453 Si02
#       7
#     2   2   2   2   2   2   2
#     4  10  25  44  68 105 141 192 238 303 362 484
#     4  12  28  47  73 106 144 191 243 334 370 448
#     4  12  25  49  72 102 142 186 265 299 372 436
#     4  12  24  42  66 108 152 184 240 296 364 432
#     4  12  28  43  75 102 150 187 249 300 410 438
#     4  12  24  43  74  99 139 202 239 300 364 436
#     4   8  20  40  66  98 140 184 238 294 360 434
#
# _framework density 31.989080000000001
#
# number of rings (size 3 to 8) (size 9 to 14) (size 15 to 20)
#    0.857    0.000    0.000    6.857    4.000    3.429 
#    0.000    0.000    0.000    0.000    0.000    0.000 
#    0.000    0.000    0.000    0.000    0.000    0.000 
#
# Total GULP energy -78186.465509 kJ/mol
# GULP energy per Si atom -5584.747536 kJ/mol
# Density = 3.191627 g / cm^3
# Si number density = 31.989080 Si / 1000 Ang^3
#
#
#
# Elastic Constant Matrix: (Units=GPa)
#
#
# Indices 1 2 3 4 5 6 
#
# 1 204.8204 85.4647 117.3934 0.0000 10.0016 0.0000
# 2 85.4647 198.0194 61.1865 0.0000 1.0988 0.0000
# 3 117.3934 61.1865 278.8274 0.0000 -10.7692 0.0000
# 4 0.0000 0.0000 0.0000 42.2498 0.0000 26.3095
# 5 10.0016 1.0988 -10.7692 0.0000 79.7816 0.0000
# 6 0.0000 0.0000 0.0000 26.3095 0.0000 -36.8642
#
#
#
# Elastic Compliance Matrix: (Units=1/GPa)
#
#
# Indices 1 2 3 4 5 6 
#
# 1 0.007473 -0.002393 -0.002670 0.000000 -0.001264 0.000000
# 2 -0.002393 0.006188 -0.000344 0.000000 0.000168 0.000000
# 3 -0.002670 -0.000344 0.004824 0.000000 0.000991 0.000000
# 4 0.000000 0.000000 0.000000 0.016386 0.000000 0.011695
# 5 -0.001264 0.000168 0.000991 0.000000 0.012824 0.000000
# 6 0.000000 0.000000 0.000000 0.011695 0.000000 -0.018780
#
#
# Mechanical properties :
#
#
# Convention : Reuss Voigt Hill
#
# Bulk Modulus (GPa) = 130.35495 134.41737 132.38616
# Shear Modulus (GPa) = 118.23953 44.87495 81.55724
#
# Velocity S-wave (km/s) = 6.08627 3.74949 5.05477
# Velocity P-wave (km/s) = 9.49887 7.80102 8.69150
#
# Compressibility (1/GPa) = 0.00767136
#
# Stress axis : x y z
#
# Youngs Moduli (GPa) = 133.81489 161.59622 207.28482
#
# Poissons Ratio (x) = 0.38675 0.55344
# Poissons Ratio (y) = 0.32026 0.07127
# Poissons Ratio (z) = 0.35728 0.05556
#
# Static dielectric constant tensor:
#      x y z
#    x 2.924290 0.000000 -0.068680 
#    y 0.000000 2.812140 0.000000 
#    z -0.068680 0.000000 2.737750 
# 
# From -- ./inp_files/981.got.cif
#   From: 2010.05.17/outbox.cif.g08.bks.cpg/sg7_cif.got.tgz:981.got - 2010.06.03 19:44:50.
