data_PCOD9131613
_publ_section_title
;
Structure prediction by ZEFSAII (Michael W. Deem and Ramdas Pophale) SiO2 
 PCOD9131613
Probable space group: C M
;
_chemical_formula_sum "Si O2"
_cell_formula_units_Z 26
_cell_length_a 19.697880
_cell_length_b 7.745843
_cell_length_c 34.959421
_cell_angle_alpha 90.000000
_cell_angle_beta 162.979427
_cell_angle_gamma 90.000000
_cell_volume 1561.339979
_symmetry_space_group_name_H-M "C M"
_symmetry_group_IT_number 8
_symmetry_cell_setting 'monoclinic'
loop_
_space_group_symop_operation_xyz
x,y,z
x,-y,z
1/2+x,1/2+y,z
1/2+x,1/2-y,z
loop_
_atom_site_type_symbol
_atom_site_label
_atom_site_fract_x
_atom_site_fract_y
_atom_site_fract_z
Si Si1 0.558150 0.293152 0.539350
Si Si2 0.783705 0.302044 0.227647
Si Si3 0.717848 0.500000 0.820442
Si Si4 0.993909 0.795408 0.418104
Si Si5 0.015081 0.694907 0.668277
Si Si6 0.449235 0.000000 0.022582
Si Si7 0.427744 0.500000 0.737883
Si Si8 0.288540 0.706336 0.470217
O O1 0.613266 0.500000 0.569032
O O2 0.466304 0.247796 0.447498
O O3 0.778344 0.170621 0.665600
O O4 0.372912 0.259547 0.472913
O O5 0.735413 0.500000 0.190391
O O6 0.838809 0.295386 0.302646
O O7 0.025380 0.241594 0.337994
O O8 0.584814 0.168988 0.109323
O O9 0.693778 0.332587 0.781116
O O10 0.923022 0.500000 0.962069
O O11 0.496370 0.500000 0.729927
O O12 0.262814 0.769048 0.551292
O O13 0.948809 0.000000 0.390095
O O14 0.082268 0.500000 0.713981
O O15 0.962658 0.713105 0.595031
O O16 0.183170 0.000000 0.894069
O O17 0.296704 0.500000 0.481117
#
# Coordination Sequence:
#
# PCOD9131613 Si02
#       8
#     4   4   2   4   4   2   2   4
#     4  10  20  33  52  86 111 136 166 218 278 315
#     4  10  20  33  54  78 105 140 176 218 259 309
#     4  10  20  34  52  73 105 133 176 228 247 306
#     4   9  16  29  50  75 108 129 166 215 264 307
#     4  10  18  30  51  80 104 133 169 215 270 310
#     4  10  22  37  51  77 101 144 183 217 250 299
#     4  10  22  33  55  76 106 141 177 215 257 317
#     4   9  19  33  53  84 115 133 165 220 275 320
#
# _framework density 16.652363999999999
#
# number of rings (size 3 to 8) (size 9 to 14) (size 15 to 20)
#    0.462    1.846    3.077    0.000    4.308    1.231 
#    0.000    0.000    0.000    1.846    0.000    0.000 
#    0.000    0.000    0.000    0.000    0.000    0.000 
#
# Total GULP energy -72405.620998 kJ/mol
# GULP energy per Si atom -5569.663154 kJ/mol
# Density = 1.661446 g / cm^3
# Si number density = 16.652364 Si / 1000 Ang^3
#
#
#
# Elastic Constant Matrix: (Units=GPa)
#
#
# Indices 1 2 3 4 5 6 
#
# 1 97.9630 23.6090 35.3049 0.0071 -13.2801 -0.0019
# 2 23.6090 84.3346 66.3166 0.0132 -10.4604 0.0022
# 3 35.3049 66.3166 95.9742 0.0106 -9.4203 0.0033
# 4 0.0071 0.0132 0.0106 25.5976 0.0077 -0.8498
# 5 -13.2801 -10.4604 -9.4203 0.0077 18.7100 0.0054
# 6 -0.0019 0.0022 0.0033 -0.8498 0.0054 19.2435
#
#
#
# Elastic Compliance Matrix: (Units=1/GPa)
#
#
# Indices 1 2 3 4 5 6 
#
# 1 0.012606 0.000994 -0.004619 -0.000004 0.007177 0.000000
# 2 0.000994 0.026651 -0.018146 -0.000009 0.006469 -0.000002
# 3 -0.004619 -0.018146 0.024553 0.000001 -0.001062 -0.000002
# 4 -0.000004 -0.000009 0.000001 0.039123 -0.000024 0.001728
# 5 0.007177 0.006469 -0.001062 -0.000024 0.061624 -0.000018
# 6 0.000000 -0.000002 -0.000002 0.001728 -0.000018 0.052042
#
#
# Mechanical properties :
#
#
# Convention : Reuss Voigt Hill
#
# Bulk Modulus (GPa) = 49.34147 58.74807 54.04477
# Shear Modulus (GPa) = 18.73376 22.91299 20.82337
#
# Velocity S-wave (km/s) = 3.35773 3.71342 3.54004
# Velocity P-wave (km/s) = 6.68783 7.33087 7.01672
#
# Compressibility (1/GPa) = 0.02026693
#
# Stress axis : x y z
#
# Youngs Moduli (GPa) = 79.32574 37.52257 40.72826
#
# Poissons Ratio (x) = -0.03729 0.18814
# Poissons Ratio (y) = -0.07883 0.73904
# Poissons Ratio (z) = 0.36644 0.68087
#
# Static dielectric constant tensor:
#      x y z
#    x 1.570220 0.000000 -0.012220 
#    y 0.000000 1.587190 0.000000 
#    z -0.012220 0.000000 1.534430 
# 
# From -- ./inp_files/23632.got.cif
#   From: 2010.05.17/outbox.cif.g08.bks.cpg/sg8_12_cif.got.tgz:23632.got - 2010.06.03 19:46:02.
