data_PCOD9131967
_publ_section_title
;
Structure prediction by ZEFSAII (Michael W. Deem and Ramdas Pophale) SiO2 
 PCOD9131967
Probable space group: C M
;
_chemical_formula_sum "Si O2"
_cell_formula_units_Z 32
_cell_length_a 32.333541
_cell_length_b 9.187559
_cell_length_c 12.489182
_cell_angle_alpha 90.000000
_cell_angle_beta 26.949632
_cell_angle_gamma 90.000000
_cell_volume 1681.450409
_symmetry_space_group_name_H-M "C M"
_symmetry_group_IT_number 8
_symmetry_cell_setting 'monoclinic'
loop_
_space_group_symop_operation_xyz
x,y,z
x,-y,z
1/2+x,1/2+y,z
1/2+x,1/2-y,z
loop_
_atom_site_type_symbol
_atom_site_label
_atom_site_fract_x
_atom_site_fract_y
_atom_site_fract_z
Si Si1 0.509240 0.171747 0.353530
Si Si2 0.509235 0.332964 0.579252
Si Si3 0.205698 0.673400 0.821620
Si Si4 0.711897 0.333028 0.214028
Si Si5 0.141049 0.326712 0.577572
Si Si6 0.806987 0.672489 0.778461
Si Si7 0.256248 0.825461 0.488385
Si Si8 0.443649 0.826359 0.934912
O O1 0.508841 0.258549 0.465109
O O2 0.414002 0.196364 0.513828
O O3 0.513766 0.000000 0.369826
O O4 0.597852 0.206538 0.079307
O O5 0.480404 0.500000 0.637492
O O6 0.613405 0.329767 0.382644
O O7 0.450287 0.250778 0.804843
O O8 0.217485 0.500000 0.783762
O O9 0.249145 0.731302 0.831333
O O10 0.249432 0.757062 0.621405
O O11 0.729004 0.500000 0.210565
O O12 0.703010 0.227995 0.335292
O O13 0.783556 0.293836 0.956399
O O14 0.148199 0.500000 0.575139
O O15 0.176748 0.243208 0.598952
O O16 0.036470 0.290823 0.786237
O O17 0.785780 0.500000 0.812790
O O18 0.248644 0.000000 0.510239
O O19 0.352842 0.788215 0.209486
O O20 0.444143 0.000000 0.916503
#
# Coordination Sequence:
#
# PCOD9131967 Si02
#       8
#     4   4   4   4   4   4   4   4
#     4  10  22  38  59  86 118 158 196 236 292 356
#     4  10  19  33  58  90 122 152 190 244 293 340
#     4  11  24  42  61  86 120 154 198 252 296 340
#     4   9  18  34  57  86 121 156 191 235 289 350
#     4  10  21  38  60  88 120 152 193 245 295 344
#     4  10  21  39  61  85 116 158 200 237 288 357
#     4  11  24  42  64  85 114 160 204 240 290 358
#     4   9  21  40  60  84 117 158 196 235 291 357
#
# _framework density 19.031189000000001
#
# number of rings (size 3 to 8) (size 9 to 14) (size 15 to 20)
#    0.000    2.000    1.250    1.500    1.750    4.500 
#    0.000    5.000    0.000    0.000    0.000    0.000 
#    0.000    0.000    0.000    0.000    0.000    0.000 
#
# Total GULP energy -89383.276860 kJ/mol
# GULP energy per Si atom -5586.454804 kJ/mol
# Density = 1.898787 g / cm^3
# Si number density = 19.031189 Si / 1000 Ang^3
#
#
#
# Elastic Constant Matrix: (Units=GPa)
#
#
# Indices 1 2 3 4 5 6 
#
# 1 24.7987 15.8200 5.7312 0.0000 5.6126 0.0000
# 2 15.8200 41.8431 36.8284 0.0000 2.8399 0.0000
# 3 5.7312 36.8284 95.4407 0.0000 6.6375 0.0000
# 4 0.0000 0.0000 0.0000 20.5514 0.0000 7.9956
# 5 5.6126 2.8399 6.6375 0.0000 21.5009 0.0000
# 6 0.0000 0.0000 0.0000 7.9956 0.0000 35.7512
#
#
#
# Elastic Compliance Matrix: (Units=1/GPa)
#
#
# Indices 1 2 3 4 5 6 
#
# 1 0.060506 -0.029652 0.008824 0.000000 -0.014602 0.000000
# 2 -0.029652 0.050726 -0.018258 0.000000 0.006677 0.000000
# 3 0.008824 -0.018258 0.017358 0.000000 -0.005251 0.000000
# 4 0.000000 0.000000 0.000000 0.053296 0.000000 -0.011919
# 5 -0.014602 0.006677 -0.005251 0.000000 0.051060 0.000000
# 6 0.000000 0.000000 0.000000 -0.011919 0.000000 0.030637
#
#
# Mechanical properties :
#
#
# Convention : Reuss Voigt Hill
#
# Bulk Modulus (GPa) = 19.83353 30.98241 25.40797
# Shear Modulus (GPa) = 13.94464 22.47421 18.20943
#
# Velocity S-wave (km/s) = 2.70983 3.44017 3.09661
# Velocity P-wave (km/s) = 4.49834 5.66523 5.11517
#
# Compressibility (1/GPa) = 0.05041966
#
# Stress axis : x y z
#
# Youngs Moduli (GPa) = 16.52725 19.71376 57.60961
#
# Poissons Ratio (x) = 0.58454 -0.50835
# Poissons Ratio (y) = 0.49006 1.05182
# Poissons Ratio (z) = -0.14584 0.35993
#
# Static dielectric constant tensor:
#      x y z
#    x 1.642120 0.000000 -0.026390 
#    y 0.000000 1.637410 0.000000 
#    z -0.026390 0.000000 1.669330 
# 
# From -- ./inp_files/21512.got.cif
#   From: 2010.05.17/outbox.cif.g08.bks.cpg/sg8_11_cif.got.tgz:21512.got - 2010.06.03 19:46:02.
