data_PCOD9131599
_publ_section_title
;
Structure prediction by ZEFSAII (Michael W. Deem and Ramdas Pophale) SiO2 
 PCOD9131599
Probable space group: C M
;
_chemical_formula_sum "Si O2"
_cell_formula_units_Z 32
_cell_length_a 14.461821
_cell_length_b 7.648051
_cell_length_c 12.475615
_cell_angle_alpha 90.000000
_cell_angle_beta 87.810136
_cell_angle_gamma 90.000000
_cell_volume 1378.854486
_symmetry_space_group_name_H-M "C M"
_symmetry_group_IT_number 8
_symmetry_cell_setting 'monoclinic'
loop_
_space_group_symop_operation_xyz
x,y,z
x,-y,z
1/2+x,1/2+y,z
1/2+x,1/2-y,z
loop_
_atom_site_type_symbol
_atom_site_label
_atom_site_fract_x
_atom_site_fract_y
_atom_site_fract_z
Si Si1 0.288850 0.286604 0.296790
Si Si2 0.486332 0.210273 0.705607
Si Si3 0.552465 0.297872 0.484117
Si Si4 0.431836 0.204759 0.105925
Si Si5 0.080777 0.710664 0.251099
Si Si6 0.692745 0.209314 0.749466
Si Si7 0.345411 0.789367 0.890663
Si Si8 0.257575 0.698678 0.528824
O O1 0.291671 0.500000 0.299057
O O2 0.361546 0.220756 0.207870
O O3 0.186311 0.231835 0.262172
O O4 0.300835 0.223337 0.419017
O O5 0.479382 0.258406 0.580750
O O6 0.587938 0.272224 0.740234
O O7 0.410586 0.277437 0.791528
O O8 0.485215 0.000000 0.711043
O O9 0.577487 0.500000 0.491830
O O10 0.527353 0.261232 0.362756
O O11 0.646890 0.192880 0.505106
O O12 0.527542 0.278845 0.149019
O O13 0.448822 0.000000 0.082545
O O14 0.384275 0.278880 0.001591
O O15 0.081695 0.500000 0.246521
O O16 0.741691 0.245078 0.859473
O O17 0.754135 0.282071 0.646951
O O18 0.690143 0.000000 0.735325
O O19 0.350019 0.000000 0.892824
O O20 0.292703 0.500000 0.536390
#
# Coordination Sequence:
#
# PCOD9131599 Si02
#       8
#     4   4   4   4   4   4   4   4
#     4   9  18  34  57  81 105 135 171 215 263 311
#     4   9  19  37  57  76 105 144 177 207 256 321
#     4  10  18  29  52  85 112 132 166 217 265 307
#     4  10  22  38  54  75 104 139 181 223 260 305
#     4   9  19  37  57  76 105 144 177 207 256 321
#     4   9  18  34  57  81 105 135 171 215 263 311
#     4  10  22  38  54  75 104 139 181 223 260 305
#     4   8  16  33  54  77 108 142 172 203 253 323
#
# _framework density 23.20767
#
# number of rings (size 3 to 8) (size 9 to 14) (size 15 to 20)
#    0.000    2.750    0.000    2.625    0.000    7.500 
#    0.000    5.000    0.000    0.000    0.000    0.000 
#    0.000    0.000    0.000    0.000    0.000    0.000 
#
# Total GULP energy -89325.281141 kJ/mol
# GULP energy per Si atom -5582.830071 kJ/mol
# Density = 2.315485 g / cm^3
# Si number density = 23.207670 Si / 1000 Ang^3
#
#
#
# Elastic Constant Matrix: (Units=GPa)
#
#
# Indices 1 2 3 4 5 6 
#
# 1 54.4816 -0.7887 18.9860 0.0000 20.9355 0.0000
# 2 -0.7887 56.2995 -4.9277 0.0000 3.7654 0.0000
# 3 18.9860 -4.9277 79.1618 0.0000 37.5951 0.0000
# 4 0.0000 0.0000 0.0000 19.5917 0.0000 -0.8117
# 5 20.9355 3.7654 37.5951 0.0000 40.6743 0.0000
# 6 0.0000 0.0000 0.0000 -0.8117 0.0000 11.6914
#
#
#
# Elastic Compliance Matrix: (Units=1/GPa)
#
#
# Indices 1 2 3 4 5 6 
#
# 1 0.022957 0.001181 0.000412 0.000000 -0.012307 0.000000
# 2 0.001181 0.018457 0.003504 0.000000 -0.005555 0.000000
# 3 0.000412 0.003504 0.023183 0.000000 -0.021964 0.000000
# 4 0.000000 0.000000 0.000000 0.051189 0.000000 0.003554
# 5 -0.012307 -0.005555 -0.021964 0.000000 0.051735 0.000000
# 6 0.000000 0.000000 0.000000 0.003554 0.000000 0.085780
#
#
# Mechanical properties :
#
#
# Convention : Reuss Voigt Hill
#
# Bulk Modulus (GPa) = 13.37074 24.05358 18.71216
# Shear Modulus (GPa) = 18.65405 26.16970 22.41187
#
# Velocity S-wave (km/s) = 2.83819 3.36167 3.11096
# Velocity P-wave (km/s) = 4.06378 5.04527 4.58089
#
# Compressibility (1/GPa) = 0.07479016
#
# Stress axis : x y z
#
# Youngs Moduli (GPa) = 43.55909 54.18029 43.13553
#
# Poissons Ratio (x) = -0.06397 -0.01777
# Poissons Ratio (y) = -0.05143 -0.15114
# Poissons Ratio (z) = -0.01795 -0.18984
#
# Static dielectric constant tensor:
#      x y z
#    x 1.904280 0.000000 0.018370 
#    y 0.000000 1.878930 0.000000 
#    z 0.018370 0.000000 1.887040 
# 
# From -- ./inp_files/21569.got.cif
#   From: 2010.05.17/outbox.cif.g08.bks.cpg/sg8_11_cif.got.tgz:21569.got - 2010.06.03 19:46:02.
