data_PCOD9131333
_publ_section_title
;
Structure prediction by ZEFSAII (Michael W. Deem and Ramdas Pophale) SiO2 
 PCOD9131333
Probable space group: P C
;
_chemical_formula_sum "Si O2"
_cell_formula_units_Z 16
_cell_length_a 6.695914
_cell_length_b 20.611967
_cell_length_c 5.321941
_cell_angle_alpha 90.000000
_cell_angle_beta 80.185904
_cell_angle_gamma 90.000000
_cell_volume 723.763923
_symmetry_space_group_name_H-M "P C"
_symmetry_group_IT_number 7
_symmetry_cell_setting 'monoclinic'
loop_
_space_group_symop_operation_xyz
x,y,z
x,-y,1/2+z
loop_
_atom_site_type_symbol
_atom_site_label
_atom_site_fract_x
_atom_site_fract_y
_atom_site_fract_z
Si Si1 0.823660 0.307590 0.233780
Si Si2 0.116830 0.167175 0.719757
Si Si3 0.856069 0.163415 0.272715
Si Si4 0.251868 0.028432 0.561036
Si Si5 0.490823 0.396866 0.538772
Si Si6 0.098122 0.312951 0.678079
Si Si7 0.715481 0.974277 0.891589
Si Si8 0.698617 0.519238 0.337307
O O1 0.753131 0.232463 0.243823
O O2 0.631337 0.351801 0.336184
O O3 0.974013 0.314729 0.442709
O O4 0.949412 0.320615 0.950944
O O5 0.250048 0.103902 0.635862
O O6 0.198186 0.240879 0.685914
O O7 0.951026 0.165824 0.531113
O O8 0.023457 0.158557 0.016785
O O9 0.725301 0.098757 0.289441
O O10 0.483091 0.005729 0.480586
O O11 0.162762 0.014863 0.305066
O O12 0.273764 0.366480 0.630237
O O13 0.612060 0.411856 0.773291
O O14 0.510377 0.468727 0.414398
O O15 0.801507 0.019995 0.654350
O O16 0.814603 0.489850 0.071885
#
# Coordination Sequence:
#
# PCOD9131333 Si02
#       8
#     2   2   2   2   2   2   2   2
#     4  10  24  39  61  93 120 157 207 244 291 366
#     4  10  21  38  54  81 112 139 192 238 277 345
#     4  10  21  38  54  81 112 139 192 238 277 345
#     4  10  21  35  54  78 108 142 188 230 280 348
#     4  10  22  42  68  82 132 162 186 256 302 332
#     4  10  24  39  61  93 120 157 207 244 291 366
#     4  10  21  35  54  78 108 142 188 230 280 348
#     4   8  20  36  62  92 120 150 210 234 278 376
#
# _framework density 22.106655
#
# number of rings (size 3 to 8) (size 9 to 14) (size 15 to 20)
#    0.750    1.500    0.000    1.500    5.250    3.000 
#    0.000    3.750    0.000    0.000    0.000    0.000 
#    0.000    0.000    0.000    0.000    0.000    0.000 
#
# Total GULP energy -89167.834481 kJ/mol
# GULP energy per Si atom -5572.989655 kJ/mol
# Density = 2.205634 g / cm^3
# Si number density = 22.106655 Si / 1000 Ang^3
#
#
#
# Elastic Constant Matrix: (Units=GPa)
#
#
# Indices 1 2 3 4 5 6 
#
# 1 17.5204 5.7648 21.4425 0.0000 0.7012 0.0000
# 2 5.7648 98.6052 46.2322 0.0000 -17.1418 0.0000
# 3 21.4425 46.2322 118.6389 0.0000 7.5738 0.0000
# 4 0.0000 0.0000 0.0000 33.8823 0.0000 14.7162
# 5 0.7012 -17.1418 7.5738 0.0000 31.0853 0.0000
# 6 0.0000 0.0000 0.0000 14.7162 0.0000 -31.5945
#
#
#
# Elastic Compliance Matrix: (Units=1/GPa)
#
#
# Indices 1 2 3 4 5 6 
#
# 1 0.074106 0.003331 -0.014935 0.000000 0.003804 0.000000
# 2 0.003331 0.014987 -0.007075 0.000000 0.009913 0.000000
# 3 -0.014935 -0.007075 0.014336 0.000000 -0.007058 0.000000
# 4 0.000000 0.000000 0.000000 0.024548 0.000000 0.011434
# 5 0.003804 0.009913 -0.007058 0.000000 0.039270 0.000000
# 6 0.000000 0.000000 0.000000 0.011434 0.000000 -0.026325
#
#
# Mechanical properties :
#
#
# Convention : Reuss Voigt Hill
#
# Bulk Modulus (GPa) = 15.13509 42.40482 28.76995
# Shear Modulus (GPa) = 24.96208 17.42963 21.19585
#
# Velocity S-wave (km/s) = 3.36395 2.81095 3.09981
# Velocity P-wave (km/s) = 4.68503 5.45517 5.08470
#
# Compressibility (1/GPa) = 0.06607165
#
# Stress axis : x y z
#
# Youngs Moduli (GPa) = 13.49415 66.72253 69.75485
#
# Poissons Ratio (x) = -0.22226 1.04177
# Poissons Ratio (y) = -0.04495 0.49354
# Poissons Ratio (z) = 0.20153 0.47208
#
# Static dielectric constant tensor:
#      x y z
#    x 1.802830 0.000000 0.065820 
#    y 0.000000 1.873180 0.000000 
#    z 0.065820 0.000000 1.893930 
# 
# From -- ./inp_files/953.got.cif
#   From: 2010.05.17/outbox.cif.g08.bks.cpg/sg7_cif.got.tgz:953.got - 2010.06.03 19:44:50.
