data_PCOD9131681
_publ_section_title
;
Structure prediction by ZEFSAII (Michael W. Deem and Ramdas Pophale) SiO2 
 PCOD9131681
Probable space group: C M
;
_chemical_formula_sum "Si O2"
_cell_formula_units_Z 32
_cell_length_a 20.619696
_cell_length_b 9.319054
_cell_length_c 22.056449
_cell_angle_alpha 90.000000
_cell_angle_beta 157.442682
_cell_angle_gamma 90.000000
_cell_volume 1625.836038
_symmetry_space_group_name_H-M "C M"
_symmetry_group_IT_number 8
_symmetry_cell_setting 'monoclinic'
loop_
_space_group_symop_operation_xyz
x,y,z
x,-y,z
1/2+x,1/2+y,z
1/2+x,1/2-y,z
loop_
_atom_site_type_symbol
_atom_site_label
_atom_site_fract_x
_atom_site_fract_y
_atom_site_fract_z
Si Si1 0.635180 0.329271 0.217220
Si Si2 0.766671 0.661045 0.686908
Si Si3 0.770359 0.829306 0.570852
Si Si4 0.448890 0.660308 0.502599
Si Si5 0.672961 0.330728 0.901837
Si Si6 0.935593 0.839143 0.928333
Si Si7 0.531874 0.828792 0.252150
Si Si8 0.616396 0.159966 0.738532
O O1 0.607871 0.500000 0.198717
O O2 0.828339 0.284735 0.375043
O O3 0.580553 0.250747 0.231793
O O4 0.545032 0.277958 0.077905
O O5 0.818290 0.500000 0.715178
O O6 0.713314 0.747324 0.581668
O O7 0.611014 0.652428 0.599424
O O8 0.913463 0.743342 0.850250
O O9 0.656484 0.783357 0.414621
O O10 0.974385 0.804670 0.744410
O O11 0.746912 0.000000 0.557117
O O12 0.373811 0.500000 0.439558
O O13 0.494444 0.714581 0.609480
O O14 0.685471 0.500000 0.894840
O O15 0.705355 0.220946 0.874773
O O16 0.827428 0.307086 0.082549
O O17 0.753151 0.852825 0.803207
O O18 0.994362 0.000000 0.963226
O O19 0.556244 0.000000 0.265952
O O20 0.543025 0.000000 0.684801
#
# Coordination Sequence:
#
# PCOD9131681 Si02
#       8
#     4   4   4   4   4   4   4   4
#     4  11  21  35  57  90 121 149 187 235 294 352
#     4  10  22  40  60  81 108 149 199 242 289 343
#     4  10  22  40  59  80 114 157 201 244 289 345
#     4  10  21  36  55  82 115 151 191 237 293 352
#     4  10  20  35  57  85 117 155 198 238 289 354
#     4   9  19  35  56  82 115 148 182 228 285 345
#     4  10  21  37  59  87 120 158 194 237 294 352
#     4  10  18  32  55  83 114 147 186 233 289 343
#
# _framework density 19.682182000000001
#
# number of rings (size 3 to 8) (size 9 to 14) (size 15 to 20)
#    0.000    2.000    1.250    2.250    0.000    5.000 
#    2.250    0.000    0.000    0.000    0.000    0.000 
#    0.000    0.000    0.000    0.000    0.000    0.000 
#
# Total GULP energy -89110.954889 kJ/mol
# GULP energy per Si atom -5569.434681 kJ/mol
# Density = 1.963738 g / cm^3
# Si number density = 19.682182 Si / 1000 Ang^3
#
#
#
# Elastic Constant Matrix: (Units=GPa)
#
#
# Indices 1 2 3 4 5 6 
#
# 1 44.3010 31.3608 39.5426 -0.0001 -22.4552 -0.0001
# 2 31.3608 43.7839 30.8824 0.0001 -15.0252 0.0000
# 3 39.5426 30.8824 119.0267 0.0001 -29.3937 0.0000
# 4 -0.0001 0.0001 0.0001 19.5486 0.0000 -2.0266
# 5 -22.4552 -15.0252 -29.3937 0.0000 30.9277 -0.0001
# 6 -0.0001 0.0000 0.0000 -2.0266 -0.0001 23.2290
#
#
#
# Elastic Compliance Matrix: (Units=1/GPa)
#
#
# Indices 1 2 3 4 5 6 
#
# 1 0.064161 -0.032857 -0.006832 0.000001 0.024129 0.000000
# 2 -0.032857 0.046714 -0.001949 0.000000 -0.003014 0.000000
# 3 -0.006832 -0.001949 0.012698 0.000000 0.006162 0.000000
# 4 0.000001 0.000000 0.000000 0.051622 0.000000 0.004504
# 5 0.024129 -0.003014 0.006162 0.000000 0.054244 0.000000
# 6 0.000000 0.000000 0.000000 0.004504 0.000000 0.043443
#
#
# Mechanical properties :
#
#
# Convention : Reuss Voigt Hill
#
# Bulk Modulus (GPa) = 24.81510 45.63146 35.22328
# Shear Modulus (GPa) = 13.52850 21.76276 17.64563
#
# Velocity S-wave (km/s) = 2.62458 3.32883 2.99746
# Velocity P-wave (km/s) = 4.67117 6.16517 5.46942
#
# Compressibility (1/GPa) = 0.04029805
#
# Stress axis : x y z
#
# Youngs Moduli (GPa) = 15.58582 21.40670 78.75083
#
# Poissons Ratio (x) = 0.70337 0.53799
# Poissons Ratio (y) = 0.51211 0.15348
# Poissons Ratio (z) = 0.10648 0.04172
#
# Static dielectric constant tensor:
#      x y z
#    x 1.695490 0.000000 0.033510 
#    y 0.000000 1.693050 0.000000 
#    z 0.033510 0.000000 1.769270 
# 
# From -- ./inp_files/15801.got.cif
#   From: 2010.05.17/outbox.cif.g08.bks.cpg/sg8_8_cif.got.tgz:15801.got - 2010.06.03 19:46:02.
