data_PCOD9131430
_publ_section_title
;
Structure prediction by ZEFSAII (Michael W. Deem and Ramdas Pophale) SiO2 
 PCOD9131430
Probable space group: P C
;
_chemical_formula_sum "Si O2"
_cell_formula_units_Z 16
_cell_length_a 7.384871
_cell_length_b 15.237225
_cell_length_c 5.415137
_cell_angle_alpha 90.000000
_cell_angle_beta 107.760173
_cell_angle_gamma 90.000000
_cell_volume 580.297932
_symmetry_space_group_name_H-M "P C"
_symmetry_group_IT_number 7
_symmetry_cell_setting 'monoclinic'
loop_
_space_group_symop_operation_xyz
x,y,z
x,-y,1/2+z
loop_
_atom_site_type_symbol
_atom_site_label
_atom_site_fract_x
_atom_site_fract_y
_atom_site_fract_z
Si Si1 0.686320 0.091999 0.306500
Si Si2 0.531749 0.267956 0.994952
Si Si3 0.833486 0.231991 0.735374
Si Si4 0.666156 0.451488 0.187987
Si Si5 0.331860 0.026836 0.584118
Si Si6 0.122553 0.454823 0.304095
Si Si7 0.129636 0.700591 0.124041
Si Si8 0.049038 0.143953 0.265566
O O1 0.737742 0.142852 0.578386
O O2 0.888074 0.071320 0.258612
O O3 0.588093 0.172688 0.119923
O O4 0.538053 0.012125 0.241779
O O5 0.650812 0.272932 0.794099
O O6 0.311292 0.276217 0.853552
O O7 0.601083 0.350346 0.182374
O O8 0.947747 0.324144 0.709641
O O9 0.986546 0.190334 0.992129
O O10 0.599952 0.504565 0.402371
O O11 0.894454 0.451414 0.243103
O O12 0.250671 0.037046 0.830510
O O13 0.264680 0.113603 0.407474
O O14 0.183223 0.518898 0.555370
O O15 0.188404 0.360052 0.424399
O O16 0.019329 0.785099 0.969881
#
# Coordination Sequence:
#
# PCOD9131430 Si02
#       8
#     2   2   2   2   2   2   2   2
#     4  10  25  48  74 107 148 201 253 312 382 461
#     4  11  25  44  73 108 147 202 259 312 379 458
#     4  10  24  46  76 104 150 200 260 310 382 456
#     4  10  23  42  70 106 153 200 251 314 382 448
#     4  12  30  48  76 110 150 188 248 316 382 454
#     4  10  23  42  70 106 153 200 251 314 382 448
#     4  11  25  44  73 108 147 202 259 312 379 458
#     4  10  25  48  74 107 148 201 253 312 382 461
#
# _framework density 27.572040999999999
#
# number of rings (size 3 to 8) (size 9 to 14) (size 15 to 20)
#    0.000    1.500    0.000    3.000   19.250    2.000 
#    0.000    0.000    0.000    0.000    0.000    0.000 
#    0.000    0.000    0.000    0.000    0.000    0.000 
#
# Total GULP energy -89298.492487 kJ/mol
# GULP energy per Si atom -5581.155780 kJ/mol
# Density = 2.750929 g / cm^3
# Si number density = 27.572041 Si / 1000 Ang^3
#
#
#
# Elastic Constant Matrix: (Units=GPa)
#
#
# Indices 1 2 3 4 5 6 
#
# 1 76.2535 0.7133 -20.8211 0.0000 50.7514 0.0000
# 2 0.7133 62.4544 -27.4423 0.0000 34.9439 0.0000
# 3 -20.8211 -27.4423 68.5638 0.0000 54.6884 0.0000
# 4 0.0000 0.0000 0.0000 37.4767 0.0000 2.8594
# 5 50.7514 34.9439 54.6884 0.0000 14.8284 0.0000
# 6 0.0000 0.0000 0.0000 2.8594 0.0000 3.6577
#
#
#
# Elastic Compliance Matrix: (Units=1/GPa)
#
#
# Indices 1 2 3 4 5 6 
#
# 1 0.007603 -0.005823 -0.005042 0.000000 0.006293 0.000000
# 2 -0.005823 0.010571 -0.003314 0.000000 0.007241 0.000000
# 3 -0.005042 -0.003314 0.004256 0.000000 0.009367 0.000000
# 4 0.000000 0.000000 0.000000 0.028376 0.000000 -0.022183
# 5 0.006293 0.007241 0.009367 0.000000 -0.005714 0.000000
# 6 0.000000 0.000000 0.000000 -0.022183 0.000000 0.290736
#
#
# Mechanical properties :
#
#
# Convention : Reuss Voigt Hill
#
# Bulk Modulus (GPa) = -168.71954 12.46350 -78.12802
# Shear Modulus (GPa) = 13.80420 28.18068 20.99244
#
# Velocity S-wave (km/s) = 2.23997 3.20046 2.76228
# Velocity P-wave (km/s) = 7.39156 4.26467 4.26894
#
# Compressibility (1/GPa) = -0.00592700
#
# Stress axis : x y z
#
# Youngs Moduli (GPa) = 131.52033 94.60252 234.96538
#
# Poissons Ratio (x) = 0.55090 1.18459
# Poissons Ratio (y) = 0.76588 0.77858
# Poissons Ratio (z) = 0.66307 0.31347
#
# Static dielectric constant tensor:
#      x y z
#    x 3.492610 0.000000 -1.344360 
#    y 0.000000 2.205100 0.000000 
#    z -1.344360 0.000000 3.383910 
# 
# From -- ./inp_files/790.got.cif
#   From: 2010.05.17/outbox.cif.g08.bks.cpg/sg7_cif.got.tgz:790.got - 2010.06.03 19:44:50.
