data_PCOD9131311
_publ_section_title
;
Structure prediction by ZEFSAII (Michael W. Deem and Ramdas Pophale) SiO2 
 PCOD9131311
Probable space group: P C
;
_chemical_formula_sum "Si O2"
_cell_formula_units_Z 14
_cell_length_a 13.412047
_cell_length_b 13.310011
_cell_length_c 5.108526
_cell_angle_alpha 90.000000
_cell_angle_beta 59.483148
_cell_angle_gamma 90.000000
_cell_volume 785.623037
_symmetry_space_group_name_H-M "P C"
_symmetry_group_IT_number 7
_symmetry_cell_setting 'monoclinic'
loop_
_space_group_symop_operation_xyz
x,y,z
x,-y,1/2+z
loop_
_atom_site_type_symbol
_atom_site_label
_atom_site_fract_x
_atom_site_fract_y
_atom_site_fract_z
Si Si1 0.757260 0.790486 0.503490
Si Si2 0.996242 0.716016 0.339545
Si Si3 0.449127 0.567429 0.561612
Si Si4 0.181063 0.432645 0.362089
Si Si5 0.659794 0.298688 0.635851
Si Si6 0.885482 0.569806 0.853127
Si Si7 0.949949 0.064475 0.844188
O O1 0.703288 0.782375 0.290711
O O2 0.817072 0.894197 0.512549
O O3 0.871135 0.717598 0.358964
O O4 0.669805 0.748875 0.836141
O O5 0.965415 0.663780 0.657391
O O6 0.020855 0.834753 0.320999
O O7 0.094466 0.654821 0.061745
O O8 0.468387 0.521206 0.823029
O O9 0.315172 0.598728 0.712216
O O10 0.537568 0.655510 0.376839
O O11 0.164262 0.522506 0.595599
O O12 0.754328 0.388768 0.520879
O O13 0.905139 0.489520 0.593894
O O14 0.971070 0.020035 0.530485
#
# Coordination Sequence:
#
# PCOD9131311 Si02
#       7
#     2   2   2   2   2   2   2
#     4   9  21  31  53  75 103 125 171 216 270 312
#     4   9  21  34  52  76 107 131 182 208 264 320
#     4  10  20  33  49  71 104 146 188 210 238 295
#     4  10  21  35  51  74 108 148 178 210 249 301
#     4  11  18  33  47  74 105 141 170 214 239 306
#     4  11  20  28  45  72 105 140 161 200 250 297
#     4  10  21  36  55  78 104 133 170 222 278 323
#
# _framework density 17.820250999999999
#
# number of rings (size 3 to 8) (size 9 to 14) (size 15 to 20)
#    0.857    1.143    0.000    5.143    0.000    3.429 
#    0.000    0.000    0.000    0.000    0.000    6.000 
#    0.000    0.000    0.000    0.000    0.000    0.000 
#
# Total GULP energy -78091.229515 kJ/mol
# GULP energy per Si atom -5577.944965 kJ/mol
# Density = 1.777969 g / cm^3
# Si number density = 17.820251 Si / 1000 Ang^3
#
#
#
# Elastic Constant Matrix: (Units=GPa)
#
#
# Indices 1 2 3 4 5 6 
#
# 1 33.5109 11.3437 21.0203 0.0000 -1.4018 0.0000
# 2 11.3437 57.7710 13.0114 0.0000 -3.1824 0.0000
# 3 21.0203 13.0114 86.0171 0.0000 -3.4867 0.0000
# 4 0.0000 0.0000 0.0000 19.9299 0.0000 1.2238
# 5 -1.4018 -3.1824 -3.4867 0.0000 35.3903 0.0000
# 6 0.0000 0.0000 0.0000 1.2238 0.0000 19.1906
#
#
#
# Elastic Compliance Matrix: (Units=1/GPa)
#
#
# Indices 1 2 3 4 5 6 
#
# 1 0.036793 -0.005375 -0.008171 0.000000 0.000169 0.000000
# 2 -0.005375 0.018770 -0.001472 0.000000 0.001330 0.000000
# 3 -0.008171 -0.001472 0.013882 0.000000 0.000912 0.000000
# 4 0.000000 0.000000 0.000000 0.050373 0.000000 -0.003212
# 5 0.000169 0.001330 0.000912 0.000000 0.028472 0.000000
# 6 0.000000 0.000000 0.000000 -0.003212 0.000000 0.052314
#
#
# Mechanical properties :
#
#
# Convention : Reuss Voigt Hill
#
# Bulk Modulus (GPa) = 25.37500 29.78332 27.57916
# Shear Modulus (GPa) = 20.51056 23.69707 22.10382
#
# Velocity S-wave (km/s) = 3.39627 3.65058 3.52572
# Velocity P-wave (km/s) = 5.44517 5.87524 5.66429
#
# Compressibility (1/GPa) = 0.03940886
#
# Stress axis : x y z
#
# Youngs Moduli (GPa) = 27.17896 53.27685 72.03535
#
# Poissons Ratio (x) = 0.28636 0.58863
# Poissons Ratio (y) = 0.14608 0.10603
# Poissons Ratio (z) = 0.22209 0.07842
#
# Static dielectric constant tensor:
#      x y z
#    x 1.636630 0.000000 0.012910 
#    y 0.000000 1.625980 0.000000 
#    z 0.012910 0.000000 1.617380 
# 
# From -- ./inp_files/1296.got.cif
#   From: 2010.05.17/outbox.cif.g08.bks.cpg/sg7_cif.got.tgz:1296.got - 2010.06.03 19:44:50.
