data_PCOD9131825
_publ_section_title
;
Structure prediction by ZEFSAII (Michael W. Deem and Ramdas Pophale) SiO2 
 PCOD9131825
Probable space group: C M
;
_chemical_formula_sum "Si O2"
_cell_formula_units_Z 32
_cell_length_a 24.567335
_cell_length_b 7.825460
_cell_length_c 11.524509
_cell_angle_alpha 90.000000
_cell_angle_beta 34.783154
_cell_angle_gamma 90.000000
_cell_volume 1263.935093
_symmetry_space_group_name_H-M "C M"
_symmetry_group_IT_number 8
_symmetry_cell_setting 'monoclinic'
loop_
_space_group_symop_operation_xyz
x,y,z
x,-y,z
1/2+x,1/2+y,z
1/2+x,1/2-y,z
loop_
_atom_site_type_symbol
_atom_site_label
_atom_site_fract_x
_atom_site_fract_y
_atom_site_fract_z
Si Si1 0.113460 0.687411 0.045870
Si Si2 0.237329 0.207729 0.548287
Si Si3 0.605594 0.305513 0.311650
Si Si4 0.167881 0.792270 0.436597
Si Si5 0.310858 0.187128 0.649904
Si Si6 0.017129 0.795881 0.009848
Si Si7 0.449223 0.708458 0.893901
Si Si8 0.385640 0.690401 0.769294
O O1 0.150438 0.500000 0.951598
O O2 0.098261 0.700696 0.208249
O O3 0.196819 0.818747 0.870985
O O4 0.019665 0.723513 0.135027
O O5 0.238828 0.270991 0.412370
O O6 0.307585 0.274054 0.526800
O O7 0.126786 0.242545 0.777916
O O8 0.247235 0.000000 0.529915
O O9 0.637336 0.500000 0.228733
O O10 0.671516 0.231386 0.297906
O O11 0.499078 0.318177 0.547683
O O12 0.059643 0.754962 0.666907
O O13 0.174783 0.000000 0.420197
O O14 0.346534 0.249600 0.713097
O O15 0.353378 0.000000 0.561388
O O16 0.947180 0.729808 0.031362
O O17 0.007309 0.000000 0.032138
O O18 0.439878 0.500000 0.910596
O O19 0.384379 0.775735 0.900610
O O20 0.346044 0.500000 0.851927
#
# Coordination Sequence:
#
# PCOD9131825 Si02
#       8
#     4   4   4   4   4   4   4   4
#     4  11  21  31  45  67  96 125 156 195 233 268
#     4   7  11  21  40  65  87 109 143 186 225 263
#     4   9  17  30  49  70  92 120 153 187 229 282
#     4   7  10  20  41  66  86 107 143 187 224 264
#     4  10  19  31  48  69  95 126 157 188 228 278
#     4   8  13  25  45  66  88 115 150 187 227 276
#     4   7  11  22  43  68  90 114 145 184 228 272
#     4   9  17  30  49  73  98 122 151 188 230 275
#
# _framework density 25.317755999999999
#
# number of rings (size 3 to 8) (size 9 to 14) (size 15 to 20)
#    0.000    3.500    0.000    5.250    0.000    0.500 
#    0.000    0.625    0.000   12.000    0.000    3.500 
#    0.000    0.000    0.000    0.000    0.000    0.000 
#
# Total GULP energy -89082.312554 kJ/mol
# GULP energy per Si atom -5567.644535 kJ/mol
# Density = 2.526013 g / cm^3
# Si number density = 25.317756 Si / 1000 Ang^3
#
#
#
# Elastic Constant Matrix: (Units=GPa)
#
#
# Indices 1 2 3 4 5 6 
#
# 1 320.4346 29.3147 54.4961 0.0000 77.7071 0.0000
# 2 29.3147 53.5970 2.6053 0.0000 15.0006 0.0000
# 3 54.4961 2.6053 35.1543 0.0000 -2.8549 0.0000
# 4 0.0000 0.0000 0.0000 -0.0621 0.0000 -10.3230
# 5 77.7071 15.0006 -2.8549 0.0000 65.2637 0.0000
# 6 0.0000 0.0000 0.0000 -10.3230 0.0000 -3.5721
#
#
#
# Elastic Compliance Matrix: (Units=1/GPa)
#
#
# Indices 1 2 3 4 5 6 
#
# 1 0.007605 -0.000925 -0.012484 0.000000 -0.009389 0.000000
# 2 -0.000925 0.020175 -0.000349 0.000000 -0.003551 0.000000
# 3 -0.012484 -0.000349 0.049213 0.000000 0.017097 0.000000
# 4 0.000000 0.000000 0.000000 0.033591 0.000000 -0.097073
# 5 -0.009389 -0.003551 0.017097 0.000000 0.028065 0.000000
# 6 0.000000 0.000000 0.000000 -0.097073 0.000000 0.000584
#
#
# Mechanical properties :
#
#
# Convention : Reuss Voigt Hill
#
# Bulk Modulus (GPa) = 20.21180 64.66870 42.44025
# Shear Modulus (GPa) = 27.28653 33.84390 30.56522
#
# Velocity S-wave (km/s) = 3.28649 3.66015 3.47834
# Velocity P-wave (km/s) = 4.73307 6.59246 5.73857
#
# Compressibility (1/GPa) = 0.04947605
#
# Stress axis : x y z
#
# Youngs Moduli (GPa) = 131.48670 49.56749 20.32003
#
# Poissons Ratio (x) = 0.04586 0.25367
# Poissons Ratio (y) = 0.12165 0.00710
# Poissons Ratio (z) = 1.64144 0.01731
#
# Static dielectric constant tensor:
#      x y z
#    x 2.115380 0.000000 0.077840 
#    y 0.000000 1.977870 0.000000 
#    z 0.077840 0.000000 2.127110 
# 
# From -- ./inp_files/22821.got.cif
#   From: 2010.05.17/outbox.cif.g08.bks.cpg/sg8_12_cif.got.tgz:22821.got - 2010.06.03 19:46:02.
