data_PCOD9131380
_publ_section_title
;
Structure prediction by ZEFSAII (Michael W. Deem and Ramdas Pophale) SiO2 
 PCOD9131380
Probable space group: P C
;
_chemical_formula_sum "Si O2"
_cell_formula_units_Z 16
_cell_length_a 7.111166
_cell_length_b 21.214158
_cell_length_c 4.937823
_cell_angle_alpha 90.000000
_cell_angle_beta 105.117358
_cell_angle_gamma 90.000000
_cell_volume 719.128630
_symmetry_space_group_name_H-M "P C"
_symmetry_group_IT_number 7
_symmetry_cell_setting 'monoclinic'
loop_
_space_group_symop_operation_xyz
x,y,z
x,-y,1/2+z
loop_
_atom_site_type_symbol
_atom_site_label
_atom_site_fract_x
_atom_site_fract_y
_atom_site_fract_z
Si Si1 0.358290 0.383147 0.017310
Si Si2 0.744132 0.459558 0.068354
Si Si3 0.154451 0.229722 0.361907
Si Si4 0.928467 0.115921 0.552045
Si Si5 0.674887 0.124878 0.988154
Si Si6 0.317813 0.039769 0.669308
Si Si7 0.416201 0.238495 0.964005
Si Si8 0.091728 0.626394 0.907354
O O1 0.528508 0.431663 0.020076
O O2 0.268405 0.393777 0.277440
O O3 0.445353 0.312163 0.036122
O O4 0.177221 0.384478 0.739016
O O5 0.770001 0.520950 0.267337
O O6 0.902476 0.410882 0.242350
O O7 0.342035 0.232770 0.629206
O O8 0.061805 0.299040 0.345939
O O9 0.016002 0.176890 0.431435
O O10 0.239530 0.217299 0.095795
O O11 0.822712 0.130696 0.793174
O O12 0.109259 0.069709 0.656814
O O13 0.774691 0.089373 0.276469
O O14 0.486543 0.087636 0.814631
O O15 0.597856 0.192568 0.063525
O O16 0.334439 0.022034 0.361807
#
# Coordination Sequence:
#
# PCOD9131380 Si02
#       8
#     2   2   2   2   2   2   2   2
#     4  10  23  43  65  96 130 173 215 272 326 385
#     4  12  26  42  64  96 130 174 224 264 322 398
#     4  10  21  42  69  97 137 170 216 272 337 395
#     4  12  26  43  71 105 132 175 221 273 334 391
#     4  12  26  43  71 105 132 175 221 273 334 391
#     4  12  28  48  70  94 140 180 220 274 320 392
#     4  10  21  42  69  97 137 170 216 272 337 395
#     4  10  23  43  65  96 130 173 215 272 326 385
#
# _framework density 22.249148000000002
#
# number of rings (size 3 to 8) (size 9 to 14) (size 15 to 20)
#    0.000    1.000    1.250    4.500    3.500    6.000 
#    2.250    0.000    0.000    0.000    0.000    0.000 
#    0.000    0.000    0.000    0.000    0.000    0.000 
#
# Total GULP energy -89568.388370 kJ/mol
# GULP energy per Si atom -5598.024273 kJ/mol
# Density = 2.219851 g / cm^3
# Si number density = 22.249148 Si / 1000 Ang^3
#
#
#
# Elastic Constant Matrix: (Units=GPa)
#
#
# Indices 1 2 3 4 5 6 
#
# 1 42.6020 21.1789 20.6891 0.0000 2.8221 0.0000
# 2 21.1789 34.5618 8.7751 0.0000 1.0215 0.0000
# 3 20.6891 8.7751 77.2168 0.0000 -5.0428 0.0000
# 4 0.0000 0.0000 0.0000 16.6289 0.0000 -20.2600
# 5 2.8221 1.0215 -5.0428 0.0000 33.3490 0.0000
# 6 0.0000 0.0000 0.0000 -20.2600 0.0000 -24.7355
#
#
#
# Elastic Compliance Matrix: (Units=1/GPa)
#
#
# Indices 1 2 3 4 5 6 
#
# 1 0.038210 -0.021253 -0.008071 0.000000 -0.003803 0.000000
# 2 -0.021253 0.041683 0.001001 0.000000 0.000673 0.000000
# 3 -0.008071 0.001001 0.015192 0.000000 0.002950 0.000000
# 4 0.000000 0.000000 0.000000 0.030099 0.000000 -0.024653
# 5 -0.003803 0.000673 0.002950 0.000000 0.030733 0.000000
# 6 0.000000 0.000000 0.000000 -0.024653 0.000000 -0.020235
#
#
# Mechanical properties :
#
#
# Convention : Reuss Voigt Hill
#
# Bulk Modulus (GPa) = 26.01456 28.40741 27.21099
# Shear Modulus (GPa) = 24.37355 11.96433 18.16894
#
# Velocity S-wave (km/s) = 3.31340 2.32145 2.86074
# Velocity P-wave (km/s) = 5.13380 4.47002 4.81337
#
# Compressibility (1/GPa) = 0.03844001
#
# Stress axis : x y z
#
# Youngs Moduli (GPa) = 26.17115 23.99063 65.82475
#
# Poissons Ratio (x) = 0.50987 0.53127
# Poissons Ratio (y) = 0.55621 -0.06591
# Poissons Ratio (z) = 0.21122 -0.02402
#
# Static dielectric constant tensor:
#      x y z
#    x 1.778540 0.000000 0.034100 
#    y 0.000000 1.820990 0.000000 
#    z 0.034100 0.000000 1.799800 
# 
# From -- ./inp_files/348.got.cif
#   From: 2010.05.17/outbox.cif.g08.bks.cpg/sg7_cif.got.tgz:348.got - 2010.06.03 19:44:50.
