data_PCOD9131641
_publ_section_title
;
Structure prediction by ZEFSAII (Michael W. Deem and Ramdas Pophale) SiO2 
 PCOD9131641
Probable space group: C M
;
_chemical_formula_sum "Si O2"
_cell_formula_units_Z 32
_cell_length_a 20.912735
_cell_length_b 7.649641
_cell_length_c 20.765640
_cell_angle_alpha 90.000000
_cell_angle_beta 150.438256
_cell_angle_gamma 90.000000
_cell_volume 1638.936779
_symmetry_space_group_name_H-M "C M"
_symmetry_group_IT_number 8
_symmetry_cell_setting 'monoclinic'
loop_
_space_group_symop_operation_xyz
x,y,z
x,-y,z
1/2+x,1/2+y,z
1/2+x,1/2-y,z
loop_
_atom_site_type_symbol
_atom_site_label
_atom_site_fract_x
_atom_site_fract_y
_atom_site_fract_z
Si Si1 0.733170 0.286002 0.645510
Si Si2 0.480829 0.288140 0.678915
Si Si3 0.521140 0.210371 0.938987
Si Si4 0.686590 0.707983 0.965318
Si Si5 0.467517 0.207727 0.171395
Si Si6 0.190511 0.794943 0.466128
Si Si7 0.945600 0.713121 0.010348
Si Si8 0.154010 0.787446 0.714657
O O1 0.732408 0.500000 0.644315
O O2 0.685000 0.221656 0.534156
O O3 0.655539 0.230490 0.641509
O O4 0.883125 0.232727 0.787696
O O5 0.481991 0.500000 0.680251
O O6 0.578360 0.224406 0.820461
O O7 0.335009 0.233430 0.565832
O O8 0.540544 0.229184 0.662919
O O9 0.636504 0.263210 0.993460
O O10 0.521837 0.272678 0.013463
O O11 0.518414 0.000000 0.937635
O O12 0.690694 0.500000 0.958325
O O13 0.829811 0.778244 0.076435
O O14 0.583033 0.231004 0.322479
O O15 0.450842 0.000000 0.149422
O O16 0.492500 0.275643 0.120952
O O17 0.168562 0.000000 0.452998
O O18 0.950507 0.500000 0.013615
O O19 0.794238 0.760058 0.867426
O O20 0.151003 0.000000 0.711384
#
# Coordination Sequence:
#
# PCOD9131641 Si02
#       8
#     4   4   4   4   4   4   4   4
#     4   8  15  28  48  74 101 128 163 207 251 289
#     4  10  18  31  54  80 101 128 169 214 253 295
#     4   9  16  29  52  78 101 129 164 210 256 295
#     4  10  19  31  51  79 106 130 164 210 257 301
#     4  10  20  36  54  74 101 136 173 211 248 294
#     4  11  22  35  50  74 107 140 167 202 253 309
#     4   8  14  28  52  77  98 125 170 215 248 285
#     4   8  13  26  51  78  97 120 164 217 252 282
#
# _framework density 19.524854999999999
#
# number of rings (size 3 to 8) (size 9 to 14) (size 15 to 20)
#    0.000    2.750    2.500    1.875    0.000    0.500 
#    0.000    1.875    0.000   10.500    0.000    0.000 
#    0.000    0.000    0.000    0.000    0.000    0.000 
#
# Total GULP energy -89213.137829 kJ/mol
# GULP energy per Si atom -5575.821114 kJ/mol
# Density = 1.948042 g / cm^3
# Si number density = 19.524855 Si / 1000 Ang^3
#
#
#
# Elastic Constant Matrix: (Units=GPa)
#
#
# Indices 1 2 3 4 5 6 
#
# 1 170.3932 -2.3854 88.5619 0.0000 -27.3337 0.0000
# 2 -2.3854 32.1167 -0.3632 0.0000 -4.1792 0.0000
# 3 88.5619 -0.3632 120.4988 0.0000 -19.7443 0.0000
# 4 0.0000 0.0000 0.0000 -4.0382 0.0000 -0.7359
# 5 -27.3337 -4.1792 -19.7443 0.0000 28.9889 0.0000
# 6 0.0000 0.0000 0.0000 -0.7359 0.0000 17.6168
#
#
#
# Elastic Compliance Matrix: (Units=1/GPa)
#
#
# Indices 1 2 3 4 5 6 
#
# 1 0.010168 0.001369 -0.006602 0.000000 0.005288 0.000000
# 2 0.001369 0.032013 0.000066 0.000000 0.005950 0.000000
# 3 -0.006602 0.000066 0.013657 0.000000 0.003086 0.000000
# 4 0.000000 0.000000 0.000000 -0.245765 0.000000 -0.010267
# 5 0.005288 0.005950 0.003086 0.000000 0.042441 0.000000
# 6 0.000000 0.000000 0.000000 -0.010267 0.000000 0.056335
#
#
# Mechanical properties :
#
#
# Convention : Reuss Voigt Hill
#
# Bulk Modulus (GPa) = 21.97720 54.95948 38.46834
# Shear Modulus (GPa) = -76.16516 24.32654 -25.91931
#
# Velocity S-wave (km/s) = -6.25252 3.53360 -3.64744
# Velocity P-wave (km/s) = 6.39100 6.69761 1.41652
#
# Compressibility (1/GPa) = 0.04550171
#
# Stress axis : x y z
#
# Youngs Moduli (GPa) = 98.35029 31.23721 73.22168
#
# Poissons Ratio (x) = -0.04275 0.48344
# Poissons Ratio (y) = -0.13460 -0.00481
# Poissons Ratio (z) = 0.64934 -0.00205
#
# Static dielectric constant tensor:
#      x y z
#    x 1.713700 0.000000 -0.029050 
#    y 0.000000 1.743350 0.000000 
#    z -0.029050 0.000000 1.655060 
# 
# From -- ./inp_files/24547.got.cif
#   From: 2010.05.17/outbox.cif.g08.bks.cpg/sg8_13_cif.got.tgz:24547.got - 2010.06.03 19:46:02.
