data_PCOD9131495
_publ_section_title
;
Structure prediction by ZEFSAII (Michael W. Deem and Ramdas Pophale) SiO2 
 PCOD9131495
Probable space group: C M
;
_chemical_formula_sum "Si O2"
_cell_formula_units_Z 24
_cell_length_a 7.373249
_cell_length_b 19.077674
_cell_length_c 7.759677
_cell_angle_alpha 90.000000
_cell_angle_beta 56.919845
_cell_angle_gamma 90.000000
_cell_volume 914.585283
_symmetry_space_group_name_H-M "C M"
_symmetry_group_IT_number 8
_symmetry_cell_setting 'monoclinic'
loop_
_space_group_symop_operation_xyz
x,y,z
x,-y,z
1/2+x,1/2+y,z
1/2+x,1/2-y,z
loop_
_atom_site_type_symbol
_atom_site_label
_atom_site_fract_x
_atom_site_fract_y
_atom_site_fract_z
Si Si1 0.589780 0.000000 0.655490
Si Si2 0.356163 0.296135 0.404259
Si Si3 0.326310 0.848284 0.265471
Si Si4 0.475734 0.372765 0.014404
Si Si5 0.991348 0.000000 0.238103
Si Si6 0.402403 0.500000 0.820373
Si Si7 0.929604 0.347272 0.807985
Si Si8 0.798882 0.500000 0.398992
O O1 0.736396 0.000000 0.407101
O O2 0.469868 0.072761 0.730705
O O3 0.745844 0.000000 0.740302
O O4 0.400172 0.214824 0.348660
O O5 0.562824 0.335251 0.385774
O O6 0.136516 0.307855 0.623247
O O7 0.338346 0.327059 0.218329
O O8 0.395674 0.923414 0.310218
O O9 0.414495 0.840124 0.023842
O O10 0.368852 0.424015 0.929588
O O11 0.691099 0.329303 0.854969
O O12 0.561099 0.433242 0.097918
O O13 0.113760 0.000000 0.350241
O O14 0.658308 0.500000 0.644393
#
# Coordination Sequence:
#
# PCOD9131495 Si02
#       8
#     2   4   4   4   2   2   4   2
#     4  11  19  36  69 100 128 182 227 277 332 402
#     4  11  24  43  66  97 132 175 228 283 338 403
#     4  11  26  43  70  96 137 177 229 282 333 410
#     4  10  21  42  64  97 133 178 224 279 331 409
#     4  10  15  37  69  87 126 173 225 257 317 402
#     4  10  23  34  65 101 139 167 218 295 333 375
#     4  11  22  41  70  92 127 193 228 261 347 421
#     4  11  19  43  65  94 131 180 216 269 332 401
#
# _framework density 26.241402999999998
#
# number of rings (size 3 to 8) (size 9 to 14) (size 15 to 20)
#    0.000    1.333    5.000    2.500    0.000    6.667 
#    0.000    1.667    0.000    1.000    0.000    0.000 
#    0.000    0.000    0.000    0.000    0.000    0.000 
#
# Total GULP energy -67095.826287 kJ/mol
# GULP energy per Si atom -5591.318857 kJ/mol
# Density = 2.618168 g / cm^3
# Si number density = 26.241403 Si / 1000 Ang^3
#
#
#
# Elastic Constant Matrix: (Units=GPa)
#
#
# Indices 1 2 3 4 5 6 
#
# 1 92.0419 29.6766 45.1594 0.0000 -9.5221 0.0000
# 2 29.6766 176.1478 50.8362 0.0000 -4.4645 0.0000
# 3 45.1594 50.8362 159.6532 0.0000 -36.4676 0.0000
# 4 0.0000 0.0000 0.0000 41.3748 0.0000 8.0886
# 5 -9.5221 -4.4645 -36.4676 0.0000 39.1685 0.0000
# 6 0.0000 0.0000 0.0000 8.0886 0.0000 12.6390
#
#
#
# Elastic Compliance Matrix: (Units=1/GPa)
#
#
# Indices 1 2 3 4 5 6 
#
# 1 0.012853 -0.001227 -0.003255 0.000000 -0.000046 0.000000
# 2 -0.001227 0.006434 -0.002035 0.000000 -0.001460 0.000000
# 3 -0.003255 -0.002035 0.009651 0.000000 0.007962 0.000000
# 4 0.000000 0.000000 0.000000 0.027626 0.000000 -0.017680
# 5 -0.000046 -0.001460 0.007962 0.000000 0.032766 0.000000
# 6 0.000000 0.000000 0.000000 -0.017680 0.000000 0.090435
#
#
# Mechanical properties :
#
#
# Convention : Reuss Voigt Hill
#
# Bulk Modulus (GPa) = 62.88122 75.46524 69.17323
# Shear Modulus (GPa) = 25.23970 38.78117 32.01043
#
# Velocity S-wave (km/s) = 3.10470 3.84847 3.49642
# Velocity P-wave (km/s) = 6.07181 6.96908 6.53586
#
# Compressibility (1/GPa) = 0.01590300
#
# Stress axis : x y z
#
# Youngs Moduli (GPa) = 77.80495 155.42199 103.61536
#
# Poissons Ratio (x) = 0.19071 0.33730
# Poissons Ratio (y) = 0.09547 0.21086
# Poissons Ratio (z) = 0.25328 0.31629
#
# Static dielectric constant tensor:
#      x y z
#    x 2.109950 0.000000 -0.037850 
#    y 0.000000 2.019900 0.000000 
#    z -0.037850 0.000000 2.162120 
# 
# From -- ./inp_files/8676.got.cif
#   From: 2010.05.17/outbox.cif.g08.bks.cpg/sg8_5_cif.got.tgz:8676.got - 2010.06.03 19:46:02.
