data_PCOD9131083
_publ_section_title
;
Structure prediction by ZEFSAII (Michael W. Deem and Ramdas Pophale) SiO2 
 PCOD9131083
Probable space group: P M
;
_chemical_formula_sum "Si O2"
_cell_formula_units_Z 14
_cell_length_a 7.185350
_cell_length_b 15.566910
_cell_length_c 6.830659
_cell_angle_alpha 90.000000
_cell_angle_beta 134.926281
_cell_angle_gamma 90.000000
_cell_volume 540.948613
_symmetry_space_group_name_H-M "P M"
_symmetry_group_IT_number 6
_symmetry_cell_setting 'monoclinic'
loop_
_space_group_symop_operation_xyz
x,y,z
x,-y,z
loop_
_atom_site_type_symbol
_atom_site_label
_atom_site_fract_x
_atom_site_fract_y
_atom_site_fract_z
Si Si1 0.878520 0.900036 0.950810
Si Si2 0.463787 0.090619 0.005976
Si Si3 0.364674 0.337278 0.744756
Si Si4 0.947215 0.403108 0.154860
Si Si5 0.686459 0.781881 0.442552
Si Si6 0.139842 0.168192 0.497302
Si Si7 0.879787 0.401120 0.645805
O O1 0.785385 0.836365 0.706437
O O2 0.924665 0.000000 0.923840
O O3 0.672301 0.906218 0.980515
O O4 0.113513 0.857431 0.254071
O O5 0.457971 0.164570 0.165712
O O6 0.510647 0.000000 0.144684
O O7 0.195084 0.090650 0.684257
O O8 0.659418 0.367987 0.999792
O O9 0.368463 0.235342 0.720144
O O10 0.677746 0.320625 0.470789
O O11 0.152225 0.375121 0.739912
O O12 0.956047 0.500000 0.232191
O O13 0.944390 0.400564 0.921463
O O14 0.212905 0.362238 0.432398
O O15 0.893431 0.786898 0.415506
O O16 0.795950 0.500000 0.535496
#
# Coordination Sequence:
#
# PCOD9131083 Si02
#       7
#     2   2   2   2   2   2   2
#     4  10  21  39  63  92 127 172 219 275 341 414
#     4  10  22  40  63  94 129 167 217 280 342 412
#     4  11  25  43  71  99 140 184 233 291 355 412
#     4  11  24  44  69 100 137 184 235 292 349 414
#     4  10  22  40  64  92 129 173 220 283 343 407
#     4  10  23  39  63  90 130 172 220 275 343 414
#     4  10  23  43  68 101 138 182 237 288 346 419
#
# _framework density 25.880462000000001
#
# number of rings (size 3 to 8) (size 9 to 14) (size 15 to 20)
#    0.000    1.714    0.000    3.000    8.000    4.000 
#    2.571    1.429    0.000    0.000    0.000    0.000 
#    0.000    0.000    0.000    0.000    0.000    0.000 
#
# Total GULP energy -78112.541080 kJ/mol
# GULP energy per Si atom -5579.467220 kJ/mol
# Density = 2.582156 g / cm^3
# Si number density = 25.880462 Si / 1000 Ang^3
#
#
#
# Elastic Constant Matrix: (Units=GPa)
#
#
# Indices 1 2 3 4 5 6 
#
# 1 93.9688 24.8889 11.6553 0.0000 -15.8577 0.0000
# 2 24.8889 218.1415 79.6562 0.0000 -10.3015 0.0000
# 3 11.6553 79.6562 158.9993 0.0000 -26.8028 0.0000
# 4 0.0000 0.0000 0.0000 13.2535 0.0000 -14.5770
# 5 -15.8577 -10.3015 -26.8028 0.0000 37.6283 0.0000
# 6 0.0000 0.0000 0.0000 -14.5770 0.0000 13.5026
#
#
#
# Elastic Compliance Matrix: (Units=1/GPa)
#
#
# Indices 1 2 3 4 5 6 
#
# 1 0.011771 -0.001347 0.000666 0.000000 0.005066 0.000000
# 2 -0.001347 0.005774 -0.002981 0.000000 -0.001110 0.000000
# 3 0.000666 -0.002981 0.008687 0.000000 0.005652 0.000000
# 4 0.000000 0.000000 0.000000 -0.402655 0.000000 -0.434695
# 5 0.005066 -0.001110 0.005652 0.000000 0.032433 0.000000
# 6 0.000000 0.000000 0.000000 -0.434695 0.000000 -0.395226
#
#
# Mechanical properties :
#
#
# Convention : Reuss Voigt Hill
#
# Bulk Modulus (GPa) = 52.88899 78.16783 65.52841
# Shear Modulus (GPa) = -6.89095 36.53749 14.82327
#
# Velocity S-wave (km/s) = -1.63352 3.76144 2.39584
# Velocity P-wave (km/s) = 4.11368 7.00953 5.74700
#
# Compressibility (1/GPa) = 0.01890753
#
# Stress axis : x y z
#
# Youngs Moduli (GPa) = 84.95509 173.19000 115.11711
#
# Poissons Ratio (x) = 0.23328 -0.07666
# Poissons Ratio (y) = 0.11443 0.34318
# Poissons Ratio (z) = -0.05658 0.51630
#
# Static dielectric constant tensor:
#      x y z
#    x 2.176200 0.000000 0.099510 
#    y 0.000000 4.847110 0.000000 
#    z 0.099510 0.000000 2.099850 
# 
# From -- ./inp_files/1375.got.cif
#   From: 2010.05.17/outbox.cif.g08.bks.cpg/sg6_1_cif.got.tgz:1375.got - 2010.06.03 19:42:10.
