data_PCOD9131335
_publ_section_title
;
Structure prediction by ZEFSAII (Michael W. Deem and Ramdas Pophale) SiO2 
 PCOD9131335
Probable space group: P C
;
_chemical_formula_sum "Si O2"
_cell_formula_units_Z 16
_cell_length_a 19.800964
_cell_length_b 6.691799
_cell_length_c 5.269716
_cell_angle_alpha 90.000000
_cell_angle_beta 98.919583
_cell_angle_gamma 90.000000
_cell_volume 689.814731
_symmetry_space_group_name_H-M "P C"
_symmetry_group_IT_number 7
_symmetry_cell_setting 'monoclinic'
loop_
_space_group_symop_operation_xyz
x,y,z
x,-y,1/2+z
loop_
_atom_site_type_symbol
_atom_site_label
_atom_site_fract_x
_atom_site_fract_y
_atom_site_fract_z
Si Si1 0.690540 0.134304 0.431630
Si Si2 0.408262 0.626149 0.785372
Si Si3 0.543120 0.874148 0.747499
Si Si4 0.122252 0.874136 0.599232
Si Si5 0.879663 0.994003 0.906696
Si Si6 0.826084 0.613477 0.010629
Si Si7 0.259696 0.634665 0.608037
Si Si8 0.986563 0.363839 0.976255
O O1 0.615595 0.231933 0.346798
O O2 0.751764 0.290667 0.431183
O O3 0.693073 0.035236 0.712744
O O4 0.408755 0.447966 0.576385
O O5 0.475377 0.751193 0.766048
O O6 0.335012 0.729246 0.688456
O O7 0.542722 0.947325 0.456174
O O8 0.197528 0.784759 0.610290
O O9 0.064605 0.709366 0.516246
O O10 0.112399 0.040761 0.376051
O O11 0.888479 0.761647 0.974484
O O12 0.836669 0.031784 0.130765
O O13 0.942183 0.149698 0.958890
O O14 0.832272 0.562484 0.310707
O O15 0.254835 0.532203 0.328511
O O16 0.976730 0.491103 0.228144
#
# Coordination Sequence:
#
# PCOD9131335 Si02
#       8
#     2   2   2   2   2   2   2   2
#     4  10  21  41  63  87 124 168 211 264 319 374
#     4  10  21  36  57  86 123 162 205 262 317 372
#     4  10  21  36  59  87 121 164 209 259 317 372
#     4  12  24  41  65  95 128 164 208 266 321 374
#     4  12  26  46  68  96 134 166 208 270 316 382
#     4  12  26  43  68  99 130 170 215 263 325 389
#     4  10  21  39  60  86 122 166 211 255 312 382
#     4  12  26  46  72  98 128 172 217 263 325 389
#
# _framework density 23.194635999999999
#
# number of rings (size 3 to 8) (size 9 to 14) (size 15 to 20)
#    0.000    1.000    0.000    6.750    0.000    5.000 
#    0.000    0.000    0.000    0.000    0.000    0.000 
#    0.000    0.000    0.000    0.000    0.000    0.000 
#
# Total GULP energy -89249.778911 kJ/mol
# GULP energy per Si atom -5578.111182 kJ/mol
# Density = 2.314184 g / cm^3
# Si number density = 23.194636 Si / 1000 Ang^3
#
#
#
# Elastic Constant Matrix: (Units=GPa)
#
#
# Indices 1 2 3 4 5 6 
#
# 1 151.9610 52.8295 10.3441 0.0000 10.0503 0.0000
# 2 52.8295 58.4058 12.4896 0.0000 15.2848 0.0000
# 3 10.3441 12.4896 128.3513 0.0000 -7.0825 0.0000
# 4 0.0000 0.0000 0.0000 34.4770 0.0000 -4.6315
# 5 10.0503 15.2848 -7.0825 0.0000 32.6399 0.0000
# 6 0.0000 0.0000 0.0000 -4.6315 0.0000 62.5650
#
#
#
# Elastic Compliance Matrix: (Units=1/GPa)
#
#
# Indices 1 2 3 4 5 6 
#
# 1 0.009649 -0.009118 0.000183 0.000000 0.001338 0.000000
# 2 -0.009118 0.028908 -0.002703 0.000000 -0.011316 0.000000
# 3 0.000183 -0.002703 0.008204 0.000000 0.002989 0.000000
# 4 0.000000 0.000000 0.000000 0.029296 0.000000 0.002169
# 5 0.001338 -0.011316 0.002989 0.000000 0.036173 0.000000
# 6 0.000000 0.000000 0.000000 0.002169 0.000000 0.016144
#
#
# Mechanical properties :
#
#
# Convention : Reuss Voigt Hill
#
# Bulk Modulus (GPa) = 42.57468 54.44940 48.51204
# Shear Modulus (GPa) = 31.35234 43.47338 37.41286
#
# Velocity S-wave (km/s) = 3.68054 4.33400 4.02057
# Velocity P-wave (km/s) = 6.03797 6.96927 6.52027
#
# Compressibility (1/GPa) = 0.02348814
#
# Stress axis : x y z
#
# Youngs Moduli (GPa) = 103.63367 34.59250 121.88759
#
# Poissons Ratio (x) = 0.31540 -0.02235
# Poissons Ratio (y) = 0.94488 0.32942
# Poissons Ratio (z) = -0.01901 0.09349
#
# Static dielectric constant tensor:
#      x y z
#    x 1.872650 0.000000 0.018980 
#    y 0.000000 1.992330 0.000000 
#    z 0.018980 0.000000 2.285490 
# 
# From -- ./inp_files/1446.got.cif
#   From: 2010.05.17/outbox.cif.g08.bks.cpg/sg7_cif.got.tgz:1446.got - 2010.06.03 19:44:50.
