data_PCOD9131288
_publ_section_title
;
Structure prediction by ZEFSAII (Michael W. Deem and Ramdas Pophale) SiO2 
 PCOD9131288
Probable space group: P C
;
_chemical_formula_sum "Si O2"
_cell_formula_units_Z 14
_cell_length_a 9.127435
_cell_length_b 13.807278
_cell_length_c 5.051468
_cell_angle_alpha 90.000000
_cell_angle_beta 102.631974
_cell_angle_gamma 90.000000
_cell_volume 621.202160
_symmetry_space_group_name_H-M "P C"
_symmetry_group_IT_number 7
_symmetry_cell_setting 'monoclinic'
loop_
_space_group_symop_operation_xyz
x,y,z
x,-y,1/2+z
loop_
_atom_site_type_symbol
_atom_site_label
_atom_site_fract_x
_atom_site_fract_y
_atom_site_fract_z
Si Si1 0.365330 0.203413 0.722040
Si Si2 0.595178 0.678249 0.980986
Si Si3 0.772968 0.740704 0.531200
Si Si4 0.044789 0.553086 0.262590
Si Si5 0.604623 0.937294 0.481310
Si Si6 0.087968 0.721951 0.896903
Si Si7 0.327400 0.382489 0.113826
O O1 0.476395 0.239349 0.531254
O O2 0.195107 0.194472 0.553529
O O3 0.439822 0.109443 0.876624
O O4 0.367205 0.292850 0.931145
O O5 0.707452 0.671249 0.274493
O O6 0.693451 0.709408 0.771668
O O7 0.481347 0.594698 0.830809
O O8 0.715942 0.849501 0.455382
O O9 0.949177 0.744801 0.656134
O O10 0.982584 0.521873 0.521062
O O11 0.226365 0.547534 0.390089
O O12 0.029575 0.656670 0.118583
O O13 0.625282 0.024189 0.284085
O O14 0.205698 0.658319 0.774727
#
# Coordination Sequence:
#
# PCOD9131288 Si02
#       7
#     2   2   2   2   2   2   2
#     4   9  20  38  61  90 117 156 212 249 290 371
#     4  10  19  36  61  86 119 152 209 247 289 353
#     4  11  23  38  61  92 120 166 207 250 298 377
#     4  11  22  38  61  94 125 157 201 256 307 356
#     4  11  22  39  61  87 120 161 205 255 315 360
#     4  10  23  38  66  93 122 163 209 248 302 364
#     4  10  19  39  63  94 113 161 205 253 287 369
#
# _framework density 22.536947999999999
#
# number of rings (size 3 to 8) (size 9 to 14) (size 15 to 20)
#    0.000    1.714    4.286    1.714    6.000    0.000 
#    0.000    1.429    0.000    5.143    0.000    0.000 
#    0.000    0.000    0.000    0.000    0.000    0.000 
#
# Total GULP energy -78110.973896 kJ/mol
# GULP energy per Si atom -5579.355278 kJ/mol
# Density = 2.248565 g / cm^3
# Si number density = 22.536948 Si / 1000 Ang^3
#
#
#
# Elastic Constant Matrix: (Units=GPa)
#
#
# Indices 1 2 3 4 5 6 
#
# 1 94.8643 12.0408 47.0827 0.0000 32.6572 0.0000
# 2 12.0408 35.4689 15.9118 0.0000 14.7869 0.0000
# 3 47.0827 15.9118 157.5683 0.0000 18.3453 0.0000
# 4 0.0000 0.0000 0.0000 35.0803 0.0000 8.2696
# 5 32.6572 14.7869 18.3453 0.0000 65.5021 0.0000
# 6 0.0000 0.0000 0.0000 8.2696 0.0000 15.2725
#
#
#
# Elastic Compliance Matrix: (Units=1/GPa)
#
#
# Indices 1 2 3 4 5 6 
#
# 1 0.014483 -0.000807 -0.003542 0.000000 -0.006047 0.000000
# 2 -0.000807 0.032074 -0.002276 0.000000 -0.006201 0.000000
# 3 -0.003542 -0.002276 0.007618 0.000000 0.000146 0.000000
# 4 0.000000 0.000000 0.000000 0.032677 0.000000 -0.017694
# 5 -0.006047 -0.006201 0.000146 0.000000 0.019640 0.000000
# 6 0.000000 0.000000 0.000000 -0.017694 0.000000 0.075058
#
#
# Mechanical properties :
#
#
# Convention : Reuss Voigt Hill
#
# Bulk Modulus (GPa) = 24.43495 48.66358 36.54927
# Shear Modulus (GPa) = 23.98753 37.36204 30.67479
#
# Velocity S-wave (km/s) = 3.26600 4.07604 3.69330
# Velocity P-wave (km/s) = 5.00880 6.61754 5.86856
#
# Compressibility (1/GPa) = 0.04092498
#
# Stress axis : x y z
#
# Youngs Moduli (GPa) = 69.04417 31.17816 131.27300
#
# Poissons Ratio (x) = 0.02515 0.46501
# Poissons Ratio (y) = 0.05570 0.29876
# Poissons Ratio (z) = 0.24458 0.07096
#
# Static dielectric constant tensor:
#      x y z
#    x 1.886440 0.000000 0.020300 
#    y 0.000000 1.885550 0.000000 
#    z 0.020300 0.000000 1.922110 
# 
# From -- ./inp_files/685.got.cif
#   From: 2010.05.17/outbox.cif.g08.bks.cpg/sg7_cif.got.tgz:685.got - 2010.06.03 19:44:50.
