data_PCOD9131629
_publ_section_title
;
Structure prediction by ZEFSAII (Michael W. Deem and Ramdas Pophale) SiO2 
 PCOD9131629
Probable space group: C M
;
_chemical_formula_sum "Si O2"
_cell_formula_units_Z 32
_cell_length_a 19.160918
_cell_length_b 23.402971
_cell_length_c 6.350621
_cell_angle_alpha 90.000000
_cell_angle_beta 47.894310
_cell_angle_gamma 90.000000
_cell_volume 2112.780074
_symmetry_space_group_name_H-M "C M"
_symmetry_group_IT_number 8
_symmetry_cell_setting 'monoclinic'
loop_
_space_group_symop_operation_xyz
x,y,z
x,-y,z
1/2+x,1/2+y,z
1/2+x,1/2-y,z
loop_
_atom_site_type_symbol
_atom_site_label
_atom_site_fract_x
_atom_site_fract_y
_atom_site_fract_z
Si Si1 0.777100 0.565730 0.483470
Si Si2 0.583652 0.823325 0.686539
Si Si3 0.944652 0.736905 0.285289
Si Si4 0.860344 0.371261 0.700675
Si Si5 0.106887 0.761087 0.262345
Si Si6 0.242297 0.266084 0.609221
Si Si7 0.211997 0.837364 0.345612
Si Si8 0.470403 0.934301 0.821602
O O1 0.748970 0.500000 0.554901
O O2 0.793727 0.593856 0.677009
O O3 0.707166 0.603898 0.484269
O O4 0.878927 0.568310 0.159904
O O5 0.596986 0.794133 0.432495
O O6 0.679040 0.815024 0.628498
O O7 0.545503 0.887443 0.745330
O O8 0.504837 0.784973 0.964922
O O9 0.908254 0.679236 0.472902
O O10 0.853370 0.773865 0.412854
O O11 0.015799 0.767273 0.301307
O O12 0.933628 0.413330 0.667253
O O13 0.799886 0.343802 0.010535
O O14 0.127682 0.814633 0.371436
O O15 0.193788 0.750212 0.928307
O O16 0.231516 0.211832 0.476136
O O17 0.502483 0.000000 0.751769
#
# Coordination Sequence:
#
# PCOD9131629 Si02
#       8
#     4   4   4   4   4   4   4   4
#     4  10  19  29  45  68  97 131 164 193 234 284
#     4  10  20  31  47  70  96 128 164 199 235 287
#     4  11  18  30  48  67  96 129 158 195 241 285
#     4  11  17  29  47  65  97 130 158 191 234 280
#     4  10  20  30  48  68  95 127 163 198 246 282
#     4  10  20  32  46  69  95 130 162 198 242 287
#     4  10  18  31  46  66  95 128 161 196 231 284
#     4  10  19  30  44  67  96 131 165 194 231 285
#
# _framework density 15.14592
#
# number of rings (size 3 to 8) (size 9 to 14) (size 15 to 20)
#    0.000    1.750    5.000    1.125    0.000    0.500 
#    0.000    0.000    0.000    0.000    0.000    0.875 
#    0.000   12.000    0.000    0.250    0.000    0.375 
#
# Total GULP energy -89181.055984 kJ/mol
# GULP energy per Si atom -5573.815999 kJ/mol
# Density = 1.511145 g / cm^3
# Si number density = 15.145920 Si / 1000 Ang^3
#
#
#
# Elastic Constant Matrix: (Units=GPa)
#
#
# Indices 1 2 3 4 5 6 
#
# 1 101.5867 47.3943 23.8323 0.0000 -5.7125 0.0000
# 2 47.3943 91.8275 18.8950 0.0000 -0.3536 0.0000
# 3 23.8323 18.8950 62.5611 0.0000 10.9910 0.0000
# 4 0.0000 0.0000 0.0000 16.4207 0.0000 -2.8949
# 5 -5.7125 -0.3536 10.9910 0.0000 24.9703 0.0000
# 6 0.0000 0.0000 0.0000 -2.8949 0.0000 27.3432
#
#
#
# Elastic Compliance Matrix: (Units=1/GPa)
#
#
# Indices 1 2 3 4 5 6 
#
# 1 0.014121 -0.006375 -0.004341 0.000000 0.005051 0.000000
# 2 -0.006375 0.014569 -0.001899 0.000000 -0.000417 0.000000
# 3 -0.004341 -0.001899 0.019932 0.000000 -0.009793 0.000000
# 4 0.000000 0.000000 0.000000 0.062057 0.000000 0.006570
# 5 0.005051 -0.000417 -0.009793 0.000000 0.045508 0.000000
# 6 0.000000 0.000000 0.000000 0.006570 0.000000 0.037268
#
#
# Mechanical properties :
#
#
# Convention : Reuss Voigt Hill
#
# Bulk Modulus (GPa) = 42.74898 48.46871 45.60884
# Shear Modulus (GPa) = 22.07684 24.80376 23.44030
#
# Velocity S-wave (km/s) = 3.82201 4.05118 3.93826
# Velocity P-wave (km/s) = 6.91108 7.34530 7.13149
#
# Compressibility (1/GPa) = 0.02339237
#
# Stress axis : x y z
#
# Youngs Moduli (GPa) = 70.81868 68.63672 50.17062
#
# Poissons Ratio (x) = 0.43758 0.21779
# Poissons Ratio (y) = 0.45149 0.09525
# Poissons Ratio (z) = 0.30743 0.13031
#
# Static dielectric constant tensor:
#      x y z
#    x 1.532740 0.000000 0.010890 
#    y 0.000000 1.490070 0.000000 
#    z 0.010890 0.000000 1.508390 
# 
# From -- ./inp_files/3119.got.cif
#   From: 2010.05.17/outbox.cif.g08.bks.cpg/sg8_2_cif.got.tgz:3119.got - 2010.06.03 19:46:02.
