data_PCOD9131488
_publ_section_title
;
Structure prediction by ZEFSAII (Michael W. Deem and Ramdas Pophale) SiO2 
 PCOD9131488
Probable space group: P C
;
_chemical_formula_sum "Si O2"
_cell_formula_units_Z 16
_cell_length_a 9.000000
_cell_length_b 18.000000
_cell_length_c 6.000000
_cell_angle_alpha 90.000000
_cell_angle_beta 50.000000
_cell_angle_gamma 90.000000
_cell_volume 744.595199
_symmetry_space_group_name_H-M "P C"
_symmetry_group_IT_number 7
_symmetry_cell_setting 'monoclinic'
loop_
_space_group_symop_operation_xyz
x,y,z
x,-y,1/2+z
loop_
_atom_site_type_symbol
_atom_site_label
_atom_site_fract_x
_atom_site_fract_y
_atom_site_fract_z
Si Si1 0.702960 0.202566 0.979290
Si Si2 0.291256 0.465103 0.618412
Si Si3 0.986531 0.691611 0.920274
Si Si4 0.125733 0.022961 0.969106
Si Si5 0.566624 0.033962 0.029967
Si Si6 0.324457 0.299043 0.433785
Si Si7 0.854349 0.521283 0.018740
Si Si8 0.050019 0.806223 0.468519
O O1 0.845784 0.251257 0.686300
O O2 0.838828 0.184346 0.060584
O O3 0.624649 0.121856 0.970684
O O4 0.529617 0.260559 0.190246
O O5 0.347938 0.497401 0.816130
O O6 0.341557 0.376918 0.553507
O O7 0.058681 0.477042 0.834941
O O8 0.891802 0.610377 0.976284
O O9 0.189475 0.678731 0.853884
O O10 0.032474 0.739365 0.659622
O O11 0.122494 0.113079 0.980745
O O12 0.045344 0.003246 0.793101
O O13 0.335949 0.983096 0.757512
O O14 0.625873 0.001046 0.224805
O O15 0.204497 0.229938 0.652471
O O16 0.769603 0.497473 0.852715
#
# Coordination Sequence:
#
# PCOD9131488 Si02
#       8
#     2   2   2   2   2   2   2   2
#     4  11  28  45  67 110 146 185 237 301 363 431
#     4  10  19  37  67 101 132 184 246 291 346 419
#     4  11  25  43  71 102 144 190 236 297 366 429
#     4  10  23  43  72 102 134 183 244 285 350 428
#     4  10  23  44  70  97 138 187 235 290 356 422
#     4  11  23  44  72  98 143 192 236 296 363 430
#     4  10  19  38  69  99 135 186 241 292 351 418
#     4  11  26  44  72 103 142 187 239 296 363 433
#
# _framework density 21.488185999999999
#
# number of rings (size 3 to 8) (size 9 to 14) (size 15 to 20)
#    0.000    1.500    2.500    3.000   10.500    2.000 
#    0.000    1.250    0.000    0.000    0.000    0.000 
#    0.000    0.000    0.000    0.000    0.000    0.000 
#
# Total GULP energy -89117.520814 kJ/mol
# GULP energy per Si atom -5569.845051 kJ/mol
# Density = 2.143928 g / cm^3
# Si number density = 21.488186 Si / 1000 Ang^3
#
#
#
# Elastic Constant Matrix: (Units=GPa)
#
#
# Indices 1 2 3 4 5 6 
#
# 1 38.6649 8.3017 73.2760 0.0000 4.0975 0.0000
# 2 8.3017 136.5628 -6.1607 0.0000 9.3177 0.0000
# 3 73.2760 -6.1607 63.5415 0.0000 10.9981 0.0000
# 4 0.0000 0.0000 0.0000 30.1136 0.0000 17.3250
# 5 4.0975 9.3177 10.9981 0.0000 60.2880 0.0000
# 6 0.0000 0.0000 0.0000 17.3250 0.0000 34.0887
#
#
#
# Elastic Compliance Matrix: (Units=1/GPa)
#
#
# Indices 1 2 3 4 5 6 
#
# 1 -0.020310 0.002564 0.024266 0.000000 -0.003443 0.000000
# 2 0.002564 0.007132 -0.002111 0.000000 -0.000891 0.000000
# 3 0.024266 -0.002111 -0.012620 0.000000 0.000979 0.000000
# 4 0.000000 0.000000 0.000000 0.046930 0.000000 -0.023851
# 5 -0.003443 -0.000891 0.000979 0.000000 0.016780 0.000000
# 6 0.000000 0.000000 0.000000 -0.023851 0.000000 0.041457
#
#
# Mechanical properties :
#
#
# Convention : Reuss Voigt Hill
#
# Bulk Modulus (GPa) = 42.30064 43.28925 42.79495
# Shear Modulus (GPa) = 132.23026 35.78820 84.00923
#
# Velocity S-wave (km/s) = 7.85302 4.08546 6.25943
# Velocity P-wave (km/s) = 10.09726 6.51490 8.49702
#
# Compressibility (1/GPa) = 0.02364030
#
# Stress axis : x y z
#
# Youngs Moduli (GPa) = -49.23734 140.20649 -79.24148
#
# Poissons Ratio (x) = -0.35952 1.92285
# Poissons Ratio (y) = 0.12626 -0.16730
# Poissons Ratio (z) = 1.19478 0.29601
#
# Static dielectric constant tensor:
#      x y z
#    x 1.830390 0.000000 0.033850 
#    y 0.000000 1.725320 0.000000 
#    z 0.033850 0.000000 1.911600 
# 
# From -- ./inp_files/761.got.cif
#   From: 2010.05.17/outbox.ucp.g08.bks.cvg/sg7_cif.got.tgz:761.got - 2010.06.11 12:59:57.
