data_PCOD9131931
_publ_section_title
;
Structure prediction by ZEFSAII (Michael W. Deem and Ramdas Pophale) SiO2 
 PCOD9131931
Probable space group: C M
;
_chemical_formula_sum "Si O2"
_cell_formula_units_Z 32
_cell_length_a 21.590343
_cell_length_b 7.748366
_cell_length_c 7.964992
_cell_angle_alpha 90.000000
_cell_angle_beta 115.474616
_cell_angle_gamma 90.000000
_cell_volume 1202.915116
_symmetry_space_group_name_H-M "C M"
_symmetry_group_IT_number 8
_symmetry_cell_setting 'monoclinic'
loop_
_space_group_symop_operation_xyz
x,y,z
x,-y,z
1/2+x,1/2+y,z
1/2+x,1/2-y,z
loop_
_atom_site_type_symbol
_atom_site_label
_atom_site_fract_x
_atom_site_fract_y
_atom_site_fract_z
Si Si1 0.122210 0.199568 0.940180
Si Si2 0.990741 0.788060 0.951990
Si Si3 0.531845 0.200087 0.523679
Si Si4 0.373210 0.703346 0.589131
Si Si5 0.245838 0.702249 0.263547
Si Si6 0.656599 0.703938 0.483326
Si Si7 0.405919 0.203170 0.184916
Si Si8 0.287090 0.211004 0.825514
O O1 0.078405 0.212897 0.719615
O O2 0.068133 0.272012 0.012776
O O3 0.132677 0.000000 0.988425
O O4 0.198420 0.271944 0.046187
O O5 0.946342 0.728175 0.737504
O O6 0.990602 0.000000 0.957779
O O7 0.952134 0.722450 0.070262
O O8 0.583085 0.211359 0.423444
O O9 0.457229 0.276342 0.387309
O O10 0.523564 0.000000 0.556007
O O11 0.382975 0.500000 0.573440
O O12 0.322474 0.777176 0.385709
O O13 0.328521 0.730660 0.707477
O O14 0.253939 0.500000 0.296696
O O15 0.197239 0.768075 0.358005
O O16 0.645719 0.500000 0.488428
O O17 0.709885 0.764726 0.690504
O O18 0.398147 0.000000 0.208161
O O19 0.332506 0.275452 0.036362
O O20 0.287014 0.000000 0.832577
#
# Coordination Sequence:
#
# PCOD9131931 Si02
#       8
#     4   4   4   4   4   4   4   4
#     4  11  23  37  52  72 102 138 175 214 256 303
#     4   9  18  33  54  78 102 130 166 207 251 300
#     4  11  23  37  52  72 102 138 175 214 256 303
#     4   8  15  29  50  76 103 129 161 204 250 296
#     4  10  19  33  55  80 106 135 169 209 252 301
#     4  10  19  33  55  80 106 135 169 209 252 301
#     4   9  18  33  54  78 102 130 166 207 251 300
#     4   8  15  29  50  76 103 129 161 204 250 296
#
# _framework density 26.602042000000001
#
# number of rings (size 3 to 8) (size 9 to 14) (size 15 to 20)
#    0.000    2.500    0.000    2.250    0.000    5.000 
#    0.000    1.250    0.000    3.000    0.000    0.000 
#    0.000    0.000    0.000    0.000    0.000    0.000 
#
# Total GULP energy -89423.990416 kJ/mol
# GULP energy per Si atom -5588.999401 kJ/mol
# Density = 2.654149 g / cm^3
# Si number density = 26.602042 Si / 1000 Ang^3
#
#
#
# Elastic Constant Matrix: (Units=GPa)
#
#
# Indices 1 2 3 4 5 6 
#
# 1 114.4576 8.2407 41.3822 0.0000 51.2013 0.0000
# 2 8.2407 54.1370 6.3215 0.0000 20.0534 0.0000
# 3 41.3822 6.3215 200.8124 0.0000 39.6616 0.0000
# 4 0.0000 0.0000 0.0000 25.1704 0.0000 -3.6446
# 5 51.2013 20.0534 39.6616 0.0000 61.1480 0.0000
# 6 0.0000 0.0000 0.0000 -3.6446 0.0000 24.2116
#
#
#
# Elastic Compliance Matrix: (Units=1/GPa)
#
#
# Indices 1 2 3 4 5 6 
#
# 1 0.014333 0.002496 -0.000574 0.000000 -0.012448 0.000000
# 2 0.002496 0.021574 0.000707 0.000000 -0.009624 0.000000
# 3 -0.000574 0.000707 0.005765 0.000000 -0.003491 0.000000
# 4 0.000000 0.000000 0.000000 0.040615 0.000000 0.006114
# 5 -0.012448 -0.009624 -0.003491 0.000000 0.032198 0.000000
# 6 0.000000 0.000000 0.000000 0.006114 0.000000 0.042223
#
#
# Mechanical properties :
#
#
# Convention : Reuss Voigt Hill
#
# Bulk Modulus (GPa) = 21.30740 53.47730 37.39235
# Shear Modulus (GPa) = 29.92372 43.00351 36.46361
#
# Velocity S-wave (km/s) = 3.35754 4.02500 3.70632
# Velocity P-wave (km/s) = 4.80186 6.46120 5.69232
#
# Compressibility (1/GPa) = 0.04693206
#
# Stress axis : x y z
#
# Youngs Moduli (GPa) = 69.76870 46.35199 173.45378
#
# Poissons Ratio (x) = -0.11571 0.09951
# Poissons Ratio (y) = -0.17416 -0.12268
# Poissons Ratio (z) = 0.04002 -0.03278
#
# Static dielectric constant tensor:
#      x y z
#    x 2.122660 0.000000 -0.057840 
#    y 0.000000 1.946480 0.000000 
#    z -0.057840 0.000000 2.256420 
# 
# From -- ./inp_files/17351.got.cif
#   From: 2010.05.17/outbox.cif.g08.bks.cpg/sg8_9_cif.got.tgz:17351.got - 2010.06.03 19:46:02.
