data_PCOD9131826
_publ_section_title
;
Structure prediction by ZEFSAII (Michael W. Deem and Ramdas Pophale) SiO2 
 PCOD9131826
Probable space group: C M
;
_chemical_formula_sum "Si O2"
_cell_formula_units_Z 24
_cell_length_a 18.773185
_cell_length_b 9.216243
_cell_length_c 16.412776
_cell_angle_alpha 90.000000
_cell_angle_beta 150.152428
_cell_angle_gamma 90.000000
_cell_volume 1413.307205
_symmetry_space_group_name_H-M "C M"
_symmetry_group_IT_number 8
_symmetry_cell_setting 'monoclinic'
loop_
_space_group_symop_operation_xyz
x,y,z
x,-y,z
1/2+x,1/2+y,z
1/2+x,1/2-y,z
loop_
_atom_site_type_symbol
_atom_site_label
_atom_site_fract_x
_atom_site_fract_y
_atom_site_fract_z
Si Si1 0.763770 0.174947 0.546180
Si Si2 0.661832 0.167996 0.689536
Si Si3 0.479162 0.833452 0.339223
Si Si4 0.905559 0.325331 0.841867
Si Si5 0.236762 0.673275 0.184340
Si Si6 0.410153 0.673310 0.519284
O O1 0.595472 0.214164 0.387523
O O2 0.847846 0.259811 0.699840
O O3 0.832484 0.205149 0.527070
O O4 0.771974 0.000000 0.569467
O O5 0.571044 0.172224 0.514611
O O6 0.805193 0.256708 0.812172
O O7 0.558225 0.242267 0.652405
O O8 0.690946 0.000000 0.736952
O O9 0.337768 0.741982 0.215541
O O10 0.439242 0.000000 0.284327
O O11 0.892533 0.500000 0.829504
O O12 0.071409 0.283835 0.016210
O O13 0.243355 0.500000 0.183216
O O14 0.306094 0.711634 0.340538
O O15 0.436795 0.500000 0.541534
#
# Coordination Sequence:
#
# PCOD9131826 Si02
#       6
#     4   4   4   4   4   4
#     4   9  18  32  50  72  95 122 158 196 233 276
#     4   9  17  30  48  70  95 123 158 194 230 279
#     4   8  15  28  46  67  91 121 156 190 226 273
#     4  10  19  31  48  70  97 127 158 192 232 279
#     4   9  18  31  48  70  94 122 156 193 233 278
#     4   9  17  32  52  71  94 123 156 195 236 277
#
# _framework density 16.981445000000001
#
# number of rings (size 3 to 8) (size 9 to 14) (size 15 to 20)
#    0.000    3.000    0.000    2.000    0.000    6.000 
#    0.000    1.667    0.000    4.000    0.000    0.000 
#    0.000    0.000    0.000    0.000    0.000    0.000 
#
# Total GULP energy -66840.465541 kJ/mol
# GULP energy per Si atom -5570.038795 kJ/mol
# Density = 1.694279 g / cm^3
# Si number density = 16.981445 Si / 1000 Ang^3
#
#
#
# Elastic Constant Matrix: (Units=GPa)
#
#
# Indices 1 2 3 4 5 6 
#
# 1 140.6570 56.6337 58.0014 0.0000 44.0415 0.0000
# 2 56.6337 52.8526 51.3549 0.0000 23.9058 0.0000
# 3 58.0014 51.3549 99.6058 0.0000 43.0785 0.0000
# 4 0.0000 0.0000 0.0000 23.1666 0.0000 9.3934
# 5 44.0415 23.9058 43.0785 0.0000 31.7193 0.0000
# 6 0.0000 0.0000 0.0000 9.3934 0.0000 27.2566
#
#
#
# Elastic Compliance Matrix: (Units=1/GPa)
#
#
# Indices 1 2 3 4 5 6 
#
# 1 0.017575 -0.016311 0.008271 0.000000 -0.023342 0.000000
# 2 -0.016311 0.053370 -0.025246 0.000000 0.016711 0.000000
# 3 0.008271 -0.025246 0.036298 0.000000 -0.041753 0.000000
# 4 0.000000 0.000000 0.000000 0.050177 0.000000 -0.017292
# 5 -0.023342 0.016711 -0.041753 0.000000 0.108048 0.000000
# 6 0.000000 0.000000 0.000000 -0.017292 0.000000 0.042648
#
#
# Mechanical properties :
#
#
# Convention : Reuss Voigt Hill
#
# Bulk Modulus (GPa) = 24.58768 69.45505 47.02137
# Shear Modulus (GPa) = 12.87848 24.90353 18.89101
#
# Velocity S-wave (km/s) = 2.75687 3.83366 3.33896
# Velocity P-wave (km/s) = 4.96431 7.78366 6.52800
#
# Compressibility (1/GPa) = 0.04067077
#
# Stress axis : x y z
#
# Youngs Moduli (GPa) = 56.89885 18.73699 27.55006
#
# Poissons Ratio (x) = 0.30561 -0.22786
# Poissons Ratio (y) = 0.92806 0.69553
# Poissons Ratio (z) = -0.47059 0.47303
#
# Static dielectric constant tensor:
#      x y z
#    x 1.581030 0.000000 0.010740 
#    y 0.000000 1.572580 0.000000 
#    z 0.010740 0.000000 1.565710 
# 
# From -- ./inp_files/14195.got.cif
#   From: 2010.05.17/outbox.cif.g08.bks.cpg/sg8_8_cif.got.tgz:14195.got - 2010.06.03 19:46:02.
