data_PCOD9131961
_publ_section_title
;
Structure prediction by ZEFSAII (Michael W. Deem and Ramdas Pophale) SiO2 
 PCOD9131961
Probable space group: C M
;
_chemical_formula_sum "Si O2"
_cell_formula_units_Z 32
_cell_length_a 20.665738
_cell_length_b 17.776540
_cell_length_c 12.300967
_cell_angle_alpha 90.000000
_cell_angle_beta 22.727346
_cell_angle_gamma 90.000000
_cell_volume 1745.879117
_symmetry_space_group_name_H-M "C M"
_symmetry_group_IT_number 8
_symmetry_cell_setting 'monoclinic'
loop_
_space_group_symop_operation_xyz
x,y,z
x,-y,z
1/2+x,1/2+y,z
1/2+x,1/2-y,z
loop_
_atom_site_type_symbol
_atom_site_label
_atom_site_fract_x
_atom_site_fract_y
_atom_site_fract_z
Si Si1 0.396000 0.588987 0.172830
Si Si2 0.927453 0.664272 0.599196
Si Si3 0.306736 0.313666 0.517899
Si Si4 0.761718 0.910388 0.146090
Si Si5 0.904466 0.089417 0.700533
Si Si6 0.098388 0.812551 0.239258
Si Si7 0.275116 0.136621 0.603232
Si Si8 0.613209 0.913920 0.979428
O O1 0.356897 0.500000 0.252126
O O2 0.325403 0.643801 0.375376
O O3 0.325581 0.613752 0.164812
O O4 0.595968 0.599710 0.863570
O O5 0.829418 0.633638 0.645624
O O6 0.067800 0.609094 0.427757
O O7 0.032460 0.735369 0.392995
O O8 0.787497 0.686764 0.904161
O O9 0.478415 0.325671 0.320549
O O10 0.273615 0.224471 0.569228
O O11 0.164472 0.355164 0.808203
O O12 0.779915 0.000000 0.114916
O O13 0.870110 0.881270 0.875266
O O14 0.733919 0.103263 0.895503
O O15 0.052566 0.126406 0.401906
O O16 0.929619 0.000000 0.665119
O O17 0.422896 0.096243 0.309012
O O18 0.648035 0.000000 0.892406
#
# Coordination Sequence:
#
# PCOD9131961 Si02
#       8
#     4   4   4   4   4   4   4   4
#     4  11  23  41  60  87 124 162 199 245 300 358
#     4  11  21  37  60  87 119 150 201 244 298 350
#     4  10  21  37  58  88 122 152 195 245 304 345
#     4  10  22  40  60  83 123 164 196 243 300 355
#     4   9  18  35  56  84 118 153 192 239 295 347
#     4  10  21  35  61  90 116 152 192 256 294 352
#     4  11  21  36  62  89 115 154 198 251 289 358
#     4  10  19  33  57  86 115 149 193 243 294 345
#
# _framework density 18.328876000000001
#
# number of rings (size 3 to 8) (size 9 to 14) (size 15 to 20)
#    0.000    1.750    2.500    2.250    7.000    1.500 
#    4.500    1.250    0.000    3.000    0.000    0.000 
#    0.000    0.000    0.000    0.000    0.000    0.000 
#
# Total GULP energy -89308.608475 kJ/mol
# GULP energy per Si atom -5581.788030 kJ/mol
# Density = 1.828716 g / cm^3
# Si number density = 18.328876 Si / 1000 Ang^3
#
#
#
# Elastic Constant Matrix: (Units=GPa)
#
#
# Indices 1 2 3 4 5 6 
#
# 1 97.6374 28.8381 23.1976 -0.0004 14.9366 0.0011
# 2 28.8381 33.6623 -4.2904 0.0051 9.0218 0.0002
# 3 23.1976 -4.2904 70.0400 0.0031 10.4545 0.0002
# 4 -0.0004 0.0051 0.0031 26.2186 -0.0084 2.3043
# 5 14.9366 9.0218 10.4545 -0.0084 19.7703 -0.0004
# 6 0.0011 0.0002 0.0002 2.3043 -0.0004 22.4189
#
#
#
# Elastic Compliance Matrix: (Units=1/GPa)
#
#
# Indices 1 2 3 4 5 6 
#
# 1 0.016113 -0.013776 -0.005756 0.000003 -0.002844 -0.000001
# 2 -0.013776 0.047147 0.009889 -0.000016 -0.016336 0.000001
# 3 -0.005756 0.009889 0.018255 -0.000007 -0.009817 0.000001
# 4 0.000003 -0.000016 -0.000007 0.038489 0.000025 -0.003956
# 5 -0.002844 -0.016336 -0.009817 0.000025 0.065375 -0.000001
# 6 -0.000001 0.000001 0.000001 -0.003956 -0.000001 0.045012
#
#
# Mechanical properties :
#
#
# Convention : Reuss Voigt Hill
#
# Bulk Modulus (GPa) = 16.06944 32.98114 24.52529
# Shear Modulus (GPa) = 18.48973 23.92118 21.20546
#
# Velocity S-wave (km/s) = 3.17957 3.61655 3.40508
# Velocity P-wave (km/s) = 4.71867 5.95587 5.37300
#
# Compressibility (1/GPa) = 0.06222991
#
# Stress axis : x y z
#
# Youngs Moduli (GPa) = 62.06020 21.21024 54.77894
#
# Poissons Ratio (x) = 0.29219 0.31532
# Poissons Ratio (y) = 0.85492 -0.54171
# Poissons Ratio (z) = 0.35723 -0.20975
#
# Static dielectric constant tensor:
#      x y z
#    x 1.628140 0.000000 0.019260 
#    y 0.000000 1.627220 0.000000 
#    z 0.019260 0.000000 1.617830 
# 
# From -- ./inp_files/24188.got.cif
#   From: 2010.05.17/outbox.cif.g08.bks.cpg/sg8_13_cif.got.tgz:24188.got - 2010.06.03 19:46:02.
