data_PCOD9131648
_publ_section_title
;
Structure prediction by ZEFSAII (Michael W. Deem and Ramdas Pophale) SiO2 
 PCOD9131648
Probable space group: C M
;
_chemical_formula_sum "Si O2"
_cell_formula_units_Z 32
_cell_length_a 5.343066
_cell_length_b 31.235543
_cell_length_c 9.100838
_cell_angle_alpha 90.000000
_cell_angle_beta 98.745952
_cell_angle_gamma 90.000000
_cell_volume 1501.210276
_symmetry_space_group_name_H-M "C M"
_symmetry_group_IT_number 8
_symmetry_cell_setting 'monoclinic'
loop_
_space_group_symop_operation_xyz
x,y,z
x,-y,z
1/2+x,1/2+y,z
1/2+x,1/2-y,z
loop_
_atom_site_type_symbol
_atom_site_label
_atom_site_fract_x
_atom_site_fract_y
_atom_site_fract_z
Si Si1 0.863710 0.047951 0.538930
Si Si2 0.454049 0.598598 0.810154
Si Si3 0.987596 0.451466 0.264691
Si Si4 0.561066 0.639289 0.434803
Si Si5 0.932179 0.645813 0.713465
Si Si6 0.929899 0.739287 0.851821
Si Si7 0.839183 0.774255 0.521186
Si Si8 0.464121 0.407165 0.159037
O O1 0.894054 0.055167 0.714999
O O2 0.582630 0.050462 0.442961
O O3 0.990006 0.091046 0.483395
O O4 0.958436 0.000000 0.506821
O O5 0.723193 0.616752 0.778230
O O6 0.213874 0.627901 0.745678
O O7 0.456165 0.596372 0.984537
O O8 0.022361 0.500000 0.217587
O O9 0.190932 0.423080 0.193297
O O10 0.699000 0.438369 0.217969
O O11 0.826784 0.649226 0.537827
O O12 0.380914 0.677169 0.475623
O O13 0.540392 0.635160 0.258073
O O14 0.921818 0.691446 0.791217
O O15 0.200800 0.750923 0.937518
O O16 0.887182 0.769103 0.702143
O O17 0.064991 0.746068 0.470905
#
# Coordination Sequence:
#
# PCOD9131648 Si02
#       8
#     4   4   4   4   4   4   4   4
#     4   9  21  39  62  93 125 161 209 262 312 363
#     4  11  24  39  59  87 128 168 202 249 313 379
#     4  10  21  40  64  88 118 159 214 263 302 359
#     4  10  21  38  65  92 123 164 208 268 312 362
#     4  11  21  37  62  88 118 159 206 257 306 362
#     4  10  18  31  55  91 115 142 202 262 301 359
#     4  10  20  32  57  94 119 148 206 265 309 367
#     4  11  23  40  60  91 125 169 205 250 316 379
#
# _framework density 21.316134000000002
#
# number of rings (size 3 to 8) (size 9 to 14) (size 15 to 20)
#    0.000    1.750    2.500    2.625    5.250    3.500 
#    0.000    5.000    0.000    4.500    0.000    0.000 
#    0.000    0.000    0.000    0.000    0.000    0.000 
#
# Total GULP energy -89246.613073 kJ/mol
# GULP energy per Si atom -5577.913317 kJ/mol
# Density = 2.126762 g / cm^3
# Si number density = 21.316134 Si / 1000 Ang^3
#
#
#
# Elastic Constant Matrix: (Units=GPa)
#
#
# Indices 1 2 3 4 5 6 
#
# 1 97.6844 29.0397 11.1362 0.0000 3.3142 0.0000
# 2 29.0397 98.6894 17.0614 0.0000 -0.5845 0.0000
# 3 11.1362 17.0614 100.1815 0.0000 0.5541 0.0000
# 4 0.0000 0.0000 0.0000 4.6772 0.0000 -6.0501
# 5 3.3142 -0.5845 0.5541 0.0000 18.3900 0.0000
# 6 0.0000 0.0000 0.0000 -6.0501 0.0000 25.3086
#
#
#
# Elastic Compliance Matrix: (Units=1/GPa)
#
#
# Indices 1 2 3 4 5 6 
#
# 1 0.011350 -0.003231 -0.000700 0.000000 -0.002127 0.000000
# 2 -0.003231 0.011363 -0.001581 0.000000 0.000991 0.000000
# 3 -0.000700 -0.001581 0.010330 0.000000 -0.000235 0.000000
# 4 0.000000 0.000000 0.000000 0.309508 0.000000 0.073988
# 5 -0.002127 0.000991 -0.000235 0.000000 0.054799 0.000000
# 6 0.000000 0.000000 0.000000 0.073988 0.000000 0.057199
#
#
# Mechanical properties :
#
#
# Convention : Reuss Voigt Hill
#
# Bulk Modulus (GPa) = 45.41710 45.66998 45.54354
# Shear Modulus (GPa) = 10.57276 25.62970 18.10123
#
# Velocity S-wave (km/s) = 2.22952 3.47127 2.91723
# Velocity P-wave (km/s) = 5.28965 6.12682 5.72356
#
# Compressibility (1/GPa) = 0.02201814
#
# Stress axis : x y z
#
# Youngs Moduli (GPa) = 88.10905 88.00573 96.80283
#
# Poissons Ratio (x) = 0.28437 0.06772
# Poissons Ratio (y) = 0.28471 0.15309
# Poissons Ratio (z) = 0.06164 0.13918
#
# Static dielectric constant tensor:
#      x y z
#    x 1.837840 0.000000 -0.026780 
#    y 0.000000 1.795950 0.000000 
#    z -0.026780 0.000000 1.811840 
# 
# From -- ./inp_files/7206.got.cif
#   From: 2010.05.17/outbox.cif.g08.bks.cpg/sg8_4_cif.got.tgz:7206.got - 2010.06.03 19:46:02.
