data_PCOD9131664
_publ_section_title
;
Structure prediction by ZEFSAII (Michael W. Deem and Ramdas Pophale) SiO2 
 PCOD9131664
Probable space group: C M
;
_chemical_formula_sum "Si O2"
_cell_formula_units_Z 32
_cell_length_a 29.486594
_cell_length_b 10.598579
_cell_length_c 5.163326
_cell_angle_alpha 90.000000
_cell_angle_beta 79.707915
_cell_angle_gamma 90.000000
_cell_volume 1587.658352
_symmetry_space_group_name_H-M "C M"
_symmetry_group_IT_number 8
_symmetry_cell_setting 'monoclinic'
loop_
_space_group_symop_operation_xyz
x,y,z
x,-y,z
1/2+x,1/2+y,z
1/2+x,1/2-y,z
loop_
_atom_site_type_symbol
_atom_site_label
_atom_site_fract_x
_atom_site_fract_y
_atom_site_fract_z
Si Si1 0.572660 0.713960 0.634380
Si Si2 0.993387 0.640829 0.885369
Si Si3 0.673078 0.653388 0.364932
Si Si4 0.023046 0.864700 0.170892
Si Si5 0.817819 0.643916 0.021535
Si Si6 0.366223 0.642381 0.244101
Si Si7 0.227486 0.152072 0.806825
Si Si8 0.906352 0.747662 0.714288
O O1 0.544453 0.843187 0.711323
O O2 0.625199 0.715285 0.498472
O O3 0.544290 0.648392 0.432145
O O4 0.564132 0.642074 0.914300
O O5 0.984438 0.500000 0.983867
O O6 0.955033 0.684129 0.720051
O O7 0.993589 0.744351 0.113457
O O8 0.667258 0.500000 0.379772
O O9 0.689552 0.688304 0.061202
O O10 0.711888 0.690236 0.536645
O O11 0.999194 0.000000 0.170439
O O12 0.808738 0.500000 0.123893
O O13 0.896562 0.848474 0.952275
O O14 0.776671 0.687897 0.876497
O O15 0.865469 0.647347 0.811681
O O16 0.349097 0.500000 0.299312
O O17 0.327473 0.249563 0.230383
O O18 0.396615 0.687708 0.453278
O O19 0.228503 0.000000 0.800179
#
# Coordination Sequence:
#
# PCOD9131664 Si02
#       8
#     4   4   4   4   4   4   4   4
#     4  10  22  36  58  86 118 155 196 244 298 350
#     4  10  25  43  61  88 121 162 201 242 298 359
#     4  10  18  32  53  83 119 152 189 243 300 347
#     4  10  21  37  59  87 115 151 196 246 293 346
#     4   9  21  38  61  92 123 155 198 247 297 352
#     4  10  23  41  62  88 120 159 200 243 294 350
#     4   9  19  31  54  85 117 150 192 243 295 346
#     4  10  23  40  62  87 117 160 202 236 295 350
#
# _framework density 20.155467999999999
#
# number of rings (size 3 to 8) (size 9 to 14) (size 15 to 20)
#    1.500    0.750    0.000    2.625    3.500    3.500 
#    0.000    0.000    0.000    1.500    0.000    0.000 
#    0.000    0.000    0.000    0.000    0.000    0.000 
#
# Total GULP energy -89094.307027 kJ/mol
# GULP energy per Si atom -5568.394189 kJ/mol
# Density = 2.010959 g / cm^3
# Si number density = 20.155468 Si / 1000 Ang^3
#
#
#
# Elastic Constant Matrix: (Units=GPa)
#
#
# Indices 1 2 3 4 5 6 
#
# 1 70.8605 17.2815 -10.7305 0.0000 5.1986 0.0000
# 2 17.2815 107.7599 9.3658 0.0000 18.5428 0.0000
# 3 -10.7305 9.3658 68.7541 0.0000 8.9827 0.0000
# 4 0.0000 0.0000 0.0000 8.0619 0.0000 -3.3471
# 5 5.1986 18.5428 8.9827 0.0000 25.1272 0.0000
# 6 0.0000 0.0000 0.0000 -3.3471 0.0000 6.9694
#
#
#
# Elastic Compliance Matrix: (Units=1/GPa)
#
#
# Indices 1 2 3 4 5 6 
#
# 1 0.015316 -0.002277 0.003037 0.000000 -0.002574 0.000000
# 2 -0.002277 0.010981 -0.000896 0.000000 -0.007312 0.000000
# 3 0.003037 -0.000896 0.015878 0.000000 -0.005643 0.000000
# 4 0.000000 0.000000 0.000000 0.154932 0.000000 0.074406
# 5 -0.002574 -0.007312 -0.005643 0.000000 0.047743 0.000000
# 6 0.000000 0.000000 0.000000 0.074406 0.000000 0.179219
#
#
# Mechanical properties :
#
#
# Convention : Reuss Voigt Hill
#
# Bulk Modulus (GPa) = 23.86481 31.02314 27.44397
# Shear Modulus (GPa) = 11.40745 23.46221 17.43483
#
# Velocity S-wave (km/s) = 2.38160 3.41554 2.94431
# Velocity P-wave (km/s) = 4.40781 5.56595 5.02039
#
# Compressibility (1/GPa) = 0.04190270
#
# Stress axis : x y z
#
# Youngs Moduli (GPa) = 65.28975 91.06451 62.98064
#
# Poissons Ratio (x) = 0.20738 -0.19127
# Poissons Ratio (y) = 0.14869 0.05643
# Poissons Ratio (z) = -0.19828 0.08159
#
# Static dielectric constant tensor:
#      x y z
#    x 1.732760 0.000000 -0.024950 
#    y 0.000000 1.702170 0.000000 
#    z -0.024950 0.000000 1.729150 
# 
# From -- ./inp_files/6407.got.cif
#   From: 2010.05.17/outbox.cif.g08.bks.cpg/sg8_4_cif.got.tgz:6407.got - 2010.06.03 19:46:02.
