data_PCOD9131456
_publ_section_title
;
Structure prediction by ZEFSAII (Michael W. Deem and Ramdas Pophale) SiO2 
 PCOD9131456
Probable space group: P C
;
_chemical_formula_sum "Si O2"
_cell_formula_units_Z 8
_cell_length_a 5.264084
_cell_length_b 13.343880
_cell_length_c 5.353191
_cell_angle_alpha 90.000000
_cell_angle_beta 124.187524
_cell_angle_gamma 90.000000
_cell_volume 311.049674
_symmetry_space_group_name_H-M "P C"
_symmetry_group_IT_number 7
_symmetry_cell_setting 'monoclinic'
loop_
_space_group_symop_operation_xyz
x,y,z
x,-y,1/2+z
loop_
_atom_site_type_symbol
_atom_site_label
_atom_site_fract_x
_atom_site_fract_y
_atom_site_fract_z
Si Si1 0.627670 0.975731 0.486550
Si Si2 0.322224 0.565171 0.365702
Si Si3 0.796758 0.701750 0.894775
Si Si4 0.354923 0.829124 0.007968
O O1 0.369555 0.063195 0.375775
O O2 0.802381 0.986574 0.839561
O O3 0.496585 0.867417 0.349984
O O4 0.338716 0.487957 0.605608
O O5 0.595769 0.641703 0.581340
O O6 0.003106 0.625621 0.174237
O O7 0.576299 0.760211 0.964421
O O8 0.043707 0.772228 0.892339
#
# Coordination Sequence:
#
# PCOD9131456 Si02
#       4
#     2   2   2   2
#     4   8  20  46  68 110 162 208 248 314 376 450
#     4  12  29  57  78 116 154 204 254 341 417 460
#     4  12  28  50  86 116 156 204 274 322 380 498
#     4  10  25  47  74 120 154 212 258 311 385 448
#
# _framework density 25.719363999999999
#
# number of rings (size 3 to 8) (size 9 to 14) (size 15 to 20)
#    1.500    0.000    0.000    3.000    3.500    8.000 
#    0.000    0.000    0.000    0.000    0.000    0.000 
#    0.000    0.000    0.000    0.000    0.000    0.000 
#
# Total GULP energy -44754.831217 kJ/mol
# GULP energy per Si atom -5594.353902 kJ/mol
# Density = 2.566083 g / cm^3
# Si number density = 25.719364 Si / 1000 Ang^3
#
#
#
# Elastic Constant Matrix: (Units=GPa)
#
#
# Indices 1 2 3 4 5 6 
#
# 1 149.8885 59.8562 48.1366 0.0000 1.7255 0.0000
# 2 59.8562 127.2161 36.9354 0.0000 15.1464 0.0000
# 3 48.1366 36.9354 148.3373 0.0000 1.7185 0.0000
# 4 0.0000 0.0000 0.0000 47.3012 0.0000 3.3637
# 5 1.7255 15.1464 1.7185 0.0000 44.5591 0.0000
# 6 0.0000 0.0000 0.0000 3.3637 0.0000 34.9952
#
#
#
# Elastic Compliance Matrix: (Units=1/GPa)
#
#
# Indices 1 2 3 4 5 6 
#
# 1 0.008748 -0.003671 -0.001936 0.000000 0.000984 0.000000
# 2 -0.003671 0.010378 -0.001354 0.000000 -0.003333 0.000000
# 3 -0.001936 -0.001354 0.007704 0.000000 0.000238 0.000000
# 4 0.000000 0.000000 0.000000 0.021287 0.000000 -0.002046
# 5 0.000984 -0.003333 0.000238 0.000000 0.023528 0.000000
# 6 0.000000 0.000000 0.000000 -0.002046 0.000000 0.028772
#
#
# Mechanical properties :
#
#
# Convention : Reuss Voigt Hill
#
# Bulk Modulus (GPa) = 77.47485 79.47759 78.47622
# Shear Modulus (GPa) = 42.14369 44.07202 43.10785
#
# Velocity S-wave (km/s) = 4.05235 4.14402 4.09844
# Velocity P-wave (km/s) = 7.21692 7.33936 7.27840
#
# Compressibility (1/GPa) = 0.01290741
#
# Stress axis : x y z
#
# Youngs Moduli (GPa) = 114.31086 96.35848 129.80088
#
# Poissons Ratio (x) = 0.35374 0.25131
# Poissons Ratio (y) = 0.41964 0.17577
# Poissons Ratio (z) = 0.22132 0.13049
#
# Static dielectric constant tensor:
#      x y z
#    x 1.970780 0.000000 -0.033140 
#    y 0.000000 2.093000 0.000000 
#    z -0.033140 0.000000 2.057930 
# 
# From -- ./inp_files/84.got.cif
#   From: 2010.05.17/outbox.cif.g08.bks.cpg/sg7_cif.got.tgz:84.got - 2010.06.03 19:44:50.
