data_PCOD9131617
_publ_section_title
;
Structure prediction by ZEFSAII (Michael W. Deem and Ramdas Pophale) SiO2 
 PCOD9131617
Probable space group: C M
;
_chemical_formula_sum "Si O2"
_cell_formula_units_Z 32
_cell_length_a 20.965413
_cell_length_b 8.127445
_cell_length_c 12.659277
_cell_angle_alpha 90.000000
_cell_angle_beta 53.741651
_cell_angle_gamma 90.000000
_cell_volume 1739.380094
_symmetry_space_group_name_H-M "C M"
_symmetry_group_IT_number 8
_symmetry_cell_setting 'monoclinic'
loop_
_space_group_symop_operation_xyz
x,y,z
x,-y,z
1/2+x,1/2+y,z
1/2+x,1/2-y,z
loop_
_atom_site_type_symbol
_atom_site_label
_atom_site_fract_x
_atom_site_fract_y
_atom_site_fract_z
Si Si1 0.411460 0.301030 0.002930
Si Si2 0.440927 0.696528 0.533740
Si Si3 0.231118 0.701189 0.210911
Si Si4 0.964344 0.802696 0.176884
Si Si5 0.672807 0.201134 0.501618
Si Si6 0.993514 0.303764 0.706925
Si Si7 0.078943 0.304627 0.240847
Si Si8 0.324960 0.299320 0.471654
O O1 0.410587 0.500000 0.005866
O O2 0.320160 0.245040 0.099704
O O3 0.456538 0.242528 0.064770
O O4 0.452937 0.247913 0.855087
O O5 0.444197 0.500000 0.522793
O O6 0.446512 0.745923 0.649446
O O7 0.516589 0.763233 0.395041
O O8 0.363088 0.752790 0.545477
O O9 0.231403 0.500000 0.209946
O O10 0.203161 0.750016 0.355641
O O11 0.164800 0.757997 0.192682
O O12 0.888234 0.746955 0.320040
O O13 0.041476 0.758862 0.168850
O O14 0.959586 0.000000 0.178723
O O15 0.583948 0.259339 0.609700
O O16 0.737924 0.255648 0.523398
O O17 0.671614 0.000000 0.503596
O O18 0.996983 0.500000 0.699539
O O19 0.083743 0.500000 0.228084
O O20 0.323683 0.500000 0.472100
#
# Coordination Sequence:
#
# PCOD9131617 Si02
#       8
#     4   4   4   4   4   4   4   4
#     4  10  20  36  57  76 102 140 182 218 251 306
#     4  10  19  32  52  78 106 137 175 213 257 311
#     4   9  16  30  54  79 100 133 179 218 250 297
#     4   9  17  31  52  77 103 134 170 214 264 308
#     4   9  15  29  53  78 100 128 174 219 253 297
#     4  11  22  35  53  77 109 141 169 213 271 316
#     4  10  18  30  52  81 108 133 169 218 265 305
#     4   8  14  27  51  78  98 124 170 219 251 290
#
# _framework density 18.397359000000002
#
# number of rings (size 3 to 8) (size 9 to 14) (size 15 to 20)
#    0.000    2.500    2.500    1.875    0.000    0.500 
#    0.000    2.500    0.000   13.500    0.000    0.000 
#    0.000    0.000    0.000    0.000    0.000    0.000 
#
# Total GULP energy -89216.534025 kJ/mol
# GULP energy per Si atom -5576.033377 kJ/mol
# Density = 1.835549 g / cm^3
# Si number density = 18.397359 Si / 1000 Ang^3
#
#
#
# Elastic Constant Matrix: (Units=GPa)
#
#
# Indices 1 2 3 4 5 6 
#
# 1 227.5467 42.4698 133.8602 0.0000 26.0085 0.0000
# 2 42.4698 37.3899 42.1299 0.0000 7.4110 0.0000
# 3 133.8602 42.1299 171.0370 0.0000 20.3526 0.0000
# 4 0.0000 0.0000 0.0000 21.9236 0.0000 2.5499
# 5 26.0085 7.4110 20.3526 0.0000 30.5485 0.0000
# 6 0.0000 0.0000 0.0000 2.5499 0.0000 20.7709
#
#
#
# Elastic Compliance Matrix: (Units=1/GPa)
#
#
# Indices 1 2 3 4 5 6 
#
# 1 0.008592 -0.002769 -0.005704 0.000000 -0.002843 0.000000
# 2 -0.002769 0.038194 -0.006972 0.000000 -0.002264 0.000000
# 3 -0.005704 -0.006972 0.012218 0.000000 -0.001592 0.000000
# 4 0.000000 0.000000 0.000000 0.046274 0.000000 -0.005681
# 5 -0.002843 -0.002264 -0.001592 0.000000 0.036765 0.000000
# 6 0.000000 0.000000 0.000000 -0.005681 0.000000 0.048842
#
#
# Mechanical properties :
#
#
# Convention : Reuss Voigt Hill
#
# Bulk Modulus (GPa) = 35.56830 96.98815 66.27823
# Shear Modulus (GPa) = 21.63137 29.14950 25.39043
#
# Velocity S-wave (km/s) = 3.43269 3.98482 3.71902
# Velocity P-wave (km/s) = 5.92339 8.60260 7.38550
#
# Compressibility (1/GPa) = 0.02811492
#
# Stress axis : x y z
#
# Youngs Moduli (GPa) = 116.38688 26.18190 81.84786
#
# Poissons Ratio (x) = 0.07249 0.46688
# Poissons Ratio (y) = 0.32222 0.57063
# Poissons Ratio (z) = 0.66389 0.18254
#
# Static dielectric constant tensor:
#      x y z
#    x 1.642670 0.000000 -0.012500 
#    y 0.000000 1.659270 0.000000 
#    z -0.012500 0.000000 1.584890 
# 
# From -- ./inp_files/23702.got.cif
#   From: 2010.05.17/outbox.cif.g08.bks.cpg/sg8_12_cif.got.tgz:23702.got - 2010.06.03 19:46:02.
