data_PCOD9131563
_publ_section_title
;
Structure prediction by ZEFSAII (Michael W. Deem and Ramdas Pophale) SiO2 
 PCOD9131563
Probable space group: C M
;
_chemical_formula_sum "Si O2"
_cell_formula_units_Z 32
_cell_length_a 11.580906
_cell_length_b 20.496119
_cell_length_c 7.503535
_cell_angle_alpha 90.000000
_cell_angle_beta 58.895184
_cell_angle_gamma 90.000000
_cell_volume 1524.991102
_symmetry_space_group_name_H-M "C M"
_symmetry_group_IT_number 8
_symmetry_cell_setting 'monoclinic'
loop_
_space_group_symop_operation_xyz
x,y,z
x,-y,z
1/2+x,1/2+y,z
1/2+x,1/2-y,z
loop_
_atom_site_type_symbol
_atom_site_label
_atom_site_fract_x
_atom_site_fract_y
_atom_site_fract_z
Si Si1 0.500000 0.335833 0.262090
Si Si2 0.931662 0.325350 0.728361
Si Si3 0.394231 0.317490 0.734875
Si Si4 0.826374 0.670271 0.402453
Si Si5 0.216126 0.073368 0.991884
Si Si6 0.601514 0.424871 0.678082
Si Si7 0.217147 0.311632 0.377518
Si Si8 0.609933 0.798515 0.064433
O O1 0.463705 0.310042 0.486761
O O2 0.356156 0.349978 0.289533
O O3 0.576425 0.279041 0.089946
O O4 0.595364 0.397230 0.202604
O O5 0.916829 0.251850 0.814832
O O6 0.872712 0.324649 0.572544
O O7 0.842570 0.378341 0.898445
O O8 0.089856 0.338743 0.586883
O O9 0.470515 0.378319 0.762758
O O10 0.232318 0.321157 0.842460
O O11 0.723339 0.610538 0.474792
O O12 0.751394 0.737407 0.409832
O O13 0.964078 0.667262 0.178160
O O14 0.154108 0.074706 0.840507
O O15 0.252731 0.000000 0.008014
O O16 0.577651 0.500000 0.644365
O O17 0.171925 0.311242 0.209980
#
# Coordination Sequence:
#
# PCOD9131563 Si02
#       8
#     4   4   4   4   4   4   4   4
#     4  11  21  35  56  85 116 153 189 240 295 337
#     4  10  18  33  58  86 115 146 194 247 284 334
#     4  12  20  35  56  88 118 145 198 244 292 337
#     4   9  17  34  54  81 117 144 191 236 289 341
#     4  10  22  40  59  84 118 160 198 231 287 355
#     4  10  21  37  60  84 115 157 194 237 291 350
#     4  10  17  34  53  84 113 143 188 242 293 337
#     4  10  20  32  52  84 114 142 188 247 291 335
#
# _framework density 20.983727999999999
#
# number of rings (size 3 to 8) (size 9 to 14) (size 15 to 20)
#    0.000    1.750    6.250    0.750    0.000    0.500 
#    4.500    1.250    0.000    4.500    0.000    0.000 
#    0.000    0.000    0.000    0.000    0.000    0.000 
#
# Total GULP energy -89395.451096 kJ/mol
# GULP energy per Si atom -5587.215693 kJ/mol
# Density = 2.093597 g / cm^3
# Si number density = 20.983728 Si / 1000 Ang^3
#
#
#
# Elastic Constant Matrix: (Units=GPa)
#
#
# Indices 1 2 3 4 5 6 
#
# 1 106.2268 41.1556 41.6141 0.0000 -21.1448 0.0000
# 2 41.1556 144.3870 59.7178 0.0000 -27.7679 0.0000
# 3 41.6141 59.7178 88.4173 0.0000 -46.5620 0.0000
# 4 0.0000 0.0000 0.0000 22.7551 0.0000 -6.5771
# 5 -21.1448 -27.7679 -46.5620 0.0000 44.8225 0.0000
# 6 0.0000 0.0000 0.0000 -6.5771 0.0000 26.6016
#
#
#
# Elastic Compliance Matrix: (Units=1/GPa)
#
#
# Indices 1 2 3 4 5 6 
#
# 1 0.011765 -0.001469 -0.004640 0.000000 -0.000180 0.000000
# 2 -0.001469 0.009856 -0.006877 0.000000 -0.001731 0.000000
# 3 -0.004640 -0.006877 0.032548 0.000000 0.027362 0.000000
# 4 0.000000 0.000000 0.000000 0.047328 0.000000 0.011702
# 5 -0.000180 -0.001731 0.027362 0.000000 0.049577 0.000000
# 6 0.000000 0.000000 0.000000 0.011702 0.000000 0.040485
#
#
# Mechanical properties :
#
#
# Convention : Reuss Voigt Hill
#
# Bulk Modulus (GPa) = 35.46485 69.33402 52.39943
# Shear Modulus (GPa) = 22.03337 31.93874 26.98605
#
# Velocity S-wave (km/s) = 3.24392 3.90561 3.59004
# Velocity P-wave (km/s) = 5.56493 7.31108 6.49694
#
# Compressibility (1/GPa) = 0.02819694
#
# Stress axis : x y z
#
# Youngs Moduli (GPa) = 84.99973 101.46171 30.72425
#
# Poissons Ratio (x) = 0.14905 0.14255
# Poissons Ratio (y) = 0.12487 0.21129
# Poissons Ratio (z) = 0.39437 0.69775
#
# Static dielectric constant tensor:
#      x y z
#    x 1.807310 0.000000 0.014630 
#    y 0.000000 1.722770 0.000000 
#    z 0.014630 0.000000 1.825770 
# 
# From -- ./inp_files/11450.got.cif
#   From: 2010.05.17/outbox.cif.g08.bks.cpg/sg8_6_cif.got.tgz:11450.got - 2010.06.03 19:46:02.
