data_PCOD9131879
_publ_section_title
;
Structure prediction by ZEFSAII (Michael W. Deem and Ramdas Pophale) SiO2 
 PCOD9131879
Probable space group: C M
;
_chemical_formula_sum "Si O2"
_cell_formula_units_Z 32
_cell_length_a 21.145592
_cell_length_b 8.450304
_cell_length_c 12.648135
_cell_angle_alpha 90.000000
_cell_angle_beta 127.431310
_cell_angle_gamma 90.000000
_cell_volume 1794.668954
_symmetry_space_group_name_H-M "C M"
_symmetry_group_IT_number 8
_symmetry_cell_setting 'monoclinic'
loop_
_space_group_symop_operation_xyz
x,y,z
x,-y,z
1/2+x,1/2+y,z
1/2+x,1/2-y,z
loop_
_atom_site_type_symbol
_atom_site_label
_atom_site_fract_x
_atom_site_fract_y
_atom_site_fract_z
Si Si1 0.174610 0.310115 0.710890
Si Si2 0.941905 0.192461 0.280637
Si Si3 0.329913 0.308968 0.986464
Si Si4 0.233249 0.191780 0.542465
Si Si5 0.996602 0.810704 0.562532
Si Si6 0.082212 0.190546 0.261101
Si Si7 0.915332 0.691005 0.692270
Si Si8 0.969222 0.310764 0.974799
O O1 0.170470 0.500000 0.709735
O O2 0.203509 0.257035 0.624345
O O3 0.088160 0.242089 0.647844
O O4 0.242691 0.255354 0.862590
O O5 0.865323 0.245262 0.135146
O O6 0.952451 0.248513 0.410872
O O7 0.019270 0.237061 0.289304
O O8 0.940617 0.000000 0.281703
O O9 0.329401 0.500000 0.986966
O O10 0.394155 0.256540 0.964024
O O11 0.169559 0.239421 0.388148
O O12 0.323225 0.242299 0.609625
O O13 0.231924 0.000000 0.547977
O O14 0.955511 0.750802 0.626794
O O15 0.994062 0.000000 0.558732
O O16 0.047834 0.257968 0.117403
O O17 0.080041 0.000000 0.251983
O O18 0.915787 0.500000 0.690729
O O19 0.961393 0.742121 0.845572
O O20 0.964012 0.500000 0.972099
#
# Coordination Sequence:
#
# PCOD9131879 Si02
#       8
#     4   4   4   4   4   4   4   4
#     4  11  21  33  55  85 113 139 180 233 273 318
#     4   8  15  31  53  76 102 137 178 216 263 320
#     4   9  18  33  54  79 108 141 177 220 272 325
#     4  10  19  36  58  79 109 147 183 224 273 324
#     4  11  22  37  57  78 108 148 187 223 271 334
#     4   9  17  32  55  79 107 140 178 222 270 325
#     4  10  22  38  55  78 111 147 182 225 275 322
#     4  10  19  32  53  80 110 141 177 225 273 318
#
# _framework density 17.830587000000001
#
# number of rings (size 3 to 8) (size 9 to 14) (size 15 to 20)
#    0.000    2.250    2.500    1.875    0.000    2.500 
#    0.000    1.875    0.000    4.500    0.000    0.000 
#    0.000    0.000    0.000    0.000    0.000    0.000 
#
# Total GULP energy -89243.753400 kJ/mol
# GULP energy per Si atom -5577.734588 kJ/mol
# Density = 1.779000 g / cm^3
# Si number density = 17.830587 Si / 1000 Ang^3
#
#
#
# Elastic Constant Matrix: (Units=GPa)
#
#
# Indices 1 2 3 4 5 6 
#
# 1 116.3267 19.1508 91.0206 0.0000 -7.6250 0.0000
# 2 19.1508 11.5223 29.2490 0.0000 1.0749 0.0000
# 3 91.0206 29.2490 210.3369 0.0000 -6.1772 0.0000
# 4 0.0000 0.0000 0.0000 24.2630 0.0000 -2.0975
# 5 -7.6250 1.0749 -6.1772 0.0000 23.6423 0.0000
# 6 0.0000 0.0000 0.0000 -2.0975 0.0000 25.9868
#
#
#
# Elastic Compliance Matrix: (Units=1/GPa)
#
#
# Indices 1 2 3 4 5 6 
#
# 1 0.014417 -0.013639 -0.004220 0.000000 0.004167 0.000000
# 2 -0.013639 0.149972 -0.015400 0.000000 -0.015241 0.000000
# 3 -0.004220 -0.015400 0.008770 0.000000 0.001631 0.000000
# 4 0.000000 0.000000 0.000000 0.041505 0.000000 0.003350
# 5 0.004167 -0.015241 0.001631 0.000000 0.044760 0.000000
# 6 0.000000 0.000000 0.000000 0.003350 0.000000 0.038751
#
#
# Mechanical properties :
#
#
# Convention : Reuss Voigt Hill
#
# Bulk Modulus (GPa) = 9.37729 68.55855 38.96792
# Shear Modulus (GPa) = 12.49255 28.02944 20.26100
#
# Velocity S-wave (km/s) = 2.64980 3.96913 3.37457
# Velocity P-wave (km/s) = 3.82524 7.71614 6.08980
#
# Compressibility (1/GPa) = 0.10664059
#
# Stress axis : x y z
#
# Youngs Moduli (GPa) = 69.36413 6.66793 114.02848
#
# Poissons Ratio (x) = 0.09094 0.48117
# Poissons Ratio (y) = 0.94603 1.75609
# Poissons Ratio (z) = 0.29270 0.10269
#
# Static dielectric constant tensor:
#      x y z
#    x 1.563230 0.000000 0.010260 
#    y 0.000000 1.616670 0.000000 
#    z 0.010260 0.000000 1.647990 
# 
# From -- ./inp_files/22926.got.cif
#   From: 2010.05.17/outbox.cif.g08.bks.cpg/sg8_12_cif.got.tgz:22926.got - 2010.06.03 19:46:02.
