data_PCOD9131121
_publ_section_title
;
Structure prediction by ZEFSAII (Michael W. Deem and Ramdas Pophale) SiO2 
 PCOD9131121
Probable space group: P M
;
_chemical_formula_sum "Si O2"
_cell_formula_units_Z 13
_cell_length_a 9.903476
_cell_length_b 7.884276
_cell_length_c 12.273726
_cell_angle_alpha 90.000000
_cell_angle_beta 36.253867
_cell_angle_gamma 90.000000
_cell_volume 566.736044
_symmetry_space_group_name_H-M "P M"
_symmetry_group_IT_number 6
_symmetry_cell_setting 'monoclinic'
loop_
_space_group_symop_operation_xyz
x,y,z
x,-y,z
loop_
_atom_site_type_symbol
_atom_site_label
_atom_site_fract_x
_atom_site_fract_y
_atom_site_fract_z
Si Si1 0.679900 0.798675 0.818120
Si Si2 0.599550 0.795282 0.406466
Si Si3 0.014072 0.807267 0.976444
Si Si4 0.496103 0.695052 0.712530
Si Si5 0.166012 0.803817 0.551833
Si Si6 0.381903 0.316655 0.199922
Si Si7 0.833052 0.500000 0.978594
O O1 0.653511 0.743989 0.711290
O O2 0.914163 0.721498 0.716775
O O3 0.701848 0.000000 0.808293
O O4 0.458211 0.749159 0.032713
O O5 0.823242 0.758294 0.189799
O O6 0.608146 0.722944 0.521807
O O7 0.374803 0.732231 0.487178
O O8 0.584350 0.000000 0.424510
O O9 0.010399 0.654360 0.893110
O O10 0.964475 0.000000 0.969025
O O11 0.265564 0.804834 0.863776
O O12 0.432528 0.500000 0.767907
O O13 0.244775 0.795421 0.374193
O O14 0.145501 0.000000 0.598314
O O15 0.263178 0.500000 0.266767
O O16 0.627116 0.356377 0.095342
#
# Coordination Sequence:
#
# PCOD9131121 Si02
#       7
#     2   2   2   2   2   2   1
#     4  11  25  44  65  92 130 177 223 268 325 395
#     4  10  22  40  67 100 128 166 217 272 331 389
#     4  11  23  43  69  97 136 174 218 272 328 394
#     4  12  27  43  65  93 133 177 223 274 330 394
#     4  10  22  40  67  97 126 165 214 271 329 386
#     4  10  22  39  63  94 131 165 210 266 324 387
#     4  10  22  40  64 106 134 168 218 270 332 392
#
# _framework density 22.938369999999999
#
# number of rings (size 3 to 8) (size 9 to 14) (size 15 to 20)
#    0.462    0.923    2.308    2.308    3.231    3.692 
#    0.000    1.538    0.000    0.000    0.000    0.000 
#    0.000    0.000    0.000    0.000    0.000    0.000 
#
# Total GULP energy -72367.531785 kJ/mol
# GULP energy per Si atom -5566.733214 kJ/mol
# Density = 2.288616 g / cm^3
# Si number density = 22.938370 Si / 1000 Ang^3
#
#
#
# Elastic Constant Matrix: (Units=GPa)
#
#
# Indices 1 2 3 4 5 6 
#
# 1 81.3274 7.0488 27.5042 0.0000 21.4319 0.0000
# 2 7.0488 70.8194 3.6199 0.0000 0.8647 0.0000
# 3 27.5042 3.6199 119.8483 0.0000 19.8553 0.0000
# 4 0.0000 0.0000 0.0000 117.6722 0.0000 108.1871
# 5 21.4319 0.8647 19.8553 0.0000 34.2451 0.0000
# 6 0.0000 0.0000 0.0000 108.1871 0.0000 153.0101
#
#
#
# Elastic Compliance Matrix: (Units=1/GPa)
#
#
# Indices 1 2 3 4 5 6 
#
# 1 0.015315 -0.001316 -0.002094 0.000000 -0.008338 0.000000
# 2 -0.001316 0.014256 -0.000227 0.000000 0.000595 0.000000
# 3 -0.002094 -0.000227 0.009528 0.000000 -0.004209 0.000000
# 4 0.000000 0.000000 0.000000 0.024285 0.000000 -0.017171
# 5 -0.008338 0.000595 -0.004209 0.000000 0.036844 0.000000
# 6 0.000000 0.000000 0.000000 -0.017171 0.000000 0.018676
#
#
# Mechanical properties :
#
#
# Convention : Reuss Voigt Hill
#
# Bulk Modulus (GPa) = 31.42034 38.70453 35.06244
# Shear Modulus (GPa) = 36.55313 76.57361 56.56337
#
# Velocity S-wave (km/s) = 3.99624 5.78401 4.97115
# Velocity P-wave (km/s) = 5.91783 7.84323 6.94755
#
# Compressibility (1/GPa) = 0.03182651
#
# Stress axis : x y z
#
# Youngs Moduli (GPa) = 65.29421 70.14735 104.94870
#
# Poissons Ratio (x) = 0.09228 0.21973
# Poissons Ratio (y) = 0.08590 0.02385
# Poissons Ratio (z) = 0.13670 0.01594
#
# Static dielectric constant tensor:
#      x y z
#    x 1.873420 0.000000 0.017670 
#    y 0.000000 1.776230 0.000000 
#    z 0.017670 0.000000 1.870230 
# 
# From -- ./inp_files/4615.got.cif
#   From: 2010.05.17/outbox.cif.g08.bks.cpg/sg6_3_cif.got.tgz:4615.got - 2010.06.03 19:42:10.
