data_PCOD9131385
_publ_section_title
;
Structure prediction by ZEFSAII (Michael W. Deem and Ramdas Pophale) SiO2 
 PCOD9131385
Probable space group: P C
;
_chemical_formula_sum "Si O2"
_cell_formula_units_Z 12
_cell_length_a 6.730697
_cell_length_b 14.594024
_cell_length_c 5.182541
_cell_angle_alpha 90.000000
_cell_angle_beta 105.188340
_cell_angle_gamma 90.000000
_cell_volume 491.288482
_symmetry_space_group_name_H-M "P C"
_symmetry_group_IT_number 7
_symmetry_cell_setting 'monoclinic'
loop_
_space_group_symop_operation_xyz
x,y,z
x,-y,1/2+z
loop_
_atom_site_type_symbol
_atom_site_label
_atom_site_fract_x
_atom_site_fract_y
_atom_site_fract_z
Si Si1 0.847580 0.134872 0.642260
Si Si2 0.465583 0.051212 0.389555
Si Si3 0.557317 0.720619 0.291183
Si Si4 0.699212 0.435906 0.518672
Si Si5 0.921627 0.302470 0.300089
Si Si6 0.223182 0.208903 0.046221
O O1 0.716293 0.052333 0.481375
O O2 0.673651 0.186533 0.751903
O O3 0.899204 0.204834 0.430252
O O4 0.051055 0.137440 0.883057
O O5 0.379476 0.149012 0.268982
O O6 0.395021 0.019349 0.645539
O O7 0.553820 0.650131 0.050942
O O8 0.718218 0.681004 0.557253
O O9 0.344769 0.745045 0.352426
O O10 0.676970 0.499877 0.261401
O O11 0.910983 0.380354 0.517521
O O12 0.109832 0.287739 0.171397
#
# Coordination Sequence:
#
# PCOD9131385 Si02
#       6
#     2   2   2   2   2   2
#     4  10  24  44  71 102 142 193 252 296 360 451
#     4  12  28  47  71 107 151 190 240 317 378 425
#     4  10  21  44  73 103 141 197 246 297 358 442
#     4  11  22  42  72 108 154 192 234 308 375 415
#     4  10  22  42  75 104 138 200 245 298 353 447
#     4  11  25  45  76 106 144 196 261 294 364 446
#
# _framework density 24.425568999999999
#
# number of rings (size 3 to 8) (size 9 to 14) (size 15 to 20)
#    0.000    1.333    3.333    1.000    7.000    1.333 
#    0.000    1.667    0.000    0.000    0.000    0.000 
#    0.000    0.000    0.000    0.000    0.000    0.000 
#
# Total GULP energy -67015.694791 kJ/mol
# GULP energy per Si atom -5584.641233 kJ/mol
# Density = 2.436998 g / cm^3
# Si number density = 24.425569 Si / 1000 Ang^3
#
#
#
# Elastic Constant Matrix: (Units=GPa)
#
#
# Indices 1 2 3 4 5 6 
#
# 1 145.4279 29.2029 54.1196 0.0000 -22.9797 0.0000
# 2 29.2029 73.9782 35.2212 0.0000 -9.7881 0.0000
# 3 54.1196 35.2212 137.1382 0.0000 -8.7126 0.0000
# 4 0.0000 0.0000 0.0000 47.2148 0.0000 -12.9274
# 5 -22.9797 -9.7881 -8.7126 0.0000 56.0537 0.0000
# 6 0.0000 0.0000 0.0000 -12.9274 0.0000 12.5090
#
#
#
# Elastic Compliance Matrix: (Units=1/GPa)
#
#
# Indices 1 2 3 4 5 6 
#
# 1 0.008719 -0.001725 -0.002818 0.000000 0.002835 0.000000
# 2 -0.001725 0.015990 -0.003326 0.000000 0.001568 0.000000
# 3 -0.002818 -0.003326 0.009239 0.000000 -0.000300 0.000000
# 4 0.000000 0.000000 0.000000 0.029538 0.000000 0.030526
# 5 0.002835 0.001568 -0.000300 0.000000 0.019230 0.000000
# 6 0.000000 0.000000 0.000000 0.030526 0.000000 0.111489
#
#
# Mechanical properties :
#
#
# Convention : Reuss Voigt Hill
#
# Bulk Modulus (GPa) = 54.91579 65.95908 60.43744
# Shear Modulus (GPa) = 23.14676 39.02218 31.08447
#
# Velocity S-wave (km/s) = 3.08172 4.00133 3.57125
# Velocity P-wave (km/s) = 5.93249 6.95775 6.46547
#
# Compressibility (1/GPa) = 0.01820970
#
# Stress axis : x y z
#
# Youngs Moduli (GPa) = 114.68788 62.54075 108.23585
#
# Poissons Ratio (x) = 0.10790 0.30498
# Poissons Ratio (y) = 0.19787 0.36001
# Poissons Ratio (z) = 0.32316 0.20802
#
# Static dielectric constant tensor:
#      x y z
#    x 1.961280 0.000000 0.046450 
#    y 0.000000 2.010700 0.000000 
#    z 0.046450 0.000000 2.071360 
# 
# From -- ./inp_files/172.got.cif
#   From: 2010.05.17/outbox.cif.g08.bks.cpg/sg7_cif.got.tgz:172.got - 2010.06.03 19:44:50.
