data_PCOD9131348
_publ_section_title
;
Structure prediction by ZEFSAII (Michael W. Deem and Ramdas Pophale) SiO2 
 PCOD9131348
Probable space group: P C
;
_chemical_formula_sum "Si O2"
_cell_formula_units_Z 16
_cell_length_a 17.376456
_cell_length_b 8.180344
_cell_length_c 5.495068
_cell_angle_alpha 90.000000
_cell_angle_beta 130.589886
_cell_angle_gamma 90.000000
_cell_volume 593.155453
_symmetry_space_group_name_H-M "P C"
_symmetry_group_IT_number 7
_symmetry_cell_setting 'monoclinic'
loop_
_space_group_symop_operation_xyz
x,y,z
x,-y,1/2+z
loop_
_atom_site_type_symbol
_atom_site_label
_atom_site_fract_x
_atom_site_fract_y
_atom_site_fract_z
Si Si1 0.411310 0.082537 0.409280
Si Si2 0.190282 0.036565 0.457525
Si Si3 0.895425 0.074442 0.631343
Si Si4 0.703842 0.440793 0.724616
Si Si5 0.965016 0.422079 0.971367
Si Si6 0.667659 0.946433 0.150935
Si Si7 0.210673 0.587343 0.976677
Si Si8 0.473613 0.567883 0.231836
O O1 0.453523 0.254446 0.584995
O O2 0.434791 0.956286 0.676901
O O3 0.287579 0.082563 0.157819
O O4 0.231942 0.220363 0.537828
O O5 0.133175 0.000437 0.589955
O O6 0.923540 0.251424 0.786123
O O7 0.928353 0.043714 0.421587
O O8 0.773252 0.047858 0.369205
O O9 0.753425 0.500226 0.576706
O O10 0.688388 0.246504 0.691843
O O11 0.593958 0.530646 0.499629
O O12 0.939347 0.550161 0.702360
O O13 0.087778 0.416674 0.221226
O O14 0.615958 0.998734 0.295185
O O15 0.243510 0.508631 0.787563
O O16 0.436523 0.548573 0.433612
#
# Coordination Sequence:
#
# PCOD9131348 Si02
#       8
#     2   2   2   2   2   2   2   2
#     4  10  21  40  60  86 120 153 195 241 293 349
#     4  10  21  38  58  87 119 156 196 241 293 345
#     4  10  21  38  58  87 119 156 196 241 293 345
#     4  10  21  40  62  88 116 151 193 239 295 351
#     4  10  21  38  60  87 119 156 198 243 291 345
#     4  10  21  40  60  86 120 153 195 241 293 349
#     4  10  21  38  60  87 119 156 198 243 291 345
#     4  10  21  40  62  88 116 151 193 239 295 351
#
# _framework density 26.97438
#
# number of rings (size 3 to 8) (size 9 to 14) (size 15 to 20)
#    0.000    2.000    0.000    3.000    0.000    1.000 
#    0.000   45.000    0.000    0.000    0.000    0.000 
#    0.000    0.000    0.000    0.000    0.000    0.000 
#
# Total GULP energy -89699.226917 kJ/mol
# GULP energy per Si atom -5606.201682 kJ/mol
# Density = 2.691298 g / cm^3
# Si number density = 26.974380 Si / 1000 Ang^3
#
#
#
# Elastic Constant Matrix: (Units=GPa)
#
#
# Indices 1 2 3 4 5 6 
#
# 1 143.1798 5.0577 53.0881 0.0000 -49.8297 0.0000
# 2 5.0577 88.9901 7.9264 0.0000 -32.9099 0.0000
# 3 53.0881 7.9264 168.4455 0.0000 -31.9412 0.0000
# 4 0.0000 0.0000 0.0000 42.1445 0.0000 -37.1012
# 5 -49.8297 -32.9099 -31.9412 0.0000 71.5512 0.0000
# 6 0.0000 0.0000 0.0000 -37.1012 0.0000 -2.7251
#
#
#
# Elastic Compliance Matrix: (Units=1/GPa)
#
#
# Indices 1 2 3 4 5 6 
#
# 1 0.010142 0.002276 -0.001929 0.000000 0.007249 0.000000
# 2 0.002276 0.014106 0.000164 0.000000 0.008146 0.000000
# 3 -0.001929 0.000164 0.006879 0.000000 0.001803 0.000000
# 4 0.000000 0.000000 0.000000 0.001827 0.000000 -0.024878
# 5 0.007249 0.008146 0.001803 0.000000 0.023576 0.000000
# 6 0.000000 0.000000 0.000000 -0.024878 0.000000 -0.028259
#
#
# Mechanical properties :
#
#
# Convention : Reuss Voigt Hill
#
# Bulk Modulus (GPa) = 31.10631 59.19551 45.15091
# Shear Modulus (GPa) = 131.70265 44.49699 88.09982
#
# Velocity S-wave (km/s) = 6.99508 4.06594 5.72114
# Velocity P-wave (km/s) = 8.76346 6.63590 7.77282
#
# Compressibility (1/GPa) = 0.03214782
#
# Stress axis : x y z
#
# Youngs Moduli (GPa) = 98.60251 70.89269 145.37663
#
# Poissons Ratio (x) = -0.16136 0.28042
# Poissons Ratio (y) = -0.22443 -0.02378
# Poissons Ratio (z) = 0.19019 -0.01160
#
# Static dielectric constant tensor:
#      x y z
#    x 2.291970 0.000000 -0.003470 
#    y 0.000000 2.018710 0.000000 
#    z -0.003470 0.000000 2.134470 
# 
# From -- ./inp_files/1465.got.cif
#   From: 2010.05.17/outbox.cif.g08.bks.cpg/sg7_cif.got.tgz:1465.got - 2010.06.03 19:44:50.
