data_PCOD9131004
_publ_section_title
;
Structure prediction by ZEFSAII (Michael W. Deem and Ramdas Pophale) SiO2 
 PCOD9131004
Probable space group: P M
;
_chemical_formula_sum "Si O2"
_cell_formula_units_Z 10
_cell_length_a 7.801738
_cell_length_b 13.071482
_cell_length_c 5.286659
_cell_angle_alpha 90.000000
_cell_angle_beta 90.008587
_cell_angle_gamma 90.000000
_cell_volume 539.134948
_symmetry_space_group_name_H-M "P M"
_symmetry_group_IT_number 6
_symmetry_cell_setting 'monoclinic'
loop_
_space_group_symop_operation_xyz
x,y,z
x,-y,z
loop_
_atom_site_type_symbol
_atom_site_label
_atom_site_fract_x
_atom_site_fract_y
_atom_site_fract_z
Si Si1 0.907380 0.759999 0.484960
Si Si2 0.611112 0.118910 0.279761
Si Si3 0.745306 0.700034 0.990262
Si Si4 0.381513 0.382798 0.934747
Si Si5 0.295969 0.255064 0.432488
O O1 0.777138 0.855179 0.451975
O O2 0.849158 0.687589 0.250937
O O3 0.104587 0.787994 0.455634
O O4 0.866536 0.706590 0.749646
O O5 0.653383 0.188788 0.034172
O O6 0.442574 0.169296 0.402760
O O7 0.591948 0.000000 0.230279
O O8 0.588523 0.623456 0.957333
O O9 0.325041 0.500000 0.925101
O O10 0.332683 0.322831 0.680063
O O11 0.309872 0.325276 0.182019
#
# Coordination Sequence:
#
# PCOD9131004 Si02
#       5
#     2   2   2   2   2
#     4  10  20  38  60  82 122 152 193 241 293 333
#     4   9  21  38  61  88 120 159 196 236 296 350
#     4   9  19  39  58  84 116 158 186 251 281 343
#     4  11  21  40  63  87 118 160 197 241 298 352
#     4  11  22  39  63  87 124 153 195 249 291 346
#
# _framework density 18.548231999999999
#
# number of rings (size 3 to 8) (size 9 to 14) (size 15 to 20)
#    1.200    0.800    2.000    1.800    0.000    1.600 
#    0.000    6.000    0.000    0.000    0.000    0.000 
#    0.000    0.000    0.000    0.000    0.000    0.000 
#
# Total GULP energy -55694.231472 kJ/mol
# GULP energy per Si atom -5569.423147 kJ/mol
# Density = 1.850602 g / cm^3
# Si number density = 18.548232 Si / 1000 Ang^3
#
#
#
# Elastic Constant Matrix: (Units=GPa)
#
#
# Indices 1 2 3 4 5 6 
#
# 1 137.4410 21.0017 29.8269 0.0000 -24.5933 0.0000
# 2 21.0017 71.0807 20.0597 0.0000 -5.1411 0.0000
# 3 29.8269 20.0597 136.6912 0.0000 -8.1333 0.0000
# 4 0.0000 0.0000 0.0000 9.5039 0.0000 0.9924
# 5 -24.5933 -5.1411 -8.1333 0.0000 23.8509 0.0000
# 6 0.0000 0.0000 0.0000 0.9924 0.0000 -0.0693
#
#
#
# Elastic Compliance Matrix: (Units=1/GPa)
#
#
# Indices 1 2 3 4 5 6 
#
# 1 0.009413 -0.001782 -0.001264 0.000000 0.008891 0.000000
# 2 -0.001782 0.015159 -0.001787 0.000000 0.000821 0.000000
# 3 -0.001264 -0.001787 0.007914 0.000000 0.001011 0.000000
# 4 0.000000 0.000000 0.000000 0.042165 0.000000 0.603850
# 5 0.008891 0.000821 0.001011 0.000000 0.051617 0.000000
# 6 0.000000 0.000000 0.000000 0.603850 0.000000 -5.782829
#
#
# Mechanical properties :
#
#
# Convention : Reuss Voigt Hill
#
# Bulk Modulus (GPa) = 43.81819 54.10996 48.96407
# Shear Modulus (GPa) = -0.88664 24.94540 12.02938
#
# Velocity S-wave (km/s) = -0.69214 3.67126 2.54942
# Velocity P-wave (km/s) = 4.79963 6.87072 5.92635
#
# Compressibility (1/GPa) = 0.02282157
#
# Stress axis : x y z
#
# Youngs Moduli (GPa) = 106.23270 65.96918 126.36084
#
# Poissons Ratio (x) = 0.11753 0.15966
# Poissons Ratio (y) = 0.18926 0.22580
# Poissons Ratio (z) = 0.13423 0.11788
#
# Static dielectric constant tensor:
#      x y z
#    x 1.649820 0.000000 0.016920 
#    y 0.000000 1.615640 0.000000 
#    z 0.016920 0.000000 1.648860 
# 
# From -- ./inp_files/865.got.cif
#   From: 2010.05.17/outbox.cif.g08.bks.cpg/sg6_1_cif.got.tgz:865.got - 2010.06.03 19:42:10.
