data_PCOD9131462
_publ_section_title
;
Structure prediction by ZEFSAII (Michael W. Deem and Ramdas Pophale) SiO2 
 PCOD9131462
Probable space group: P C
;
_chemical_formula_sum "Si O2"
_cell_formula_units_Z 14
_cell_length_a 6.515112
_cell_length_b 19.714431
_cell_length_c 5.422983
_cell_angle_alpha 90.000000
_cell_angle_beta 56.570837
_cell_angle_gamma 90.000000
_cell_volume 581.307436
_symmetry_space_group_name_H-M "P C"
_symmetry_group_IT_number 7
_symmetry_cell_setting 'monoclinic'
loop_
_space_group_symop_operation_xyz
x,y,z
x,-y,1/2+z
loop_
_atom_site_type_symbol
_atom_site_label
_atom_site_fract_x
_atom_site_fract_y
_atom_site_fract_z
Si Si1 0.861290 0.981381 0.917230
Si Si2 0.771227 0.769924 0.652592
Si Si3 0.166386 0.331263 0.854469
Si Si4 0.500663 0.894408 0.661071
Si Si5 0.501427 0.143235 0.657429
Si Si6 0.435765 0.655057 0.679697
Si Si7 0.793334 0.543180 0.572137
O O1 0.999302 0.998095 0.573829
O O2 0.740331 0.907416 0.008009
O O3 0.624253 0.032511 0.067529
O O4 0.727962 0.840481 0.540459
O O5 0.642303 0.712273 0.575929
O O6 0.036433 0.739169 0.521928
O O7 0.615153 0.784303 0.006781
O O8 0.242996 0.323525 0.518600
O O9 0.356417 0.347599 0.948693
O O10 0.987577 0.396134 0.971627
O O11 0.369293 0.870778 0.500421
O O12 0.357810 0.880702 0.008375
O O13 0.535586 0.582894 0.710957
O O14 0.818650 0.501489 0.301471
#
# Coordination Sequence:
#
# PCOD9131462 Si02
#       7
#     2   2   2   2   2   2   2
#     4   8  12  22  38  72 102 126 188 238 274 336
#     4   9  22  36  58  80 119 152 196 232 285 340
#     4  11  25  40  61  90 121 153 189 231 279 337
#     4   8  15  25  47  73 105 140 187 237 280 334
#     4   8  15  25  47  73 105 140 187 237 280 334
#     4  11  25  40  61  90 121 153 189 231 279 337
#     4  11  24  44  68  92 119 150 188 232 277 332
#
# _framework density 24.083641
#
# number of rings (size 3 to 8) (size 9 to 14) (size 15 to 20)
#    0.857    1.714    0.000    1.714    4.000    5.714 
#    0.000    0.000    0.000    0.000    0.000    6.000 
#    0.000    0.000    0.000    0.000    0.000    0.000 
#
# Total GULP energy -78058.620095 kJ/mol
# GULP energy per Si atom -5575.615721 kJ/mol
# Density = 2.402883 g / cm^3
# Si number density = 24.083641 Si / 1000 Ang^3
#
#
#
# Elastic Constant Matrix: (Units=GPa)
#
#
# Indices 1 2 3 4 5 6 
#
# 1 46.1556 21.9675 24.9170 0.0000 18.5270 0.0000
# 2 21.9675 96.3099 1.5527 0.0000 7.2919 0.0000
# 3 24.9170 1.5527 106.7206 0.0000 50.8526 0.0000
# 4 0.0000 0.0000 0.0000 32.7062 0.0000 12.7263
# 5 18.5270 7.2919 50.8526 0.0000 42.0591 0.0000
# 6 0.0000 0.0000 0.0000 12.7263 0.0000 28.8477
#
#
#
# Elastic Compliance Matrix: (Units=1/GPa)
#
#
# Indices 1 2 3 4 5 6 
#
# 1 0.029460 -0.006012 -0.002604 0.000000 -0.008786 0.000000
# 2 -0.006012 0.011879 0.002242 0.000000 -0.002122 0.000000
# 3 -0.002604 0.002242 0.022611 0.000000 -0.026580 0.000000
# 4 0.000000 0.000000 0.000000 0.036911 0.000000 -0.016284
# 5 -0.008786 -0.002122 -0.026580 0.000000 0.060151 0.000000
# 6 0.000000 0.000000 0.000000 -0.016284 0.000000 0.041848
#
#
# Mechanical properties :
#
#
# Convention : Reuss Voigt Hill
#
# Bulk Modulus (GPa) = 19.53101 38.45118 28.99110
# Shear Modulus (GPa) = 21.48895 34.10587 27.79741
#
# Velocity S-wave (km/s) = 2.99032 3.76725 3.40104
# Velocity P-wave (km/s) = 4.47772 5.90959 5.24277
#
# Compressibility (1/GPa) = 0.05120062
#
# Stress axis : x y z
#
# Youngs Moduli (GPa) = 33.94430 84.18197 44.22597
#
# Poissons Ratio (x) = 0.50614 0.11518
# Poissons Ratio (y) = 0.20409 -0.09915
# Poissons Ratio (z) = 0.08840 -0.18873
#
# Static dielectric constant tensor:
#      x y z
#    x 1.931200 0.000000 0.029440 
#    y 0.000000 1.913780 0.000000 
#    z 0.029440 0.000000 2.039410 
# 
# From -- ./inp_files/346.got.cif
#   From: 2010.05.17/outbox.cif.g08.bks.cpg/sg7_cif.got.tgz:346.got - 2010.06.03 19:44:50.
