data_PCOD9131781
_publ_section_title
;
Structure prediction by ZEFSAII (Michael W. Deem and Ramdas Pophale) SiO2 
 PCOD9131781
Probable space group: C M
;
_chemical_formula_sum "Si O2"
_cell_formula_units_Z 32
_cell_length_a 17.057145
_cell_length_b 15.515004
_cell_length_c 11.044236
_cell_angle_alpha 90.000000
_cell_angle_beta 31.415103
_cell_angle_gamma 90.000000
_cell_volume 1523.446314
_symmetry_space_group_name_H-M "C M"
_symmetry_group_IT_number 8
_symmetry_cell_setting 'monoclinic'
loop_
_space_group_symop_operation_xyz
x,y,z
x,-y,z
1/2+x,1/2+y,z
1/2+x,1/2-y,z
loop_
_atom_site_type_symbol
_atom_site_label
_atom_site_fract_x
_atom_site_fract_y
_atom_site_fract_z
Si Si1 0.646000 0.670751 0.690120
Si Si2 0.419002 0.189192 0.874373
Si Si3 0.991229 0.905678 0.129029
Si Si4 0.902040 0.790228 0.462088
Si Si5 0.207554 0.354735 0.369113
Si Si6 0.170901 0.318567 0.155494
Si Si7 0.643305 0.102224 0.931724
Si Si8 0.324196 0.843345 0.242592
O O1 0.522326 0.740363 0.810275
O O2 0.790861 0.723162 0.544259
O O3 0.705517 0.617645 0.494931
O O4 0.583966 0.620731 0.887659
O O5 0.537095 0.138404 0.638014
O O6 0.299347 0.247275 0.961896
O O7 0.336823 0.131904 0.084952
O O8 0.994455 0.838672 0.234569
O O9 0.819533 0.906032 0.307152
O O10 0.036550 0.000000 0.111559
O O11 0.791998 0.855534 0.676633
O O12 0.020839 0.736262 0.383600
O O13 0.217458 0.371558 0.213282
O O14 0.264819 0.255601 0.311189
O O15 0.144344 0.374741 0.072206
O O16 0.640718 0.000000 0.915084
O O17 0.491786 0.143166 0.074088
#
# Coordination Sequence:
#
# PCOD9131781 Si02
#       8
#     4   4   4   4   4   4   4   4
#     4  11  18  37  64  87 119 154 207 245 288 359
#     4  10  18  37  66  91 111 150 216 255 282 342
#     4  12  23  37  62  95 125 154 198 256 309 352
#     4  12  21  41  65  90 116 162 214 247 287 358
#     4  10  19  37  63  92 118 157 207 252 293 356
#     4  11  22  37  62  92 122 160 203 246 298 363
#     4  12  24  38  59  93 130 158 193 250 315 359
#     4  10  18  36  64  86 115 157 208 251 277 357
#
# _framework density 21.005006000000002
#
# number of rings (size 3 to 8) (size 9 to 14) (size 15 to 20)
#    0.000    1.000    7.500    1.875    0.000    1.000 
#    0.000    0.000    0.000    7.500    0.000    0.000 
#    0.000    0.000    0.000    0.000    0.000    0.000 
#
# Total GULP energy -89295.655667 kJ/mol
# GULP energy per Si atom -5580.978479 kJ/mol
# Density = 2.095720 g / cm^3
# Si number density = 21.005006 Si / 1000 Ang^3
#
#
#
# Elastic Constant Matrix: (Units=GPa)
#
#
# Indices 1 2 3 4 5 6 
#
# 1 47.2563 -0.7709 -17.1544 0.0000 1.5335 0.0000
# 2 -0.7709 39.4696 6.8454 0.0000 -0.6373 0.0000
# 3 -17.1544 6.8454 101.7631 0.0000 17.0122 0.0000
# 4 0.0000 0.0000 0.0000 8.5455 0.0000 1.8907
# 5 1.5335 -0.6373 17.0122 0.0000 38.4905 0.0000
# 6 0.0000 0.0000 0.0000 1.8907 0.0000 7.5568
#
#
#
# Elastic Compliance Matrix: (Units=1/GPa)
#
#
# Indices 1 2 3 4 5 6 
#
# 1 0.022825 -0.000354 0.004346 0.000000 -0.002836 0.000000
# 2 -0.000354 0.025699 -0.002010 0.000000 0.001328 0.000000
# 3 0.004346 -0.002010 0.011585 0.000000 -0.005327 0.000000
# 4 0.000000 0.000000 0.000000 0.123878 0.000000 -0.030994
# 5 -0.002836 0.001328 -0.005327 0.000000 0.028470 0.000000
# 6 0.000000 0.000000 0.000000 -0.030994 0.000000 0.140086
#
#
# Mechanical properties :
#
#
# Convention : Reuss Voigt Hill
#
# Bulk Modulus (GPa) = 15.60743 18.48101 17.04422
# Shear Modulus (GPa) = 13.51579 24.22314 18.86946
#
# Velocity S-wave (km/s) = 2.53939 3.39958 3.00047
# Velocity P-wave (km/s) = 4.00556 4.92209 4.48729
#
# Compressibility (1/GPa) = 0.06407205
#
# Stress axis : x y z
#
# Youngs Moduli (GPa) = 43.81181 38.91175 86.31840
#
# Poissons Ratio (x) = 0.01376 -0.37510
# Poissons Ratio (y) = 0.01549 0.17353
# Poissons Ratio (z) = -0.19038 0.07823
#
# Static dielectric constant tensor:
#      x y z
#    x 1.739070 0.000000 0.040420 
#    y 0.000000 1.768680 0.000000 
#    z 0.040420 0.000000 1.828590 
# 
# From -- ./inp_files/23329.got.cif
#   From: 2010.05.17/outbox.cif.g08.bks.cpg/sg8_12_cif.got.tgz:23329.got - 2010.06.03 19:46:02.
