data_PCOD9131336
_publ_section_title
;
Structure prediction by ZEFSAII (Michael W. Deem and Ramdas Pophale) SiO2 
 PCOD9131336
Probable space group: P C
;
_chemical_formula_sum "Si O2"
_cell_formula_units_Z 12
_cell_length_a 14.141619
_cell_length_b 6.903387
_cell_length_c 5.330418
_cell_angle_alpha 90.000000
_cell_angle_beta 81.860885
_cell_angle_gamma 90.000000
_cell_volume 515.140734
_symmetry_space_group_name_H-M "P C"
_symmetry_group_IT_number 7
_symmetry_cell_setting 'monoclinic'
loop_
_space_group_symop_operation_xyz
x,y,z
x,-y,1/2+z
loop_
_atom_site_type_symbol
_atom_site_label
_atom_site_fract_x
_atom_site_fract_y
_atom_site_fract_z
Si Si1 0.871680 0.369397 0.339920
Si Si2 0.680903 0.134179 0.446793
Si Si3 0.259394 0.116212 0.139573
Si Si4 0.532341 0.498446 0.517556
Si Si5 0.081726 0.381462 0.337507
Si Si6 0.475746 0.116935 0.142352
O O1 0.862314 0.520281 0.576503
O O2 0.788173 0.214883 0.395122
O O3 0.978637 0.284022 0.324981
O O4 0.616464 0.339033 0.490727
O O5 0.669391 0.003810 0.703442
O O6 0.174409 0.257748 0.241690
O O7 0.251652 0.946054 0.352080
O O8 0.367492 0.187650 0.143659
O O9 0.473077 0.482672 0.790174
O O10 0.555763 0.724591 0.544532
O O11 0.083070 0.448708 0.626340
O O12 0.483513 0.948780 0.929470
#
# Coordination Sequence:
#
# PCOD9131336 Si02
#       6
#     2   2   2   2   2   2
#     4  10  21  41  63  89 125 167 214 262 315 376
#     4  12  26  43  65  95 129 168 215 267 325 385
#     4  10  21  38  61  92 128 161 202 256 313 378
#     4  12  26  43  66  93 124 168 212 266 326 382
#     4  10  21  36  61  92 125 166 210 254 305 372
#     4  10  23  43  66  93 127 168 215 267 320 379
#
# _framework density 23.294602999999999
#
# number of rings (size 3 to 8) (size 9 to 14) (size 15 to 20)
#    0.000    1.333    0.000    5.000    0.000    6.667 
#    0.000    0.000    0.000    0.000    0.000    0.000 
#    0.000    0.000    0.000    0.000    0.000    0.000 
#
# Total GULP energy -66808.427388 kJ/mol
# GULP energy per Si atom -5567.368949 kJ/mol
# Density = 2.324158 g / cm^3
# Si number density = 23.294603 Si / 1000 Ang^3
#
#
#
# Elastic Constant Matrix: (Units=GPa)
#
#
# Indices 1 2 3 4 5 6 
#
# 1 118.9381 75.1242 17.7467 0.0000 -26.4449 0.0000
# 2 75.1242 86.6503 12.3874 0.0000 -9.8335 0.0000
# 3 17.7467 12.3874 156.3792 0.0000 8.4048 0.0000
# 4 0.0000 0.0000 0.0000 42.8747 0.0000 -13.1468
# 5 -26.4449 -9.8335 8.4048 0.0000 35.7749 0.0000
# 6 0.0000 0.0000 0.0000 -13.1468 0.0000 54.2578
#
#
#
# Elastic Compliance Matrix: (Units=1/GPa)
#
#
# Indices 1 2 3 4 5 6 
#
# 1 0.022946 -0.018228 -0.001826 0.000000 0.012380 0.000000
# 2 -0.018228 0.026594 0.000297 0.000000 -0.006234 0.000000
# 3 -0.001826 0.000297 0.006731 0.000000 -0.002849 0.000000
# 4 0.000000 0.000000 0.000000 0.025196 0.000000 0.006105
# 5 0.012380 -0.006234 -0.002849 0.000000 0.036060 0.000000
# 6 0.000000 0.000000 0.000000 0.006105 0.000000 0.019910
#
#
# Mechanical properties :
#
#
# Convention : Reuss Voigt Hill
#
# Bulk Modulus (GPa) = 59.67027 63.60937 61.63982
# Shear Modulus (GPa) = 27.39205 43.69544 35.54374
#
# Velocity S-wave (km/s) = 3.43286 4.33572 3.91043
# Velocity P-wave (km/s) = 6.43302 7.24088 6.84887
#
# Compressibility (1/GPa) = 0.01675876
#
# Stress axis : x y z
#
# Youngs Moduli (GPa) = 43.58113 37.60289 148.55547
#
# Poissons Ratio (x) = 0.68541 0.27119
# Poissons Ratio (y) = 0.79438 -0.04412
# Poissons Ratio (z) = 0.07956 -0.01117
#
# Static dielectric constant tensor:
#      x y z
#    x 1.900280 0.000000 0.117850 
#    y 0.000000 2.086100 0.000000 
#    z 0.117850 0.000000 2.247010 
# 
# From -- ./inp_files/1196.got.cif
#   From: 2010.05.17/outbox.cif.g08.bks.cpg/sg7_cif.got.tgz:1196.got - 2010.06.03 19:44:50.
