data_PCOD9131582
_publ_section_title
;
Structure prediction by ZEFSAII (Michael W. Deem and Ramdas Pophale) SiO2 
 PCOD9131582
Probable space group: C M
;
_chemical_formula_sum "Si O2"
_cell_formula_units_Z 28
_cell_length_a 14.165064
_cell_length_b 17.202800
_cell_length_c 5.758377
_cell_angle_alpha 90.000000
_cell_angle_beta 106.857206
_cell_angle_gamma 90.000000
_cell_volume 1342.899550
_symmetry_space_group_name_H-M "C M"
_symmetry_group_IT_number 8
_symmetry_cell_setting 'monoclinic'
loop_
_space_group_symop_operation_xyz
x,y,z
x,-y,z
1/2+x,1/2+y,z
1/2+x,1/2-y,z
loop_
_atom_site_type_symbol
_atom_site_label
_atom_site_fract_x
_atom_site_fract_y
_atom_site_fract_z
Si Si1 0.100920 0.913751 0.963320
Si Si2 0.494755 0.319946 0.504520
Si Si3 0.241738 0.349110 0.594292
Si Si4 0.660423 0.000000 0.331193
Si Si5 0.045664 0.500000 0.752286
Si Si6 0.152256 0.766053 0.240057
Si Si7 0.892452 0.088566 0.075182
Si Si8 0.047510 0.669884 0.779161
O O1 0.053117 0.885587 0.689035
O O2 0.144836 0.000000 0.983731
O O3 0.169638 0.842942 0.098612
O O4 0.004327 0.917566 0.059029
O O5 0.569355 0.290680 0.362632
O O6 0.403162 0.360372 0.314119
O O7 0.481732 0.243257 0.652825
O O8 0.224483 0.423445 0.419613
O O9 0.242362 0.270886 0.443672
O O10 0.141409 0.340834 0.675388
O O11 0.328366 0.367912 0.835226
O O12 0.588983 0.000000 0.515465
O O13 0.616027 0.000000 0.037284
O O14 0.996592 0.585343 0.746145
O O15 0.099960 0.698817 0.051460
O O16 0.855987 0.000000 0.081210
#
# Coordination Sequence:
#
# PCOD9131582 Si02
#       8
#     4   4   4   2   2   4   4   4
#     4   9  18  32  48  70  95 131 170 206 248 301
#     4   9  18  32  46  65  98 134 172 205 249 302
#     4  10  18  29  45  73 107 137 167 201 255 311
#     4  10  18  30  44  74 110 142 165 202 252 316
#     4  10  18  30  50  74 102 136 171 214 258 302
#     4   9  17  31  48  65  96 128 170 214 246 301
#     4  10  19  30  46  73 109 139 162 195 254 318
#     4   9  18  30  48  70  99 134 170 213 249 302
#
# _framework density 20.850406
#
# number of rings (size 3 to 8) (size 9 to 14) (size 15 to 20)
#    0.000    2.571    2.143    0.429    0.000    1.714 
#    0.000    0.000    0.000    0.000    1.857    0.000 
#   34.286    0.000    0.000    0.000    0.000    0.000 
#
# Total GULP energy -77975.444646 kJ/mol
# GULP energy per Si atom -5569.674618 kJ/mol
# Density = 2.080295 g / cm^3
# Si number density = 20.850406 Si / 1000 Ang^3
#
#
#
# Elastic Constant Matrix: (Units=GPa)
#
#
# Indices 1 2 3 4 5 6 
#
# 1 31.8151 6.6634 5.0297 0.0000 -5.8130 0.0000
# 2 6.6634 169.7631 66.5514 0.0000 20.5833 0.0000
# 3 5.0297 66.5514 118.7398 0.0000 17.3827 0.0000
# 4 0.0000 0.0000 0.0000 22.9096 0.0000 -3.8434
# 5 -5.8130 20.5833 17.3827 0.0000 24.1420 0.0000
# 6 0.0000 0.0000 0.0000 -3.8434 0.0000 20.1597
#
#
#
# Elastic Compliance Matrix: (Units=1/GPa)
#
#
# Indices 1 2 3 4 5 6 
#
# 1 0.034228 -0.001922 -0.002033 0.000000 0.011344 0.000000
# 2 -0.001922 0.007981 -0.003720 0.000000 -0.004589 0.000000
# 3 -0.002033 -0.003720 0.011402 0.000000 -0.005528 0.000000
# 4 0.000000 0.000000 0.000000 0.045092 0.000000 0.008597
# 5 0.011344 -0.004589 -0.005528 0.000000 0.052045 0.000000
# 6 0.000000 0.000000 0.000000 0.008597 0.000000 0.051243
#
#
# Mechanical properties :
#
#
# Convention : Reuss Voigt Hill
#
# Bulk Modulus (GPa) = 26.13642 52.97858 39.55750
# Shear Modulus (GPa) = 21.73015 29.58050 25.65533
#
# Velocity S-wave (km/s) = 3.23180 3.77065 3.51158
# Velocity P-wave (km/s) = 5.14670 6.66492 5.95439
#
# Compressibility (1/GPa) = 0.03826079
#
# Stress axis : x y z
#
# Youngs Moduli (GPa) = 29.21555 125.30353 87.70350
#
# Poissons Ratio (x) = 0.24081 0.17834
# Poissons Ratio (y) = 0.05615 0.32624
# Poissons Ratio (z) = 0.05941 0.46611
#
# Static dielectric constant tensor:
#      x y z
#    x 1.769700 0.000000 -0.048520 
#    y 0.000000 1.807410 0.000000 
#    z -0.048520 0.000000 1.791790 
# 
# From -- ./inp_files/3978.got.cif
#   From: 2010.05.17/outbox.cif.g08.bks.cpg/sg8_2_cif.got.tgz:3978.got - 2010.06.03 19:46:02.
