data_PCOD9131515
_publ_section_title
;
Structure prediction by ZEFSAII (Michael W. Deem and Ramdas Pophale) SiO2 
 PCOD9131515
Probable space group: C M
;
_chemical_formula_sum "Si O2"
_cell_formula_units_Z 32
_cell_length_a 23.914952
_cell_length_b 7.675922
_cell_length_c 11.950171
_cell_angle_alpha 90.000000
_cell_angle_beta 144.258556
_cell_angle_gamma 90.000000
_cell_volume 1281.393621
_symmetry_space_group_name_H-M "C M"
_symmetry_group_IT_number 8
_symmetry_cell_setting 'monoclinic'
loop_
_space_group_symop_operation_xyz
x,y,z
x,-y,z
1/2+x,1/2+y,z
1/2+x,1/2-y,z
loop_
_atom_site_type_symbol
_atom_site_label
_atom_site_fract_x
_atom_site_fract_y
_atom_site_fract_z
Si Si1 0.115340 0.803658 0.802610
Si Si2 0.040065 0.303322 0.154509
Si Si3 0.361999 0.202023 0.548695
Si Si4 0.581355 0.198861 0.981598
Si Si5 0.985540 0.714290 0.294597
Si Si6 0.240193 0.206852 0.560148
Si Si7 0.909124 0.699972 0.392714
Si Si8 0.697948 0.792832 0.722139
O O1 0.140046 0.773207 0.972638
O O2 0.200600 0.774525 0.853294
O O3 0.022372 0.692651 0.614083
O O4 0.080879 0.000000 0.736874
O O5 0.003295 0.500000 0.068936
O O6 0.976211 0.225610 0.150859
O O7 0.142933 0.310578 0.380900
O O8 0.067895 0.216459 0.081731
O O9 0.473179 0.200928 0.760794
O O10 0.309374 0.270226 0.573410
O O11 0.356384 0.281529 0.415017
O O12 0.331330 0.000000 0.487741
O O13 0.614179 0.000000 0.052842
O O14 0.982848 0.500000 0.287669
O O15 0.091367 0.767388 0.509368
O O16 0.914166 0.776238 0.276032
O O17 0.266390 0.232400 0.732823
O O18 0.224277 0.000000 0.520612
O O19 0.876013 0.500000 0.328431
O O20 0.700447 0.000000 0.730182
#
# Coordination Sequence:
#
# PCOD9131515 Si02
#       8
#     4   4   4   4   4   4   4   4
#     4  10  17  25  41  67  92 111 142 190 237 268
#     4   9  17  29  46  67  89 118 156 191 223 265
#     4   8  15  27  44  65  89 121 155 185 221 266
#     4   9  17  31  48  64  88 124 160 186 215 266
#     4   7  11  21  40  63  81 101 139 186 217 243
#     4  10  18  28  44  67  95 121 148 188 232 267
#     4   8  13  25  43  61  86 119 151 181 216 264
#     4   9  16  28  44  62  86 117 153 185 219 269
#
# _framework density 24.972812999999999
#
# number of rings (size 3 to 8) (size 9 to 14) (size 15 to 20)
#    0.000    3.250    0.000    4.125    0.000    0.500 
#    0.000    5.000    0.000    1.500    0.000    5.250 
#    0.000    0.000    0.000    0.000    0.000    0.000 
#
# Total GULP energy -89102.691100 kJ/mol
# GULP energy per Si atom -5568.918194 kJ/mol
# Density = 2.491597 g / cm^3
# Si number density = 24.972813 Si / 1000 Ang^3
#
#
#
# Elastic Constant Matrix: (Units=GPa)
#
#
# Indices 1 2 3 4 5 6 
#
# 1 241.7812 10.1716 59.9897 0.0000 -95.7087 0.0000
# 2 10.1716 75.5344 1.6540 0.0000 -11.6724 0.0000
# 3 59.9897 1.6540 55.0987 0.0000 -18.7539 0.0000
# 4 0.0000 0.0000 0.0000 1.1230 0.0000 -5.9375
# 5 -95.7087 -11.6724 -18.7539 0.0000 64.9212 0.0000
# 6 0.0000 0.0000 0.0000 -5.9375 0.0000 12.4330
#
#
#
# Elastic Compliance Matrix: (Units=1/GPa)
#
#
# Indices 1 2 3 4 5 6 
#
# 1 0.012634 0.001019 -0.008189 0.000000 0.016443 0.000000
# 2 0.001019 0.013711 -0.000189 0.000000 0.003913 0.000000
# 3 -0.008189 -0.000189 0.025453 0.000000 -0.004754 0.000000
# 4 0.000000 0.000000 0.000000 -0.583950 0.000000 -0.278871
# 5 0.016443 0.003913 -0.004754 0.000000 0.038974 0.000000
# 6 0.000000 0.000000 0.000000 -0.278871 0.000000 -0.052747
#
#
# Mechanical properties :
#
#
# Convention : Reuss Voigt Hill
#
# Bulk Modulus (GPa) = 26.97012 57.33833 42.15423
# Shear Modulus (GPa) = -9.63675 35.73539 13.04932
#
# Velocity S-wave (km/s) = -1.96654 3.78692 2.28840
# Velocity P-wave (km/s) = 2.38052 6.49085 4.88866
#
# Compressibility (1/GPa) = 0.03707807
#
# Stress axis : x y z
#
# Youngs Moduli (GPa) = 79.15303 72.93661 39.28824
#
# Poissons Ratio (x) = -0.07432 0.32174
# Poissons Ratio (y) = -0.08065 0.00743
# Poissons Ratio (z) = 0.64820 0.01380
#
# Static dielectric constant tensor:
#      x y z
#    x 2.136770 0.000000 -0.064090 
#    y 0.000000 1.964820 0.000000 
#    z -0.064090 0.000000 2.030630 
# 
# From -- ./inp_files/23739.got.cif
#   From: 2010.05.17/outbox.cif.g08.bks.cpg/sg8_12_cif.got.tgz:23739.got - 2010.06.03 19:46:02.
