data_PCOD9131104
_publ_section_title
;
Structure prediction by ZEFSAII (Michael W. Deem and Ramdas Pophale) SiO2 
 PCOD9131104
Probable space group: P M
;
_chemical_formula_sum "Si O2"
_cell_formula_units_Z 14
_cell_length_a 13.064839
_cell_length_b 10.736878
_cell_length_c 15.046070
_cell_angle_alpha 90.000000
_cell_angle_beta 159.915815
_cell_angle_gamma 90.000000
_cell_volume 724.779736
_symmetry_space_group_name_H-M "P M"
_symmetry_group_IT_number 6
_symmetry_cell_setting 'monoclinic'
loop_
_space_group_symop_operation_xyz
x,y,z
x,-y,z
loop_
_atom_site_type_symbol
_atom_site_label
_atom_site_fract_x
_atom_site_fract_y
_atom_site_fract_z
Si Si1 0.914490 0.788441 0.766930
Si Si2 0.908485 0.655016 0.432201
Si Si3 0.616939 0.151927 0.334459
Si Si4 0.589841 0.357004 0.992685
Si Si5 0.948579 0.000000 0.111236
Si Si6 0.656878 0.000000 0.680712
Si Si7 0.933150 0.727009 0.106161
Si Si8 0.620205 0.354371 0.668521
O O1 0.767353 0.815414 0.551927
O O2 0.809704 0.663299 0.731935
O O3 0.770892 0.884111 0.718737
O O4 0.265273 0.815510 0.050111
O O5 0.878182 0.500000 0.422074
O O6 0.757945 0.747121 0.381271
O O7 0.767781 0.691337 0.222572
O O8 0.255968 0.691591 0.711506
O O9 0.651340 0.000000 0.345935
O O10 0.542967 0.500000 0.976978
O O11 0.775912 0.352041 0.054029
O O12 0.865820 0.132222 0.083610
O O13 0.304149 0.000000 0.396158
O O14 0.805213 0.000000 0.897161
O O15 0.286793 0.702253 0.389258
O O16 0.790860 0.702136 0.893458
O O17 0.582942 0.500000 0.655950
#
# Coordination Sequence:
#
# PCOD9131104 Si02
#       8
#     2   2   2   2   1   1   2   2
#     4  12  23  38  63  85 123 162 200 240 300 365
#     4  10  23  43  64  87 117 155 204 257 308 362
#     4  12  24  40  64  91 117 159 205 253 312 366
#     4  10  21  41  65  87 116 160 201 242 305 367
#     4  12  22  38  62  89 126 167 202 248 298 358
#     4  12  20  40  60  83 124 169 206 236 282 372
#     4  12  23  40  63  93 126 164 204 249 304 364
#     4  12  25  39  60  94 130 163 206 253 294 356
#
# _framework density 19.316213999999999
#
# number of rings (size 3 to 8) (size 9 to 14) (size 15 to 20)
#    0.000    0.571    4.286    4.714    0.000    2.286 
#    2.571    0.000    0.000    0.000    0.000    0.000 
#    0.000    0.000    0.000    0.000    0.000    0.000 
#
# Total GULP energy -78046.804090 kJ/mol
# GULP energy per Si atom -5574.771721 kJ/mol
# Density = 1.927225 g / cm^3
# Si number density = 19.316214 Si / 1000 Ang^3
#
#
#
# Elastic Constant Matrix: (Units=GPa)
#
#
# Indices 1 2 3 4 5 6 
#
# 1 90.5052 14.3637 80.7185 0.0000 1.9320 0.0000
# 2 14.3637 86.8953 23.5054 0.0000 -3.4282 0.0000
# 3 80.7185 23.5054 170.4160 0.0000 -35.3675 0.0000
# 4 0.0000 0.0000 0.0000 -51.7689 0.0000 28.2171
# 5 1.9320 -3.4282 -35.3675 0.0000 14.1288 0.0000
# 6 0.0000 0.0000 0.0000 28.2171 0.0000 22.8956
#
#
#
# Elastic Compliance Matrix: (Units=1/GPa)
#
#
# Indices 1 2 3 4 5 6 
#
# 1 1.185925 0.010821 -1.241071 0.000000 -3.266217 0.000000
# 2 0.010821 0.012097 -0.013511 0.000000 -0.032364 0.000000
# 3 -1.241071 -0.013511 1.311392 0.000000 3.449134 0.000000
# 4 0.000000 0.000000 0.000000 -0.011555 0.000000 0.014240
# 5 -3.266217 -0.032364 3.449134 0.000000 9.143502 0.000000
# 6 0.000000 0.000000 0.000000 0.014240 0.000000 0.026126
#
#
# Mechanical properties :
#
#
# Convention : Reuss Voigt Hill
#
# Bulk Modulus (GPa) = 45.67743 64.99910 55.33826
# Shear Modulus (GPa) = 0.35305 12.33305 6.34305
#
# Velocity S-wave (km/s) = 0.42798 2.52956 1.81409
# Velocity P-wave (km/s) = 4.89313 6.50036 5.75315
#
# Compressibility (1/GPa) = 0.02189265
#
# Stress axis : x y z
#
# Youngs Moduli (GPa) = 0.84322 82.66335 0.76255
#
# Poissons Ratio (x) = -0.89446 0.94638
# Poissons Ratio (y) = -0.00912 0.01030
# Poissons Ratio (z) = 1.04650 1.11683
#
# Static dielectric constant tensor:
#      x y z
#    x 1.630290 0.000000 -0.023700 
#    y 0.000000 1.894930 0.000000 
#    z -0.023700 0.000000 1.694920 
# 
# From -- ./inp_files/5550.got.cif
#   From: 2010.05.17/outbox.cif.g08.bks.cpg/sg6_3_cif.got.tgz:5550.got - 2010.06.03 19:42:10.
