data_PCOD9131368
_publ_section_title
;
Structure prediction by ZEFSAII (Michael W. Deem and Ramdas Pophale) SiO2 
 PCOD9131368
Probable space group: P C
;
_chemical_formula_sum "Si O2"
_cell_formula_units_Z 16
_cell_length_a 12.376955
_cell_length_b 13.202591
_cell_length_c 5.232075
_cell_angle_alpha 90.000000
_cell_angle_beta 122.089684
_cell_angle_gamma 90.000000
_cell_volume 724.339058
_symmetry_space_group_name_H-M "P C"
_symmetry_group_IT_number 7
_symmetry_cell_setting 'monoclinic'
loop_
_space_group_symop_operation_xyz
x,y,z
x,-y,1/2+z
loop_
_atom_site_type_symbol
_atom_site_label
_atom_site_fract_x
_atom_site_fract_y
_atom_site_fract_z
Si Si1 0.255990 0.431075 0.778940
Si Si2 0.975340 0.436470 0.502771
Si Si3 0.059172 0.053460 0.242584
Si Si4 0.407643 0.771949 0.555461
Si Si5 0.801241 0.929040 0.573654
Si Si6 0.339268 0.022812 0.108954
Si Si7 0.695219 0.569152 0.566910
Si Si8 0.567260 0.775634 0.267522
O O1 0.271737 0.486511 0.526152
O O2 0.111320 0.387850 0.615667
O O3 0.347541 0.337468 0.941316
O O4 0.975710 0.531289 0.301317
O O5 0.840490 0.611840 0.764528
O O6 0.036433 0.959829 0.413039
O O7 0.943873 0.120932 0.208578
O O8 0.214036 0.050239 0.455391
O O9 0.309694 0.859151 0.527780
O O10 0.466179 0.805989 0.359000
O O11 0.510501 0.769601 0.911752
O O12 0.690143 0.847211 0.423388
O O13 0.791181 0.991168 0.825803
O O14 0.416137 0.987782 0.961839
O O15 0.678425 0.508227 0.809657
O O16 0.605159 0.663003 0.406062
#
# Coordination Sequence:
#
# PCOD9131368 Si02
#       8
#     2   2   2   2   2   2   2   2
#     4  10  21  40  64  89 125 164 208 259 310 360
#     4   8  16  34  60  84 112 150 200 254 310 354
#     4   8  16  34  60  84 114 142 194 252 302 354
#     4  12  26  40  60  94 128 167 215 246 305 378
#     4  10  21  40  63  87 122 159 205 259 309 364
#     4  10  21  40  63  87 122 159 205 259 309 364
#     4  10  21  40  64  89 125 164 208 259 310 360
#     4  12  26  40  60  94 128 167 215 246 305 378
#
# _framework density 22.089103000000001
#
# number of rings (size 3 to 8) (size 9 to 14) (size 15 to 20)
#    0.000    2.000    0.000    3.000    0.000    6.000 
#    6.750    0.000   27.500    0.000    0.000    0.000 
#    0.000    0.000    0.000    0.000    0.000    0.000 
#
# Total GULP energy -89077.744669 kJ/mol
# GULP energy per Si atom -5567.359042 kJ/mol
# Density = 2.203883 g / cm^3
# Si number density = 22.089103 Si / 1000 Ang^3
#
#
#
# Elastic Constant Matrix: (Units=GPa)
#
#
# Indices 1 2 3 4 5 6 
#
# 1 62.2455 18.0608 19.0289 0.0000 -7.8527 0.0000
# 2 18.0608 53.7097 28.9868 0.0000 7.2736 0.0000
# 3 19.0289 28.9868 123.2739 0.0000 -21.8088 0.0000
# 4 0.0000 0.0000 0.0000 27.8705 0.0000 2.4409
# 5 -7.8527 7.2736 -21.8088 0.0000 41.9231 0.0000
# 6 0.0000 0.0000 0.0000 2.4409 0.0000 24.9908
#
#
#
# Elastic Compliance Matrix: (Units=1/GPa)
#
#
# Indices 1 2 3 4 5 6 
#
# 1 0.018693 -0.006564 -0.000574 0.000000 0.004342 0.000000
# 2 -0.006564 0.025641 -0.006631 0.000000 -0.009127 0.000000
# 3 -0.000574 -0.006631 0.010952 0.000000 0.006740 0.000000
# 4 0.000000 0.000000 0.000000 0.036190 0.000000 -0.003535
# 5 0.004342 -0.009127 0.006740 0.000000 0.029756 0.000000
# 6 0.000000 0.000000 0.000000 -0.003535 0.000000 0.040360
#
#
# Mechanical properties :
#
#
# Convention : Reuss Voigt Hill
#
# Bulk Modulus (GPa) = 36.03796 41.26467 38.65131
# Shear Modulus (GPa) = 25.20427 30.50039 27.85233
#
# Velocity S-wave (km/s) = 3.38157 3.71993 3.55478
# Velocity P-wave (km/s) = 5.62112 6.09689 5.86383
#
# Compressibility (1/GPa) = 0.02774852
#
# Stress axis : x y z
#
# Youngs Moduli (GPa) = 53.49530 39.00076 91.30583
#
# Poissons Ratio (x) = 0.25601 0.05240
# Poissons Ratio (y) = 0.35115 0.60542
# Poissons Ratio (z) = 0.03070 0.25860
#
# Static dielectric constant tensor:
#      x y z
#    x 1.908930 0.000000 0.016820 
#    y 0.000000 1.790460 0.000000 
#    z 0.016820 0.000000 1.872580 
# 
# From -- ./inp_files/351.got.cif
#   From: 2010.05.17/outbox.cif.g08.bks.cpg/sg7_cif.got.tgz:351.got - 2010.06.03 19:44:50.
