data_PCOD9131074
_publ_section_title
;
Structure prediction by ZEFSAII (Michael W. Deem and Ramdas Pophale) SiO2 
 PCOD9131074
Probable space group: P M
;
_chemical_formula_sum "Si O2"
_cell_formula_units_Z 14
_cell_length_a 7.848309
_cell_length_b 9.112296
_cell_length_c 15.900536
_cell_angle_alpha 90.000000
_cell_angle_beta 33.872475
_cell_angle_gamma 90.000000
_cell_volume 633.783317
_symmetry_space_group_name_H-M "P M"
_symmetry_group_IT_number 6
_symmetry_cell_setting 'monoclinic'
loop_
_space_group_symop_operation_xyz
x,y,z
x,-y,z
loop_
_atom_site_type_symbol
_atom_site_label
_atom_site_fract_x
_atom_site_fract_y
_atom_site_fract_z
Si Si1 0.251340 0.169632 0.530680
Si Si2 0.122794 0.829583 0.766958
Si Si3 0.183287 0.668091 0.994583
Si Si4 0.687835 0.823607 0.087441
Si Si5 0.677981 0.253482 0.659475
Si Si6 0.058932 0.664028 0.348883
Si Si7 0.912216 0.174072 0.245983
O O1 0.181929 0.238810 0.650973
O O2 0.568599 0.224213 0.359998
O O3 0.955345 0.172170 0.593134
O O4 0.329721 0.000000 0.515237
O O5 0.416057 0.822243 0.709061
O O6 0.050736 0.000000 0.782475
O O7 0.834521 0.773000 0.938274
O O8 0.075735 0.500000 0.038735
O O9 0.489083 0.674498 0.813384
O O10 0.949799 0.779998 0.045497
O O11 0.175770 0.734252 0.091034
O O12 0.389386 0.732105 0.230707
O O13 0.634623 0.000000 0.109698
O O14 0.859082 0.343476 0.514891
O O15 0.076862 0.500000 0.305344
O O16 0.918549 0.779753 0.340743
O O17 0.962269 0.000000 0.213745
#
# Coordination Sequence:
#
# PCOD9131074 Si02
#       7
#     2   2   2   2   2   2   2
#     4  10  21  38  65  99 132 171 221 278 335 392
#     4   9  19  38  61  97 136 170 217 278 332 391
#     4  11  24  44  66  96 136 175 221 276 334 401
#     4  10  22  40  67  97 130 174 224 274 335 399
#     4  11  23  40  68  95 134 180 224 267 335 404
#     4  12  25  43  66  96 136 180 224 276 340 401
#     4  11  24  43  67  98 135 174 228 283 334 400
#
# _framework density 22.089569000000001
#
# number of rings (size 3 to 8) (size 9 to 14) (size 15 to 20)
#    0.000    1.429    1.429    3.429    2.000    4.571 
#    0.000    2.143    0.000    0.000    0.000    0.000 
#    0.000    0.000    0.000    0.000    0.000    0.000 
#
# Total GULP energy -78031.214221 kJ/mol
# GULP energy per Si atom -5573.658159 kJ/mol
# Density = 2.203929 g / cm^3
# Si number density = 22.089569 Si / 1000 Ang^3
#
#
#
# Elastic Constant Matrix: (Units=GPa)
#
#
# Indices 1 2 3 4 5 6 
#
# 1 66.7157 -2.8452 28.2005 0.0000 5.7405 0.0000
# 2 -2.8452 70.1285 36.7202 0.0000 8.6055 0.0000
# 3 28.2005 36.7202 150.2392 0.0000 18.5880 0.0000
# 4 0.0000 0.0000 0.0000 5.1577 0.0000 4.6847
# 5 5.7405 8.6055 18.5880 0.0000 41.6518 0.0000
# 6 0.0000 0.0000 0.0000 4.6847 0.0000 11.2998
#
#
#
# Elastic Compliance Matrix: (Units=1/GPa)
#
#
# Indices 1 2 3 4 5 6 
#
# 1 0.016763 0.002752 -0.003665 0.000000 -0.001243 0.000000
# 2 0.002752 0.016917 -0.004416 0.000000 -0.001904 0.000000
# 3 -0.003665 -0.004416 0.008730 0.000000 -0.002478 0.000000
# 4 0.000000 0.000000 0.000000 0.310996 0.000000 -0.128934
# 5 -0.001243 -0.001904 -0.002478 0.000000 0.025679 0.000000
# 6 0.000000 0.000000 0.000000 -0.128934 0.000000 0.141951
#
#
# Mechanical properties :
#
#
# Convention : Reuss Voigt Hill
#
# Bulk Modulus (GPa) = 31.49486 45.69269 38.59378
# Shear Modulus (GPa) = 9.22038 26.62238 17.92138
#
# Velocity S-wave (km/s) = 2.04527 3.47537 2.85143
# Velocity P-wave (km/s) = 4.45716 6.06913 5.32450
#
# Compressibility (1/GPa) = 0.03175122
#
# Stress axis : x y z
#
# Youngs Moduli (GPa) = 59.65681 59.11250 114.54887
#
# Poissons Ratio (x) = -0.16266 0.41984
# Poissons Ratio (y) = -0.16416 0.50581
# Poissons Ratio (z) = 0.21865 0.26102
#
# Static dielectric constant tensor:
#      x y z
#    x 1.857430 0.000000 0.040420 
#    y 0.000000 1.755100 0.000000 
#    z 0.040420 0.000000 1.888480 
# 
# From -- ./inp_files/2629.got.cif
#   From: 2010.05.17/outbox.cif.g08.bks.cpg/sg6_2_cif.got.tgz:2629.got - 2010.06.03 19:42:10.
