data_PCOD9131917
_publ_section_title
;
Structure prediction by ZEFSAII (Michael W. Deem and Ramdas Pophale) SiO2 
 PCOD9131917
Probable space group: C M
;
_chemical_formula_sum "Si O2"
_cell_formula_units_Z 32
_cell_length_a 14.561064
_cell_length_b 8.657952
_cell_length_c 20.545609
_cell_angle_alpha 90.000000
_cell_angle_beta 134.975774
_cell_angle_gamma 90.000000
_cell_volume 1832.296946
_symmetry_space_group_name_H-M "C M"
_symmetry_group_IT_number 8
_symmetry_cell_setting 'monoclinic'
loop_
_space_group_symop_operation_xyz
x,y,z
x,-y,z
1/2+x,1/2+y,z
1/2+x,1/2-y,z
loop_
_atom_site_type_symbol
_atom_site_label
_atom_site_fract_x
_atom_site_fract_y
_atom_site_fract_z
Si Si1 0.623840 0.315072 0.396070
Si Si2 0.128553 0.187474 0.249948
Si Si3 0.836554 0.185415 0.753117
Si Si4 0.831273 0.814448 0.600107
Si Si5 0.122492 0.314315 0.891703
Si Si6 0.832942 0.813279 0.104570
Si Si7 0.838831 0.685584 0.250755
Si Si8 0.130739 0.185424 0.752245
O O1 0.613681 0.500000 0.391531
O O2 0.657718 0.265869 0.338919
O O3 0.731153 0.261109 0.500651
O O4 0.482359 0.245552 0.339812
O O5 0.233431 0.241549 0.250416
O O6 0.980374 0.233968 0.160581
O O7 0.131286 0.000000 0.249930
O O8 0.804319 0.227760 0.661964
O O9 0.731138 0.248970 0.750383
O O10 0.979859 0.252001 0.838183
O O11 0.841928 0.000000 0.759519
O O12 0.981203 0.771375 0.661292
O O13 0.821117 0.000000 0.589878
O O14 0.119100 0.500000 0.887072
O O15 0.156796 0.249361 0.837632
O O16 0.228548 0.266733 0.998368
O O17 0.805421 0.745780 0.161991
O O18 0.831410 0.000000 0.108532
O O19 0.840129 0.500000 0.250908
O O20 0.138045 0.000000 0.757390
#
# Coordination Sequence:
#
# PCOD9131917 Si02
#       8
#     4   4   4   4   4   4   4   4
#     4  10  20  35  54  75 103 138 174 215 262 315
#     4   8  17  34  52  72 101 135 169 206 254 310
#     4  10  21  37  56  78 108 144 181 223 268 319
#     4   9  20  37  54  76 106 137 173 219 266 316
#     4  10  20  35  56  80 109 144 179 221 272 323
#     4   9  19  36  54  76 106 137 172 215 262 314
#     4  10  19  33  54  77 103 137 175 216 260 310
#     4  10  21  37  56  80 110 140 177 225 270 321
#
# _framework density 17.464417999999998
#
# number of rings (size 3 to 8) (size 9 to 14) (size 15 to 20)
#    0.000    2.500    0.000    3.375    0.000    6.000 
#    0.000   11.250    0.000    0.000    0.000    0.000 
#    0.000    0.000    0.000    0.000    0.000    0.000 
#
# Total GULP energy -89266.632804 kJ/mol
# GULP energy per Si atom -5579.164550 kJ/mol
# Density = 1.742467 g / cm^3
# Si number density = 17.464418 Si / 1000 Ang^3
#
#
#
# Elastic Constant Matrix: (Units=GPa)
#
#
# Indices 1 2 3 4 5 6 
#
# 1 198.3373 44.8477 105.3665 0.0000 5.6177 0.0000
# 2 44.8477 42.5780 51.0129 0.0000 0.9752 0.0000
# 3 105.3665 51.0129 191.0739 0.0000 -0.3442 0.0000
# 4 0.0000 0.0000 0.0000 30.6221 0.0000 -3.2478
# 5 5.6177 0.9752 -0.3442 0.0000 5.4919 0.0000
# 6 0.0000 0.0000 0.0000 -3.2478 0.0000 27.0742
#
#
#
# Elastic Compliance Matrix: (Units=1/GPa)
#
#
# Indices 1 2 3 4 5 6 
#
# 1 0.007959 -0.004315 -0.003251 0.000000 -0.007579 0.000000
# 2 -0.004315 0.037121 -0.007536 0.000000 -0.002650 0.000000
# 3 -0.003251 -0.007536 0.009047 0.000000 0.005230 0.000000
# 4 0.000000 0.000000 0.000000 0.033077 0.000000 0.003968
# 5 -0.007579 -0.002650 0.005230 0.000000 0.190637 0.000000
# 6 0.000000 0.000000 0.000000 0.003968 0.000000 0.037412
#
#
# Mechanical properties :
#
#
# Convention : Reuss Voigt Hill
#
# Bulk Modulus (GPa) = 41.79849 92.71592 67.25720
# Shear Modulus (GPa) = 14.14703 28.02178 21.08441
#
# Velocity S-wave (km/s) = 2.84922 4.00998 3.47836
# Velocity P-wave (km/s) = 5.89996 8.63965 7.39774
#
# Compressibility (1/GPa) = 0.02392431
#
# Stress axis : x y z
#
# Youngs Moduli (GPa) = 125.63993 26.93903 110.52909
#
# Poissons Ratio (x) = 0.11625 0.35929
# Poissons Ratio (y) = 0.54218 0.83291
# Poissons Ratio (z) = 0.40841 0.20300
#
# Static dielectric constant tensor:
#      x y z
#    x 1.577310 0.000000 0.001000 
#    y 0.000000 1.591400 0.000000 
#    z 0.001000 0.000000 1.571620 
# 
# From -- ./inp_files/26428.got.cif
#   From: 2010.05.17/outbox.cif.g08.bks.cpg/sg8_14_cif.got.tgz:26428.got - 2010.06.03 19:46:02.
