data_PCOD9131940
_publ_section_title
;
Structure prediction by ZEFSAII (Michael W. Deem and Ramdas Pophale) SiO2 
 PCOD9131940
Probable space group: C M
;
_chemical_formula_sum "Si O2"
_cell_formula_units_Z 32
_cell_length_a 28.182000
_cell_length_b 8.175445
_cell_length_c 12.382122
_cell_angle_alpha 90.000000
_cell_angle_beta 150.040977
_cell_angle_gamma 90.000000
_cell_volume 1424.655551
_symmetry_space_group_name_H-M "C M"
_symmetry_group_IT_number 8
_symmetry_cell_setting 'monoclinic'
loop_
_space_group_symop_operation_xyz
x,y,z
x,-y,z
1/2+x,1/2+y,z
1/2+x,1/2-y,z
loop_
_atom_site_type_symbol
_atom_site_label
_atom_site_fract_x
_atom_site_fract_y
_atom_site_fract_z
Si Si1 0.375000 0.799432 0.079400
Si Si2 0.712136 0.691348 0.614559
Si Si3 0.963714 0.691150 0.477985
Si Si4 0.054181 0.690784 0.013939
Si Si5 0.007526 0.307001 0.149356
Si Si6 0.325800 0.691088 0.387907
Si Si7 0.622995 0.314388 0.933515
Si Si8 0.777126 0.809583 0.524236
O O1 0.414446 0.744360 0.271993
O O2 0.442776 0.739528 0.116650
O O3 0.376491 0.000000 0.082950
O O4 0.269481 0.753430 0.833302
O O5 0.689369 0.500000 0.578329
O O6 0.615795 0.786499 0.402282
O O7 0.779416 0.714532 0.641434
O O8 0.984544 0.500000 0.504551
O O9 0.889515 0.713569 0.428973
O O10 0.060546 0.777178 0.705671
O O11 0.029902 0.500000 0.947632
O O12 0.000409 0.760761 0.013143
O O13 0.165356 0.694666 0.269585
O O14 0.054702 0.785150 0.902580
O O15 0.988235 0.500000 0.100730
O O16 0.352480 0.500000 0.440260
O O17 0.329571 0.752564 0.519669
O O18 0.216044 0.704973 0.133191
O O19 0.656443 0.500000 0.999865
O O20 0.800965 0.000000 0.588975
#
# Coordination Sequence:
#
# PCOD9131940 Si02
#       8
#     4   4   4   4   4   4   4   4
#     4   9  21  39  56  77 107 144 186 228 270 323
#     4  10  19  33  55  84 113 139 175 225 274 321
#     4  11  23  40  59  80 110 149 194 237 278 327
#     4   8  15  30  54  82 111 143 179 220 271 332
#     4   9  18  36  58  79 108 146 181 216 268 330
#     4  10  21  39  60  84 115 148 185 230 280 333
#     4  11  22  37  58  85 116 148 185 230 281 334
#     4   8  16  32  54  81 112 143 175 216 270 332
#
# _framework density 22.461569000000001
#
# number of rings (size 3 to 8) (size 9 to 14) (size 15 to 20)
#    0.000    2.500    0.000    3.750    0.000    7.000 
#    0.000    8.750    0.000    0.000    0.000    0.000 
#    0.000    0.000    0.000    0.000    0.000    0.000 
#
# Total GULP energy -89375.700100 kJ/mol
# GULP energy per Si atom -5585.981256 kJ/mol
# Density = 2.241045 g / cm^3
# Si number density = 22.461569 Si / 1000 Ang^3
#
#
#
# Elastic Constant Matrix: (Units=GPa)
#
#
# Indices 1 2 3 4 5 6 
#
# 1 36.2999 -4.3083 18.5386 0.0000 -1.6645 0.0000
# 2 -4.3083 33.6349 -0.8898 0.0000 -10.0452 0.0000
# 3 18.5386 -0.8898 115.6435 0.0000 -29.7459 0.0000
# 4 0.0000 0.0000 0.0000 25.5300 0.0000 -0.1500
# 5 -1.6645 -10.0452 -29.7459 0.0000 28.5650 0.0000
# 6 0.0000 0.0000 0.0000 -0.1500 0.0000 19.1220
#
#
#
# Elastic Compliance Matrix: (Units=1/GPa)
#
#
# Indices 1 2 3 4 5 6 
#
# 1 0.030653 0.002832 -0.005704 0.000000 -0.003158 0.000000
# 2 0.002832 0.035250 0.004163 0.000000 0.016897 0.000000
# 3 -0.005704 0.004163 0.013501 0.000000 0.015191 0.000000
# 4 0.000000 0.000000 0.000000 0.039171 0.000000 0.000307
# 5 -0.003158 0.016897 0.015191 0.000000 0.056585 0.000000
# 6 0.000000 0.000000 0.000000 0.000307 0.000000 0.052298
#
#
# Mechanical properties :
#
#
# Convention : Reuss Voigt Hill
#
# Bulk Modulus (GPa) = 12.19714 23.58438 17.89076
# Shear Modulus (GPa) = 19.82513 26.12594 22.97554
#
# Velocity S-wave (km/s) = 2.97412 3.41418 3.20172
# Velocity P-wave (km/s) = 4.15161 5.10538 4.65300
#
# Compressibility (1/GPa) = 0.08198640
#
# Stress axis : x y z
#
# Youngs Moduli (GPa) = 32.62331 28.36868 74.06745
#
# Poissons Ratio (x) = -0.08035 0.42252
# Poissons Ratio (y) = -0.09240 -0.30837
# Poissons Ratio (z) = 0.18610 -0.11811
#
# Static dielectric constant tensor:
#      x y z
#    x 1.859380 0.000000 0.021650 
#    y 0.000000 1.764630 0.000000 
#    z 0.021650 0.000000 1.874450 
# 
# From -- ./inp_files/24817.got.cif
#   From: 2010.05.17/outbox.cif.g08.bks.cpg/sg8_13_cif.got.tgz:24817.got - 2010.06.03 19:46:02.
