data_PCOD9131598
_publ_section_title
;
Structure prediction by ZEFSAII (Michael W. Deem and Ramdas Pophale) SiO2 
 PCOD9131598
Probable space group: C M
;
_chemical_formula_sum "Si O2"
_cell_formula_units_Z 32
_cell_length_a 28.459131
_cell_length_b 8.676412
_cell_length_c 23.496526
_cell_angle_alpha 90.000000
_cell_angle_beta 162.401620
_cell_angle_gamma 90.000000
_cell_volume 1754.144187
_symmetry_space_group_name_H-M "C M"
_symmetry_group_IT_number 8
_symmetry_cell_setting 'monoclinic'
loop_
_space_group_symop_operation_xyz
x,y,z
x,-y,z
1/2+x,1/2+y,z
1/2+x,1/2-y,z
loop_
_atom_site_type_symbol
_atom_site_label
_atom_site_fract_x
_atom_site_fract_y
_atom_site_fract_z
Si Si1 0.924040 0.185910 0.030470
Si Si2 0.234584 0.684781 0.973384
Si Si3 0.368268 0.815512 0.725636
Si Si4 0.105168 0.817507 0.714139
Si Si5 0.185589 0.184748 0.042369
Si Si6 0.570172 0.686612 0.310978
Si Si7 0.305824 0.684718 0.776871
Si Si8 0.475718 0.814886 0.455111
O O1 0.057932 0.227803 0.229918
O O2 0.900970 0.000000 0.007366
O O3 0.769524 0.264469 0.876688
O O4 0.928189 0.223147 0.968617
O O5 0.231324 0.500000 0.969045
O O6 0.202949 0.746352 0.999535
O O7 0.408482 0.735155 0.154246
O O8 0.112227 0.745147 0.785162
O O9 0.221524 0.758597 0.518736
O O10 0.338000 0.771036 0.755904
O O11 0.379640 0.000000 0.733098
O O12 0.525378 0.739576 0.884842
O O13 0.982904 0.756356 0.526476
O O14 0.096394 0.000000 0.708175
O O15 0.329074 0.234245 0.248282
O O16 0.189864 0.000000 0.043616
O O17 0.572424 0.500000 0.316425
O O18 0.310715 0.500000 0.772816
O O19 0.134953 0.722810 0.604855
O O20 0.473523 0.000000 0.458848
#
# Coordination Sequence:
#
# PCOD9131598 Si02
#       8
#     4   4   4   4   4   4   4   4
#     4   8  15  31  53  76 103 134 171 214 261 309
#     4  10  19  35  58  81 107 139 175 215 263 315
#     4  11  22  35  51  74 106 141 175 214 263 314
#     4  10  18  29  51  83 112 135 168 215 263 312
#     4  11  23  38  54  75 105 141 182 223 263 310
#     4   8  16  32  55  79 101 132 174 213 251 306
#     4   9  17  32  55  79 101 129 168 216 264 311
#     4   9  19  36  57  79 105 139 177 218 266 315
#
# _framework density 18.242515000000001
#
# number of rings (size 3 to 8) (size 9 to 14) (size 15 to 20)
#    0.000    2.500    0.000    4.500    0.000    3.000 
#    0.000    6.875    0.000    6.000    0.000    0.000 
#    0.000    0.000    0.000    0.000    0.000    0.000 
#
# Total GULP energy -89203.378520 kJ/mol
# GULP energy per Si atom -5575.211158 kJ/mol
# Density = 1.820099 g / cm^3
# Si number density = 18.242515 Si / 1000 Ang^3
#
#
#
# Elastic Constant Matrix: (Units=GPa)
#
#
# Indices 1 2 3 4 5 6 
#
# 1 88.5462 37.2311 109.8194 0.0001 -34.3636 0.0000
# 2 37.2311 42.6796 40.3274 0.0002 -17.2497 0.0002
# 3 109.8194 40.3274 106.0070 0.0002 -38.7851 0.0001
# 4 0.0001 0.0002 0.0002 22.0503 0.0002 -6.0529
# 5 -34.3636 -17.2497 -38.7851 0.0002 31.4772 0.0001
# 6 0.0000 0.0002 0.0001 -6.0529 0.0001 33.3768
#
#
#
# Elastic Compliance Matrix: (Units=1/GPa)
#
#
# Indices 1 2 3 4 5 6 
#
# 1 -0.036115 -0.004963 0.043486 0.000000 0.011435 0.000000
# 2 -0.004963 0.036385 -0.006168 0.000000 0.006921 0.000000
# 3 0.043486 -0.006168 -0.031205 0.000000 0.005643 0.000000
# 4 0.000000 0.000000 0.000000 0.047727 -0.000001 0.008655
# 5 0.011435 0.006921 0.005643 -0.000001 0.054999 0.000000
# 6 0.000000 0.000000 0.000000 0.008655 0.000000 0.031531
#
#
# Mechanical properties :
#
#
# Convention : Reuss Voigt Hill
#
# Bulk Modulus (GPa) = 29.60805 67.99872 48.80339
# Shear Modulus (GPa) = 100.26198 20.70451 60.48325
#
# Velocity S-wave (km/s) = 7.42159 3.37257 5.76429
# Velocity P-wave (km/s) = 9.47129 7.24717 8.43288
#
# Compressibility (1/GPa) = 0.03377459
#
# Stress axis : x y z
#
# Youngs Moduli (GPa) = -27.68912 27.48366 -32.04576
#
# Poissons Ratio (x) = 0.13640 1.39354
# Poissons Ratio (y) = -0.13742 -0.19766
# Poissons Ratio (z) = 1.20409 0.16952
#
# Static dielectric constant tensor:
#      x y z
#    x 1.609820 0.000000 -0.031910 
#    y 0.000000 1.614550 0.000000 
#    z -0.031910 0.000000 1.646580 
# 
# From -- ./inp_files/16798.got.cif
#   From: 2010.05.17/outbox.cif.g08.bks.cpg/sg8_9_cif.got.tgz:16798.got - 2010.06.03 19:46:02.
