data_PCOD9131143
_publ_section_title
;
Structure prediction by ZEFSAII (Michael W. Deem and Ramdas Pophale) SiO2 
 PCOD9131143
Probable space group: P M
;
_chemical_formula_sum "Si O2"
_cell_formula_units_Z 11
_cell_length_a 5.121965
_cell_length_b 16.518670
_cell_length_c 5.117245
_cell_angle_alpha 90.000000
_cell_angle_beta 90.099906
_cell_angle_gamma 90.000000
_cell_volume 432.959461
_symmetry_space_group_name_H-M "P M"
_symmetry_group_IT_number 6
_symmetry_cell_setting 'monoclinic'
loop_
_space_group_symop_operation_xyz
x,y,z
x,-y,z
loop_
_atom_site_type_symbol
_atom_site_label
_atom_site_fract_x
_atom_site_fract_y
_atom_site_fract_z
Si Si1 0.948910 0.910289 0.442150
Si Si2 0.260444 0.778689 0.145950
Si Si3 0.429488 0.376579 0.387693
Si Si4 0.758842 0.500000 0.147368
Si Si5 0.592928 0.910826 0.936998
Si Si6 0.087032 0.623673 0.907697
O O1 0.722809 0.910133 0.222455
O O2 0.131483 0.837723 0.354758
O O3 0.074463 0.000000 0.426182
O O4 0.816274 0.901215 0.721852
O O5 0.452670 0.716783 0.298431
O O6 0.397564 0.836443 0.937841
O O7 0.065335 0.717251 0.995933
O O8 0.687355 0.428370 0.363002
O O9 0.258436 0.382200 0.647825
O O10 0.257677 0.413834 0.147903
O O11 0.829289 0.571755 0.931694
O O12 0.471655 0.000000 0.895657
#
# Coordination Sequence:
#
# PCOD9131143 Si02
#       6
#     2   2   2   1   2   2
#     4  10  23  40  62  91 124 164 204 246 302 359
#     4  10  25  39  66  90 128 156 206 253 301 354
#     4  10  26  42  62  95 119 159 208 247 306 365
#     4  12  24  46  68  84 130 162 196 258 308 360
#     4  10  23  40  62  91 124 164 204 246 302 359
#     4  10  26  42  62  95 119 159 208 247 306 365
#
# _framework density 25.406538000000001
#
# number of rings (size 3 to 8) (size 9 to 14) (size 15 to 20)
#    1.091    0.727    0.000    1.636    7.636    2.909 
#    0.000    5.455    0.000    0.000    0.000    0.000 
#    0.000    0.000    0.000    0.000    0.000    0.000 
#
# Total GULP energy -61265.547601 kJ/mol
# GULP energy per Si atom -5569.595236 kJ/mol
# Density = 2.534871 g / cm^3
# Si number density = 25.406538 Si / 1000 Ang^3
#
#
#
# Elastic Constant Matrix: (Units=GPa)
#
#
# Indices 1 2 3 4 5 6 
#
# 1 44.2124 40.7543 29.5613 0.0000 -8.1058 0.0000
# 2 40.7543 274.4638 47.5934 0.0000 -54.8686 0.0000
# 3 29.5613 47.5934 152.0593 0.0000 -36.1043 0.0000
# 4 0.0000 0.0000 0.0000 33.4203 0.0000 -36.4460
# 5 -8.1058 -54.8686 -36.1043 0.0000 51.6910 0.0000
# 6 0.0000 0.0000 0.0000 -36.4460 0.0000 18.3393
#
#
#
# Elastic Compliance Matrix: (Units=1/GPa)
#
#
# Indices 1 2 3 4 5 6 
#
# 1 0.029283 -0.004131 -0.005216 0.000000 -0.003435 0.000000
# 2 -0.004131 0.005222 0.000397 0.000000 0.005172 0.000000
# 3 -0.005216 0.000397 0.008838 0.000000 0.005776 0.000000
# 4 0.000000 0.000000 0.000000 -0.025635 0.000000 -0.050945
# 5 -0.003435 0.005172 0.005776 0.000000 0.028332 0.000000
# 6 0.000000 0.000000 0.000000 -0.050945 0.000000 -0.046715
#
#
# Mechanical properties :
#
#
# Convention : Reuss Voigt Hill
#
# Bulk Modulus (GPa) = 39.30267 78.50596 58.90432
# Shear Modulus (GPa) = 194.52284 44.21190 119.36737
#
# Velocity S-wave (km/s) = 8.75958 4.17607 6.86185
# Velocity P-wave (km/s) = 10.85404 7.36340 9.27442
#
# Compressibility (1/GPa) = 0.02544356
#
# Stress axis : x y z
#
# Youngs Moduli (GPa) = 34.14953 191.49629 113.15295
#
# Poissons Ratio (x) = 0.79098 0.59017
# Poissons Ratio (y) = 0.14105 -0.04488
# Poissons Ratio (z) = 0.17811 -0.07596
#
# Static dielectric constant tensor:
#      x y z
#    x 2.384730 0.000000 0.073020 
#    y 0.000000 2.001260 0.000000 
#    z 0.073020 0.000000 1.964750 
# 
# From -- ./inp_files/307.got.cif
#   From: 2010.05.17/outbox.cif.g08.bks.cpg/sg6_1_cif.got.tgz:307.got - 2010.06.03 19:42:10.
