data_PCOD9131312
_publ_section_title
;
Structure prediction by ZEFSAII (Michael W. Deem and Ramdas Pophale) SiO2 
 PCOD9131312
Probable space group: P C
;
_chemical_formula_sum "Si O2"
_cell_formula_units_Z 12
_cell_length_a 7.419281
_cell_length_b 12.118059
_cell_length_c 5.413040
_cell_angle_alpha 90.000000
_cell_angle_beta 90.574814
_cell_angle_gamma 90.000000
_cell_volume 486.647238
_symmetry_space_group_name_H-M "P C"
_symmetry_group_IT_number 7
_symmetry_cell_setting 'monoclinic'
loop_
_space_group_symop_operation_xyz
x,y,z
x,-y,1/2+z
loop_
_atom_site_type_symbol
_atom_site_label
_atom_site_fract_x
_atom_site_fract_y
_atom_site_fract_z
Si Si1 0.658770 0.390911 0.335780
Si Si2 0.241841 0.437726 0.401045
Si Si3 0.798239 0.635958 0.336079
Si Si4 0.272351 0.946187 0.371368
Si Si5 0.868990 0.035095 0.290340
Si Si6 0.092263 0.760290 0.622315
O O1 0.458045 0.427639 0.396724
O O2 0.780674 0.502404 0.315754
O O3 0.731638 0.323622 0.569884
O O4 0.669259 0.336462 0.067625
O O5 0.190863 0.488169 0.662629
O O6 0.161495 0.318947 0.338361
O O7 0.985222 0.688186 0.420850
O O8 0.258045 0.825314 0.494808
O O9 0.340403 0.025942 0.596072
O O10 0.056728 0.967079 0.326590
O O11 0.947199 0.155748 0.238343
O O12 0.772625 0.013228 0.547742
#
# Coordination Sequence:
#
# PCOD9131312 Si02
#       6
#     2   2   2   2   2   2
#     4  10  20  40  49  65 108 159 168 208 268 317
#     4  12  24  38  53  75 114 147 184 223 263 310
#     4  10  20  34  56  70 104 138 188 209 261 309
#     4   8  16  32  51  76 113 132 158 220 287 318
#     4   8  16  32  51  76 113 132 158 220 287 318
#     4  10  22  32  58  92 100 136 190 232 254 310
#
# _framework density 24.658518999999998
#
# number of rings (size 3 to 8) (size 9 to 14) (size 15 to 20)
#    0.000    2.667    3.333    0.000    4.667   10.667 
#    0.000    0.000    0.000    0.000    0.000   63.000 
#    0.000    0.000    0.000    0.000    0.000    0.000 
#
# Total GULP energy -66965.812284 kJ/mol
# GULP energy per Si atom -5580.484357 kJ/mol
# Density = 2.460240 g / cm^3
# Si number density = 24.658519 Si / 1000 Ang^3
#
#
#
# Elastic Constant Matrix: (Units=GPa)
#
#
# Indices 1 2 3 4 5 6 
#
# 1 60.2226 34.6878 28.7416 0.0000 -1.6528 0.0000
# 2 34.6878 76.0764 13.5231 0.0000 9.4752 0.0000
# 3 28.7416 13.5231 194.0455 0.0000 -5.7301 0.0000
# 4 0.0000 0.0000 0.0000 27.3209 0.0000 2.4132
# 5 -1.6528 9.4752 -5.7301 0.0000 20.5721 0.0000
# 6 0.0000 0.0000 0.0000 2.4132 0.0000 -14.4254
#
#
#
# Elastic Compliance Matrix: (Units=1/GPa)
#
#
# Indices 1 2 3 4 5 6 
#
# 1 0.024761 -0.011640 -0.002661 0.000000 0.006609 0.000000
# 2 -0.011640 0.019686 0.000057 0.000000 -0.009986 0.000000
# 3 -0.002661 0.000057 0.005582 0.000000 0.001315 0.000000
# 4 0.000000 0.000000 0.000000 0.036069 0.000000 0.006034
# 5 0.006609 -0.009986 0.001315 0.000000 0.054106 0.000000
# 6 0.000000 0.000000 0.000000 0.006034 0.000000 -0.068313
#
#
# Mechanical properties :
#
#
# Convention : Reuss Voigt Hill
#
# Bulk Modulus (GPa) = 46.42278 53.80549 50.11413
# Shear Modulus (GPa) = 46.48533 23.58631 35.03582
#
# Velocity S-wave (km/s) = 4.34656 3.09612 3.77349
# Velocity P-wave (km/s) = 6.63756 5.88633 6.27320
#
# Compressibility (1/GPa) = 0.02154115
#
# Stress axis : x y z
#
# Youngs Moduli (GPa) = 40.38560 50.79803 179.13361
#
# Poissons Ratio (x) = 0.59131 0.47671
# Poissons Ratio (y) = 0.47010 -0.01027
# Poissons Ratio (z) = 0.10747 -0.00291
#
# Static dielectric constant tensor:
#      x y z
#    x 1.951470 0.000000 -0.041880 
#    y 0.000000 2.036980 0.000000 
#    z -0.041880 0.000000 2.064780 
# 
# From -- ./inp_files/525.got.cif
#   From: 2010.05.17/outbox.cif.g08.bks.cpg/sg7_cif.got.tgz:525.got - 2010.06.03 19:44:50.
