data_PCOD9131841
_publ_section_title
;
Structure prediction by ZEFSAII (Michael W. Deem and Ramdas Pophale) SiO2 
 PCOD9131841
Probable space group: C M
;
_chemical_formula_sum "Si O2"
_cell_formula_units_Z 28
_cell_length_a 14.147949
_cell_length_b 16.368487
_cell_length_c 8.064357
_cell_angle_alpha 90.000000
_cell_angle_beta 41.284874
_cell_angle_gamma 90.000000
_cell_volume 1232.214344
_symmetry_space_group_name_H-M "C M"
_symmetry_group_IT_number 8
_symmetry_cell_setting 'monoclinic'
loop_
_space_group_symop_operation_xyz
x,y,z
x,-y,z
1/2+x,1/2+y,z
1/2+x,1/2-y,z
loop_
_atom_site_type_symbol
_atom_site_label
_atom_site_fract_x
_atom_site_fract_y
_atom_site_fract_z
Si Si1 0.417430 0.911593 0.293130
Si Si2 0.273194 0.089931 0.826018
Si Si3 0.529842 0.222533 0.934691
Si Si4 0.663797 0.091184 0.537404
Si Si5 0.959526 0.854242 0.252936
Si Si6 0.728608 0.090513 0.063564
Si Si7 0.836176 0.233887 0.717702
O O1 0.301432 0.906656 0.590866
O O2 0.574098 0.907527 0.174174
O O3 0.404175 0.000000 0.229593
O O4 0.415311 0.838104 0.169872
O O5 0.346992 0.175391 0.779667
O O6 0.327018 0.000000 0.808273
O O7 0.105722 0.097377 0.085366
O O8 0.579983 0.171566 0.709790
O O9 0.678783 0.230860 0.841167
O O10 0.466636 0.310818 0.061989
O O11 0.813956 0.095132 0.439943
O O12 0.693053 0.097224 0.303848
O O13 0.603150 0.000000 0.650524
O O14 0.943290 0.788808 0.425925
O O15 0.790752 0.000000 0.950520
O O16 0.828908 0.162097 0.861913
#
# Coordination Sequence:
#
# PCOD9131841 Si02
#       7
#     4   4   4   4   4   4   4
#     4   9  16  30  53  77 101 132 173 217 257 304
#     4  10  19  31  52  81 107 133 169 218 266 310
#     4   9  17  31  52  77 103 130 174 215 258 303
#     4  10  20  35  54  77 106 139 174 215 260 313
#     4  10  19  33  52  80 105 135 174 217 263 311
#     4   9  19  35  55  79 105 140 182 219 259 308
#     4   9  18  33  54  75 105 137 177 219 258 305
#
# _framework density 22.723320000000001
#
# number of rings (size 3 to 8) (size 9 to 14) (size 15 to 20)
#    0.000    2.571    1.429    0.857    0.000    4.000 
#    2.571    0.000    0.000    1.714    0.000   15.000 
#    0.000    0.000    0.000    0.000    0.000    0.000 
#
# Total GULP energy -78016.538934 kJ/mol
# GULP energy per Si atom -5572.609924 kJ/mol
# Density = 2.267160 g / cm^3
# Si number density = 22.723320 Si / 1000 Ang^3
#
#
#
# Elastic Constant Matrix: (Units=GPa)
#
#
# Indices 1 2 3 4 5 6 
#
# 1 41.3666 14.5977 5.9713 0.0000 -3.7562 0.0000
# 2 14.5977 169.0609 44.2173 0.0000 12.9100 0.0000
# 3 5.9713 44.2173 92.4343 0.0000 -6.4169 0.0000
# 4 0.0000 0.0000 0.0000 14.0265 0.0000 20.3601
# 5 -3.7562 12.9100 -6.4169 0.0000 20.3281 0.0000
# 6 0.0000 0.0000 0.0000 20.3601 0.0000 -8.6395
#
#
#
# Elastic Compliance Matrix: (Units=1/GPa)
#
#
# Indices 1 2 3 4 5 6 
#
# 1 0.025721 -0.002747 0.000106 0.000000 0.006531 0.000000
# 2 -0.002747 0.007697 -0.003966 0.000000 -0.006648 0.000000
# 3 0.000106 -0.003966 0.013174 0.000000 0.006697 0.000000
# 4 0.000000 0.000000 0.000000 0.016127 0.000000 0.038005
# 5 0.006531 -0.006648 0.006697 0.000000 0.056736 0.000000
# 6 0.000000 0.000000 0.000000 0.038005 0.000000 -0.026183
#
#
# Mechanical properties :
#
#
# Convention : Reuss Voigt Hill
#
# Bulk Modulus (GPa) = 29.96038 48.04830 39.00434
# Shear Modulus (GPa) = 42.51219 21.01472 31.76346
#
# Velocity S-wave (km/s) = 4.33004 3.04437 3.74282
# Velocity P-wave (km/s) = 6.18162 5.79210 5.99003
#
# Compressibility (1/GPa) = 0.03337742
#
# Stress axis : x y z
#
# Youngs Moduli (GPa) = 38.87823 129.91655 75.90816
#
# Poissons Ratio (x) = 0.35693 -0.00805
# Poissons Ratio (y) = 0.10681 0.30106
# Poissons Ratio (z) = -0.00412 0.51527
#
# Static dielectric constant tensor:
#      x y z
#    x 1.824770 0.000000 0.016990 
#    y 0.000000 1.970860 0.000000 
#    z 0.016990 0.000000 1.859520 
# 
# From -- ./inp_files/10871.got.cif
#   From: 2010.05.17/outbox.cif.g08.bks.cpg/sg8_6_cif.got.tgz:10871.got - 2010.06.03 19:46:02.
