data_PCOD9131505
_publ_section_title
;
Structure prediction by ZEFSAII (Michael W. Deem and Ramdas Pophale) SiO2 
 PCOD9131505
Probable space group: C M
;
_chemical_formula_sum "Si O2"
_cell_formula_units_Z 26
_cell_length_a 13.714968
_cell_length_b 7.094667
_cell_length_c 10.191831
_cell_angle_alpha 90.000000
_cell_angle_beta 65.347871
_cell_angle_gamma 90.000000
_cell_volume 901.310811
_symmetry_space_group_name_H-M "C M"
_symmetry_group_IT_number 8
_symmetry_cell_setting 'monoclinic'
loop_
_space_group_symop_operation_xyz
x,y,z
x,-y,z
1/2+x,1/2+y,z
1/2+x,1/2-y,z
loop_
_atom_site_type_symbol
_atom_site_label
_atom_site_fract_x
_atom_site_fract_y
_atom_site_fract_z
Si Si1 0.846250 0.226963 0.633540
Si Si2 0.089548 0.713908 0.568955
Si Si3 0.708732 0.772939 0.963072
Si Si4 0.874961 0.218220 0.329295
Si Si5 0.123249 0.727165 0.270063
Si Si6 0.346747 0.000000 0.096682
Si Si7 0.532737 0.211879 0.877983
O O1 0.964926 0.297693 0.595510
O O2 0.775589 0.285284 0.797803
O O3 0.816824 0.278272 0.499994
O O4 0.850249 0.000000 0.631931
O O5 0.129684 0.500000 0.559586
O O6 0.140667 0.795291 0.408162
O O7 0.075985 0.801088 0.720476
O O8 0.588503 0.720347 0.978664
O O9 0.724296 0.000000 0.971123
O O10 0.704210 0.687098 0.114340
O O11 0.855129 0.340253 0.213182
O O12 0.001550 0.229664 0.297025
O O13 0.850322 0.000000 0.316121
O O14 0.131873 0.500000 0.265156
O O15 0.407465 0.167465 0.960043
O O16 0.579785 0.000000 0.846276
#
# Coordination Sequence:
#
# PCOD9131505 Si02
#       7
#     4   4   4   4   4   2   4
#     4   9  19  29  47  75 103 131 163 213 260 303
#     4   9  17  29  50  72  95 128 171 201 248 313
#     4   9  14  28  50  71  98 127 167 213 252 295
#     4  10  17  28  48  77 101 132 172 213 253 302
#     4   9  14  27  50  72  94 131 170 206 246 299
#     4  10  16  32  52  74 100 136 172 220 250 292
#     4   8  15  28  53  72  91 130 170 206 251 293
#
# _framework density 28.846874
#
# number of rings (size 3 to 8) (size 9 to 14) (size 15 to 20)
#    0.462    2.462    2.308    0.000    1.077    0.000 
#    0.000    1.538    3.385    0.000    0.000    0.000 
#    0.000    0.000    0.000    0.000    0.000    0.000 
#
# Total GULP energy -72373.670560 kJ/mol
# GULP energy per Si atom -5567.205428 kJ/mol
# Density = 2.878122 g / cm^3
# Si number density = 28.846874 Si / 1000 Ang^3
#
#
#
# Elastic Constant Matrix: (Units=GPa)
#
#
# Indices 1 2 3 4 5 6 
#
# 1 59.4093 -36.1477 24.6699 0.0000 -5.1668 0.0000
# 2 -36.1477 176.1131 9.1044 0.0000 3.3476 0.0000
# 3 24.6699 9.1044 309.3092 0.0000 8.5065 0.0000
# 4 0.0000 0.0000 0.0000 125.5450 0.0000 162.8953
# 5 -5.1668 3.3476 8.5065 0.0000 76.8333 0.0000
# 6 0.0000 0.0000 0.0000 162.8953 0.0000 -284.6434
#
#
#
# Elastic Compliance Matrix: (Units=1/GPa)
#
#
# Indices 1 2 3 4 5 6 
#
# 1 0.020261 0.004224 -0.001778 0.000000 0.001375 0.000000
# 2 0.004224 0.006572 -0.000532 0.000000 0.000057 0.000000
# 3 -0.001778 -0.000532 0.003404 0.000000 -0.000473 0.000000
# 4 0.000000 0.000000 0.000000 0.004571 0.000000 0.002616
# 5 0.001375 0.000057 -0.000473 0.000000 0.013158 0.000000
# 6 0.000000 0.000000 0.000000 0.002616 0.000000 -0.002016
#
#
# Mechanical properties :
#
#
# Convention : Reuss Voigt Hill
#
# Bulk Modulus (GPa) = 29.35614 60.00940 44.68277
# Shear Modulus (GPa) = 93.50246 20.02732 56.76489
#
# Velocity S-wave (km/s) = 5.69945 2.63775 4.44080
# Velocity P-wave (km/s) = 7.31507 5.48861 6.46665
#
# Compressibility (1/GPa) = 0.03406442
#
# Stress axis : x y z
#
# Youngs Moduli (GPa) = 49.35676 152.16883 293.81517
#
# Poissons Ratio (x) = -0.64281 0.52244
# Poissons Ratio (y) = -0.20850 0.15628
# Poissons Ratio (z) = 0.08776 0.08094
#
# Static dielectric constant tensor:
#      x y z
#    x 2.447280 0.000000 -0.045150 
#    y 0.000000 2.576850 0.000000 
#    z -0.045150 0.000000 2.277120 
# 
# From -- ./inp_files/15589.got.cif
#   From: 2010.05.17/outbox.cif.g08.bks.cpg/sg8_8_cif.got.tgz:15589.got - 2010.06.03 19:46:02.
