data_PCOD9131546
_publ_section_title
;
Structure prediction by ZEFSAII (Michael W. Deem and Ramdas Pophale) SiO2 
 PCOD9131546
Probable space group: C M
;
_chemical_formula_sum "Si O2"
_cell_formula_units_Z 32
_cell_length_a 21.287467
_cell_length_b 7.489719
_cell_length_c 20.924093
_cell_angle_alpha 90.000000
_cell_angle_beta 151.599580
_cell_angle_gamma 90.000000
_cell_volume 1586.740815
_symmetry_space_group_name_H-M "C M"
_symmetry_group_IT_number 8
_symmetry_cell_setting 'monoclinic'
loop_
_space_group_symop_operation_xyz
x,y,z
x,-y,z
1/2+x,1/2+y,z
1/2+x,1/2-y,z
loop_
_atom_site_type_symbol
_atom_site_label
_atom_site_fract_x
_atom_site_fract_y
_atom_site_fract_z
Si Si1 0.719660 0.782856 0.944760
Si Si2 0.957908 0.718390 0.645505
Si Si3 0.664833 0.705817 0.386903
Si Si4 0.384307 0.290245 0.349557
Si Si5 0.599151 0.215181 0.640798
Si Si6 0.903447 0.219655 0.222442
Si Si7 0.150029 0.707393 0.227955
Si Si8 0.361408 0.715646 0.940224
O O1 0.570009 0.727206 0.796167
O O2 0.807191 0.728574 0.961660
O O3 0.720346 0.000000 0.945022
O O4 0.786834 0.724432 0.070224
O O5 0.954635 0.500000 0.641381
O O6 0.810707 0.784479 0.526388
O O7 0.011018 0.772900 0.623031
O O8 0.674218 0.500000 0.416007
O O9 0.541438 0.781917 0.314957
O O10 0.636334 0.707252 0.285531
O O11 0.353700 0.500000 0.316107
O O12 0.524490 0.272821 0.510410
O O13 0.386718 0.218636 0.279980
O O14 0.270366 0.215337 0.294086
O O15 0.749207 0.274093 0.789400
O O16 0.600310 0.000000 0.642239
O O17 0.904718 0.000000 0.223180
O O18 0.178230 0.500000 0.266026
O O19 0.010862 0.721719 0.066896
O O20 0.364015 0.500000 0.941966
#
# Coordination Sequence:
#
# PCOD9131546 Si02
#       8
#     4   4   4   4   4   4   4   4
#     4   8  13  25  47  73  95 116 152 206 250 277
#     4   8  14  24  45  76  97 111 151 209 251 279
#     4  10  17  30  53  75  94 122 169 217 245 276
#     4  10  21  34  47  71 108 141 163 191 245 309
#     4   9  17  31  52  76  99 126 165 209 250 290
#     4   9  17  30  49  71  98 131 165 201 243 291
#     4  11  21  31  46  73 107 136 163 198 247 300
#     4   9  17  31  53  77  96 123 168 215 249 282
#
# _framework density 20.167126
#
# number of rings (size 3 to 8) (size 9 to 14) (size 15 to 20)
#    0.000    2.750    2.500    1.875    0.000    1.000 
#    0.000    1.875    0.000    4.500    0.000    0.000 
#    0.000    0.000    0.000    0.000    0.000    0.000 
#
# Total GULP energy -89250.586828 kJ/mol
# GULP energy per Si atom -5578.161677 kJ/mol
# Density = 2.012122 g / cm^3
# Si number density = 20.167126 Si / 1000 Ang^3
#
#
#
# Elastic Constant Matrix: (Units=GPa)
#
#
# Indices 1 2 3 4 5 6 
#
# 1 80.1507 -0.9932 52.0268 0.0000 -9.0117 0.0000
# 2 -0.9932 53.7803 -9.2435 0.0000 1.1961 0.0000
# 3 52.0268 -9.2435 156.7895 0.0000 -3.5070 0.0000
# 4 0.0000 0.0000 0.0000 9.3365 0.0000 -7.0864
# 5 -9.0117 1.1961 -3.5070 0.0000 30.0062 0.0000
# 6 0.0000 0.0000 0.0000 -7.0864 0.0000 1.2077
#
#
#
# Elastic Compliance Matrix: (Units=1/GPa)
#
#
# Indices 1 2 3 4 5 6 
#
# 1 0.016467 -0.000722 -0.005410 0.000000 0.004342 0.000000
# 2 -0.000722 0.018828 0.001331 0.000000 -0.000812 0.000000
# 3 -0.005410 0.001331 0.008236 0.000000 -0.000715 0.000000
# 4 0.000000 0.000000 0.000000 -0.031012 0.000000 -0.181975
# 5 0.004342 -0.000812 -0.000715 0.000000 0.034579 0.000000
# 6 0.000000 0.000000 0.000000 -0.181975 0.000000 -0.239757
#
#
# Mechanical properties :
#
#
# Convention : Reuss Voigt Hill
#
# Bulk Modulus (GPa) = 29.47275 41.58893 35.53084
# Shear Modulus (GPa) = -29.11231 24.70543 -2.20344
#
# Velocity S-wave (km/s) = -3.80353 3.50385 -1.04640
# Velocity P-wave (km/s) = 2.15480 6.08573 4.02449
#
# Compressibility (1/GPa) = 0.03392964
#
# Stress axis : x y z
#
# Youngs Moduli (GPa) = 60.72658 53.11309 121.42466
#
# Poissons Ratio (x) = 0.03836 0.65687
# Poissons Ratio (y) = 0.04386 -0.16168
# Poissons Ratio (z) = 0.32851 -0.07072
#
# Static dielectric constant tensor:
#      x y z
#    x 1.681200 0.000000 0.012750 
#    y 0.000000 1.791080 0.000000 
#    z 0.012750 0.000000 1.726250 
# 
# From -- ./inp_files/31316.got.cif
#   From: 2010.05.17/outbox.cif.g08.bks.cpg/sg8_16_cif.got.tgz:31316.got - 2010.06.03 19:46:02.
