data_PCOD9131479
_publ_section_title
;
Structure prediction by ZEFSAII (Michael W. Deem and Ramdas Pophale) SiO2 
 PCOD9131479
Probable space group: P C
;
_chemical_formula_sum "Si O2"
_cell_formula_units_Z 16
_cell_length_a 20.647642
_cell_length_b 6.863987
_cell_length_c 5.357232
_cell_angle_alpha 90.000000
_cell_angle_beta 111.897212
_cell_angle_gamma 90.000000
_cell_volume 704.477620
_symmetry_space_group_name_H-M "P C"
_symmetry_group_IT_number 7
_symmetry_cell_setting 'monoclinic'
loop_
_space_group_symop_operation_xyz
x,y,z
x,-y,1/2+z
loop_
_atom_site_type_symbol
_atom_site_label
_atom_site_fract_x
_atom_site_fract_y
_atom_site_fract_z
Si Si1 0.779210 0.369039 0.533000
Si Si2 0.887783 0.999565 0.183147
Si Si3 0.365658 0.128995 0.921105
Si Si4 0.642380 0.122632 0.292711
Si Si5 0.082024 0.875723 0.053861
Si Si6 0.942937 0.624643 0.784750
Si Si7 0.222986 0.371245 0.703474
Si Si8 0.505933 0.374635 0.145674
O O1 0.786767 0.505278 0.298137
O O2 0.701086 0.285748 0.412426
O O3 0.828810 0.167042 0.605214
O O4 0.875761 0.229585 0.195565
O O5 0.930899 0.981276 0.494754
O O6 0.292317 0.240841 0.818499
O O7 0.370597 0.005086 0.673938
O O8 0.429824 0.278987 0.020605
O O9 0.565592 0.212118 0.204591
O O10 0.652414 0.972127 0.535071
O O11 0.017624 0.728709 0.915819
O O12 0.154106 0.759771 0.123734
O O13 0.080359 0.962333 0.331983
O O14 0.938999 0.490547 0.022088
O O15 0.223041 0.483502 0.439848
O O16 0.514402 0.479449 0.424491
#
# Coordination Sequence:
#
# PCOD9131479 Si02
#       8
#     2   2   2   2   2   2   2   2
#     4  12  26  46  72 102 137 180 228 282 344 411
#     4  12  26  46  68 100 136 174 222 280 338 408
#     4  12  24  42  64  96 134 176 222 272 338 400
#     4  12  24  44  69  98 135 177 225 281 339 402
#     4  12  24  44  69  98 135 177 225 281 339 402
#     4  12  26  46  72 102 137 180 228 282 344 411
#     4  12  24  42  66  97 133 175 225 277 334 400
#     4  12  24  42  66  97 133 175 225 277 334 400
#
# _framework density 22.711865
#
# number of rings (size 3 to 8) (size 9 to 14) (size 15 to 20)
#    0.000    0.000    0.000   11.250    0.000    3.000 
#    0.000    0.000    0.000    0.000    0.000    0.000 
#    0.000    0.000    0.000    0.000    0.000    0.000 
#
# Total GULP energy -89408.232574 kJ/mol
# GULP energy per Si atom -5588.014536 kJ/mol
# Density = 2.266017 g / cm^3
# Si number density = 22.711865 Si / 1000 Ang^3
#
#
#
# Elastic Constant Matrix: (Units=GPa)
#
#
# Indices 1 2 3 4 5 6 
#
# 1 71.0294 14.8251 16.1549 0.0000 8.6434 0.0000
# 2 14.8251 80.8128 21.9891 0.0000 1.9969 0.0000
# 3 16.1549 21.9891 119.0992 0.0000 -16.3336 0.0000
# 4 0.0000 0.0000 0.0000 62.7769 0.0000 9.0294
# 5 8.6434 1.9969 -16.3336 0.0000 38.1197 0.0000
# 6 0.0000 0.0000 0.0000 9.0294 0.0000 80.2419
#
#
#
# Elastic Compliance Matrix: (Units=1/GPa)
#
#
# Indices 1 2 3 4 5 6 
#
# 1 0.015589 -0.002116 -0.002330 0.000000 -0.004422 0.000000
# 2 -0.002116 0.013436 -0.002363 0.000000 -0.001237 0.000000
# 3 -0.002330 -0.002363 0.009815 0.000000 0.004858 0.000000
# 4 0.000000 0.000000 0.000000 0.016191 0.000000 -0.001822
# 5 -0.004422 -0.001237 0.004858 0.000000 0.029382 0.000000
# 6 0.000000 0.000000 0.000000 -0.001822 0.000000 0.012667
#
#
# Mechanical properties :
#
#
# Convention : Reuss Voigt Hill
#
# Bulk Modulus (GPa) = 39.65108 41.87552 40.76330
# Shear Modulus (GPa) = 41.97918 50.75918 46.36918
#
# Velocity S-wave (km/s) = 4.30389 4.73262 4.52334
# Velocity P-wave (km/s) = 6.49571 6.95280 6.72813
#
# Compressibility (1/GPa) = 0.02521999
#
# Stress axis : x y z
#
# Youngs Moduli (GPa) = 64.14983 74.42625 101.88544
#
# Poissons Ratio (x) = 0.15752 0.23741
# Poissons Ratio (y) = 0.13577 0.24078
# Poissons Ratio (z) = 0.14948 0.17588
#
# Static dielectric constant tensor:
#      x y z
#    x 1.889230 0.000000 -0.156800 
#    y 0.000000 1.971970 0.000000 
#    z -0.156800 0.000000 2.013380 
# 
# From -- ./inp_files/1432.got.cif
#   From: 2010.05.17/outbox.cif.g08.bks.cpg/sg7_cif.got.tgz:1432.got - 2010.06.03 19:44:50.
