data_PCOD9131268
_publ_section_title
;
Structure prediction by ZEFSAII (Michael W. Deem and Ramdas Pophale) SiO2 
 PCOD9131268
Probable space group: P C
;
_chemical_formula_sum "Si O2"
_cell_formula_units_Z 16
_cell_length_a 23.281082
_cell_length_b 7.716751
_cell_length_c 5.032455
_cell_angle_alpha 90.000000
_cell_angle_beta 114.042365
_cell_angle_gamma 90.000000
_cell_volume 825.666369
_symmetry_space_group_name_H-M "P C"
_symmetry_group_IT_number 7
_symmetry_cell_setting 'monoclinic'
loop_
_space_group_symop_operation_xyz
x,y,z
x,-y,1/2+z
loop_
_atom_site_type_symbol
_atom_site_label
_atom_site_fract_x
_atom_site_fract_y
_atom_site_fract_z
Si Si1 0.430490 0.616318 0.174000
Si Si2 0.289963 0.617095 0.004136
Si Si3 0.679900 0.120648 0.213947
Si Si4 0.044656 0.117777 0.022686
Si Si5 0.908798 0.876380 0.157913
Si Si6 0.793413 0.382043 0.432380
Si Si7 0.537865 0.115746 0.029007
Si Si8 0.179806 0.119875 0.160678
O O1 0.435515 0.452985 0.384032
O O2 0.484500 0.749489 0.351354
O O3 0.360305 0.689630 0.089943
O O4 0.284628 0.454570 0.792226
O O5 0.236243 0.752219 0.831346
O O6 0.731324 0.266881 0.355766
O O7 0.687729 0.965397 0.440459
O O8 0.608437 0.186340 0.115462
O O9 0.978246 0.205490 0.831874
O O10 0.044571 0.950232 0.824423
O O11 0.111151 0.205351 0.082604
O O12 0.904085 0.030858 0.364357
O O13 0.853595 0.740009 0.089475
O O14 0.794307 0.539607 0.640023
O O15 0.532310 0.952277 0.818584
O O16 0.182878 0.958669 0.372059
#
# Coordination Sequence:
#
# PCOD9131268 Si02
#       8
#     2   2   2   2   2   2   2   2
#     4  10  21  36  54  75 106 142 173 206 256 316
#     4  10  21  36  51  74 107 142 173 206 256 316
#     4  10  21  39  58  77 104 141 175 206 254 316
#     4   8  16  30  51  76  99 128 172 214 252 302
#     4  10  19  36  58  75 100 142 177 206 254 316
#     4  12  24  36  53  82 111 134 170 220 258 296
#     4  10  21  36  57  82 105 130 173 222 256 296
#     4  10  19  33  54  79 102 131 175 222 256 296
#
# _framework density 19.378285999999999
#
# number of rings (size 3 to 8) (size 9 to 14) (size 15 to 20)
#    0.000    2.000    0.000    3.750    0.000    2.000 
#    0.000    1.250    0.000    0.000    0.000    0.000 
#    0.000    0.000    0.000    0.000    0.000    0.000 
#
# Total GULP energy -89328.909885 kJ/mol
# GULP energy per Si atom -5583.056868 kJ/mol
# Density = 1.933418 g / cm^3
# Si number density = 19.378286 Si / 1000 Ang^3
#
#
#
# Elastic Constant Matrix: (Units=GPa)
#
#
# Indices 1 2 3 4 5 6 
#
# 1 97.3769 39.3903 24.8560 0.0000 45.2042 0.0000
# 2 39.3903 26.4862 3.2844 0.0000 30.3362 0.0000
# 3 24.8560 3.2844 71.6918 0.0000 13.3659 0.0000
# 4 0.0000 0.0000 0.0000 -80.6313 0.0000 -97.9947
# 5 45.2042 30.3362 13.3659 0.0000 58.1955 0.0000
# 6 0.0000 0.0000 0.0000 -97.9947 0.0000 -85.8410
#
#
#
# Elastic Compliance Matrix: (Units=1/GPa)
#
#
# Indices 1 2 3 4 5 6 
#
# 1 0.030400 -0.048185 -0.008998 0.000000 0.003571 0.000000
# 2 -0.048185 0.171843 0.019386 0.000000 -0.056602 0.000000
# 3 -0.008998 0.019386 0.017511 0.000000 -0.007138 0.000000
# 4 0.000000 0.000000 0.000000 0.032012 0.000000 -0.036545
# 5 0.003571 -0.056602 -0.007138 0.000000 0.045555 0.000000
# 6 0.000000 0.000000 0.000000 -0.036545 0.000000 0.030070
#
#
# Mechanical properties :
#
#
# Convention : Reuss Voigt Hill
#
# Bulk Modulus (GPa) = 6.93678 36.73512 21.83595
# Shear Modulus (GPa) = 11.08554 -13.12043 -1.01745
#
# Velocity S-wave (km/s) = 2.39437 -2.60488 -0.72539
# Velocity P-wave (km/s) = 3.35134 3.15449 3.25440
#
# Compressibility (1/GPa) = 0.14415901
#
# Stress axis : x y z
#
# Youngs Moduli (GPa) = 32.89455 5.81928 57.10702
#
# Poissons Ratio (x) = 0.28040 0.51386
# Poissons Ratio (y) = 1.58504 -1.10709
# Poissons Ratio (z) = 0.29599 -0.11281
#
# Static dielectric constant tensor:
#      x y z
#    x 1.694920 0.000000 0.017020 
#    y 0.000000 1.615930 0.000000 
#    z 0.017020 0.000000 1.666770 
# 
# From -- ./inp_files/1347.got.cif
#   From: 2010.05.17/outbox.cif.g08.bks.cpg/sg7_cif.got.tgz:1347.got - 2010.06.03 19:44:50.
