data_PCOD9131162
_publ_section_title
;
Structure prediction by ZEFSAII (Michael W. Deem and Ramdas Pophale) SiO2 
 PCOD9131162
Probable space group: P M
;
_chemical_formula_sum "Si O2"
_cell_formula_units_Z 9
_cell_length_a 7.961149
_cell_length_b 8.926846
_cell_length_c 5.208390
_cell_angle_alpha 90.000000
_cell_angle_beta 108.953173
_cell_angle_gamma 90.000000
_cell_volume 350.081701
_symmetry_space_group_name_H-M "P M"
_symmetry_group_IT_number 6
_symmetry_cell_setting 'monoclinic'
loop_
_space_group_symop_operation_xyz
x,y,z
x,-y,z
loop_
_atom_site_type_symbol
_atom_site_label
_atom_site_fract_x
_atom_site_fract_y
_atom_site_fract_z
Si Si1 0.244180 0.000000 0.439000
Si Si2 0.432930 0.174436 0.157976
Si Si3 0.041983 0.500000 0.369997
Si Si4 0.792897 0.260434 0.505894
Si Si5 0.733513 0.500000 0.859118
Si Si6 0.366524 0.500000 0.901098
Si Si7 0.005218 0.000000 0.824480
O O1 0.364068 0.856699 0.417551
O O2 0.132966 0.000000 0.639674
O O3 0.096725 0.000000 0.141626
O O4 0.643457 0.195812 0.248138
O O5 0.338554 0.330014 0.013417
O O6 0.410457 0.000000 0.041179
O O7 0.943682 0.355174 0.439458
O O8 0.944156 0.500000 0.040016
O O9 0.243019 0.500000 0.580447
O O10 0.885036 0.141500 0.728389
O O11 0.691552 0.363792 0.654507
O O12 0.582279 0.500000 0.996443
#
# Coordination Sequence:
#
# PCOD9131162 Si02
#       7
#     1   2   1   2   1   1   1
#     4  10  27  44  71 118 160 195 291 310 410 482
#     4  10  23  50  74 115 155 214 262 333 402 494
#     4  11  25  47  74 113 151 206 268 335 394 492
#     4  11  24  48  72 108 158 205 266 332 407 468
#     4  11  26  47  74 114 153 213 267 326 409 488
#     4  12  23  50  84 109 168 205 265 335 409 472
#     4  12  25  48  75 116 154 215 255 352 386 492
#
# _framework density 25.708283999999999
#
# number of rings (size 3 to 8) (size 9 to 14) (size 15 to 20)
#    0.667    0.444    3.333    2.000    3.111    3.556 
#   10.000    1.111    0.000    0.000    0.000    0.000 
#    0.000    0.000    0.000    0.000    0.000    0.000 
#
# Total GULP energy -50127.969653 kJ/mol
# GULP energy per Si atom -5569.774406 kJ/mol
# Density = 2.564977 g / cm^3
# Si number density = 25.708284 Si / 1000 Ang^3
#
#
#
# Elastic Constant Matrix: (Units=GPa)
#
#
# Indices 1 2 3 4 5 6 
#
# 1 73.5712 34.1203 24.5556 0.0000 23.9083 0.0000
# 2 34.1203 167.6419 30.1422 0.0000 7.4367 0.0000
# 3 24.5556 30.1422 84.9786 0.0000 26.2628 0.0000
# 4 0.0000 0.0000 0.0000 65.6244 0.0000 -31.7887
# 5 23.9083 7.4367 26.2628 0.0000 46.6305 0.0000
# 6 0.0000 0.0000 0.0000 -31.7887 0.0000 67.8352
#
#
#
# Elastic Compliance Matrix: (Units=1/GPa)
#
#
# Indices 1 2 3 4 5 6 
#
# 1 0.018122 -0.003028 -0.001744 0.000000 -0.007826 0.000000
# 2 -0.003028 0.006881 -0.002066 0.000000 0.001619 0.000000
# 3 -0.001744 -0.002066 0.015287 0.000000 -0.007386 0.000000
# 4 0.000000 0.000000 0.000000 0.019713 0.000000 0.009238
# 5 -0.007826 0.001619 -0.007386 0.000000 0.029360 0.000000
# 6 0.000000 0.000000 0.000000 0.009238 0.000000 0.019071
#
#
# Mechanical properties :
#
#
# Convention : Reuss Voigt Hill
#
# Bulk Modulus (GPa) = 37.57299 55.98089 46.77694
# Shear Modulus (GPa) = 38.17372 51.84293 45.00832
#
# Velocity S-wave (km/s) = 3.85759 4.49551 4.18871
# Velocity P-wave (km/s) = 5.87267 6.98347 6.45202
#
# Compressibility (1/GPa) = 0.02661486
#
# Stress axis : x y z
#
# Youngs Moduli (GPa) = 55.18230 145.32800 65.41433
#
# Poissons Ratio (x) = 0.44000 0.11407
# Poissons Ratio (y) = 0.16707 0.13515
# Poissons Ratio (z) = 0.09623 0.30026
#
# Static dielectric constant tensor:
#      x y z
#    x 2.032260 0.000000 -0.056520 
#    y 0.000000 2.108910 0.000000 
#    z -0.056520 0.000000 2.049000 
# 
# From -- ./inp_files/839.got.cif
#   From: 2010.05.17/outbox.cif.g08.bks.cpg/sg6_1_cif.got.tgz:839.got - 2010.06.03 19:42:10.
