data_PCOD9131839
_publ_section_title
;
Structure prediction by ZEFSAII (Michael W. Deem and Ramdas Pophale) SiO2 
 PCOD9131839
Probable space group: C M
;
_chemical_formula_sum "Si O2"
_cell_formula_units_Z 32
_cell_length_a 32.577012
_cell_length_b 8.528093
_cell_length_c 20.595908
_cell_angle_alpha 90.000000
_cell_angle_beta 18.422749
_cell_angle_gamma 90.000000
_cell_volume 1808.283840
_symmetry_space_group_name_H-M "C M"
_symmetry_group_IT_number 8
_symmetry_cell_setting 'monoclinic'
loop_
_space_group_symop_operation_xyz
x,y,z
x,-y,z
1/2+x,1/2+y,z
1/2+x,1/2-y,z
loop_
_atom_site_type_symbol
_atom_site_label
_atom_site_fract_x
_atom_site_fract_y
_atom_site_fract_z
Si Si1 0.741350 0.809278 0.841970
Si Si2 0.235782 0.811128 0.495032
Si Si3 0.950531 0.811868 0.423541
Si Si4 0.951864 0.188868 0.778947
Si Si5 0.447307 0.187387 0.929960
Si Si6 0.945574 0.310500 0.287146
Si Si7 0.238316 0.310500 0.994349
Si Si8 0.240443 0.312682 0.343810
O O1 0.771557 0.761248 0.870649
O O2 0.845714 0.754276 0.633211
O O3 0.743524 0.000000 0.837619
O O4 0.593312 0.761237 0.048977
O O5 0.341435 0.761353 0.389769
O O6 0.270030 0.748177 0.372102
O O7 0.231673 0.000000 0.498657
O O8 0.092422 0.748874 0.727238
O O9 0.916919 0.752687 0.401902
O O10 0.950861 0.000000 0.422882
O O11 0.094708 0.752686 0.224027
O O12 0.845428 0.238661 0.885778
O O13 0.094991 0.252022 0.547220
O O14 0.957085 0.000000 0.773083
O O15 0.917372 0.250891 0.902362
O O16 0.343692 0.249096 0.137253
O O17 0.447942 0.000000 0.928602
O O18 0.944370 0.500000 0.291825
O O19 0.232563 0.500000 0.003586
O O20 0.240901 0.500000 0.342965
#
# Coordination Sequence:
#
# PCOD9131839 Si02
#       8
#     4   4   4   4   4   4   4   4
#     4   8  16  33  52  73 102 137 171 206 254 310
#     4  10  20  36  57  81 107 140 181 225 272 323
#     4  10  19  31  52  79 106 137 179 222 256 304
#     4  10  20  36  57  81 107 140 181 225 272 323
#     4  11  22  37  56  78 108 145 180 221 268 320
#     4   9  19  36  55  74 104 141 174 213 266 320
#     4   9  19  36  55  74 104 141 174 213 266 320
#     4  11  22  37  56  80 110 141 176 223 270 322
#
# _framework density 17.696337
#
# number of rings (size 3 to 8) (size 9 to 14) (size 15 to 20)
#    0.000    2.250    0.000    5.625    0.000    4.000 
#    0.000    7.500    0.000    0.000    0.000    0.000 
#    0.000    0.000    0.000    0.000    0.000    0.000 
#
# Total GULP energy -89298.208075 kJ/mol
# GULP energy per Si atom -5581.138005 kJ/mol
# Density = 1.765606 g / cm^3
# Si number density = 17.696337 Si / 1000 Ang^3
#
#
#
# Elastic Constant Matrix: (Units=GPa)
#
#
# Indices 1 2 3 4 5 6 
#
# 1 185.7960 47.3519 130.4787 0.0000 -21.4575 0.0000
# 2 47.3519 69.0392 43.0595 -0.0001 -1.9269 0.0000
# 3 130.4787 43.0595 183.2837 -0.0001 20.7939 0.0000
# 4 0.0000 -0.0001 -0.0001 30.3951 0.0000 2.2662
# 5 -21.4575 -1.9269 20.7939 0.0000 23.9561 0.0000
# 6 0.0000 0.0000 0.0000 2.2662 0.0000 25.5097
#
#
#
# Elastic Compliance Matrix: (Units=1/GPa)
#
#
# Indices 1 2 3 4 5 6 
#
# 1 0.031705 -0.002938 -0.027814 0.000000 0.052304 0.000000
# 2 -0.002938 0.017886 -0.002191 0.000000 0.000709 0.000000
# 3 -0.027814 -0.002191 0.031744 0.000000 -0.052643 0.000000
# 4 0.000000 0.000000 0.000000 0.033119 0.000000 -0.002942
# 5 0.052304 0.000709 -0.052643 0.000000 0.134344 0.000000
# 6 0.000000 0.000000 0.000000 -0.002942 0.000000 0.039462
#
#
# Mechanical properties :
#
#
# Convention : Reuss Voigt Hill
#
# Bulk Modulus (GPa) = 64.73152 97.76657 81.24905
# Shear Modulus (GPa) = 13.91614 30.45408 22.18511
#
# Velocity S-wave (km/s) = 2.80730 4.15290 3.54454
# Velocity P-wave (km/s) = 6.86778 8.85224 7.92239
#
# Compressibility (1/GPa) = 0.01544842
#
# Stress axis : x y z
#
# Youngs Moduli (GPa) = 31.54110 55.91033 31.50202
#
# Poissons Ratio (x) = 0.16426 0.87620
# Poissons Ratio (y) = 0.09266 0.06902
# Poissons Ratio (z) = 0.87729 0.12250
#
# Static dielectric constant tensor:
#      x y z
#    x 1.589380 0.000000 -0.003680 
#    y 0.000000 1.601240 0.000000 
#    z -0.003680 0.000000 1.581340 
# 
# From -- ./inp_files/26424.got.cif
#   From: 2010.05.17/outbox.cif.g08.bks.cpg/sg8_14_cif.got.tgz:26424.got - 2010.06.03 19:46:02.
