data_PCOD9131490
_publ_section_title
;
Structure prediction by ZEFSAII (Michael W. Deem and Ramdas Pophale) SiO2 
 PCOD9131490
Probable space group: C M
;
_chemical_formula_sum "Si O2"
_cell_formula_units_Z 22
_cell_length_a 9.903047
_cell_length_b 16.559983
_cell_length_c 5.528112
_cell_angle_alpha 90.000000
_cell_angle_beta 104.555972
_cell_angle_gamma 90.000000
_cell_volume 877.479965
_symmetry_space_group_name_H-M "C M"
_symmetry_group_IT_number 8
_symmetry_cell_setting 'monoclinic'
loop_
_space_group_symop_operation_xyz
x,y,z
x,-y,z
1/2+x,1/2+y,z
1/2+x,1/2-y,z
loop_
_atom_site_type_symbol
_atom_site_label
_atom_site_fract_x
_atom_site_fract_y
_atom_site_fract_z
Si Si1 0.001390 0.407553 0.128750
Si Si2 0.248277 0.500000 0.692709
Si Si3 0.496959 0.870021 0.629676
Si Si4 0.188160 0.783495 0.711303
Si Si5 0.770221 0.211112 0.243194
Si Si6 0.978731 0.087869 0.502688
O O1 0.055630 0.500000 0.162281
O O2 0.924933 0.392749 0.346229
O O3 0.133135 0.346917 0.187766
O O4 0.921338 0.391259 0.844874
O O5 0.132359 0.429406 0.698338
O O6 0.363601 0.568916 0.657025
O O7 0.558892 0.780751 0.657036
O O8 0.264041 0.761084 0.492121
O O9 0.115124 0.870051 0.664700
O O10 0.264832 0.762388 0.995917
O O11 0.901970 0.151254 0.293889
O O12 0.003011 0.000000 0.396093
#
# Coordination Sequence:
#
# PCOD9131490 Si02
#       6
#     4   2   4   4   4   4
#     4  10  14  25  45  72  98 140 172 215 276 329
#     4  10  16  34  56  90 110 148 194 254 284 344
#     4  10  17  28  48  74 115 141 172 233 297 324
#     4  10  21  36  52  87 117 156 188 246 301 355
#     4  10  20  36  54  80 123 152 184 247 304 345
#     4  10  20  38  63  94 116 156 208 250 294 357
#
# _framework density 25.0718
#
# number of rings (size 3 to 8) (size 9 to 14) (size 15 to 20)
#    0.545    1.455    5.455    0.545    0.000    1.455 
#    0.000    2.727    0.000    0.000    4.727    5.091 
#    0.000    0.000    0.000    0.000    0.000    0.000 
#
# Total GULP energy -61262.163451 kJ/mol
# GULP energy per Si atom -5569.287586 kJ/mol
# Density = 2.501474 g / cm^3
# Si number density = 25.071800 Si / 1000 Ang^3
#
#
#
# Elastic Constant Matrix: (Units=GPa)
#
#
# Indices 1 2 3 4 5 6 
#
# 1 93.0595 54.3181 66.3132 0.0000 -7.5774 0.0000
# 2 54.3181 98.8281 54.5770 0.0000 -2.4482 0.0000
# 3 66.3132 54.5770 178.1877 0.0000 -43.3509 0.0000
# 4 0.0000 0.0000 0.0000 37.3276 0.0000 9.7827
# 5 -7.5774 -2.4482 -43.3509 0.0000 51.0960 0.0000
# 6 0.0000 0.0000 0.0000 9.7827 0.0000 43.9898
#
#
#
# Elastic Compliance Matrix: (Units=1/GPa)
#
#
# Indices 1 2 3 4 5 6 
#
# 1 0.018562 -0.007433 -0.005101 0.000000 -0.001931 0.000000
# 2 -0.007433 0.015600 -0.002644 0.000000 -0.002598 0.000000
# 3 -0.005101 -0.002644 0.010214 0.000000 0.007782 0.000000
# 4 0.000000 0.000000 0.000000 0.028448 0.000000 -0.006326
# 5 -0.001931 -0.002598 0.007782 0.000000 0.025763 0.000000
# 6 0.000000 0.000000 0.000000 -0.006326 0.000000 0.024139
#
#
# Mechanical properties :
#
#
# Convention : Reuss Voigt Hill
#
# Bulk Modulus (GPa) = 71.32996 80.05466 75.69231
# Shear Modulus (GPa) = 31.69483 39.47380 35.58431
#
# Velocity S-wave (km/s) = 3.55936 3.97221 3.77144
# Velocity P-wave (km/s) = 6.73826 7.28268 7.01575
#
# Compressibility (1/GPa) = 0.01401935
#
# Stress axis : x y z
#
# Youngs Moduli (GPa) = 53.87306 64.10442 97.90854
#
# Poissons Ratio (x) = 0.47648 0.49946
# Poissons Ratio (y) = 0.40043 0.25885
# Poissons Ratio (z) = 0.27482 0.16948
#
# Static dielectric constant tensor:
#      x y z
#    x 1.976080 0.000000 -0.027240 
#    y 0.000000 1.973850 0.000000 
#    z -0.027240 0.000000 2.154160 
# 
# From -- ./inp_files/10542.got.cif
#   From: 2010.05.17/outbox.cif.g08.bks.cpg/sg8_6_cif.got.tgz:10542.got - 2010.06.03 19:46:02.
