data_PCOD9131051
_publ_section_title
;
Structure prediction by ZEFSAII (Michael W. Deem and Ramdas Pophale) SiO2 
 PCOD9131051
Probable space group: P M
;
_chemical_formula_sum "Si O2"
_cell_formula_units_Z 14
_cell_length_a 5.364627
_cell_length_b 23.137200
_cell_length_c 4.854343
_cell_angle_alpha 90.000000
_cell_angle_beta 83.336287
_cell_angle_gamma 90.000000
_cell_volume 598.462429
_symmetry_space_group_name_H-M "P M"
_symmetry_group_IT_number 6
_symmetry_cell_setting 'monoclinic'
loop_
_space_group_symop_operation_xyz
x,y,z
x,-y,z
loop_
_atom_site_type_symbol
_atom_site_label
_atom_site_fract_x
_atom_site_fract_y
_atom_site_fract_z
Si Si1 0.358920 0.065267 0.898250
Si Si2 0.669239 0.155327 0.125372
Si Si3 0.148987 0.124896 0.400853
Si Si4 0.628816 0.432271 0.444229
Si Si5 0.011422 0.334503 0.417759
Si Si6 0.821656 0.725279 0.919680
Si Si7 0.441977 0.627713 0.946715
O O1 0.208626 0.104782 0.700367
O O2 0.396698 0.000000 0.799903
O O3 0.616259 0.097996 0.949889
O O4 0.203112 0.069191 0.200702
O O5 0.386657 0.166132 0.282872
O O6 0.762434 0.207801 0.926339
O O7 0.879577 0.146735 0.333404
O O8 0.658866 0.500000 0.473836
O O9 0.863263 0.393259 0.507055
O O10 0.595846 0.415427 0.129086
O O11 0.405878 0.407903 0.670339
O O12 0.853184 0.292937 0.233693
O O13 0.227763 0.352837 0.182045
O O14 0.044041 0.297036 0.690604
O O15 0.591899 0.685594 0.852078
#
# Coordination Sequence:
#
# PCOD9131051 Si02
#       7
#     2   2   2   2   2   2   2
#     4  10  24  44  68  98 135 178 224 282 341 411
#     4  10  26  45  67 103 133 179 229 281 341 412
#     4  10  25  42  66  97 135 170 227 273 341 401
#     4  10  21  37  58  88 123 159 213 266 318 397
#     4  10  22  39  61  88 124 166 214 263 337 393
#     4  10  23  39  63  90 128 165 215 274 330 402
#     4  10  21  40  59  90 121 167 209 265 330 392
#
# _framework density 23.393281999999999
#
# number of rings (size 3 to 8) (size 9 to 14) (size 15 to 20)
#    0.857    1.143    0.000    1.714    6.000    2.286 
#    0.000    0.000    0.000    0.000    0.000    0.000 
#    0.000    0.000    0.000    0.000    0.000    0.000 
#
# Total GULP energy -78039.028521 kJ/mol
# GULP energy per Si atom -5574.216323 kJ/mol
# Density = 2.334004 g / cm^3
# Si number density = 23.393282 Si / 1000 Ang^3
#
#
#
# Elastic Constant Matrix: (Units=GPa)
#
#
# Indices 1 2 3 4 5 6 
#
# 1 108.1040 23.7678 24.9760 0.0000 13.0591 0.0000
# 2 23.7678 118.0469 19.2848 0.0000 3.4911 0.0000
# 3 24.9760 19.2848 118.3736 0.0000 8.4432 0.0000
# 4 0.0000 0.0000 0.0000 25.1418 0.0000 -1.0306
# 5 13.0591 3.4911 8.4432 0.0000 36.1479 0.0000
# 6 0.0000 0.0000 0.0000 -1.0306 0.0000 8.6858
#
#
#
# Elastic Compliance Matrix: (Units=1/GPa)
#
#
# Indices 1 2 3 4 5 6 
#
# 1 0.010406 -0.001725 -0.001686 0.000000 -0.003199 0.000000
# 2 -0.001725 0.008998 -0.001103 0.000000 0.000012 0.000000
# 3 -0.001686 -0.001103 0.009084 0.000000 -0.001406 0.000000
# 4 0.000000 0.000000 0.000000 0.039969 0.000000 0.004742
# 5 -0.003199 0.000012 -0.001406 0.000000 0.029147 0.000000
# 6 0.000000 0.000000 0.000000 0.004742 0.000000 0.115693
#
#
# Mechanical properties :
#
#
# Convention : Reuss Voigt Hill
#
# Bulk Modulus (GPa) = 51.38951 53.39796 52.39374
# Shear Modulus (GPa) = 21.85210 32.42816 27.14013
#
# Velocity S-wave (km/s) = 3.05965 3.72723 3.40982
# Velocity P-wave (km/s) = 5.87344 6.43419 6.16020
#
# Compressibility (1/GPa) = 0.01945922
#
# Stress axis : x y z
#
# Youngs Moduli (GPa) = 96.10181 111.13159 110.08871
#
# Poissons Ratio (x) = 0.19170 0.18565
# Poissons Ratio (y) = 0.16578 0.12141
# Poissons Ratio (z) = 0.16206 0.12256
#
# Static dielectric constant tensor:
#      x y z
#    x 2.014240 0.000000 -0.046460 
#    y 0.000000 1.849880 0.000000 
#    z -0.046460 0.000000 1.941940 
# 
# From -- ./inp_files/602.got.cif
#   From: 2010.05.17/outbox.cif.g08.bks.cpg/sg6_1_cif.got.tgz:602.got - 2010.06.03 19:42:10.
