data_PCOD9131619
_publ_section_title
;
Structure prediction by ZEFSAII (Michael W. Deem and Ramdas Pophale) SiO2 
 PCOD9131619
Probable space group: C M
;
_chemical_formula_sum "Si O2"
_cell_formula_units_Z 32
_cell_length_a 25.122088
_cell_length_b 7.865026
_cell_length_c 26.025891
_cell_angle_alpha 90.000000
_cell_angle_beta 16.343278
_cell_angle_gamma 90.000000
_cell_volume 1447.013719
_symmetry_space_group_name_H-M "C M"
_symmetry_group_IT_number 8
_symmetry_cell_setting 'monoclinic'
loop_
_space_group_symop_operation_xyz
x,y,z
x,-y,z
1/2+x,1/2+y,z
1/2+x,1/2-y,z
loop_
_atom_site_type_symbol
_atom_site_label
_atom_site_fract_x
_atom_site_fract_y
_atom_site_fract_z
Si Si1 0.846740 0.295124 0.937590
Si Si2 0.412905 0.708311 0.348899
Si Si3 0.837548 0.194900 0.055868
Si Si4 0.914832 0.194415 0.459086
Si Si5 0.775224 0.700610 0.804818
Si Si6 0.033812 0.291880 0.657752
Si Si7 0.401807 0.799813 0.104320
Si Si8 0.472467 0.293220 0.516078
O O1 0.850101 0.500000 0.934596
O O2 0.946783 0.238771 0.793004
O O3 0.627042 0.237762 0.139970
O O4 0.929194 0.238743 0.916296
O O5 0.415844 0.500000 0.348176
O O6 0.353572 0.768602 0.461158
O O7 0.253807 0.759142 0.455601
O O8 0.645392 0.304896 0.239905
O O9 0.952829 0.223157 0.001247
O O10 0.776324 0.000000 0.110861
O O11 0.883902 0.270464 0.544126
O O12 0.845214 0.000000 0.524856
O O13 0.762481 0.500000 0.824257
O O14 0.906678 0.770972 0.728541
O O15 0.870993 0.736955 0.661416
O O16 0.561776 0.765942 0.997878
O O17 0.031074 0.500000 0.658882
O O18 0.192531 0.737626 0.313019
O O19 0.389989 0.000000 0.107252
O O20 0.467475 0.500000 0.518864
#
# Coordination Sequence:
#
# PCOD9131619 Si02
#       8
#     4   4   4   4   4   4   4   4
#     4   9  17  32  54  76 102 140 179 212 255 319
#     4   8  14  28  51  76  99 126 167 216 256 302
#     4  10  18  30  52  83 113 135 166 220 282 330
#     4   8  15  30  53  79 105 137 179 218 260 326
#     4  11  23  36  53  82 115 144 183 236 284 321
#     4   9  19  33  50  75 104 139 183 222 260 314
#     4  10  21  39  60  79 106 148 192 226 265 329
#     4   9  19  36  57  80 106 141 183 226 274 329
#
# _framework density 22.114512000000001
#
# number of rings (size 3 to 8) (size 9 to 14) (size 15 to 20)
#    0.000    2.750    0.000    3.375    0.000    4.500 
#    0.000    6.250    0.000   10.500    0.000    0.000 
#    0.000    0.000    0.000    0.000    0.000    0.000 
#
# Total GULP energy -89290.549466 kJ/mol
# GULP energy per Si atom -5580.659342 kJ/mol
# Density = 2.206418 g / cm^3
# Si number density = 22.114512 Si / 1000 Ang^3
#
#
#
# Elastic Constant Matrix: (Units=GPa)
#
#
# Indices 1 2 3 4 5 6 
#
# 1 91.1866 -1.0713 16.6416 0.0232 -29.1780 0.0069
# 2 -1.0713 40.7553 -0.7799 0.0393 -2.6040 0.0190
# 3 16.6416 -0.7799 53.5330 0.0494 -11.4843 0.0069
# 4 0.0232 0.0393 0.0494 3.0862 -0.0175 -24.9478
# 5 -29.1780 -2.6040 -11.4843 -0.0175 34.3146 -0.0078
# 6 0.0069 0.0190 0.0069 -24.9478 -0.0078 -33.5674
#
#
#
# Elastic Compliance Matrix: (Units=1/GPa)
#
#
# Indices 1 2 3 4 5 6 
#
# 1 0.015339 0.001158 -0.002084 -0.000003 0.012433 0.000003
# 2 0.001158 0.024777 0.000663 -0.000029 0.003087 0.000036
# 3 -0.002084 0.000663 0.020436 -0.000038 0.005117 0.000031
# 4 -0.000003 -0.000029 -0.000038 0.046237 -0.000002 -0.034364
# 5 0.012433 0.003087 0.005117 -0.000002 0.041661 -0.000003
# 6 0.000003 0.000036 0.000031 -0.034364 -0.000003 -0.004251
#
#
# Mechanical properties :
#
#
# Convention : Reuss Voigt Hill
#
# Bulk Modulus (GPa) = 16.65977 23.89507 20.27742
# Shear Modulus (GPa) = 30.35209 12.14564 21.24886
#
# Velocity S-wave (km/s) = 3.70874 2.34608 3.10313
# Velocity P-wave (km/s) = 5.08817 4.26232 4.69344
#
# Compressibility (1/GPa) = 0.06002483
#
# Stress axis : x y z
#
# Youngs Moduli (GPa) = 65.19407 40.35997 48.93442
#
# Poissons Ratio (x) = -0.04672 0.10199
# Poissons Ratio (y) = -0.07548 -0.03246
# Poissons Ratio (z) = 0.13588 -0.02677
#
# Static dielectric constant tensor:
#      x y z
#    x 1.829150 0.000000 -0.021070 
#    y 0.000000 1.811750 0.000000 
#    z -0.021070 0.000000 1.831430 
# 
# From -- ./inp_files/32384.got.cif
#   From: 2010.05.17/outbox.cif.g08.bks.cpg/sg8_17_cif.got.tgz:32384.got - 2010.06.03 19:46:02.
