data_PCOD9131212
_publ_section_title
;
Structure prediction by ZEFSAII (Michael W. Deem and Ramdas Pophale) SiO2 
 PCOD9131212
Probable space group: P C
;
_chemical_formula_sum "Si O2"
_cell_formula_units_Z 16
_cell_length_a 21.693106
_cell_length_b 6.703331
_cell_length_c 5.227177
_cell_angle_alpha 90.000000
_cell_angle_beta 118.554970
_cell_angle_gamma 90.000000
_cell_volume 667.654260
_symmetry_space_group_name_H-M "P C"
_symmetry_group_IT_number 7
_symmetry_cell_setting 'monoclinic'
loop_
_space_group_symop_operation_xyz
x,y,z
x,-y,1/2+z
loop_
_atom_site_type_symbol
_atom_site_label
_atom_site_fract_x
_atom_site_fract_y
_atom_site_fract_z
Si Si1 0.595360 0.635414 0.990580
Si Si2 0.152136 0.210395 0.440638
Si Si3 0.943764 0.136107 0.675426
Si Si4 0.743807 0.743089 0.120111
Si Si5 0.799850 0.707998 0.732731
Si Si6 0.095893 0.760976 0.328163
Si Si7 0.446742 0.365720 0.088547
Si Si8 0.296191 0.636891 0.384767
O O1 0.597291 0.459506 0.777629
O O2 0.520659 0.740899 0.791850
O O3 0.665760 0.756485 0.074093
O O4 0.149320 0.306576 0.154489
O O5 0.230235 0.220318 0.706201
O O6 0.120328 0.991557 0.333112
O O7 0.102356 0.314045 0.551928
O O8 0.877749 0.280490 0.499012
O O9 0.941511 0.968664 0.446786
O O10 0.017797 0.245127 0.780665
O O11 0.797770 0.805046 0.448445
O O12 0.767120 0.510341 0.124841
O O13 0.750761 0.815271 0.844306
O O14 0.447219 0.545855 0.301751
O O15 0.372442 0.262037 0.995138
O O16 0.293197 0.532921 0.656271
#
# Coordination Sequence:
#
# PCOD9131212 Si02
#       8
#     2   2   2   2   2   2   2   2
#     4  10  14  25  46  67 101 131 163 192 219 282
#     4  10  18  33  56  70  97 123 166 210 240 282
#     4  12  21  37  55  73  96 125 167 219 246 281
#     4  10  17  33  47  76 104 131 156 194 245 301
#     4  10  20  30  52  71 103 127 158 204 249 291
#     4  10  19  35  55  74  84 124 176 219 237 269
#     4   8  16  25  41  69 100 133 157 185 227 283
#     4  10  19  32  48  74 111 134 149 193 249 307
#
# _framework density 23.964500000000001
#
# number of rings (size 3 to 8) (size 9 to 14) (size 15 to 20)
#    0.000    2.000    5.000    1.500    0.000    0.000 
#    0.000    0.000   16.500    0.000    0.000    0.000 
#   22.500    0.000    0.000    0.000    0.000    0.000 
#
# Total GULP energy -89259.837785 kJ/mol
# GULP energy per Si atom -5578.739862 kJ/mol
# Density = 2.390996 g / cm^3
# Si number density = 23.964500 Si / 1000 Ang^3
#
#
#
# Elastic Constant Matrix: (Units=GPa)
#
#
# Indices 1 2 3 4 5 6 
#
# 1 128.1119 -15.4071 31.7415 0.0000 12.6104 0.0000
# 2 -15.4071 51.0227 -21.8296 0.0000 5.7272 0.0000
# 3 31.7415 -21.8296 106.0683 0.0000 -11.0574 0.0000
# 4 0.0000 0.0000 0.0000 -12.6162 0.0000 25.5227
# 5 12.6104 5.7272 -11.0574 0.0000 86.7150 0.0000
# 6 0.0000 0.0000 0.0000 25.5227 0.0000 0.0653
#
#
#
# Elastic Compliance Matrix: (Units=1/GPa)
#
#
# Indices 1 2 3 4 5 6 
#
# 1 0.008795 0.001804 -0.002439 0.000000 -0.001709 0.000000
# 2 0.001804 0.021926 0.003845 0.000000 -0.001220 0.000000
# 3 -0.002439 0.003845 0.011107 0.000000 0.001517 0.000000
# 4 0.000000 0.000000 0.000000 -0.000100 0.000000 0.039131
# 5 -0.001709 -0.001220 0.001517 0.000000 0.012055 0.000000
# 6 0.000000 0.000000 0.000000 0.039131 0.000000 0.019343
#
#
# Mechanical properties :
#
#
# Convention : Reuss Voigt Hill
#
# Bulk Modulus (GPa) = 20.72528 30.46804 25.59666
# Shear Modulus (GPa) = 60.39522 34.21271 47.30396
#
# Velocity S-wave (km/s) = 5.02560 3.78251 4.44770
# Velocity P-wave (km/s) = 6.50712 5.64074 6.08936
#
# Compressibility (1/GPa) = 0.04825024
#
# Stress axis : x y z
#
# Youngs Moduli (GPa) = 113.69894 45.60767 90.03101
#
# Poissons Ratio (x) = -0.08229 0.21957
# Poissons Ratio (y) = -0.20514 -0.34621
# Poissons Ratio (z) = 0.27729 -0.17538
#
# Static dielectric constant tensor:
#      x y z
#    x 1.968640 0.000000 -0.036550 
#    y 0.000000 2.880000 0.000000 
#    z -0.036550 0.000000 1.956830 
# 
# From -- ./inp_files/1457.got.cif
#   From: 2010.05.17/outbox.cif.g08.bks.cpg/sg7_cif.got.tgz:1457.got - 2010.06.03 19:44:50.
