data_PCOD9131248
_publ_section_title
;
Structure prediction by ZEFSAII (Michael W. Deem and Ramdas Pophale) SiO2 
 PCOD9131248
Probable space group: P C
;
_chemical_formula_sum "Si O2"
_cell_formula_units_Z 16
_cell_length_a 12.335833
_cell_length_b 13.886554
_cell_length_c 5.338806
_cell_angle_alpha 90.000000
_cell_angle_beta 72.810794
_cell_angle_gamma 90.000000
_cell_volume 873.700064
_symmetry_space_group_name_H-M "P C"
_symmetry_group_IT_number 7
_symmetry_cell_setting 'monoclinic'
loop_
_space_group_symop_operation_xyz
x,y,z
x,-y,1/2+z
loop_
_atom_site_type_symbol
_atom_site_label
_atom_site_fract_x
_atom_site_fract_y
_atom_site_fract_z
Si Si1 0.954920 0.722384 0.016030
Si Si2 0.402597 0.561957 0.590787
Si Si3 0.137627 0.564427 0.788016
Si Si4 0.624494 0.327419 0.996519
Si Si5 0.690202 0.021413 0.347887
Si Si6 0.839424 0.557456 0.344536
Si Si7 0.942925 0.944477 0.154191
Si Si8 0.723542 0.759161 0.931625
O O1 0.902727 0.659414 0.278883
O O2 0.851610 0.722828 0.886858
O O3 0.060749 0.660085 0.848471
O O4 0.973260 0.833038 0.085310
O O5 0.421467 0.510876 0.310305
O O6 0.270882 0.591573 0.694198
O O7 0.494007 0.645709 0.560634
O O8 0.117718 0.498920 0.554316
O O9 0.705317 0.421047 0.913767
O O10 0.662450 0.258780 0.740556
O O11 0.657951 0.290509 0.248748
O O12 0.728987 0.130110 0.352502
O O13 0.624189 0.991498 0.638334
O O14 0.804683 0.956156 0.258705
O O15 0.868531 0.502805 0.577027
O O16 0.981033 0.009758 0.891984
#
# Coordination Sequence:
#
# PCOD9131248 Si02
#       8
#     2   2   2   2   2   2   2   2
#     4  11  22  36  56  82 118 146 185 228 280 344
#     4  10  20  39  61  76 107 147 197 239 264 318
#     4  10  23  40  58  83 111 153 191 231 279 324
#     4  11  22  34  54  80 109 147 187 221 277 322
#     4  10  18  33  50  72 114 140 183 216 271 330
#     4  11  22  33  47  74 112 146 169 210 271 332
#     4  10  21  33  53  76 109 145 188 223 270 326
#     4  11  22  32  53  85 114 142 176 232 280 338
#
# _framework density 18.312919999999998
#
# number of rings (size 3 to 8) (size 9 to 14) (size 15 to 20)
#    0.000    1.500    2.500    4.500    5.250    4.000 
#    0.000    0.000    0.000    0.000    0.000    5.250 
#    0.000    0.000    0.000    0.000    0.000    0.000 
#
# Total GULP energy -89303.751780 kJ/mol
# GULP energy per Si atom -5581.484486 kJ/mol
# Density = 1.827124 g / cm^3
# Si number density = 18.312920 Si / 1000 Ang^3
#
#
#
# Elastic Constant Matrix: (Units=GPa)
#
#
# Indices 1 2 3 4 5 6 
#
# 1 82.9940 41.0784 31.0270 0.0000 -2.5223 0.0000
# 2 41.0784 106.3178 33.2888 0.0000 -5.0063 0.0000
# 3 31.0270 33.2888 100.0580 0.0000 18.9614 0.0000
# 4 0.0000 0.0000 0.0000 22.7370 0.0000 2.2650
# 5 -2.5223 -5.0063 18.9614 0.0000 22.4987 0.0000
# 6 0.0000 0.0000 0.0000 2.2650 0.0000 9.6807
#
#
#
# Elastic Compliance Matrix: (Units=1/GPa)
#
#
# Indices 1 2 3 4 5 6 
#
# 1 0.016088 -0.004678 -0.004257 0.000000 0.004350 0.000000
# 2 -0.004678 0.012664 -0.003805 0.000000 0.005500 0.000000
# 3 -0.004257 -0.003805 0.015269 0.000000 -0.014193 0.000000
# 4 0.000000 0.000000 0.000000 0.045031 0.000000 -0.010536
# 5 0.004350 0.005500 -0.014193 0.000000 0.058120 0.000000
# 6 0.000000 0.000000 0.000000 -0.010536 0.000000 0.105763
#
#
# Mechanical properties :
#
#
# Convention : Reuss Voigt Hill
#
# Bulk Modulus (GPa) = 53.93196 55.57316 54.75256
# Shear Modulus (GPa) = 17.56883 23.24832 20.40857
#
# Velocity S-wave (km/s) = 3.10073 3.56687 3.34194
# Velocity P-wave (km/s) = 6.50642 6.88301 6.69736
#
# Compressibility (1/GPa) = 0.01854188
#
# Stress axis : x y z
#
# Youngs Moduli (GPa) = 62.15726 78.96634 65.49021
#
# Poissons Ratio (x) = 0.36944 0.27877
# Poissons Ratio (y) = 0.29080 0.24916
# Poissons Ratio (z) = 0.26458 0.30044
#
# Static dielectric constant tensor:
#      x y z
#    x 1.628030 0.000000 0.023780 
#    y 0.000000 1.654190 0.000000 
#    z 0.023780 0.000000 1.716760 
# 
# From -- ./inp_files/1096.got.cif
#   From: 2010.05.17/outbox.cif.g08.bks.cpg/sg7_cif.got.tgz:1096.got - 2010.06.03 19:44:50.
