data_PCOD9131441
_publ_section_title
;
Structure prediction by ZEFSAII (Michael W. Deem and Ramdas Pophale) SiO2 
 PCOD9131441
Probable space group: P C
;
_chemical_formula_sum "Si O2"
_cell_formula_units_Z 10
_cell_length_a 11.059797
_cell_length_b 8.022644
_cell_length_c 5.324343
_cell_angle_alpha 90.000000
_cell_angle_beta 61.964200
_cell_angle_gamma 90.000000
_cell_volume 416.985771
_symmetry_space_group_name_H-M "P C"
_symmetry_group_IT_number 7
_symmetry_cell_setting 'monoclinic'
loop_
_space_group_symop_operation_xyz
x,y,z
x,-y,1/2+z
loop_
_atom_site_type_symbol
_atom_site_label
_atom_site_fract_x
_atom_site_fract_y
_atom_site_fract_z
Si Si1 0.163520 0.543652 0.007660
Si Si2 0.788100 0.607538 0.723022
Si Si3 0.581172 0.100618 0.441229
Si Si4 0.986053 0.093153 0.173801
Si Si5 0.275444 0.783499 0.238675
O O1 0.085012 0.474794 0.326707
O O2 0.221549 0.723692 0.016178
O O3 0.281416 0.402232 0.858423
O O4 0.791075 0.527215 0.443738
O O5 0.650716 0.719389 0.878815
O O6 0.905793 0.744523 0.659433
O O7 0.417063 0.124402 0.602435
O O8 0.621119 0.996262 0.648688
O O9 0.952257 0.043319 0.491551
O O10 0.149089 0.124728 0.991157
#
# Coordination Sequence:
#
# PCOD9131441 Si02
#       5
#     2   2   2   2   2
#     4   8  20  32  58  92 136 160 222 268 324 368
#     4  12  28  48  76  98 134 186 242 278 340 406
#     4  12  27  45  71 103 145 177 226 284 354 407
#     4  12  27  45  71 103 145 177 226 284 354 407
#     4  10  24  38  72  98 144 172 230 272 354 396
#
# _framework density 23.981632000000001
#
# number of rings (size 3 to 8) (size 9 to 14) (size 15 to 20)
#    1.200    0.000    0.000    4.800   11.200    0.000 
#    0.000    0.000    0.000    0.000    0.000    0.000 
#    0.000    0.000    0.000    0.000    0.000    0.000 
#
# Total GULP energy -55895.337870 kJ/mol
# GULP energy per Si atom -5589.533787 kJ/mol
# Density = 2.392705 g / cm^3
# Si number density = 23.981632 Si / 1000 Ang^3
#
#
#
# Elastic Constant Matrix: (Units=GPa)
#
#
# Indices 1 2 3 4 5 6 
#
# 1 86.8895 11.8684 39.0379 0.0000 1.1445 0.0000
# 2 11.8684 75.7432 13.4702 0.0000 5.5993 0.0000
# 3 39.0379 13.4702 85.3116 0.0000 29.8250 0.0000
# 4 0.0000 0.0000 0.0000 63.7391 0.0000 6.6814
# 5 1.1445 5.5993 29.8250 0.0000 50.0590 0.0000
# 6 0.0000 0.0000 0.0000 6.6814 0.0000 41.7637
#
#
#
# Elastic Compliance Matrix: (Units=1/GPa)
#
#
# Indices 1 2 3 4 5 6 
#
# 1 0.015481 -0.001259 -0.008603 0.000000 0.004912 0.000000
# 2 -0.001259 0.013690 -0.001339 0.000000 -0.000705 0.000000
# 3 -0.008603 -0.001339 0.019892 0.000000 -0.011505 0.000000
# 4 0.000000 0.000000 0.000000 0.015957 0.000000 -0.002553
# 5 0.004912 -0.000705 -0.011505 0.000000 0.026798 0.000000
# 6 0.000000 0.000000 0.000000 -0.002553 0.000000 0.024353
#
#
# Mechanical properties :
#
#
# Convention : Reuss Voigt Hill
#
# Bulk Modulus (GPa) = 37.50721 41.85524 39.68122
# Shear Modulus (GPa) = 33.90789 43.35022 38.62906
#
# Velocity S-wave (km/s) = 3.76428 4.25625 4.01780
# Velocity P-wave (km/s) = 5.87937 6.45331 6.17301
#
# Compressibility (1/GPa) = 0.02666154
#
# Stress axis : x y z
#
# Youngs Moduli (GPa) = 64.59478 73.04587 50.27199
#
# Poissons Ratio (x) = 0.09197 0.43247
# Poissons Ratio (y) = 0.08133 0.06732
# Poissons Ratio (z) = 0.55568 0.09781
#
# Static dielectric constant tensor:
#      x y z
#    x 1.928360 0.000000 0.052750 
#    y 0.000000 1.924830 0.000000 
#    z 0.052750 0.000000 1.978750 
# 
# From -- ./inp_files/1005.got.cif
#   From: 2010.05.17/outbox.cif.g08.bks.cpg/sg7_cif.got.tgz:1005.got - 2010.06.03 19:44:50.
