data_PCOD9131120
_publ_section_title
;
Structure prediction by ZEFSAII (Michael W. Deem and Ramdas Pophale) SiO2 
 PCOD9131120
Probable space group: P M
;
_chemical_formula_sum "Si O2"
_cell_formula_units_Z 13
_cell_length_a 5.021597
_cell_length_b 19.696224
_cell_length_c 4.960672
_cell_angle_alpha 90.000000
_cell_angle_beta 89.375672
_cell_angle_gamma 90.000000
_cell_volume 490.613574
_symmetry_space_group_name_H-M "P M"
_symmetry_group_IT_number 6
_symmetry_cell_setting 'monoclinic'
loop_
_space_group_symop_operation_xyz
x,y,z
x,-y,z
loop_
_atom_site_type_symbol
_atom_site_label
_atom_site_fract_x
_atom_site_fract_y
_atom_site_fract_z
Si Si1 0.992410 0.369858 0.883530
Si Si2 0.635262 0.000000 0.317868
Si Si3 0.541200 0.852221 0.336178
Si Si4 0.596777 0.369875 0.392860
Si Si5 0.036891 0.852271 0.938485
Si Si6 0.294561 0.500000 0.638162
Si Si7 0.137459 0.000000 0.957090
Si Si8 0.294182 0.257795 0.637652
O O1 0.794484 0.353832 0.638263
O O2 0.137329 0.440462 0.814694
O O3 0.217731 0.311869 0.870585
O O4 0.794737 0.373846 0.138295
O O5 0.563872 0.928506 0.451042
O O6 0.441029 0.000000 0.055468
O O7 0.940661 0.000000 0.220792
O O8 0.521596 0.797529 0.572356
O O9 0.281830 0.844691 0.147865
O O10 0.781735 0.842695 0.126939
O O11 0.451832 0.440473 0.461630
O O12 0.371283 0.311924 0.405150
O O13 0.062006 0.928753 0.824487
O O14 0.067111 0.797543 0.703516
#
# Coordination Sequence:
#
# PCOD9131120 Si02
#       8
#     2   1   2   2   2   1   1   2
#     4  11  26  45  70 102 142 180 232 285 347 419
#     4   8  16  35  58  87 122 172 229 296 351 413
#     4  10  22  39  63  91 132 178 236 293 357 419
#     4  11  26  45  70 102 142 180 232 285 347 419
#     4  10  22  39  63  91 132 178 236 293 357 419
#     4  10  24  46  76 106 132 188 224 292 338 422
#     4   8  16  35  58  87 122 172 229 296 351 413
#     4  11  26  36  64  93 134 184 228 287 350 426
#
# _framework density 26.497432
#
# number of rings (size 3 to 8) (size 9 to 14) (size 15 to 20)
#    0.000    1.846    0.000    1.846    8.615    5.538 
#    0.000    0.000    0.000   11.077    0.000    0.000 
#    0.000    0.000    0.000    0.000    0.000    0.000 
#
# Total GULP energy -72377.722278 kJ/mol
# GULP energy per Si atom -5567.517098 kJ/mol
# Density = 2.643712 g / cm^3
# Si number density = 26.497432 Si / 1000 Ang^3
#
#
#
# Elastic Constant Matrix: (Units=GPa)
#
#
# Indices 1 2 3 4 5 6 
#
# 1 168.7334 44.3682 92.3574 0.0000 -39.2892 0.0000
# 2 44.3682 299.6226 73.6303 0.0000 -56.1908 0.0000
# 3 92.3574 73.6303 193.4592 0.0000 -55.4702 0.0000
# 4 0.0000 0.0000 0.0000 30.2251 0.0000 -49.8287
# 5 -39.2892 -56.1908 -55.4702 0.0000 81.1833 0.0000
# 6 0.0000 0.0000 0.0000 -49.8287 0.0000 46.7966
#
#
#
# Elastic Compliance Matrix: (Units=1/GPa)
#
#
# Indices 1 2 3 4 5 6 
#
# 1 0.008190 -0.000076 -0.003432 0.000000 0.001566 0.000000
# 2 -0.000076 0.003957 -0.000865 0.000000 0.002112 0.000000
# 3 -0.003432 -0.000865 0.008070 0.000000 0.003254 0.000000
# 4 0.000000 0.000000 0.000000 -0.043798 0.000000 -0.046636
# 5 0.001566 0.002112 0.003254 0.000000 0.016761 0.000000
# 6 0.000000 0.000000 0.000000 -0.046636 0.000000 -0.028288
#
#
# Mechanical properties :
#
#
# Convention : Reuss Voigt Hill
#
# Bulk Modulus (GPa) = 87.16634 120.28079 103.72356
# Shear Modulus (GPa) = -221.81918 61.73828 -80.04045
#
# Velocity S-wave (km/s) = -9.15943 4.83222 -5.50204
# Velocity P-wave (km/s) = 8.88216 8.75361 1.06467
#
# Compressibility (1/GPa) = 0.01147232
#
# Stress axis : x y z
#
# Youngs Moduli (GPa) = 122.10751 252.70385 123.92213
#
# Poissons Ratio (x) = 0.01912 0.42528
# Poissons Ratio (y) = 0.00924 0.10713
# Poissons Ratio (z) = 0.41905 0.21847
#
# Static dielectric constant tensor:
#      x y z
#    x 2.175360 0.000000 0.163620 
#    y 0.000000 2.039790 0.000000 
#    z 0.163620 0.000000 2.197850 
# 
# From -- ./inp_files/451.got.cif
#   From: 2010.05.17/outbox.cif.g08.bks.cpg/sg6_1_cif.got.tgz:451.got - 2010.06.03 19:42:10.
