data_PCOD9131594
_publ_section_title
;
Structure prediction by ZEFSAII (Michael W. Deem and Ramdas Pophale) SiO2 
 PCOD9131594
Probable space group: C M
;
_chemical_formula_sum "Si O2"
_cell_formula_units_Z 32
_cell_length_a 18.647599
_cell_length_b 13.761777
_cell_length_c 18.625681
_cell_angle_alpha 90.000000
_cell_angle_beta 23.752370
_cell_angle_gamma 90.000000
_cell_volume 1925.229034
_symmetry_space_group_name_H-M "C M"
_symmetry_group_IT_number 8
_symmetry_cell_setting 'monoclinic'
loop_
_space_group_symop_operation_xyz
x,y,z
x,-y,z
1/2+x,1/2+y,z
1/2+x,1/2-y,z
loop_
_atom_site_type_symbol
_atom_site_label
_atom_site_fract_x
_atom_site_fract_y
_atom_site_fract_z
Si Si1 0.081290 0.612988 0.832050
Si Si2 0.238714 0.611436 0.406075
Si Si3 0.967805 0.383837 0.785424
Si Si4 0.579962 0.305450 0.172420
Si Si5 0.290757 0.384294 0.778072
Si Si6 0.161209 0.113138 0.251195
Si Si7 0.502372 0.888231 0.168217
Si Si8 0.653044 0.695692 0.415609
O O1 0.134007 0.500000 0.777897
O O2 0.200757 0.653424 0.786625
O O3 0.078741 0.652732 0.753531
O O4 0.875473 0.616082 0.045299
O O5 0.233395 0.500000 0.386873
O O6 0.427794 0.634797 0.270039
O O7 0.204806 0.691920 0.376688
O O8 0.086544 0.626220 0.606119
O O9 0.934540 0.500000 0.826806
O O10 0.775681 0.333032 0.962794
O O11 0.580283 0.335326 0.255571
O O12 0.537977 0.192698 0.195788
O O13 0.327612 0.500000 0.737150
O O14 0.473384 0.328647 0.622817
O O15 0.151222 0.374038 0.970231
O O16 0.120812 0.162496 0.363773
O O17 0.106627 0.000000 0.302344
O O18 0.314483 0.865217 0.302257
O O19 0.507679 0.000000 0.187579
#
# Coordination Sequence:
#
# PCOD9131594 Si02
#       8
#     4   4   4   4   4   4   4   4
#     4   8  15  27  46  73 102 126 152 198 254 293
#     4  10  21  35  50  72 101 134 170 206 245 299
#     4   9  17  31  50  74 102 128 159 207 253 291
#     4  10  20  33  53  76  99 133 168 201 254 297
#     4  10  18  29  49  76 101 130 162 200 251 298
#     4  10  18  32  52  77 103 126 159 210 255 292
#     4  10  20  35  50  72 105 134 166 207 244 294
#     4  11  21  32  51  76 101 133 167 203 255 296
#
# _framework density 16.621399
#
# number of rings (size 3 to 8) (size 9 to 14) (size 15 to 20)
#    0.000    2.250    1.250    3.750    1.750    0.000 
#    0.000    0.625    0.000    0.000    0.000    0.875 
#    0.000    0.000    0.000    0.000    0.000    0.000 
#
# Total GULP energy -89215.517630 kJ/mol
# GULP energy per Si atom -5575.969852 kJ/mol
# Density = 1.658357 g / cm^3
# Si number density = 16.621399 Si / 1000 Ang^3
#
#
#
# Elastic Constant Matrix: (Units=GPa)
#
#
# Indices 1 2 3 4 5 6 
#
# 1 79.2601 59.0509 22.9377 -0.0108 -6.0645 0.0085
# 2 59.0509 109.8362 27.0828 -0.0139 -2.0131 0.0115
# 3 22.9377 27.0828 60.4153 -0.0155 -14.9612 0.0130
# 4 -0.0108 -0.0139 -0.0155 83.7170 0.0064 -47.2842
# 5 -6.0645 -2.0131 -14.9612 0.0064 18.9476 -0.0047
# 6 0.0085 0.0115 0.0130 -47.2842 -0.0047 60.1045
#
#
#
# Elastic Compliance Matrix: (Units=1/GPa)
#
#
# Indices 1 2 3 4 5 6 
#
# 1 0.021876 -0.011111 -0.002341 0.000000 0.003973 0.000000
# 2 -0.011111 0.016033 -0.004261 0.000001 -0.005217 -0.000001
# 3 -0.002341 -0.004261 0.023684 0.000001 0.017500 -0.000002
# 4 0.000000 0.000001 0.000001 0.021497 -0.000002 0.016912
# 5 0.003973 -0.005217 0.017500 -0.000002 0.067312 0.000000
# 6 0.000000 -0.000001 -0.000002 0.016912 0.000000 0.029942
#
#
# Mechanical properties :
#
#
# Convention : Reuss Voigt Hill
#
# Bulk Modulus (GPa) = 38.21445 51.96161 45.08803
# Shear Modulus (GPa) = 22.27234 41.91649 32.09441
#
# Velocity S-wave (km/s) = 3.66454 5.02724 4.39898
# Velocity P-wave (km/s) = 6.39892 8.06395 7.27920
#
# Compressibility (1/GPa) = 0.02616811
#
# Stress axis : x y z
#
# Youngs Moduli (GPa) = 45.71144 62.37066 42.22181
#
# Poissons Ratio (x) = 0.69302 0.09884
# Poissons Ratio (y) = 0.50791 0.17990
# Poissons Ratio (z) = 0.10701 0.26574
#
# Static dielectric constant tensor:
#      x y z
#    x 1.564270 0.000000 0.003800 
#    y 0.000000 1.547100 0.000000 
#    z 0.003800 0.000000 1.578760 
# 
# From -- ./inp_files/16998.got.cif
#   From: 2010.05.17/outbox.cif.g08.bks.cpg/sg8_9_cif.got.tgz:16998.got - 2010.06.03 19:46:02.
