data_PCOD9131352
_publ_section_title
;
Structure prediction by ZEFSAII (Michael W. Deem and Ramdas Pophale) SiO2 
 PCOD9131352
Probable space group: P C
;
_chemical_formula_sum "Si O2"
_cell_formula_units_Z 12
_cell_length_a 9.506673
_cell_length_b 13.209360
_cell_length_c 5.131844
_cell_angle_alpha 90.000000
_cell_angle_beta 70.113999
_cell_angle_gamma 90.000000
_cell_volume 606.014656
_symmetry_space_group_name_H-M "P C"
_symmetry_group_IT_number 7
_symmetry_cell_setting 'monoclinic'
loop_
_space_group_symop_operation_xyz
x,y,z
x,-y,1/2+z
loop_
_atom_site_type_symbol
_atom_site_label
_atom_site_fract_x
_atom_site_fract_y
_atom_site_fract_z
Si Si1 0.957340 0.284579 0.018480
Si Si2 0.839337 0.567539 0.212671
Si Si3 0.636010 0.231939 0.355988
Si Si4 0.859012 0.931683 0.565508
Si Si5 0.205968 0.431390 0.079780
Si Si6 0.524388 0.328729 0.923093
O O1 0.792857 0.295670 0.257280
O O2 0.088806 0.344057 0.075344
O O3 0.926785 0.331138 0.749667
O O4 0.973197 0.163339 0.005377
O O5 0.874510 0.491172 0.427679
O O6 0.663636 0.593859 0.324982
O O7 0.563787 0.243596 0.682757
O O8 0.699283 0.124158 0.219951
O O9 0.529776 0.280135 0.205808
O O10 0.874469 0.013890 0.781103
O O11 0.190384 0.479425 0.376073
O O12 0.371300 0.384178 0.957651
#
# Coordination Sequence:
#
# PCOD9131352 Si02
#       6
#     2   2   2   2   2   2
#     4   9  23  38  60  88 119 161 198 259 292 353
#     4  11  20  32  54  82 115 154 196 235 280 350
#     4   9  21  37  63  85 112 156 199 253 304 348
#     4  10  21  38  66  93 113 149 205 263 317 356
#     4  12  25  39  57  89 130 171 201 235 292 363
#     4  11  20  38  56  85 123 159 197 237 297 352
#
# _framework density 19.801497999999999
#
# number of rings (size 3 to 8) (size 9 to 14) (size 15 to 20)
#    1.000    0.667    0.000    6.000    0.000    4.000 
#    0.000    0.000    0.000    6.000    0.000    0.000 
#    0.000    0.000    0.000    0.000    0.000    0.000 
#
# Total GULP energy -66979.905362 kJ/mol
# GULP energy per Si atom -5581.658780 kJ/mol
# Density = 1.975643 g / cm^3
# Si number density = 19.801498 Si / 1000 Ang^3
#
#
#
# Elastic Constant Matrix: (Units=GPa)
#
#
# Indices 1 2 3 4 5 6 
#
# 1 115.4051 21.9761 -3.6659 0.0000 7.4523 0.0000
# 2 21.9761 59.7445 -22.8051 0.0000 -2.8762 0.0000
# 3 -3.6659 -22.8051 42.4642 0.0000 10.0012 0.0000
# 4 0.0000 0.0000 0.0000 33.6166 0.0000 -1.9536
# 5 7.4523 -2.8762 10.0012 0.0000 20.2676 0.0000
# 6 0.0000 0.0000 0.0000 -1.9536 0.0000 25.8682
#
#
#
# Elastic Compliance Matrix: (Units=1/GPa)
#
#
# Indices 1 2 3 4 5 6 
#
# 1 0.009644 -0.003855 -0.000310 0.000000 -0.003940 0.000000
# 2 -0.003855 0.022750 0.012210 0.000000 -0.001379 0.000000
# 3 -0.000310 0.012210 0.033543 0.000000 -0.014705 0.000000
# 4 0.000000 0.000000 0.000000 0.029878 0.000000 0.002256
# 5 -0.003940 -0.001379 -0.014705 0.000000 0.057850 0.000000
# 6 0.000000 0.000000 0.000000 0.002256 0.000000 0.038828
#
#
# Mechanical properties :
#
#
# Convention : Reuss Voigt Hill
#
# Bulk Modulus (GPa) = 12.19118 23.18044 17.68581
# Shear Modulus (GPa) = 24.54034 30.75773 27.64904
#
# Velocity S-wave (km/s) = 3.52421 3.94547 3.74078
# Velocity P-wave (km/s) = 4.76762 5.69978 5.25441
#
# Compressibility (1/GPa) = 0.08202651
#
# Stress axis : x y z
#
# Youngs Moduli (GPa) = 103.69269 43.95539 29.81234
#
# Poissons Ratio (x) = 0.16946 0.00924
# Poissons Ratio (y) = 0.39977 -0.36400
# Poissons Ratio (z) = 0.03214 -0.53669
#
# Static dielectric constant tensor:
#      x y z
#    x 1.695000 0.000000 -0.005370 
#    y 0.000000 1.725420 0.000000 
#    z -0.005370 0.000000 1.746600 
# 
# From -- ./inp_files/539.got.cif
#   From: 2010.05.17/outbox.cif.g08.bks.cpg/sg7_cif.got.tgz:539.got - 2010.06.03 19:44:50.
