data_PCOD9131223
_publ_section_title
;
Structure prediction by ZEFSAII (Michael W. Deem and Ramdas Pophale) SiO2 
 PCOD9131223
Probable space group: P C
;
_chemical_formula_sum "Si O2"
_cell_formula_units_Z 12
_cell_length_a 15.256161
_cell_length_b 6.725493
_cell_length_c 5.193917
_cell_angle_alpha 90.000000
_cell_angle_beta 80.141248
_cell_angle_gamma 90.000000
_cell_volume 525.053158
_symmetry_space_group_name_H-M "P C"
_symmetry_group_IT_number 7
_symmetry_cell_setting 'monoclinic'
loop_
_space_group_symop_operation_xyz
x,y,z
x,-y,1/2+z
loop_
_atom_site_type_symbol
_atom_site_label
_atom_site_fract_x
_atom_site_fract_y
_atom_site_fract_z
Si Si1 0.323520 0.296201 0.133220
Si Si2 0.774597 0.628851 0.093167
Si Si3 0.950646 0.127600 0.383403
Si Si4 0.395593 0.254790 0.595190
Si Si5 0.585716 0.362422 0.581934
Si Si6 0.143342 0.862194 0.881996
O O1 0.384174 0.183290 0.310639
O O2 0.367710 0.511434 0.068882
O O3 0.224274 0.288593 0.293650
O O4 0.326781 0.197483 0.851814
O O5 0.773696 0.552365 0.386938
O O6 0.681214 0.739396 0.078989
O O7 0.863297 0.748376 0.989592
O O8 0.045326 0.231221 0.393899
O O9 0.949700 0.945618 0.589124
O O10 0.495716 0.237496 0.643920
O O11 0.582432 0.468905 0.305601
O O12 0.148887 0.031418 0.656071
#
# Coordination Sequence:
#
# PCOD9131223 Si02
#       6
#     2   2   2   2   2   2
#     4  10  18  30  50  75 102 130 179 211 254 312
#     4  10  21  35  58  90 111 141 185 246 280 318
#     4  10  21  40  61  78 112 157 188 220 287 353
#     4  10  17  30  50  80 101 135 163 216 270 311
#     4  10  16  30  51  78 105 137 174 208 279 330
#     4  10  21  37  54  73 101 148 185 213 262 324
#
# _framework density 22.854828999999999
#
# number of rings (size 3 to 8) (size 9 to 14) (size 15 to 20)
#    0.000    2.000    3.333    2.000    0.000    0.000 
#    6.000    0.000    0.000    6.000    0.000    0.000 
#    0.000    0.000    0.000    0.000    0.000    0.000 
#
# Total GULP energy -66944.230537 kJ/mol
# GULP energy per Si atom -5578.685878 kJ/mol
# Density = 2.280281 g / cm^3
# Si number density = 22.854829 Si / 1000 Ang^3
#
#
#
# Elastic Constant Matrix: (Units=GPa)
#
#
# Indices 1 2 3 4 5 6 
#
# 1 190.7840 3.5778 -9.4821 0.0000 -8.9636 0.0000
# 2 3.5778 31.4088 -20.5826 0.0000 2.4617 0.0000
# 3 -9.4821 -20.5826 129.7448 0.0000 6.7466 0.0000
# 4 0.0000 0.0000 0.0000 35.2399 0.0000 -14.7165
# 5 -8.9636 2.4617 6.7466 0.0000 36.6847 0.0000
# 6 0.0000 0.0000 0.0000 -14.7165 0.0000 26.8224
#
#
#
# Elastic Compliance Matrix: (Units=1/GPa)
#
#
# Indices 1 2 3 4 5 6 
#
# 1 0.005324 -0.000555 0.000234 0.000000 0.001295 0.000000
# 2 -0.000555 0.036029 0.005864 0.000000 -0.003632 0.000000
# 3 0.000234 0.005864 0.008756 0.000000 -0.001947 0.000000
# 4 0.000000 0.000000 0.000000 0.036812 0.000000 0.020197
# 5 0.001295 -0.003632 -0.001947 0.000000 0.028178 0.000000
# 6 0.000000 0.000000 0.000000 0.020197 0.000000 0.048364
#
#
# Mechanical properties :
#
#
# Convention : Reuss Voigt Hill
#
# Bulk Modulus (GPa) = 16.34131 33.21819 24.77975
# Shear Modulus (GPa) = 28.93945 44.97769 36.95857
#
# Velocity S-wave (km/s) = 3.56227 4.44100 4.02568
# Velocity P-wave (km/s) = 4.90768 6.39239 5.69859
#
# Compressibility (1/GPa) = 0.06119461
#
# Stress axis : x y z
#
# Youngs Moduli (GPa) = 187.81443 27.75567 114.20761
#
# Poissons Ratio (x) = 0.01540 -0.02670
# Poissons Ratio (y) = 0.10421 -0.66970
# Poissons Ratio (z) = -0.04390 -0.16276
#
# Static dielectric constant tensor:
#      x y z
#    x 1.881950 0.000000 0.010390 
#    y 0.000000 0.529620 0.000000 
#    z 0.010390 0.000000 1.894530 
# 
# From -- ./inp_files/1011.got.cif
#   From: 2010.05.17/outbox.cif.g08.bks.cpg/sg7_cif.got.tgz:1011.got - 2010.06.03 19:44:50.
