data_PCOD9131907
_publ_section_title
;
Structure prediction by ZEFSAII (Michael W. Deem and Ramdas Pophale) SiO2 
 PCOD9131907
Probable space group: C M
;
_chemical_formula_sum "Si O2"
_cell_formula_units_Z 32
_cell_length_a 21.109472
_cell_length_b 7.771261
_cell_length_c 26.229398
_cell_angle_alpha 90.000000
_cell_angle_beta 22.571212
_cell_angle_gamma 90.000000
_cell_volume 1651.572724
_symmetry_space_group_name_H-M "C M"
_symmetry_group_IT_number 8
_symmetry_cell_setting 'monoclinic'
loop_
_space_group_symop_operation_xyz
x,y,z
x,-y,z
1/2+x,1/2+y,z
1/2+x,1/2-y,z
loop_
_atom_site_type_symbol
_atom_site_label
_atom_site_fract_x
_atom_site_fract_y
_atom_site_fract_z
Si Si1 0.782580 0.304908 0.790690
Si Si2 0.631259 0.792245 0.195015
Si Si3 0.947611 0.197593 0.769606
Si Si4 0.411536 0.796069 0.067030
Si Si5 0.669036 0.788922 0.050282
Si Si6 0.339224 0.210283 0.234374
Si Si7 0.588369 0.292561 0.503838
Si Si8 0.262531 0.210564 0.480062
O O1 0.809423 0.500000 0.787050
O O2 0.842735 0.196370 0.794792
O O3 0.904093 0.267250 0.653384
O O4 0.591652 0.277512 0.920908
O O5 0.776103 0.739935 0.125078
O O6 0.450053 0.732615 0.347743
O O7 0.626106 0.000000 0.197534
O O8 0.660945 0.733994 0.114876
O O9 0.830290 0.273993 0.900091
O O10 0.125014 0.273468 0.622298
O O11 0.978388 0.000000 0.761853
O O12 0.352055 0.730714 0.166649
O O13 0.433948 0.000000 0.054970
O O14 0.670707 0.000000 0.048214
O O15 0.504284 0.738200 0.142189
O O16 0.179907 0.267865 0.384895
O O17 0.336042 0.000000 0.236575
O O18 0.698304 0.241181 0.471347
O O19 0.085865 0.000000 0.504914
O O20 0.259616 0.000000 0.483499
#
# Coordination Sequence:
#
# PCOD9131907 Si02
#       8
#     4   4   4   4   4   4   4   4
#     4  11  21  33  50  78 111 141 174 219 273 315
#     4  10  19  33  52  76 108 141 177 220 265 310
#     4   9  16  30  54  80 104 136 179 219 258 310
#     4  11  22  37  55  76 107 146 183 216 263 325
#     4   9  15  28  54  82 103 132 178 223 255 300
#     4   9  16  30  56  83 101 131 183 227 255 304
#     4   9  16  31  56  81 102 131 177 225 265 312
#     4   8  14  26  49  76 100 130 167 209 258 310
#
# _framework density 19.37547
#
# number of rings (size 3 to 8) (size 9 to 14) (size 15 to 20)
#    0.000    2.500    2.500    2.250    0.000    0.000 
#    0.000    5.625    0.000    1.500    0.000    0.000 
#    0.000    0.000    0.000    0.000    0.000    0.000 
#
# Total GULP energy -89245.326673 kJ/mol
# GULP energy per Si atom -5577.832917 kJ/mol
# Density = 1.933137 g / cm^3
# Si number density = 19.375470 Si / 1000 Ang^3
#
#
#
# Elastic Constant Matrix: (Units=GPa)
#
#
# Indices 1 2 3 4 5 6 
#
# 1 100.9013 -1.4873 74.2015 0.0006 8.9677 -0.0002
# 2 -1.4873 32.7050 5.1548 0.0011 4.4947 -0.0013
# 3 74.2015 5.1548 198.3548 -0.0001 16.6130 -0.0014
# 4 0.0006 0.0011 -0.0001 3.5980 -0.0010 -10.9927
# 5 8.9677 4.4947 16.6130 -0.0010 25.9012 0.0004
# 6 -0.0002 -0.0013 -0.0014 -10.9927 0.0004 10.1664
#
#
#
# Elastic Compliance Matrix: (Units=1/GPa)
#
#
# Indices 1 2 3 4 5 6 
#
# 1 0.013819 0.001677 -0.005060 0.000002 -0.001830 0.000002
# 2 0.001677 0.031554 -0.000994 -0.000001 -0.005419 0.000004
# 3 -0.005060 -0.000994 0.007185 -0.000001 -0.002684 -0.000001
# 4 0.000002 -0.000001 -0.000001 -0.120653 -0.000002 -0.130460
# 5 -0.001830 -0.005419 -0.002684 -0.000002 0.041904 -0.000005
# 6 0.000002 0.000004 -0.000001 -0.130460 -0.000005 -0.042700
#
#
# Mechanical properties :
#
#
# Convention : Reuss Voigt Hill
#
# Bulk Modulus (GPa) = 22.82798 54.18881 38.50840
# Shear Modulus (GPa) = -109.79780 24.87258 -42.46261
#
# Velocity S-wave (km/s) = -7.53601 3.58678 -4.68649
# Velocity P-wave (km/s) = 7.99465 6.72174 3.06045
#
# Compressibility (1/GPa) = 0.04380588
#
# Stress axis : x y z
#
# Youngs Moduli (GPa) = 72.36441 31.69172 139.18117
#
# Poissons Ratio (x) = -0.05316 0.70422
# Poissons Ratio (y) = -0.12139 0.13830
# Poissons Ratio (z) = 0.36615 0.03149
#
# Static dielectric constant tensor:
#      x y z
#    x 1.632080 0.000000 0.026180 
#    y 0.000000 1.721180 0.000000 
#    z 0.026180 0.000000 1.698990 
# 
# From -- ./inp_files/31319.got.cif
#   From: 2010.05.17/outbox.cif.g08.bks.cpg/sg8_16_cif.got.tgz:31319.got - 2010.06.03 19:46:02.
