data_PCOD9131267
_publ_section_title
;
Structure prediction by ZEFSAII (Michael W. Deem and Ramdas Pophale) SiO2 
 PCOD9131267
Probable space group: P C
;
_chemical_formula_sum "Si O2"
_cell_formula_units_Z 16
_cell_length_a 26.022076
_cell_length_b 8.258092
_cell_length_c 5.276160
_cell_angle_alpha 90.000000
_cell_angle_beta 136.100958
_cell_angle_gamma 90.000000
_cell_volume 786.171057
_symmetry_space_group_name_H-M "P C"
_symmetry_group_IT_number 7
_symmetry_cell_setting 'monoclinic'
loop_
_space_group_symop_operation_xyz
x,y,z
x,-y,1/2+z
loop_
_atom_site_type_symbol
_atom_site_label
_atom_site_fract_x
_atom_site_fract_y
_atom_site_fract_z
Si Si1 0.494020 0.109570 0.277530
Si Si2 0.234627 0.455947 0.893224
Si Si3 0.062473 0.100336 0.334890
Si Si4 0.787507 0.393970 0.316716
Si Si5 0.904262 0.889860 0.167079
Si Si6 0.613742 0.392712 0.677090
Si Si7 0.231243 0.105212 0.870406
Si Si8 0.393930 0.594185 0.457935
O O1 0.561832 0.236809 0.516502
O O2 0.495677 0.996711 0.529961
O O3 0.421860 0.224281 0.032299
O O4 0.190912 0.500345 0.487950
O O5 0.270256 0.277788 0.018320
O O6 0.305004 0.577523 0.142916
O O7 0.144842 0.164031 0.575670
O O8 0.059992 0.048361 0.621061
O O9 0.986335 0.810879 0.494701
O O10 0.800531 0.517789 0.130912
O O11 0.700669 0.346673 0.995656
O O12 0.840449 0.241037 0.472126
O O13 0.899519 0.978489 0.878192
O O14 0.600355 0.513429 0.865731
O O15 0.244330 0.006505 0.660488
O O16 0.420623 0.510836 0.812380
#
# Coordination Sequence:
#
# PCOD9131267 Si02
#       8
#     2   2   2   2   2   2   2   2
#     4  12  24  38  60  89 111 135 183 235 267 309
#     4  10  21  38  56  79 110 144 175 214 274 335
#     4   8  16  30  50  76 106 140 178 222 274 319
#     4  10  21  36  54  80 113 147 183 223 270 321
#     4  10  19  33  54  78 108 148 186 223 270 321
#     4  10  21  39  60  79 110 153 181 213 276 333
#     4  10  19  35  58  82 106 138 186 233 265 311
#     4  10  21  41  60  77 110 149 174 209 272 337
#
# _framework density 20.351806
#
# number of rings (size 3 to 8) (size 9 to 14) (size 15 to 20)
#    0.000    2.000    0.000    3.750    0.000    1.000 
#    0.000   16.250    0.000    0.000    0.000    0.000 
#    0.000    0.000    0.000    0.000    0.000    0.000 
#
# Total GULP energy -89292.148775 kJ/mol
# GULP energy per Si atom -5580.759298 kJ/mol
# Density = 2.030548 g / cm^3
# Si number density = 20.351806 Si / 1000 Ang^3
#
#
#
# Elastic Constant Matrix: (Units=GPa)
#
#
# Indices 1 2 3 4 5 6 
#
# 1 81.0074 31.8788 46.1050 0.0000 -29.8014 0.0000
# 2 31.8788 88.5021 27.6341 0.0000 -14.7590 0.0000
# 3 46.1050 27.6341 48.5754 0.0000 -22.9499 0.0000
# 4 0.0000 0.0000 0.0000 -3.8454 0.0000 -41.1611
# 5 -29.8014 -14.7590 -22.9499 0.0000 55.0859 0.0000
# 6 0.0000 0.0000 0.0000 -41.1611 0.0000 -10.1422
#
#
#
# Elastic Compliance Matrix: (Units=1/GPa)
#
#
# Indices 1 2 3 4 5 6 
#
# 1 0.028247 -0.002075 -0.023249 0.000000 0.005040 0.000000
# 2 -0.002075 0.013905 -0.005866 0.000000 0.000159 0.000000
# 3 -0.023249 -0.005866 0.048938 0.000000 0.006239 0.000000
# 4 0.000000 0.000000 0.000000 0.006127 0.000000 -0.024867
# 5 0.005040 0.000159 0.006239 0.000000 0.023522 0.000000
# 6 0.000000 0.000000 0.000000 -0.024867 0.000000 0.002323
#
#
# Mechanical properties :
#
#
# Convention : Reuss Voigt Hill
#
# Bulk Modulus (GPa) = 34.83057 47.70228 41.26642
# Shear Modulus (GPa) = 25.63941 15.71746 20.67844
#
# Velocity S-wave (km/s) = 3.55323 2.78202 3.19101
# Velocity P-wave (km/s) = 5.82969 5.81457 5.82214
#
# Compressibility (1/GPa) = 0.02871041
#
# Stress axis : x y z
#
# Youngs Moduli (GPa) = 35.40150 71.91866 20.43400
#
# Poissons Ratio (x) = 0.14923 0.47508
# Poissons Ratio (y) = 0.07346 0.11986
# Poissons Ratio (z) = 0.82306 0.42184
#
# Static dielectric constant tensor:
#      x y z
#    x 1.790090 0.000000 -0.012470 
#    y 0.000000 1.758820 0.000000 
#    z -0.012470 0.000000 1.782410 
# 
# From -- ./inp_files/1417.got.cif
#   From: 2010.05.17/outbox.cif.g08.bks.cpg/sg7_cif.got.tgz:1417.got - 2010.06.03 19:44:50.
