data_PCOD9131077
_publ_section_title
;
Structure prediction by ZEFSAII (Michael W. Deem and Ramdas Pophale) SiO2 
 PCOD9131077
Probable space group: P M
;
_chemical_formula_sum "Si O2"
_cell_formula_units_Z 16
_cell_length_a 16.273030
_cell_length_b 8.676131
_cell_length_c 14.560800
_cell_angle_alpha 90.000000
_cell_angle_beta 26.500304
_cell_angle_gamma 90.000000
_cell_volume 917.300904
_symmetry_space_group_name_H-M "P M"
_symmetry_group_IT_number 6
_symmetry_cell_setting 'monoclinic'
loop_
_space_group_symop_operation_xyz
x,y,z
x,-y,z
loop_
_atom_site_type_symbol
_atom_site_label
_atom_site_fract_x
_atom_site_fract_y
_atom_site_fract_z
Si Si1 0.297570 0.312989 0.687250
Si Si2 0.297848 0.816421 0.982048
Si Si3 0.290789 0.315188 0.193344
Si Si4 0.288373 0.313334 0.486625
Si Si5 0.010006 0.686508 0.128013
Si Si6 0.008512 0.183269 0.620717
Si Si7 0.600005 0.685138 0.030787
Si Si8 0.584906 0.313402 0.552307
O O1 0.299410 0.500000 0.681722
O O2 0.294580 0.259403 0.585562
O O3 0.474900 0.266578 0.570120
O O4 0.120539 0.268225 0.925178
O O5 0.473197 0.754557 0.749603
O O6 0.298764 0.000000 0.982133
O O7 0.297107 0.752136 0.085509
O O8 0.121159 0.755932 0.102134
O O9 0.279646 0.500000 0.201043
O O10 0.117898 0.252764 0.424270
O O11 0.473537 0.274462 0.069329
O O12 0.272669 0.500000 0.500266
O O13 0.117841 0.245646 0.600379
O O14 0.474169 0.273905 0.244812
O O15 0.019328 0.500000 0.125282
O O16 0.797480 0.732636 0.338308
O O17 0.797491 0.236345 0.832727
O O18 0.020539 0.000000 0.605702
O O19 0.625327 0.500000 0.005778
O O20 0.575763 0.500000 0.567190
#
# Coordination Sequence:
#
# PCOD9131077 Si02
#       8
#     2   2   2   2   2   2   2   2
#     4   8  15  30  54  82 105 131 175 225 264 297
#     4  11  22  35  53  78 109 140 170 210 260 315
#     4  10  21  39  60  78 100 133 175 220 260 304
#     4   9  18  34  56  79 105 138 177 220 260 303
#     4   9  18  34  56  79 105 138 177 220 260 303
#     4  11  22  35  53  78 109 140 170 210 260 315
#     4   9  19  35  55  78 103 135 174 215 260 308
#     4   9  18  34  55  78 104 137 178 220 260 303
#
# _framework density 17.442477
#
# number of rings (size 3 to 8) (size 9 to 14) (size 15 to 20)
#    0.000    2.500    0.000    4.125    0.000    5.000 
#    0.000    7.500    0.000    3.000    0.000    0.000 
#    0.000    0.000    0.000    0.000    0.000    0.000 
#
# Total GULP energy -89267.256455 kJ/mol
# GULP energy per Si atom -5579.203528 kJ/mol
# Density = 1.740278 g / cm^3
# Si number density = 17.442477 Si / 1000 Ang^3
#
#
#
# Elastic Constant Matrix: (Units=GPa)
#
#
# Indices 1 2 3 4 5 6 
#
# 1 170.9742 50.5770 132.7041 0.0000 20.1341 0.0000
# 2 50.5770 46.1499 53.7610 0.0000 -3.4597 0.0000
# 3 132.7041 53.7610 164.2960 0.0000 -16.5152 0.0000
# 4 0.0000 0.0000 0.0000 -1.3769 0.0000 1.3079
# 5 20.1341 -3.4597 -16.5152 0.0000 32.2492 0.0000
# 6 0.0000 0.0000 0.0000 1.3079 0.0000 3.7653
#
#
#
# Elastic Compliance Matrix: (Units=1/GPa)
#
#
# Indices 1 2 3 4 5 6 
#
# 1 0.038068 -0.006729 -0.032691 0.000000 -0.041230 0.000000
# 2 -0.006729 0.036358 -0.005954 0.000000 0.005052 0.000000
# 3 -0.032691 -0.005954 0.038404 0.000000 0.039438 0.000000
# 4 0.000000 0.000000 0.000000 -0.546089 0.000000 0.189686
# 5 -0.041230 0.005052 0.039438 0.000000 0.077488 0.000000
# 6 0.000000 0.000000 0.000000 0.189686 0.000000 0.199697
#
#
# Mechanical properties :
#
#
# Convention : Reuss Voigt Hill
#
# Bulk Modulus (GPa) = 45.28516 95.05603 70.17059
# Shear Modulus (GPa) = -86.25614 16.55271 -34.85171
#
# Velocity S-wave (km/s) = -7.03982 3.08391 -4.47485
# Velocity P-wave (km/s) = 6.32929 8.20340 3.69025
#
# Compressibility (1/GPa) = 0.02208229
#
# Stress axis : x y z
#
# Youngs Moduli (GPa) = 26.26898 27.50456 26.03904
#
# Poissons Ratio (x) = 0.18507 0.85123
# Poissons Ratio (y) = 0.17675 0.15505
# Poissons Ratio (z) = 0.85875 0.16377
#
# Static dielectric constant tensor:
#      x y z
#    x 1.575510 0.000000 0.002000 
#    y 0.000000 1.579390 0.000000 
#    z 0.002000 0.000000 1.572570 
# 
# From -- ./inp_files/5625.got.cif
#   From: 2010.05.17/outbox.cif.g08.bks.cpg/sg6_3_cif.got.tgz:5625.got - 2010.06.03 19:42:10.
