data_PCOD9131033
_publ_section_title
;
Structure prediction by ZEFSAII (Michael W. Deem and Ramdas Pophale) SiO2 
 PCOD9131033
Probable space group: P M
;
_chemical_formula_sum "Si O2"
_cell_formula_units_Z 14
_cell_length_a 5.667299
_cell_length_b 13.990702
_cell_length_c 6.894162
_cell_angle_alpha 90.000000
_cell_angle_beta 103.683727
_cell_angle_gamma 90.000000
_cell_volume 531.119112
_symmetry_space_group_name_H-M "P M"
_symmetry_group_IT_number 6
_symmetry_cell_setting 'monoclinic'
loop_
_space_group_symop_operation_xyz
x,y,z
x,-y,z
loop_
_atom_site_type_symbol
_atom_site_label
_atom_site_fract_x
_atom_site_fract_y
_atom_site_fract_z
Si Si1 0.662330 0.110588 0.621700
Si Si2 0.458701 0.390468 0.661943
Si Si3 0.101936 0.656226 0.181143
Si Si4 0.968391 0.617861 0.706765
Si Si5 0.588696 0.636276 0.136344
Si Si6 0.389298 0.168177 0.197947
Si Si7 0.206377 0.890883 0.763197
O O1 0.545270 0.113885 0.386191
O O2 0.444947 0.154830 0.709203
O O3 0.936148 0.151103 0.682772
O O4 0.691092 0.000000 0.693611
O O5 0.442568 0.500000 0.601511
O O6 0.186713 0.350942 0.608771
O O7 0.696337 0.347117 0.608109
O O8 0.527439 0.392792 0.905141
O O9 0.365271 0.605519 0.229662
O O10 0.172996 0.765473 0.243711
O O11 0.865853 0.610742 0.231676
O O12 0.034550 0.653462 0.936738
O O13 0.967279 0.500000 0.714204
O O14 0.565533 0.750936 0.141093
O O15 0.270821 0.109524 0.002391
O O16 0.193235 0.000000 0.683808
#
# Coordination Sequence:
#
# PCOD9131033 Si02
#       7
#     2   2   2   2   2   2   2
#     4  10  23  39  56  80 104 134 177 211 251 315
#     4   8  12  20  33  54  91 124 154 203 238 275
#     4   8  16  25  41  70  95 127 169 199 246 306
#     4   8  12  20  33  54  91 124 154 203 238 275
#     4   8  16  25  41  70  95 127 169 199 246 306
#     4  10  21  34  59  74 110 138 164 216 269 292
#     4  10  23  39  56  80 104 134 177 211 251 315
#
# _framework density 26.359432999999999
#
# number of rings (size 3 to 8) (size 9 to 14) (size 15 to 20)
#    0.857    2.286    0.000    0.429    4.000    0.000 
#    0.000    4.286    0.000    0.000    0.000    0.000 
#    0.000    9.143    0.000    0.000    0.000    0.000 
#
# Total GULP energy -78168.112603 kJ/mol
# GULP energy per Si atom -5583.436615 kJ/mol
# Density = 2.629944 g / cm^3
# Si number density = 26.359433 Si / 1000 Ang^3
#
#
#
# Elastic Constant Matrix: (Units=GPa)
#
#
# Indices 1 2 3 4 5 6 
#
# 1 324.1732 27.0518 53.9212 0.0000 11.2427 0.0000
# 2 27.0518 74.5321 3.5779 0.0000 -5.4870 0.0000
# 3 53.9212 3.5779 99.3669 0.0000 25.9489 0.0000
# 4 0.0000 0.0000 0.0000 24.8771 0.0000 -0.6566
# 5 11.2427 -5.4870 25.9489 0.0000 45.4968 0.0000
# 6 0.0000 0.0000 0.0000 -0.6566 0.0000 14.9316
#
#
#
# Elastic Compliance Matrix: (Units=1/GPa)
#
#
# Indices 1 2 3 4 5 6 
#
# 1 0.003491 -0.001173 -0.001868 0.000000 0.000061 0.000000
# 2 -0.001173 0.014030 -0.000454 0.000000 0.002241 0.000000
# 3 -0.001868 -0.000454 0.012911 0.000000 -0.006957 0.000000
# 4 0.000000 0.000000 0.000000 0.040244 0.000000 0.001770
# 5 0.000061 0.002241 -0.006957 0.000000 0.026202 0.000000
# 6 0.000000 0.000000 0.000000 0.001770 0.000000 0.067050
#
#
# Mechanical properties :
#
#
# Convention : Reuss Voigt Hill
#
# Bulk Modulus (GPa) = 42.65998 74.13043 58.39520
# Shear Modulus (GPa) = 27.97492 44.62920 36.30206
#
# Velocity S-wave (km/s) = 3.26127 4.11920 3.71508
# Velocity P-wave (km/s) = 5.51365 7.12795 6.37213
#
# Compressibility (1/GPa) = 0.02344117
#
# Stress axis : x y z
#
# Youngs Moduli (GPa) = 286.42678 71.27837 77.45609
#
# Poissons Ratio (x) = 0.08361 0.14471
# Poissons Ratio (y) = 0.33597 0.03515
# Poissons Ratio (z) = 0.53514 0.03234
#
# Static dielectric constant tensor:
#      x y z
#    x 2.137720 0.000000 -0.037650 
#    y 0.000000 2.026000 0.000000 
#    z -0.037650 0.000000 2.053790 
# 
# From -- ./inp_files/466.got.cif
#   From: 2010.05.17/outbox.cif.g08.bks.cpg/sg6_1_cif.got.tgz:466.got - 2010.06.03 19:42:10.
