data_PCOD9131471
_publ_section_title
;
Structure prediction by ZEFSAII (Michael W. Deem and Ramdas Pophale) SiO2 
 PCOD9131471
Probable space group: P C
;
_chemical_formula_sum "Si O2"
_cell_formula_units_Z 14
_cell_length_a 6.704272
_cell_length_b 23.107380
_cell_length_c 5.152414
_cell_angle_alpha 90.000000
_cell_angle_beta 132.234881
_cell_angle_gamma 90.000000
_cell_volume 590.985558
_symmetry_space_group_name_H-M "P C"
_symmetry_group_IT_number 7
_symmetry_cell_setting 'monoclinic'
loop_
_space_group_symop_operation_xyz
x,y,z
x,-y,1/2+z
loop_
_atom_site_type_symbol
_atom_site_label
_atom_site_fract_x
_atom_site_fract_y
_atom_site_fract_z
Si Si1 0.592090 0.037984 0.765550
Si Si2 0.926912 0.692750 0.647372
Si Si3 0.442321 0.769689 0.089505
Si Si4 0.485371 0.538126 0.734366
Si Si5 0.211829 0.116838 0.670410
Si Si6 0.661425 0.865453 0.963379
Si Si7 0.984443 0.383803 0.706036
O O1 0.724475 0.097404 0.777243
O O2 0.654029 0.994476 0.585647
O O3 0.287663 0.062009 0.556968
O O4 0.667215 0.733853 0.438693
O O5 0.881005 0.647189 0.376208
O O6 0.191810 0.729255 0.801669
O O7 0.979305 0.660296 0.962339
O O8 0.317317 0.824215 0.132162
O O9 0.597396 0.799936 0.985835
O O10 0.441166 0.490020 0.475968
O O11 0.279770 0.590623 0.510406
O O12 0.785138 0.563177 0.972058
O O13 0.395497 0.110114 0.089664
O O14 0.909124 0.126140 0.490245
#
# Coordination Sequence:
#
# PCOD9131471 Si02
#       7
#     2   2   2   2   2   2   2
#     4  11  24  48  72 106 140 184 230 299 366 420
#     4  12  26  45  72 100 150 183 234 300 352 416
#     4  11  26  43  70 104 136 197 234 289 366 420
#     4  12  24  45  74 102 144 191 236 288 348 414
#     4  11  25  46  73 102 141 181 245 288 348 450
#     4  11  25  46  73 102 141 181 245 288 348 450
#     4  12  26  45  68 110 140 185 242 290 350 414
#
# _framework density 23.689243000000001
#
# number of rings (size 3 to 8) (size 9 to 14) (size 15 to 20)
#    0.000    0.571    1.429    6.000    6.000    4.571 
#    0.000    0.000    0.000    0.000    0.000    0.000 
#    0.000    0.000    0.000    0.000    0.000    0.000 
#
# Total GULP energy -78400.572272 kJ/mol
# GULP energy per Si atom -5600.040877 kJ/mol
# Density = 2.363533 g / cm^3
# Si number density = 23.689243 Si / 1000 Ang^3
#
#
#
# Elastic Constant Matrix: (Units=GPa)
#
#
# Indices 1 2 3 4 5 6 
#
# 1 88.7201 8.1394 23.8384 0.0000 -5.4740 0.0000
# 2 8.1394 66.0325 17.1693 0.0000 -4.6665 0.0000
# 3 23.8384 17.1693 88.5855 0.0000 -6.9374 0.0000
# 4 0.0000 0.0000 0.0000 31.8505 0.0000 1.0240
# 5 -5.4740 -4.6665 -6.9374 0.0000 45.0508 0.0000
# 6 0.0000 0.0000 0.0000 1.0240 0.0000 35.9713
#
#
#
# Elastic Compliance Matrix: (Units=1/GPa)
#
#
# Indices 1 2 3 4 5 6 
#
# 1 0.012218 -0.000636 -0.003091 0.000000 0.000943 0.000000
# 2 -0.000636 0.016044 -0.002849 0.000000 0.001146 0.000000
# 3 -0.003091 -0.002849 0.012774 0.000000 0.001296 0.000000
# 4 0.000000 0.000000 0.000000 0.031425 0.000000 -0.000895
# 5 0.000943 0.001146 0.001296 0.000000 0.022630 0.000000
# 6 0.000000 0.000000 0.000000 -0.000895 0.000000 0.027825
#
#
# Mechanical properties :
#
#
# Convention : Reuss Voigt Hill
#
# Bulk Modulus (GPa) = 35.86086 37.95914 36.91000
# Shear Modulus (GPa) = 34.39652 35.52059 34.95856
#
# Velocity S-wave (km/s) = 3.81463 3.87646 3.84567
# Velocity P-wave (km/s) = 5.87986 6.00787 5.94421
#
# Compressibility (1/GPa) = 0.02788555
#
# Stress axis : x y z
#
# Youngs Moduli (GPa) = 81.84374 62.32807 78.28422
#
# Poissons Ratio (x) = 0.03963 0.24197
# Poissons Ratio (y) = 0.05203 0.22301
# Poissons Ratio (z) = 0.25297 0.17756
#
# Static dielectric constant tensor:
#      x y z
#    x 1.875850 0.000000 -0.019930 
#    y 0.000000 1.901420 0.000000 
#    z -0.019930 0.000000 1.919430 
# 
# From -- ./inp_files/406.got.cif
#   From: 2010.05.17/outbox.cif.g08.bks.cpg/sg7_cif.got.tgz:406.got - 2010.06.03 19:44:50.
