data_PCOD9131833
_publ_section_title
;
Structure prediction by ZEFSAII (Michael W. Deem and Ramdas Pophale) SiO2 
 PCOD9131833
Probable space group: C M
;
_chemical_formula_sum "Si O2"
_cell_formula_units_Z 32
_cell_length_a 23.427407
_cell_length_b 7.496102
_cell_length_c 11.730756
_cell_angle_alpha 90.000000
_cell_angle_beta 132.799924
_cell_angle_gamma 90.000000
_cell_volume 1511.549734
_symmetry_space_group_name_H-M "C M"
_symmetry_group_IT_number 8
_symmetry_cell_setting 'monoclinic'
loop_
_space_group_symop_operation_xyz
x,y,z
x,-y,z
1/2+x,1/2+y,z
1/2+x,1/2-y,z
loop_
_atom_site_type_symbol
_atom_site_label
_atom_site_fract_x
_atom_site_fract_y
_atom_site_fract_z
Si Si1 0.427220 0.281393 0.597310
Si Si2 0.653292 0.208858 0.764063
Si Si3 0.805310 0.218170 0.837884
Si Si4 0.781995 0.786509 0.547543
Si Si5 0.471097 0.718989 0.164183
Si Si6 0.592889 0.715249 0.923587
Si Si7 0.486581 0.294819 0.441594
Si Si8 0.116499 0.786477 0.210718
O O1 0.427026 0.500000 0.594157
O O2 0.349942 0.220294 0.556104
O O3 0.504963 0.229398 0.771672
O O4 0.438484 0.217369 0.482722
O O5 0.733228 0.276518 0.818542
O O6 0.647080 0.229656 0.891697
O O7 0.576289 0.293160 0.604136
O O8 0.647539 0.000000 0.729119
O O9 0.792373 0.278742 0.690685
O O10 0.805408 0.000000 0.838627
O O11 0.888855 0.272891 0.999255
O O12 0.697202 0.749430 0.383062
O O13 0.791186 0.000000 0.565191
O O14 0.473619 0.500000 0.168250
O O15 0.478769 0.782199 0.305014
O O16 0.543474 0.779587 0.185437
O O17 0.593558 0.500000 0.925442
O O18 0.615814 0.780942 0.079720
O O19 0.460940 0.500000 0.396699
O O20 0.107594 0.000000 0.191188
#
# Coordination Sequence:
#
# PCOD9131833 Si02
#       8
#     4   4   4   4   4   4   4   4
#     4   8  15  29  50  72  92 124 166 197 227 277
#     4  10  19  31  50  75 101 127 158 199 245 290
#     4   9  18  31  49  74  99 126 164 205 239 278
#     4  10  19  32  51  73 100 130 159 198 245 288
#     4   9  17  31  52  74  96 127 167 204 235 277
#     4   9  18  34  53  71  95 128 166 202 236 282
#     4   9  17  31  52  75  99 128 162 198 236 284
#     4  10  20  33  51  74  98 126 162 203 243 286
#
# _framework density 21.170324999999998
#
# number of rings (size 3 to 8) (size 9 to 14) (size 15 to 20)
#    0.000    2.750    0.000    2.625    0.000    4.500 
#    0.000    5.625    0.000    6.000    0.000    0.000 
#    0.000    0.000    0.000    0.000    0.000    0.000 
#
# Total GULP energy -89335.566526 kJ/mol
# GULP energy per Si atom -5583.472908 kJ/mol
# Density = 2.112214 g / cm^3
# Si number density = 21.170325 Si / 1000 Ang^3
#
#
#
# Elastic Constant Matrix: (Units=GPa)
#
#
# Indices 1 2 3 4 5 6 
#
# 1 240.2720 0.4981 132.8956 0.0000 -3.7779 0.0000
# 2 0.4981 56.5784 -6.1055 0.0000 -2.8645 0.0000
# 3 132.8956 -6.1055 167.9946 0.0000 -27.1491 0.0000
# 4 0.0000 0.0000 0.0000 14.4874 0.0000 4.8008
# 5 -3.7779 -2.8645 -27.1491 0.0000 36.5224 0.0000
# 6 0.0000 0.0000 0.0000 4.8008 0.0000 13.5742
#
#
#
# Elastic Compliance Matrix: (Units=1/GPa)
#
#
# Indices 1 2 3 4 5 6 
#
# 1 0.008038 -0.001071 -0.007134 0.000000 -0.004556 0.000000
# 2 -0.001071 0.018033 0.001947 0.000000 0.002751 0.000000
# 3 -0.007134 0.001947 0.013152 0.000000 0.009192 0.000000
# 4 0.000000 0.000000 0.000000 0.078189 0.000000 -0.027653
# 5 -0.004556 0.002751 0.009192 0.000000 0.033958 0.000000
# 6 0.000000 0.000000 0.000000 -0.027653 0.000000 0.083449
#
#
# Mechanical properties :
#
#
# Convention : Reuss Voigt Hill
#
# Bulk Modulus (GPa) = 37.44143 79.93573 58.68858
# Shear Modulus (GPa) = 19.51299 35.42058 27.46679
#
# Velocity S-wave (km/s) = 3.03927 4.09482 3.60588
# Velocity P-wave (km/s) = 5.48091 7.75868 6.71705
#
# Compressibility (1/GPa) = 0.02670838
#
# Stress axis : x y z
#
# Youngs Moduli (GPa) = 124.40137 55.45248 76.03150
#
# Poissons Ratio (x) = 0.05941 0.54242
# Poissons Ratio (y) = 0.13327 -0.14807
# Poissons Ratio (z) = 0.88750 -0.10799
#
# Static dielectric constant tensor:
#      x y z
#    x 1.746910 0.000000 -0.020920 
#    y 0.000000 1.839690 0.000000 
#    z -0.020920 0.000000 1.713750 
# 
# From -- ./inp_files/23752.got.cif
#   From: 2010.05.17/outbox.cif.g08.bks.cpg/sg8_12_cif.got.tgz:23752.got - 2010.06.03 19:46:02.
