data_PCOD9131009
_publ_section_title
;
Structure prediction by ZEFSAII (Michael W. Deem and Ramdas Pophale) SiO2 
 PCOD9131009
Probable space group: P M
;
_chemical_formula_sum "Si O2"
_cell_formula_units_Z 16
_cell_length_a 11.462187
_cell_length_b 8.894083
_cell_length_c 9.326101
_cell_angle_alpha 90.000000
_cell_angle_beta 114.265798
_cell_angle_gamma 90.000000
_cell_volume 866.754946
_symmetry_space_group_name_H-M "P M"
_symmetry_group_IT_number 6
_symmetry_cell_setting 'monoclinic'
loop_
_space_group_symop_operation_xyz
x,y,z
x,-y,z
loop_
_atom_site_type_symbol
_atom_site_label
_atom_site_fract_x
_atom_site_fract_y
_atom_site_fract_z
Si Si1 0.162880 0.319630 0.121270
Si Si2 0.414674 0.179248 0.745269
Si Si3 0.926228 0.821104 0.167301
Si Si4 0.175779 0.679871 0.791960
Si Si5 0.415047 0.319003 0.431181
Si Si6 0.652461 0.679151 0.030139
Si Si7 0.664522 0.679659 0.373460
Si Si8 0.936931 0.821358 0.510933
O O1 0.144547 0.500000 0.123264
O O2 0.291782 0.281064 0.272630
O O3 0.042143 0.238361 0.130630
O O4 0.177353 0.282526 0.961266
O O5 0.293876 0.243689 0.770942
O O6 0.408312 0.238748 0.579896
O O7 0.412629 0.000000 0.746808
O O8 0.543111 0.240928 0.884179
O O9 0.793203 0.739643 0.063152
O O10 0.954211 0.789389 0.349673
O O11 0.910826 0.000000 0.144207
O O12 0.186518 0.500000 0.782830
O O13 0.044682 0.736597 0.654883
O O14 0.415139 0.500000 0.452264
O O15 0.544649 0.279471 0.411679
O O16 0.645674 0.500000 0.005458
O O17 0.633798 0.710225 0.190655
O O18 0.686356 0.500000 0.396695
O O19 0.794777 0.765066 0.477424
O O20 0.947775 0.000000 0.537672
#
# Coordination Sequence:
#
# PCOD9131009 Si02
#       8
#     2   2   2   2   2   2   2   2
#     4  10  22  39  60  85 112 148 194 239 282 333
#     4  12  25  39  57  85 118 150 187 232 286 342
#     4  10  21  37  58  86 119 152 187 231 284 338
#     4  11  23  40  61  84 112 149 193 237 282 335
#     4  10  21  39  61  84 113 150 193 237 281 333
#     4  10  20  38  63  87 113 149 192 234 279 334
#     4   9  19  37  62  88 113 148 193 236 279 332
#     4  10  21  37  58  87 120 152 187 230 283 339
#
# _framework density 18.459658999999998
#
# number of rings (size 3 to 8) (size 9 to 14) (size 15 to 20)
#    0.000    1.750    0.000    4.125    0.000    9.000 
#    0.000    2.500    0.000    0.000    0.000    0.000 
#    0.000    0.000    0.000    0.000    0.000    0.000 
#
# Total GULP energy -89444.903822 kJ/mol
# GULP energy per Si atom -5590.306489 kJ/mol
# Density = 1.841764 g / cm^3
# Si number density = 18.459659 Si / 1000 Ang^3
#
#
#
# Elastic Constant Matrix: (Units=GPa)
#
#
# Indices 1 2 3 4 5 6 
#
# 1 187.0712 88.5340 109.6294 0.0000 -3.4744 0.0000
# 2 88.5340 82.2414 88.2182 0.0000 1.8842 0.0000
# 3 109.6294 88.2182 156.9610 0.0000 16.7530 0.0000
# 4 0.0000 0.0000 0.0000 23.8952 0.0000 1.2824
# 5 -3.4744 1.8842 16.7530 0.0000 25.4686 0.0000
# 6 0.0000 0.0000 0.0000 1.2824 0.0000 6.3618
#
#
#
# Elastic Compliance Matrix: (Units=1/GPa)
#
#
# Indices 1 2 3 4 5 6 
#
# 1 0.011813 -0.008623 -0.003920 0.000000 0.004828 0.000000
# 2 -0.008623 0.039337 -0.016832 0.000000 0.006985 0.000000
# 3 -0.003920 -0.016832 0.019889 0.000000 -0.012373 0.000000
# 4 0.000000 0.000000 0.000000 0.042307 0.000000 -0.008528
# 5 0.004828 0.006985 -0.012373 0.000000 0.047544 0.000000
# 6 0.000000 0.000000 0.000000 -0.008528 0.000000 0.158907
#
#
# Mechanical properties :
#
#
# Convention : Reuss Voigt Hill
#
# Bulk Modulus (GPa) = 81.36280 111.00408 96.18344
# Shear Modulus (GPa) = 13.06695 20.47126 16.76911
#
# Velocity S-wave (km/s) = 2.66346 3.33374 3.01727
# Velocity P-wave (km/s) = 7.32328 8.66500 8.02224
#
# Compressibility (1/GPa) = 0.01229063
#
# Stress axis : x y z
#
# Youngs Moduli (GPa) = 84.64951 25.42112 50.27809
#
# Poissons Ratio (x) = 0.21921 0.19708
# Poissons Ratio (y) = 0.72996 0.84627
# Poissons Ratio (z) = 0.33180 0.42788
#
# Static dielectric constant tensor:
#      x y z
#    x 1.601540 0.000000 -0.004870 
#    y 0.000000 1.613280 0.000000 
#    z -0.004870 0.000000 1.611260 
# 
# From -- ./inp_files/3779.got.cif
#   From: 2010.05.17/outbox.cif.g08.bks.cpg/sg6_2_cif.got.tgz:3779.got - 2010.06.03 19:42:10.
