data_PCOD9131303
_publ_section_title
;
Structure prediction by ZEFSAII (Michael W. Deem and Ramdas Pophale) SiO2 
 PCOD9131303
Probable space group: P C
;
_chemical_formula_sum "Si O2"
_cell_formula_units_Z 14
_cell_length_a 9.438213
_cell_length_b 12.998860
_cell_length_c 5.214010
_cell_angle_alpha 90.000000
_cell_angle_beta 99.605984
_cell_angle_gamma 90.000000
_cell_volume 630.716795
_symmetry_space_group_name_H-M "P C"
_symmetry_group_IT_number 7
_symmetry_cell_setting 'monoclinic'
loop_
_space_group_symop_operation_xyz
x,y,z
x,-y,1/2+z
loop_
_atom_site_type_symbol
_atom_site_label
_atom_site_fract_x
_atom_site_fract_y
_atom_site_fract_z
Si Si1 0.412940 0.067008 0.973670
Si Si2 0.535368 0.440818 0.340547
Si Si3 0.842524 0.771042 0.201722
Si Si4 0.083340 0.375052 0.788869
Si Si5 0.082576 0.934300 0.431589
Si Si6 0.202275 0.396438 0.324669
Si Si7 0.659211 0.229697 0.162080
O O1 0.247497 0.101328 0.948998
O O2 0.434364 0.021598 0.695513
O O3 0.524872 0.155800 0.071890
O O4 0.572831 0.472721 0.641033
O O5 0.362468 0.425266 0.291878
O O6 0.605044 0.337524 0.259113
O O7 0.740265 0.758742 0.416359
O O8 0.925859 0.663594 0.172052
O O9 0.966335 0.850456 0.318347
O O10 0.762339 0.809520 0.922300
O O11 0.190821 0.342499 0.594716
O O12 0.111587 0.497375 0.830438
O O13 0.127968 0.332747 0.078891
O O14 0.064901 0.974148 0.716575
#
# Coordination Sequence:
#
# PCOD9131303 Si02
#       7
#     2   2   2   2   2   2   2
#     4  10  23  46  73 104 135 176 231 288 341 404
#     4  12  23  45  67  95 136 180 235 281 338 403
#     4  12  26  45  64 103 141 180 226 275 346 419
#     4  10  20  38  62  92 124 162 223 274 316 394
#     4  10  23  44  71 103 133 173 228 287 338 398
#     4  10  19  39  65  93 117 165 231 271 333 370
#     4  12  28  45  66 104 144 186 226 272 356 424
#
# _framework density 22.196968999999999
#
# number of rings (size 3 to 8) (size 9 to 14) (size 15 to 20)
#    0.000    1.143    2.857    3.429    2.000    3.429 
#   20.571    0.000    0.000    0.000    0.000    0.000 
#    0.000    0.000    0.000    0.000    0.000    0.000 
#
# Total GULP energy -78251.518571 kJ/mol
# GULP energy per Si atom -5589.394184 kJ/mol
# Density = 2.214645 g / cm^3
# Si number density = 22.196969 Si / 1000 Ang^3
#
#
#
# Elastic Constant Matrix: (Units=GPa)
#
#
# Indices 1 2 3 4 5 6 
#
# 1 89.5076 47.0517 11.9186 0.0000 3.0353 0.0000
# 2 47.0517 45.9684 -8.8347 0.0000 10.3427 0.0000
# 3 11.9186 -8.8347 106.2849 0.0000 -2.9810 0.0000
# 4 0.0000 0.0000 0.0000 20.9352 0.0000 -9.1648
# 5 3.0353 10.3427 -2.9810 0.0000 40.4860 0.0000
# 6 0.0000 0.0000 0.0000 -9.1648 0.0000 -39.2970
#
#
#
# Elastic Compliance Matrix: (Units=1/GPa)
#
#
# Indices 1 2 3 4 5 6 
#
# 1 0.027988 -0.030930 -0.005558 0.000000 0.005394 0.000000
# 2 -0.030930 0.057593 0.007924 0.000000 -0.011811 0.000000
# 3 -0.005558 0.007924 0.010668 0.000000 -0.000822 0.000000
# 4 0.000000 0.000000 0.000000 0.043341 0.000000 -0.010108
# 5 0.005394 -0.011811 -0.000822 0.000000 0.027252 0.000000
# 6 0.000000 0.000000 0.000000 -0.010108 0.000000 -0.023090
#
#
# Mechanical properties :
#
#
# Convention : Reuss Voigt Hill
#
# Bulk Modulus (GPa) = 25.56111 38.00358 31.78234
# Shear Modulus (GPa) = 23.37311 17.19986 20.28648
#
# Velocity S-wave (km/s) = 3.24850 2.78668 3.02641
# Velocity P-wave (km/s) = 5.06072 5.24522 5.15379
#
# Compressibility (1/GPa) = 0.03912194
#
# Stress axis : x y z
#
# Youngs Moduli (GPa) = 35.72902 17.36315 93.74166
#
# Poissons Ratio (x) = 0.53704 0.52104
# Poissons Ratio (y) = 1.10509 -0.74286
# Poissons Ratio (z) = 0.19859 -0.13759
#
# Static dielectric constant tensor:
#      x y z
#    x 1.792270 0.000000 0.007400 
#    y 0.000000 1.901700 0.000000 
#    z 0.007400 0.000000 1.867860 
# 
# From -- ./inp_files/560.got.cif
#   From: 2010.05.17/outbox.cif.g08.bks.cpg/sg7_cif.got.tgz:560.got - 2010.06.03 19:44:50.
