data_PCOD9131381
_publ_section_title
;
Structure prediction by ZEFSAII (Michael W. Deem and Ramdas Pophale) SiO2 
 PCOD9131381
Probable space group: P C
;
_chemical_formula_sum "Si O2"
_cell_formula_units_Z 14
_cell_length_a 7.437521
_cell_length_b 16.905490
_cell_length_c 5.091329
_cell_angle_alpha 90.000000
_cell_angle_beta 116.136673
_cell_angle_gamma 90.000000
_cell_volume 574.699095
_symmetry_space_group_name_H-M "P C"
_symmetry_group_IT_number 7
_symmetry_cell_setting 'monoclinic'
loop_
_space_group_symop_operation_xyz
x,y,z
x,-y,1/2+z
loop_
_atom_site_type_symbol
_atom_site_label
_atom_site_fract_x
_atom_site_fract_y
_atom_site_fract_z
Si Si1 0.041530 0.276785 0.206240
Si Si2 0.667334 0.827305 0.415128
Si Si3 0.973954 0.051419 0.338724
Si Si4 0.432254 0.551882 0.380319
Si Si5 0.288753 0.268753 0.865290
Si Si6 0.411265 0.944691 0.957931
Si Si7 0.913644 0.547949 0.718357
O O1 0.111291 0.252026 0.542444
O O2 0.187991 0.086487 0.383902
O O3 0.013156 0.370879 0.197755
O O4 0.835258 0.238607 0.972544
O O5 0.792364 0.891323 0.660402
O O6 0.480005 0.785525 0.432423
O O7 0.572143 0.877173 0.116322
O O8 0.965524 0.023567 0.633633
O O9 0.430338 0.984960 0.687378
O O10 0.378194 0.489899 0.573098
O O11 0.346965 0.639294 0.363576
O O12 0.673826 0.560190 0.546558
O O13 0.212362 0.256488 0.108857
O O14 0.961365 0.478375 0.544125
#
# Coordination Sequence:
#
# PCOD9131381 Si02
#       7
#     2   2   2   2   2   2   2
#     4  12  28  45  68 103 139 185 234 279 345 414
#     4  12  26  48  70 102 146 186 216 290 344 408
#     4  10  23  44  73 104 133 175 231 278 333 409
#     4  10  21  42  70  97 131 178 233 287 340 400
#     4  12  28  45  68 103 139 185 234 279 345 414
#     4  10  23  44  73 104 133 175 231 278 333 409
#     4  10  21  42  70  97 131 178 233 287 340 400
#
# _framework density 24.360575000000001
#
# number of rings (size 3 to 8) (size 9 to 14) (size 15 to 20)
#    0.000    1.143    1.429    3.429    0.000   12.571 
#    0.000    0.000    0.000    0.000    0.000    0.000 
#    0.000    0.000    0.000    0.000    0.000    0.000 
#
# Total GULP energy -78510.713233 kJ/mol
# GULP energy per Si atom -5607.908088 kJ/mol
# Density = 2.430513 g / cm^3
# Si number density = 24.360575 Si / 1000 Ang^3
#
#
#
# Elastic Constant Matrix: (Units=GPa)
#
#
# Indices 1 2 3 4 5 6 
#
# 1 88.9391 10.6035 24.1601 0.0000 6.6672 0.0000
# 2 10.6035 76.0710 24.1692 0.0000 9.8822 0.0000
# 3 24.1601 24.1692 96.5564 0.0000 6.1401 0.0000
# 4 0.0000 0.0000 0.0000 28.9886 0.0000 18.1280
# 5 6.6672 9.8822 6.1401 0.0000 47.8111 0.0000
# 6 0.0000 0.0000 0.0000 18.1280 0.0000 33.7980
#
#
#
# Elastic Compliance Matrix: (Units=1/GPa)
#
#
# Indices 1 2 3 4 5 6 
#
# 1 0.012174 -0.000649 -0.002807 0.000000 -0.001203 0.000000
# 2 -0.000649 0.014622 -0.003339 0.000000 -0.002503 0.000000
# 3 -0.002807 -0.003339 0.011923 0.000000 -0.000450 0.000000
# 4 0.000000 0.000000 0.000000 0.051906 0.000000 -0.027841
# 5 -0.001203 -0.002503 -0.000450 0.000000 0.021658 0.000000
# 6 0.000000 0.000000 0.000000 -0.027841 0.000000 0.044520
#
#
# Mechanical properties :
#
#
# Convention : Reuss Voigt Hill
#
# Bulk Modulus (GPa) = 39.79296 42.15911 40.97604
# Shear Modulus (GPa) = 27.96895 35.62847 31.79871
#
# Velocity S-wave (km/s) = 3.39207 3.82847 3.61686
# Velocity P-wave (km/s) = 5.63134 6.07345 5.85657
#
# Compressibility (1/GPa) = 0.02513007
#
# Stress axis : x y z
#
# Youngs Moduli (GPa) = 82.14399 68.39048 83.86919
#
# Poissons Ratio (x) = 0.04437 0.23544
# Poissons Ratio (y) = 0.05329 0.28000
# Poissons Ratio (z) = 0.23060 0.22833
#
# Static dielectric constant tensor:
#      x y z
#    x 1.929340 0.000000 0.063320 
#    y 0.000000 1.895740 0.000000 
#    z 0.063320 0.000000 1.912930 
# 
# From -- ./inp_files/815.got.cif
#   From: 2010.05.17/outbox.cif.g08.bks.cpg/sg7_cif.got.tgz:815.got - 2010.06.03 19:44:50.
