data_PCOD9131412
_publ_section_title
;
Structure prediction by ZEFSAII (Michael W. Deem and Ramdas Pophale) SiO2 
 PCOD9131412
Probable space group: P C
;
_chemical_formula_sum "Si O2"
_cell_formula_units_Z 14
_cell_length_a 7.873669
_cell_length_b 15.389035
_cell_length_c 5.717996
_cell_angle_alpha 90.000000
_cell_angle_beta 120.022609
_cell_angle_gamma 90.000000
_cell_volume 599.879516
_symmetry_space_group_name_H-M "P C"
_symmetry_group_IT_number 7
_symmetry_cell_setting 'monoclinic'
loop_
_space_group_symop_operation_xyz
x,y,z
x,-y,1/2+z
loop_
_atom_site_type_symbol
_atom_site_label
_atom_site_fract_x
_atom_site_fract_y
_atom_site_fract_z
Si Si1 0.466370 0.209163 0.199070
Si Si2 0.999767 0.452018 0.306237
Si Si3 0.466281 0.547489 0.115213
Si Si4 0.152801 0.884219 0.700507
Si Si5 0.684523 0.311440 0.009408
Si Si6 0.731153 0.135772 0.774275
Si Si7 0.357429 0.066799 0.741480
O O1 0.268218 0.204123 0.214556
O O2 0.523654 0.295584 0.101728
O O3 0.647771 0.176875 0.479935
O O4 0.412940 0.132664 0.983409
O O5 0.956175 0.497772 0.022313
O O6 0.233148 0.437301 0.462034
O O7 0.870005 0.365481 0.221168
O O8 0.512928 0.497311 0.396136
O O9 0.583177 0.636888 0.227783
O O10 0.950667 0.898378 0.430392
O O11 0.281779 0.971631 0.748317
O O12 0.168868 0.886698 0.990412
O O13 0.740229 0.215957 0.962079
O O14 0.565285 0.068374 0.744766
#
# Coordination Sequence:
#
# PCOD9131412 Si02
#       7
#     2   2   2   2   2   2   2
#     4  10  24  43  63  98 129 173 225 278 350 411
#     4  10  23  42  69 107 139 184 241 278 341 423
#     4  10  23  43  72 105 136 189 234 282 345 414
#     4  11  22  44  66  92 129 173 228 286 345 417
#     4  11  24  42  68  95 143 172 220 286 343 413
#     4  10  26  42  65 101 130 177 228 281 359 409
#     4  10  22  44  63  92 126 168 226 287 333 417
#
# _framework density 23.338021000000001
#
# number of rings (size 3 to 8) (size 9 to 14) (size 15 to 20)
#    0.000    1.714    1.429    0.857    4.000    9.143 
#    2.571    0.000    0.000    0.000    0.000    0.000 
#    0.000    0.000    0.000    0.000    0.000    0.000 
#
# Total GULP energy -78089.310132 kJ/mol
# GULP energy per Si atom -5577.807867 kJ/mol
# Density = 2.328490 g / cm^3
# Si number density = 23.338021 Si / 1000 Ang^3
#
#
#
# Elastic Constant Matrix: (Units=GPa)
#
#
# Indices 1 2 3 4 5 6 
#
# 1 51.5970 22.9523 25.1961 0.0000 17.6384 0.0000
# 2 22.9523 58.0249 5.9710 0.0000 7.2711 0.0000
# 3 25.1961 5.9710 127.5256 0.0000 11.1841 0.0000
# 4 0.0000 0.0000 0.0000 22.6453 0.0000 -7.5375
# 5 17.6384 7.2711 11.1841 0.0000 36.8089 0.0000
# 6 0.0000 0.0000 0.0000 -7.5375 0.0000 24.9600
#
#
#
# Elastic Compliance Matrix: (Units=1/GPa)
#
#
# Indices 1 2 3 4 5 6 
#
# 1 0.029698 -0.009922 -0.004445 0.000000 -0.010921 0.000000
# 2 -0.009922 0.021022 0.000949 0.000000 0.000314 0.000000
# 3 -0.004445 0.000949 0.008738 0.000000 -0.000712 0.000000
# 4 0.000000 0.000000 0.000000 0.049094 0.000000 0.014826
# 5 -0.010921 0.000314 -0.000712 0.000000 0.032555 0.000000
# 6 0.000000 0.000000 0.000000 0.014826 0.000000 0.044541
#
#
# Mechanical properties :
#
#
# Convention : Reuss Voigt Hill
#
# Bulk Modulus (GPa) = 30.65511 38.37623 34.51567
# Shear Modulus (GPa) = 22.38550 29.08469 25.73510
#
# Velocity S-wave (km/s) = 3.10043 3.53404 3.32431
# Velocity P-wave (km/s) = 5.09713 5.75603 5.43657
#
# Compressibility (1/GPa) = 0.03262099
#
# Stress axis : x y z
#
# Youngs Moduli (GPa) = 33.67182 47.56999 114.44368
#
# Poissons Ratio (x) = 0.47197 0.50875
# Poissons Ratio (y) = 0.33408 -0.10855
# Poissons Ratio (z) = 0.14969 -0.04512
#
# Static dielectric constant tensor:
#      x y z
#    x 2.077970 0.000000 -0.167130 
#    y 0.000000 1.849170 0.000000 
#    z -0.167130 0.000000 2.038080 
# 
# From -- ./inp_files/699.got.cif
#   From: 2010.05.17/outbox.cif.g08.bks.cpg/sg7_cif.got.tgz:699.got - 2010.06.03 19:44:50.
