data_PCOD9131308
_publ_section_title
;
Structure prediction by ZEFSAII (Michael W. Deem and Ramdas Pophale) SiO2 
 PCOD9131308
Probable space group: P C
;
_chemical_formula_sum "Si O2"
_cell_formula_units_Z 16
_cell_length_a 14.456025
_cell_length_b 13.253298
_cell_length_c 4.995261
_cell_angle_alpha 90.000000
_cell_angle_beta 85.958975
_cell_angle_gamma 90.000000
_cell_volume 954.662738
_symmetry_space_group_name_H-M "P C"
_symmetry_group_IT_number 7
_symmetry_cell_setting 'monoclinic'
loop_
_space_group_symop_operation_xyz
x,y,z
x,-y,1/2+z
loop_
_atom_site_type_symbol
_atom_site_label
_atom_site_fract_x
_atom_site_fract_y
_atom_site_fract_z
Si Si1 0.019180 0.442674 0.280580
Si Si2 0.309305 0.069673 0.911267
Si Si3 0.970431 0.241316 0.058382
Si Si4 0.842522 0.758684 0.090024
Si Si5 0.107571 0.070040 0.840983
Si Si6 0.793773 0.557326 0.867824
Si Si7 0.503647 0.069673 0.737136
Si Si8 0.705381 0.070040 0.807420
O O1 0.052558 0.472727 0.565942
O O2 0.034236 0.331805 0.158395
O O3 0.906477 0.446526 0.324202
O O4 0.310047 0.028087 0.212615
O O5 0.406476 0.876386 0.324201
O O6 0.209871 0.117382 0.868528
O O7 0.906477 0.210448 0.324203
O O8 0.906476 0.279532 0.824203
O O9 0.029181 0.149348 0.931399
O O10 0.783771 0.850652 0.217006
O O11 0.778717 0.668194 0.990009
O O12 0.100610 0.024986 0.545537
O O13 0.760395 0.527273 0.582461
O O14 0.603081 0.117382 0.779875
O O15 0.502905 0.028087 0.435788
O O16 0.712342 0.975014 0.602865
#
# Coordination Sequence:
#
# PCOD9131308 Si02
#       8
#     2   2   2   2   2   2   2   2
#     4   9  16  28  44  59  75  98 132 175 214 237
#     4   8  14  26  43  59  75  99 132 170 207 233
#     4  11  21  30  42  60  83 113 143 167 196 239
#     4  11  21  30  42  60  83 113 143 167 196 239
#     4  10  20  31  42  59  85 114 141 167 194 234
#     4   9  16  28  44  59  75  98 132 175 214 237
#     4   8  14  26  43  59  75  99 132 170 207 233
#     4  10  20  31  42  59  85 114 141 167 194 234
#
# _framework density 16.759844999999999
#
# number of rings (size 3 to 8) (size 9 to 14) (size 15 to 20)
#    0.000    2.500    0.000    5.250    0.000    3.000 
#    0.000    0.000    0.000    0.000    0.000    0.000 
#    0.000    2.000    0.000    0.000    0.000   24.000 
#
# Total GULP energy -89082.729148 kJ/mol
# GULP energy per Si atom -5567.670572 kJ/mol
# Density = 1.672170 g / cm^3
# Si number density = 16.759845 Si / 1000 Ang^3
#
#
#
# Elastic Constant Matrix: (Units=GPa)
#
#
# Indices 1 2 3 4 5 6 
#
# 1 39.7531 14.5917 2.4885 0.0000 -11.9359 0.0000
# 2 14.5917 34.1728 -3.2529 0.0000 -8.1832 0.0000
# 3 2.4885 -3.2529 70.6274 0.0000 -8.1564 0.0000
# 4 0.0000 0.0000 0.0000 17.8596 0.0000 0.5998
# 5 -11.9359 -8.1832 -8.1564 0.0000 18.6574 0.0000
# 6 0.0000 0.0000 0.0000 0.5998 0.0000 -2.0170
#
#
#
# Elastic Compliance Matrix: (Units=1/GPa)
#
#
# Indices 1 2 3 4 5 6 
#
# 1 0.034190 -0.010385 0.000334 0.000000 0.017464 0.000000
# 2 -0.010385 0.036613 0.003306 0.000000 0.010860 0.000000
# 3 0.000334 0.003306 0.015262 0.000000 0.008336 0.000000
# 4 0.000000 0.000000 0.000000 0.055439 0.000000 0.016487
# 5 0.017464 0.010860 0.008336 0.000000 0.073177 0.000000
# 6 0.000000 0.000000 0.000000 0.016487 0.000000 -0.490884
#
#
# Mechanical properties :
#
#
# Convention : Reuss Voigt Hill
#
# Bulk Modulus (GPa) = 13.77895 19.13422 16.45659
# Shear Modulus (GPa) = -20.96249 15.61507 -2.67371
#
# Velocity S-wave (km/s) = -3.54044 3.05568 -1.26442
# Velocity P-wave (km/s) = 2.91096 4.88785 2.77645
#
# Compressibility (1/GPa) = 0.07257446
#
# Stress axis : x y z
#
# Youngs Moduli (GPa) = 29.24847 27.31275 65.52225
#
# Poissons Ratio (x) = 0.28365 -0.02187
# Poissons Ratio (y) = 0.30375 -0.21664
# Poissons Ratio (z) = -0.00976 -0.09031
#
# Static dielectric constant tensor:
#      x y z
#    x 1.617380 0.000000 0.002340 
#    y 0.000000 1.570190 0.000000 
#    z 0.002340 0.000000 1.592120 
# 
# From -- ./inp_files/1310.got.cif
#   From: 2010.05.17/outbox.cif.g08.bks.cpg/sg7_cif.got.tgz:1310.got - 2010.06.03 19:44:50.
