data_PCOD9131088
_publ_section_title
;
Structure prediction by ZEFSAII (Michael W. Deem and Ramdas Pophale) SiO2 
 PCOD9131088
Probable space group: P M
;
_chemical_formula_sum "Si O2"
_cell_formula_units_Z 13
_cell_length_a 14.157667
_cell_length_b 7.421880
_cell_length_c 7.149329
_cell_angle_alpha 90.000000
_cell_angle_beta 139.965370
_cell_angle_gamma 90.000000
_cell_volume 483.226824
_symmetry_space_group_name_H-M "P M"
_symmetry_group_IT_number 6
_symmetry_cell_setting 'monoclinic'
loop_
_space_group_symop_operation_xyz
x,y,z
x,-y,z
loop_
_atom_site_type_symbol
_atom_site_label
_atom_site_fract_x
_atom_site_fract_y
_atom_site_fract_z
Si Si1 0.158990 0.215912 0.547830
Si Si2 0.838382 0.708883 0.158672
Si Si3 0.649242 0.791616 0.534564
Si Si4 0.431519 0.215698 0.697523
Si Si5 0.540975 0.500000 0.127796
Si Si6 0.919096 0.794774 0.699763
Si Si7 0.232637 0.779495 0.074084
O O1 0.283024 0.266373 0.589158
O O2 0.210296 0.281261 0.829162
O O3 0.156760 0.000000 0.544925
O O4 0.990463 0.272179 0.271586
O O5 0.815401 0.500000 0.156095
O O6 0.706390 0.784480 0.833685
O O7 0.871455 0.796162 0.409722
O O8 0.789380 0.715009 0.626214
O O9 0.615300 0.000000 0.437866
O O10 0.529786 0.658474 0.273069
O O11 0.548266 0.340854 0.974420
O O12 0.458769 0.000000 0.753951
O O13 0.379263 0.262044 0.409339
O O14 0.082826 0.717662 0.950747
O O15 0.930302 0.000000 0.785815
O O16 0.226489 0.000000 0.063602
#
# Coordination Sequence:
#
# PCOD9131088 Si02
#       7
#     2   2   2   2   1   2   2
#     4   9  18  35  60  89 120 152 187 230 295 369
#     4  11  21  34  60  97 128 151 188 243 303 368
#     4  11  23  43  64  83 119 163 201 249 299 347
#     4  10  21  40  61  81 117 159 194 245 296 340
#     4  12  26  42  58  86 112 154 220 256 282 340
#     4   9  19  37  63  91 120 155 192 236 300 370
#     4   8  15  33  60  89 115 145 185 229 292 363
#
# _framework density 26.902481999999999
#
# number of rings (size 3 to 8) (size 9 to 14) (size 15 to 20)
#    0.000    2.154    0.769    3.692    2.154    2.462 
#    5.538    3.077    0.000    5.538    0.000    0.000 
#    0.000    0.000    0.000    0.000    0.000    0.000 
#
# Total GULP energy -72558.792169 kJ/mol
# GULP energy per Si atom -5581.445551 kJ/mol
# Density = 2.684125 g / cm^3
# Si number density = 26.902482 Si / 1000 Ang^3
#
#
#
# Elastic Constant Matrix: (Units=GPa)
#
#
# Indices 1 2 3 4 5 6 
#
# 1 73.5500 0.0389 18.8932 0.0000 5.1252 0.0000
# 2 0.0389 149.9227 24.1584 0.0000 -9.9196 0.0000
# 3 18.8932 24.1584 146.3357 0.0000 -11.8475 0.0000
# 4 0.0000 0.0000 0.0000 58.9680 0.0000 -9.6114
# 5 5.1252 -9.9196 -11.8475 0.0000 54.1355 0.0000
# 6 0.0000 0.0000 0.0000 -9.6114 0.0000 -9.7668
#
#
#
# Elastic Compliance Matrix: (Units=1/GPa)
#
#
# Indices 1 2 3 4 5 6 
#
# 1 0.014235 0.000205 -0.002013 0.000000 -0.001751 0.000000
# 2 0.000205 0.006912 -0.001086 0.000000 0.001009 0.000000
# 3 -0.002013 -0.001086 0.007403 0.000000 0.001612 0.000000
# 4 0.000000 0.000000 0.000000 0.014614 0.000000 -0.014382
# 5 -0.001751 0.001009 0.001612 0.000000 0.019176 0.000000
# 6 0.000000 0.000000 0.000000 -0.014382 0.000000 -0.088235
#
#
# Mechanical properties :
#
#
# Convention : Reuss Voigt Hill
#
# Bulk Modulus (GPa) = 43.93341 50.66547 47.29944
# Shear Modulus (GPa) = -399.39772 42.44854 -178.47459
#
# Velocity S-wave (km/s) = -12.19769 3.97655 -8.15385
# Velocity P-wave (km/s) = 13.49118 6.32122 8.42776
#
# Compressibility (1/GPa) = 0.02276172
#
# Stress axis : x y z
#
# Youngs Moduli (GPa) = 70.24788 144.67999 135.07469
#
# Poissons Ratio (x) = -0.02965 0.27197
# Poissons Ratio (y) = -0.01439 0.14666
# Poissons Ratio (z) = 0.14144 0.15709
#
# Static dielectric constant tensor:
#      x y z
#    x 2.212580 0.000000 0.080040 
#    y 0.000000 2.056790 0.000000 
#    z 0.080040 0.000000 2.184240 
# 
# From -- ./inp_files/4202.got.cif
#   From: 2010.05.17/outbox.cif.g08.bks.cpg/sg6_3_cif.got.tgz:4202.got - 2010.06.03 19:42:10.
