data_PCOD9131691
_publ_section_title
;
Structure prediction by ZEFSAII (Michael W. Deem and Ramdas Pophale) SiO2 
 PCOD9131691
Probable space group: C M
;
_chemical_formula_sum "Si O2"
_cell_formula_units_Z 32
_cell_length_a 21.331823
_cell_length_b 7.920076
_cell_length_c 26.018780
_cell_angle_alpha 90.000000
_cell_angle_beta 157.534684
_cell_angle_gamma 90.000000
_cell_volume 1679.765546
_symmetry_space_group_name_H-M "C M"
_symmetry_group_IT_number 8
_symmetry_cell_setting 'monoclinic'
loop_
_space_group_symop_operation_xyz
x,y,z
x,-y,z
1/2+x,1/2+y,z
1/2+x,1/2-y,z
loop_
_atom_site_type_symbol
_atom_site_label
_atom_site_fract_x
_atom_site_fract_y
_atom_site_fract_z
Si Si1 0.400180 0.292988 0.557340
Si Si2 0.920912 0.802407 0.840687
Si Si3 0.768620 0.299539 0.833387
Si Si4 0.651022 0.302987 0.559108
Si Si5 0.593819 0.701977 0.130264
Si Si6 0.250054 0.206808 0.140324
Si Si7 0.616923 0.199403 0.417475
Si Si8 0.357808 0.700959 0.408716
O O1 0.396855 0.500000 0.555921
O O2 0.586968 0.243072 0.711313
O O3 0.262123 0.230810 0.492037
O O4 0.364877 0.236130 0.472272
O O5 0.825665 0.782263 0.822834
O O6 0.816781 0.715092 0.717462
O O7 0.929599 0.000000 0.834607
O O8 0.105069 0.738935 0.992063
O O9 0.763620 0.500000 0.820031
O O10 0.908683 0.261766 0.981017
O O11 0.617197 0.500000 0.524459
O O12 0.655650 0.219569 0.506992
O O13 0.504099 0.230518 0.483370
O O14 0.595047 0.500000 0.131592
O O15 0.694946 0.758830 0.156044
O O16 0.687434 0.766177 0.251088
O O17 0.433492 0.267645 0.268464
O O18 0.249070 0.000000 0.139398
O O19 0.607168 0.000000 0.398979
O O20 0.385155 0.500000 0.432723
#
# Coordination Sequence:
#
# PCOD9131691 Si02
#       8
#     4   4   4   4   4   4   4   4
#     4   9  19  35  56  79 106 141 181 218 266 324
#     4  10  19  32  52  80 108 139 178 223 268 315
#     4  10  18  33  53  79 109 141 177 220 270 316
#     4  11  21  34  53  80 111 141 177 223 270 316
#     4  10  19  32  51  81 108 136 177 221 267 316
#     4   8  16  30  50  77 104 129 170 219 262 307
#     4  10  19  36  58  78 105 142 179 222 267 318
#     4  10  19  34  53  78 107 139 179 222 266 316
#
# _framework density 19.050277000000001
#
# number of rings (size 3 to 8) (size 9 to 14) (size 15 to 20)
#    0.000    2.250    2.500    2.250    0.000    0.500 
#    0.000    3.750    0.000    4.500    0.000    0.000 
#    0.000    0.000    0.000    0.000    0.000    0.000 
#
# Total GULP energy -89270.054000 kJ/mol
# GULP energy per Si atom -5579.378375 kJ/mol
# Density = 1.900692 g / cm^3
# Si number density = 19.050277 Si / 1000 Ang^3
#
#
#
# Elastic Constant Matrix: (Units=GPa)
#
#
# Indices 1 2 3 4 5 6 
#
# 1 105.7357 -0.0181 86.5850 -0.0004 13.7032 -0.0001
# 2 -0.0181 14.4726 -12.4544 0.0000 7.1902 0.0002
# 3 86.5850 -12.4544 168.6309 -0.0005 14.3986 0.0002
# 4 -0.0004 0.0000 -0.0005 20.3841 0.0004 -5.3786
# 5 13.7032 7.1902 14.3986 0.0004 25.8677 0.0001
# 6 -0.0001 0.0002 0.0002 -5.3786 0.0001 15.8317
#
#
#
# Elastic Compliance Matrix: (Units=1/GPa)
#
#
# Indices 1 2 3 4 5 6 
#
# 1 0.017248 -0.006816 -0.009177 0.000000 -0.002134 0.000000
# 2 -0.006816 0.095390 0.013124 0.000001 -0.030209 -0.000001
# 3 -0.009177 0.013124 0.012082 0.000000 -0.005512 0.000000
# 4 0.000000 0.000001 0.000000 0.053888 -0.000001 0.018308
# 5 -0.002134 -0.030209 -0.005512 -0.000001 0.051254 0.000000
# 6 0.000000 -0.000001 0.000000 0.018308 0.000000 0.069384
#
#
# Mechanical properties :
#
#
# Convention : Reuss Voigt Hill
#
# Bulk Modulus (GPa) = 8.40458 48.56265 28.48362
# Shear Modulus (GPa) = 14.50766 26.73182 20.61974
#
# Velocity S-wave (km/s) = 2.76261 3.75003 3.29353
# Velocity P-wave (km/s) = 3.82065 6.65563 5.42655
#
# Compressibility (1/GPa) = 0.11898270
#
# Stress axis : x y z
#
# Youngs Moduli (GPa) = 57.97730 10.48327 82.76636
#
# Poissons Ratio (x) = 0.07145 0.75958
# Poissons Ratio (y) = 0.39515 -1.08624
# Poissons Ratio (z) = 0.53208 -0.13758
#
# Static dielectric constant tensor:
#      x y z
#    x 1.634660 0.000000 0.014550 
#    y 0.000000 1.695830 0.000000 
#    z 0.014550 0.000000 1.681110 
# 
# From -- ./inp_files/31352.got.cif
#   From: 2010.05.17/outbox.cif.g08.bks.cpg/sg8_16_cif.got.tgz:31352.got - 2010.06.03 19:46:02.
