data_PCOD9131445
_publ_section_title
;
Structure prediction by ZEFSAII (Michael W. Deem and Ramdas Pophale) SiO2 
 PCOD9131445
Probable space group: P C
;
_chemical_formula_sum "Si O2"
_cell_formula_units_Z 10
_cell_length_a 4.801505
_cell_length_b 13.755942
_cell_length_c 5.531847
_cell_angle_alpha 90.000000
_cell_angle_beta 105.932596
_cell_angle_gamma 90.000000
_cell_volume 351.338462
_symmetry_space_group_name_H-M "P C"
_symmetry_group_IT_number 7
_symmetry_cell_setting 'monoclinic'
loop_
_space_group_symop_operation_xyz
x,y,z
x,-y,1/2+z
loop_
_atom_site_type_symbol
_atom_site_label
_atom_site_fract_x
_atom_site_fract_y
_atom_site_fract_z
Si Si1 0.201350 0.684522 0.330330
Si Si2 0.185370 0.614669 0.829342
Si Si3 0.724498 0.542371 0.443468
Si Si4 0.432285 0.183376 0.212367
Si Si5 0.964547 0.942580 0.785497
O O1 0.045389 0.624814 0.515122
O O2 0.519921 0.638709 0.381675
O O3 0.241203 0.794812 0.423260
O O4 0.051101 0.656865 0.047831
O O5 0.436879 0.533173 0.912652
O O6 0.393184 0.713292 0.829093
O O7 0.870152 0.520080 0.750151
O O8 0.749328 0.149455 0.223290
O O9 0.285795 0.100423 0.336241
O O10 0.918812 0.995226 0.030325
#
# Coordination Sequence:
#
# PCOD9131445 Si02
#       5
#     2   2   2   2   2
#     4  10  24  42  68  94 134 189 237 276 362 406
#     4  10  24  42  68  94 134 189 237 276 362 406
#     4  12  25  42  65 100 140 180 238 302 347 410
#     4  10  26  48  72 100 148 182 240 286 346 448
#     4  12  27  44  75 108 142 180 230 292 365 412
#
# _framework density 28.462582999999999
#
# number of rings (size 3 to 8) (size 9 to 14) (size 15 to 20)
#    1.200    0.000    0.000    4.800    5.600    4.800 
#    0.000    0.000    0.000    0.000    0.000    0.000 
#    0.000    0.000    0.000    0.000    0.000    0.000 
#
# Total GULP energy -55958.608799 kJ/mol
# GULP energy per Si atom -5595.860880 kJ/mol
# Density = 2.839780 g / cm^3
# Si number density = 28.462583 Si / 1000 Ang^3
#
#
#
# Elastic Constant Matrix: (Units=GPa)
#
#
# Indices 1 2 3 4 5 6 
#
# 1 188.0593 24.1875 42.4671 0.0000 8.2736 0.0000
# 2 24.1875 100.8349 42.0934 0.0000 4.7136 0.0000
# 3 42.4671 42.0934 165.8378 0.0000 -23.4436 0.0000
# 4 0.0000 0.0000 0.0000 60.8153 0.0000 -7.9217
# 5 8.2736 4.7136 -23.4436 0.0000 54.7554 0.0000
# 6 0.0000 0.0000 0.0000 -7.9217 0.0000 60.6493
#
#
#
# Elastic Compliance Matrix: (Units=1/GPa)
#
#
# Indices 1 2 3 4 5 6 
#
# 1 0.005815 -0.000691 -0.001522 0.000000 -0.001471 0.000000
# 2 -0.000691 0.011453 -0.003039 0.000000 -0.002183 0.000000
# 3 -0.001522 -0.003039 0.007728 0.000000 0.003800 0.000000
# 4 0.000000 0.000000 0.000000 0.016728 0.000000 0.002185
# 5 -0.001471 -0.002183 0.003800 0.000000 0.020300 0.000000
# 6 0.000000 0.000000 0.000000 0.002185 0.000000 0.016774
#
#
# Mechanical properties :
#
#
# Convention : Reuss Voigt Hill
#
# Bulk Modulus (GPa) = 68.99444 74.69199 71.84322
# Shear Modulus (GPa) = 53.11714 58.30961 55.71337
#
# Velocity S-wave (km/s) = 4.32465 4.53110 4.42908
# Velocity P-wave (km/s) = 7.01640 7.32623 7.17299
#
# Compressibility (1/GPa) = 0.01449392
#
# Stress axis : x y z
#
# Youngs Moduli (GPa) = 171.98056 87.30966 129.39699
#
# Poissons Ratio (x) = 0.06032 0.19688
# Poissons Ratio (y) = 0.11882 0.39321
# Poissons Ratio (z) = 0.26167 0.26532
#
# Static dielectric constant tensor:
#      x y z
#    x 2.167610 0.000000 -0.025460 
#    y 0.000000 2.164010 0.000000 
#    z -0.025460 0.000000 2.509700 
# 
# From -- ./inp_files/175.got.cif
#   From: 2010.05.17/outbox.cif.g08.bks.cpg/sg7_cif.got.tgz:175.got - 2010.06.03 19:44:50.
