data_PCOD9131971
_publ_section_title
;
Structure prediction by ZEFSAII (Michael W. Deem and Ramdas Pophale) SiO2 
 PCOD9131971
Probable space group: C M
;
_chemical_formula_sum "Si O2"
_cell_formula_units_Z 28
_cell_length_a 8.951014
_cell_length_b 20.975647
_cell_length_c 10.693162
_cell_angle_alpha 90.000000
_cell_angle_beta 47.181698
_cell_angle_gamma 90.000000
_cell_volume 1472.656441
_symmetry_space_group_name_H-M "C M"
_symmetry_group_IT_number 8
_symmetry_cell_setting 'monoclinic'
loop_
_space_group_symop_operation_xyz
x,y,z
x,-y,z
1/2+x,1/2+y,z
1/2+x,1/2-y,z
loop_
_atom_site_type_symbol
_atom_site_label
_atom_site_fract_x
_atom_site_fract_y
_atom_site_fract_z
Si Si1 0.973940 0.690121 0.879020
Si Si2 0.865315 0.847975 0.299703
Si Si3 0.307558 0.169967 0.477057
Si Si4 0.646254 0.756429 0.229333
Si Si5 0.404141 0.260091 0.662321
Si Si6 0.458098 0.925755 0.575147
Si Si7 0.725097 0.574888 0.968004
O O1 0.958764 0.711791 0.743027
O O2 0.894294 0.618440 0.940152
O O3 0.197068 0.702142 0.803391
O O4 0.818288 0.737658 0.034467
O O5 0.763971 0.791729 0.274826
O O6 0.675791 0.888415 0.462307
O O7 0.010405 0.808961 0.313115
O O8 0.012046 0.891595 0.129018
O O9 0.484797 0.189151 0.280085
O O10 0.357625 0.217419 0.566590
O O11 0.346417 0.101839 0.515554
O O12 0.089232 0.190092 0.552031
O O13 0.299834 0.919189 0.781070
O O14 0.505886 0.000000 0.536444
O O15 0.722128 0.500000 0.000999
#
# Coordination Sequence:
#
# PCOD9131971 Si02
#       7
#     4   4   4   4   4   4   4
#     4  10  19  34  50  81 103 142 170 227 265 332
#     4  10  21  36  54  86 107 140 174 236 266 330
#     4  10  19  34  50  81 103 142 170 227 265 332
#     4  10  20  32  52  78 110 132 176 214 286 316
#     4  10  20  30  54  76 110 130 174 220 284 306
#     4  10  20  35  55  78 107 147 187 219 261 324
#     4  10  20  35  55  78 107 147 187 219 261 324
#
# _framework density 19.013259000000001
#
# number of rings (size 3 to 8) (size 9 to 14) (size 15 to 20)
#    0.000    2.000    1.429    3.857    4.000    0.000 
#    0.000    0.714    0.000    0.000    0.000    9.000 
#    0.000    0.000    0.000    0.000    0.000    0.000 
#
# Total GULP energy -77950.918787 kJ/mol
# GULP energy per Si atom -5567.922770 kJ/mol
# Density = 1.896998 g / cm^3
# Si number density = 19.013259 Si / 1000 Ang^3
#
#
#
# Elastic Constant Matrix: (Units=GPa)
#
#
# Indices 1 2 3 4 5 6 
#
# 1 88.3623 44.2504 39.8787 0.0000 -26.5637 0.0000
# 2 44.2504 123.1080 55.0402 0.0000 -7.5413 0.0000
# 3 39.8787 55.0402 108.4596 0.0000 -23.5464 0.0000
# 4 0.0000 0.0000 0.0000 34.4132 0.0000 0.2786
# 5 -26.5637 -7.5413 -23.5464 0.0000 28.5998 0.0000
# 6 0.0000 0.0000 0.0000 0.2786 0.0000 22.2084
#
#
#
# Elastic Compliance Matrix: (Units=1/GPa)
#
#
# Indices 1 2 3 4 5 6 
#
# 1 0.019191 -0.005568 -0.000828 0.000000 0.015675 0.000000
# 2 -0.005568 0.012214 -0.005570 0.000000 -0.006537 0.000000
# 3 -0.000828 -0.005570 0.014448 0.000000 0.009657 0.000000
# 4 0.000000 0.000000 0.000000 0.029062 0.000000 -0.000365
# 5 0.015675 -0.006537 0.009657 0.000000 0.055752 0.000000
# 6 0.000000 0.000000 0.000000 -0.000365 0.000000 0.045033
#
#
# Mechanical properties :
#
#
# Convention : Reuss Voigt Hill
#
# Bulk Modulus (GPa) = 45.61728 66.47430 56.04579
# Shear Modulus (GPa) = 24.16176 29.09497 26.62836
#
# Velocity S-wave (km/s) = 3.56867 3.91608 3.74641
# Velocity P-wave (km/s) = 6.40508 7.44886 6.94660
#
# Compressibility (1/GPa) = 0.02192152
#
# Stress axis : x y z
#
# Youngs Moduli (GPa) = 52.10705 81.87117 69.21507
#
# Poissons Ratio (x) = 0.45585 0.05728
# Poissons Ratio (y) = 0.29013 0.38555
# Poissons Ratio (z) = 0.04312 0.45605
#
# Static dielectric constant tensor:
#      x y z
#    x 1.688440 0.000000 0.013520 
#    y 0.000000 1.662740 0.000000 
#    z 0.013520 0.000000 1.769700 
# 
# From -- ./inp_files/19170.got.cif
#   From: 2010.05.17/outbox.cif.g08.bks.cpg/sg8_10_cif.got.tgz:19170.got - 2010.06.03 19:46:02.
