data_PCOD9131032
_publ_section_title
;
Structure prediction by ZEFSAII (Michael W. Deem and Ramdas Pophale) SiO2 
 PCOD9131032
Probable space group: P M
;
_chemical_formula_sum "Si O2"
_cell_formula_units_Z 16
_cell_length_a 9.012062
_cell_length_b 15.620301
_cell_length_c 5.494981
_cell_angle_alpha 90.000000
_cell_angle_beta 98.917668
_cell_angle_gamma 90.000000
_cell_volume 764.184235
_symmetry_space_group_name_H-M "P M"
_symmetry_group_IT_number 6
_symmetry_cell_setting 'monoclinic'
loop_
_space_group_symop_operation_xyz
x,y,z
x,-y,z
loop_
_atom_site_type_symbol
_atom_site_label
_atom_site_fract_x
_atom_site_fract_y
_atom_site_fract_z
Si Si1 0.093930 0.260947 0.332910
Si Si2 0.806643 0.174145 0.106254
Si Si3 0.884976 0.600105 0.552277
Si Si4 0.675658 0.899019 0.585449
Si Si5 0.614909 0.672112 0.196066
Si Si6 0.123563 0.591549 0.986612
Si Si7 0.417811 0.232865 0.491990
Si Si8 0.422642 0.409468 0.769315
O O1 0.158270 0.326865 0.152523
O O2 0.241345 0.216677 0.476659
O O3 0.981423 0.193315 0.188265
O O4 0.993652 0.326208 0.467962
O O5 0.746736 0.132610 0.345214
O O6 0.725415 0.267058 0.068802
O O7 0.773930 0.124007 0.849420
O O8 0.898621 0.500000 0.472618
O O9 0.720306 0.633631 0.437650
O O10 0.953642 0.597028 0.841757
O O11 0.521909 0.846312 0.588049
O O12 0.651901 0.000000 0.565935
O O13 0.483999 0.737147 0.248319
O O14 0.533422 0.598090 0.027206
O O15 0.140658 0.500000 0.121983
O O16 0.248798 0.589631 0.808306
O O17 0.446272 0.320743 0.642397
O O18 0.451744 0.500000 0.646448
#
# Coordination Sequence:
#
# PCOD9131032 Si02
#       8
#     2   2   2   2   2   2   2   2
#     4  11  22  37  61  85 129 166 215 272 325 383
#     4  10  24  41  72  99 127 167 212 263 333 394
#     4  10  21  35  52  81 122 172 224 271 315 368
#     4  11  24  48  73 100 132 166 210 270 336 403
#     4  10  21  38  55  87 125 167 217 269 321 377
#     4  10  21  34  54  84 123 175 224 266 321 374
#     4  11  23  39  61  93 125 172 216 266 330 387
#     4  11  21  34  55  89 131 173 222 267 315 376
#
# _framework density 20.937360000000002
#
# number of rings (size 3 to 8) (size 9 to 14) (size 15 to 20)
#    0.000    1.500    3.750    1.125    5.250    1.500 
#    0.000    3.750    0.000    0.000    0.000    0.000 
#    0.000    0.000    0.000    0.000    0.000    0.000 
#
# Total GULP energy -89192.536423 kJ/mol
# GULP energy per Si atom -5574.533526 kJ/mol
# Density = 2.088971 g / cm^3
# Si number density = 20.937360 Si / 1000 Ang^3
#
#
#
# Elastic Constant Matrix: (Units=GPa)
#
#
# Indices 1 2 3 4 5 6 
#
# 1 104.7097 38.1907 26.7914 0.0000 29.2616 0.0000
# 2 38.1907 129.4866 30.9480 0.0000 10.6234 0.0000
# 3 26.7914 30.9480 60.5715 0.0000 15.5249 0.0000
# 4 0.0000 0.0000 0.0000 26.0673 0.0000 6.4968
# 5 29.2616 10.6234 15.5249 0.0000 34.9934 0.0000
# 6 0.0000 0.0000 0.0000 6.4968 0.0000 30.9043
#
#
#
# Elastic Compliance Matrix: (Units=1/GPa)
#
#
# Indices 1 2 3 4 5 6 
#
# 1 0.013850 -0.002754 -0.002217 0.000000 -0.009762 0.000000
# 2 -0.002754 0.009363 -0.003867 0.000000 0.001176 0.000000
# 3 -0.002217 -0.003867 0.021088 0.000000 -0.006328 0.000000
# 4 0.000000 0.000000 0.000000 0.040483 0.000000 -0.008511
# 5 -0.009762 0.001176 -0.006328 0.000000 0.039190 0.000000
# 6 0.000000 0.000000 0.000000 -0.008511 0.000000 0.034147
#
#
# Mechanical properties :
#
#
# Convention : Reuss Voigt Hill
#
# Bulk Modulus (GPa) = 37.55965 54.06977 45.81471
# Shear Modulus (GPa) = 27.07508 31.64882 29.36195
#
# Velocity S-wave (km/s) = 3.59994 3.89214 3.74889
# Velocity P-wave (km/s) = 5.93779 6.78815 6.37716
#
# Compressibility (1/GPa) = 0.02662432
#
# Stress axis : x y z
#
# Youngs Moduli (GPa) = 72.20274 106.80481 47.42117
#
# Poissons Ratio (x) = 0.29416 0.10512
# Poissons Ratio (y) = 0.19886 0.18338
# Poissons Ratio (z) = 0.16006 0.41302
#
# Static dielectric constant tensor:
#      x y z
#    x 1.783320 0.000000 -0.043560 
#    y 0.000000 1.725280 0.000000 
#    z -0.043560 0.000000 1.866660 
# 
# From -- ./inp_files/1215.got.cif
#   From: 2010.05.17/outbox.cif.g08.bks.cpg/sg6_1_cif.got.tgz:1215.got - 2010.06.03 19:42:10.
