data_PCOD9131887
_publ_section_title
;
Structure prediction by ZEFSAII (Michael W. Deem and Ramdas Pophale) SiO2 
 PCOD9131887
Probable space group: C M
;
_chemical_formula_sum "Si O2"
_cell_formula_units_Z 32
_cell_length_a 15.506580
_cell_length_b 7.508057
_cell_length_c 22.756101
_cell_angle_alpha 90.000000
_cell_angle_beta 146.652057
_cell_angle_gamma 90.000000
_cell_volume 1456.413026
_symmetry_space_group_name_H-M "C M"
_symmetry_group_IT_number 8
_symmetry_cell_setting 'monoclinic'
loop_
_space_group_symop_operation_xyz
x,y,z
x,-y,z
1/2+x,1/2+y,z
1/2+x,1/2-y,z
loop_
_atom_site_type_symbol
_atom_site_label
_atom_site_fract_x
_atom_site_fract_y
_atom_site_fract_z
Si Si1 0.529900 0.290747 0.311370
Si Si2 0.696770 0.215762 0.284542
Si Si3 0.520389 0.298422 0.516517
Si Si4 0.183176 0.282064 0.144379
Si Si5 0.354937 0.212270 0.541601
Si Si6 0.385015 0.781510 0.901202
Si Si7 0.835584 0.707393 0.741531
Si Si8 0.062021 0.211654 0.772676
O O1 0.518830 0.500000 0.318444
O O2 0.587408 0.271444 0.276637
O O3 0.356970 0.218392 0.225296
O O4 0.675526 0.222385 0.433559
O O5 0.646910 0.269353 0.191022
O O6 0.875359 0.281181 0.397835
O O7 0.701952 0.000000 0.289871
O O8 0.541545 0.500000 0.505079
O O9 0.452907 0.299911 0.544636
O O10 0.691296 0.213495 0.621596
O O11 0.183798 0.500000 0.143300
O O12 0.046976 0.223576 0.022774
O O13 0.440982 0.244348 0.651534
O O14 0.355163 0.000000 0.530418
O O15 0.359219 0.718469 0.819862
O O16 0.234048 0.724521 0.852641
O O17 0.386826 0.000000 0.901244
O O18 0.791832 0.500000 0.724564
O O19 0.992260 0.716280 0.793080
O O20 0.069553 0.000000 0.782303
#
# Coordination Sequence:
#
# PCOD9131887 Si02
#       8
#     4   4   4   4   4   4   4   4
#     4   9  19  34  54  80 109 138 174 219 265 313
#     4   9  18  32  54  80 107 139 176 216 261 314
#     4   9  17  32  54  78 111 144 175 216 266 319
#     4   9  18  34  57  79 101 142 186 214 255 320
#     4  10  19  32  54  81 112 142 175 219 268 319
#     4   9  19  37  56  75 106 143 181 220 262 316
#     4  10  20  35  55  79 107 142 181 220 265 318
#     4  11  22  36  54  80 109 142 180 222 270 317
#
# _framework density 21.971788
#
# number of rings (size 3 to 8) (size 9 to 14) (size 15 to 20)
#    0.000    2.500    1.250    0.750    1.750    2.000 
#    0.000    0.625    0.000    3.000    0.000    0.000 
#    0.000    0.000    0.000    0.000    0.000    0.000 
#
# Total GULP energy -89329.286720 kJ/mol
# GULP energy per Si atom -5583.080420 kJ/mol
# Density = 2.192178 g / cm^3
# Si number density = 21.971788 Si / 1000 Ang^3
#
#
#
# Elastic Constant Matrix: (Units=GPa)
#
#
# Indices 1 2 3 4 5 6 
#
# 1 42.9934 -18.1645 34.0722 0.0000 19.4588 0.0000
# 2 -18.1645 59.5612 -0.9768 0.0000 -0.0984 0.0000
# 3 34.0722 -0.9768 111.4041 0.0001 23.1511 0.0000
# 4 0.0000 0.0000 0.0001 0.5335 0.0000 5.5855
# 5 19.4588 -0.0984 23.1511 0.0000 30.1670 0.0000
# 6 0.0000 0.0000 0.0000 5.5855 0.0000 18.0726
#
#
#
# Elastic Compliance Matrix: (Units=1/GPa)
#
#
# Indices 1 2 3 4 5 6 
#
# 1 0.047305 0.014232 -0.009532 0.000000 -0.023152 0.000000
# 2 0.014232 0.021074 -0.002706 0.000000 -0.007035 0.000000
# 3 -0.009532 -0.002706 0.012602 0.000000 -0.003531 0.000000
# 4 0.000000 0.000000 0.000000 -0.838379 0.000000 0.259109
# 5 -0.023152 -0.007035 -0.003531 0.000000 0.050770 0.000000
# 6 0.000000 0.000000 0.000000 0.259109 0.000000 -0.024748
#
#
# Mechanical properties :
#
#
# Convention : Reuss Voigt Hill
#
# Bulk Modulus (GPa) = 11.76904 27.09120 19.43012
# Shear Modulus (GPa) = -7.07172 23.02312 7.97570
#
# Velocity S-wave (km/s) = -1.79598 3.24056 1.90732
# Velocity P-wave (km/s) = 1.03313 5.13404 3.70309
#
# Compressibility (1/GPa) = 0.08496871
#
# Stress axis : x y z
#
# Youngs Moduli (GPa) = 21.13944 47.45220 79.35414
#
# Poissons Ratio (x) = -0.67534 0.75639
# Poissons Ratio (y) = -0.30086 0.21474
# Poissons Ratio (z) = 0.20150 0.12841
#
# Static dielectric constant tensor:
#      x y z
#    x 1.767800 0.000000 0.012020 
#    y 0.000000 1.844100 0.000000 
#    z 0.012020 0.000000 1.801840 
# 
# From -- ./inp_files/24362.got.cif
#   From: 2010.05.17/outbox.cif.g08.bks.cpg/sg8_13_cif.got.tgz:24362.got - 2010.06.03 19:46:02.
