data_PCOD9131359
_publ_section_title
;
Structure prediction by ZEFSAII (Michael W. Deem and Ramdas Pophale) SiO2 
 PCOD9131359
Probable space group: P C
;
_chemical_formula_sum "Si O2"
_cell_formula_units_Z 10
_cell_length_a 7.309669
_cell_length_b 11.872685
_cell_length_c 5.324893
_cell_angle_alpha 90.000000
_cell_angle_beta 65.365165
_cell_angle_gamma 90.000000
_cell_volume 420.061840
_symmetry_space_group_name_H-M "P C"
_symmetry_group_IT_number 7
_symmetry_cell_setting 'monoclinic'
loop_
_space_group_symop_operation_xyz
x,y,z
x,-y,1/2+z
loop_
_atom_site_type_symbol
_atom_site_label
_atom_site_fract_x
_atom_site_fract_y
_atom_site_fract_z
Si Si1 0.185180 0.862936 0.818930
Si Si2 0.822944 0.040784 0.056013
Si Si3 0.511805 0.567405 0.958364
Si Si4 0.835065 0.259696 0.339138
Si Si5 0.404489 0.197353 0.685459
O O1 0.305386 0.848314 0.492504
O O2 0.032349 0.755357 0.891888
O O3 0.327309 0.864404 0.978923
O O4 0.029019 0.967106 0.912115
O O5 0.716719 0.987624 0.358557
O O6 0.860895 0.172848 0.087959
O O7 0.483409 0.525706 0.690636
O O8 0.740552 0.619528 0.833105
O O9 0.369927 0.670913 0.128214
O O10 0.643525 0.204138 0.586052
#
# Coordination Sequence:
#
# PCOD9131359 Si02
#       5
#     2   2   2   2   2
#     4  11  21  43  65  98 130 180 225 271 329 410
#     4  10  21  39  62  92 133 174 209 269 322 388
#     4  10  22  43  69  98 133 175 226 281 330 391
#     4   9  24  43  68  95 145 170 224 278 332 393
#     4  10  24  40  70  91 139 177 222 279 337 384
#
# _framework density 23.806021999999999
#
# number of rings (size 3 to 8) (size 9 to 14) (size 15 to 20)
#    1.200    0.800    0.000    3.600    0.000    9.600 
#    0.000   30.000    0.000    0.000    0.000    0.000 
#    0.000    0.000    0.000    0.000    0.000    0.000 
#
# Total GULP energy -55712.066324 kJ/mol
# GULP energy per Si atom -5571.206632 kJ/mol
# Density = 2.375184 g / cm^3
# Si number density = 23.806022 Si / 1000 Ang^3
#
#
#
# Elastic Constant Matrix: (Units=GPa)
#
#
# Indices 1 2 3 4 5 6 
#
# 1 90.3490 -13.5905 38.4578 0.0000 6.9762 0.0000
# 2 -13.5905 61.6359 9.5419 0.0000 1.4203 0.0000
# 3 38.4578 9.5419 139.7492 0.0000 25.1058 0.0000
# 4 0.0000 0.0000 0.0000 38.3059 0.0000 -3.5021
# 5 6.9762 1.4203 25.1058 0.0000 37.3897 0.0000
# 6 0.0000 0.0000 0.0000 -3.5021 0.0000 50.1208
#
#
#
# Elastic Compliance Matrix: (Units=1/GPa)
#
#
# Indices 1 2 3 4 5 6 
#
# 1 0.013253 0.003524 -0.003889 0.000000 0.000004 0.000000
# 2 0.003524 0.017335 -0.002180 0.000000 0.000148 0.000000
# 3 -0.003889 -0.002180 0.009358 0.000000 -0.005475 0.000000
# 4 0.000000 0.000000 0.000000 0.026273 0.000000 0.001836
# 5 0.000004 0.000148 -0.005475 0.000000 0.030415 0.000000
# 6 0.000000 0.000000 0.000000 0.001836 0.000000 0.020080
#
#
# Mechanical properties :
#
#
# Convention : Reuss Voigt Hill
#
# Bulk Modulus (GPa) = 28.68775 40.06140 34.37457
# Shear Modulus (GPa) = 37.47448 42.31828 39.89638
#
# Velocity S-wave (km/s) = 3.97187 4.22077 4.09821
# Velocity P-wave (km/s) = 5.75423 6.37322 6.07162
#
# Compressibility (1/GPa) = 0.03485809
#
# Stress axis : x y z
#
# Youngs Moduli (GPa) = 75.45364 57.68518 106.85719
#
# Poissons Ratio (x) = -0.20329 0.41552
# Poissons Ratio (y) = -0.26591 0.23295
# Poissons Ratio (z) = 0.29341 0.12575
#
# Static dielectric constant tensor:
#      x y z
#    x 1.959610 0.000000 0.005320 
#    y 0.000000 1.973410 0.000000 
#    z 0.005320 0.000000 1.976690 
# 
# From -- ./inp_files/591.got.cif
#   From: 2010.05.17/outbox.cif.g08.bks.cpg/sg7_cif.got.tgz:591.got - 2010.06.03 19:44:50.
