data_PCOD9131856
_publ_section_title
;
Structure prediction by ZEFSAII (Michael W. Deem and Ramdas Pophale) SiO2 
 PCOD9131856
Probable space group: C M
;
_chemical_formula_sum "Si O2"
_cell_formula_units_Z 24
_cell_length_a 17.013255
_cell_length_b 9.441227
_cell_length_c 20.861610
_cell_angle_alpha 90.000000
_cell_angle_beta 19.456558
_cell_angle_gamma 90.000000
_cell_volume 1116.163809
_symmetry_space_group_name_H-M "C M"
_symmetry_group_IT_number 8
_symmetry_cell_setting 'monoclinic'
loop_
_space_group_symop_operation_xyz
x,y,z
x,-y,z
1/2+x,1/2+y,z
1/2+x,1/2-y,z
loop_
_atom_site_type_symbol
_atom_site_label
_atom_site_fract_x
_atom_site_fract_y
_atom_site_fract_z
Si Si1 0.872830 0.343646 0.366770
Si Si2 0.530798 0.331763 0.023368
Si Si3 0.190989 0.838705 0.201220
Si Si4 0.258395 0.342237 0.960803
Si Si5 0.590184 0.840659 0.779930
Si Si6 0.895030 0.167157 0.657692
O O1 0.836664 0.500000 0.424040
O O2 0.652467 0.313776 0.489766
O O3 0.950973 0.224904 0.356803
O O4 0.097012 0.354662 0.147506
O O5 0.513612 0.500000 0.040501
O O6 0.295285 0.261048 0.176152
O O7 0.616729 0.260356 0.022728
O O8 0.732014 0.278601 0.819654
O O9 0.164508 0.000000 0.243423
O O10 0.390499 0.840179 0.990694
O O11 0.288084 0.500000 0.910142
O O12 0.501812 0.271617 0.796158
O O13 0.834971 0.812329 0.628872
O O14 0.591655 0.000000 0.752097
O O15 0.830378 0.000000 0.719185
#
# Coordination Sequence:
#
# PCOD9131856 Si02
#       6
#     4   4   4   4   4   4
#     4   9  18  33  54  78 102 130 164 203 249 299
#     4  11  21  33  51  74 100 133 172 209 246 292
#     4   9  17  31  51  73  99 132 167 203 245 295
#     4  10  19  32  51  74 100 131 166 206 251 297
#     4   8  15  29  49  71  96 129 165 200 241 293
#     4   9  18  34  54  76 103 131 162 205 252 296
#
# _framework density 21.502220000000001
#
# number of rings (size 3 to 8) (size 9 to 14) (size 15 to 20)
#    0.000    2.667    0.000    3.500    0.000    5.333 
#    0.000    1.667    0.000    6.000    0.000    0.000 
#    0.000    0.000    0.000    0.000    0.000    0.000 
#
# Total GULP energy -66942.977068 kJ/mol
# GULP energy per Si atom -5578.581422 kJ/mol
# Density = 2.145328 g / cm^3
# Si number density = 21.502220 Si / 1000 Ang^3
#
#
#
# Elastic Constant Matrix: (Units=GPa)
#
#
# Indices 1 2 3 4 5 6 
#
# 1 81.9221 82.3483 24.2592 0.0028 -46.9336 -0.0022
# 2 82.3483 189.9548 40.0602 0.0092 -41.1616 -0.0081
# 3 24.2592 40.0602 69.1443 -0.0067 -29.4696 -0.0128
# 4 0.0028 0.0092 -0.0067 33.2906 -0.0022 -27.3389
# 5 -46.9336 -41.1616 -29.4696 -0.0022 49.7861 0.0029
# 6 -0.0022 -0.0081 -0.0128 -27.3389 0.0029 55.5520
#
#
#
# Elastic Compliance Matrix: (Units=1/GPa)
#
#
# Indices 1 2 3 4 5 6 
#
# 1 0.041204 -0.012161 0.006499 0.000005 0.032635 0.000002
# 2 -0.012161 0.010205 -0.003927 -0.000004 -0.005352 -0.000002
# 3 0.006499 -0.003927 0.020977 0.000015 0.015297 0.000011
# 4 0.000005 -0.000004 0.000015 0.050413 0.000011 0.024810
# 5 0.032635 -0.005352 0.015297 0.000011 0.055482 0.000006
# 6 0.000002 -0.000002 0.000011 0.024810 0.000006 0.030211
#
#
# Mechanical properties :
#
#
# Convention : Reuss Voigt Hill
#
# Bulk Modulus (GPa) = 18.79422 70.48406 44.63914
# Shear Modulus (GPa) = 20.37454 40.68264 30.52859
#
# Velocity S-wave (km/s) = 3.08158 4.35445 3.77209
# Velocity P-wave (km/s) = 4.62829 7.62448 6.30689
#
# Compressibility (1/GPa) = 0.05320786
#
# Stress axis : x y z
#
# Youngs Moduli (GPa) = 24.26970 97.99193 47.67140
#
# Poissons Ratio (x) = 1.19170 -0.30981
# Poissons Ratio (y) = 0.29515 0.18718
# Poissons Ratio (z) = -0.15773 0.38477
#
# Static dielectric constant tensor:
#      x y z
#    x 1.820590 0.000000 0.025860 
#    y 0.000000 1.728550 0.000000 
#    z 0.025860 0.000000 1.824520 
# 
# From -- ./inp_files/14206.got.cif
#   From: 2010.05.17/outbox.cif.g08.bks.cpg/sg8_8_cif.got.tgz:14206.got - 2010.06.03 19:46:02.
