data_PCOD9131785
_publ_section_title
;
Structure prediction by ZEFSAII (Michael W. Deem and Ramdas Pophale) SiO2 
 PCOD9131785
Probable space group: C M
;
_chemical_formula_sum "Si O2"
_cell_formula_units_Z 28
_cell_length_a 8.059464
_cell_length_b 28.922875
_cell_length_c 5.184355
_cell_angle_alpha 90.000000
_cell_angle_beta 77.329707
_cell_angle_gamma 90.000000
_cell_volume 1179.059411
_symmetry_space_group_name_H-M "C M"
_symmetry_group_IT_number 8
_symmetry_cell_setting 'monoclinic'
loop_
_space_group_symop_operation_xyz
x,y,z
x,-y,z
1/2+x,1/2+y,z
1/2+x,1/2-y,z
loop_
_atom_site_type_symbol
_atom_site_label
_atom_site_fract_x
_atom_site_fract_y
_atom_site_fract_z
Si Si1 0.225880 0.679837 0.750000
Si Si2 0.615584 0.248460 0.388654
Si Si3 0.785671 0.500000 0.070382
Si Si4 0.050769 0.808635 0.907984
Si Si5 0.601162 0.098509 0.544168
Si Si6 0.240676 0.102518 0.982869
Si Si7 0.026996 0.500000 0.490126
Si Si8 0.449370 0.833607 0.215619
O O1 0.241125 0.712196 0.496114
O O2 0.347081 0.692571 0.944011
O O3 0.238156 0.626287 0.664594
O O4 0.032638 0.683907 0.920584
O O5 0.595007 0.285918 0.619580
O O6 0.459887 0.212272 0.381895
O O7 0.628520 0.278185 0.117110
O O8 0.692326 0.549836 0.070836
O O9 0.921592 0.500000 0.791563
O O10 0.892493 0.500000 0.300451
O O11 0.111253 0.861814 0.896307
O O12 0.416833 0.099070 0.755409
O O13 0.635708 0.046501 0.453623
O O14 0.576486 0.129868 0.302352
O O15 0.291521 0.133383 0.215104
#
# Coordination Sequence:
#
# PCOD9131785 Si02
#       8
#     4   4   2   4   4   4   2   4
#     4  10  24  44  59  93 129 170 206 269 313 384
#     4  11  26  41  60  89 126 169 216 259 309 379
#     4  10  20  38  65  95 132 154 213 272 319 372
#     4  12  28  40  66  90 130 172 215 254 327 381
#     4   9  20  38  67  92 128 158 213 264 318 370
#     4  10  23  40  65  99 123 169 213 267 319 379
#     4  10  18  36  65  99 116 164 207 264 317 380
#     4  10  20  41  63  89 128 160 210 265 311 365
#
# _framework density 23.747744999999998
#
# number of rings (size 3 to 8) (size 9 to 14) (size 15 to 20)
#    0.000    1.714    2.857    0.000   10.000    0.000 
#    0.000    0.714    0.000    0.000    0.000    0.000 
#    0.000    0.000    0.000    0.000    0.000    0.000 
#
# Total GULP energy -77993.302768 kJ/mol
# GULP energy per Si atom -5570.950198 kJ/mol
# Density = 2.369369 g / cm^3
# Si number density = 23.747745 Si / 1000 Ang^3
#
#
#
# Elastic Constant Matrix: (Units=GPa)
#
#
# Indices 1 2 3 4 5 6 
#
# 1 39.6680 41.8984 15.3408 0.0000 14.0646 0.0000
# 2 41.8984 278.0967 84.0520 0.0000 24.7159 0.0000
# 3 15.3408 84.0520 182.9004 0.0000 27.4546 0.0000
# 4 0.0000 0.0000 0.0000 36.3262 0.0000 8.7175
# 5 14.0646 24.7159 27.4546 0.0000 24.0231 0.0000
# 6 0.0000 0.0000 0.0000 8.7175 0.0000 31.9029
#
#
#
# Elastic Compliance Matrix: (Units=1/GPa)
#
#
# Indices 1 2 3 4 5 6 
#
# 1 0.035556 -0.004243 0.001735 0.000000 -0.018434 0.000000
# 2 -0.004243 0.004815 -0.001794 0.000000 -0.000419 0.000000
# 3 0.001735 -0.001794 0.007269 0.000000 -0.007477 0.000000
# 4 0.000000 0.000000 0.000000 0.029460 0.000000 -0.008050
# 5 -0.018434 -0.000419 -0.007477 0.000000 0.061395 0.000000
# 6 0.000000 0.000000 0.000000 -0.008050 0.000000 0.033545
#
#
# Mechanical properties :
#
#
# Convention : Reuss Voigt Hill
#
# Bulk Modulus (GPa) = 25.61817 87.02751 56.32284
# Shear Modulus (GPa) = 25.81919 42.40869 34.11394
#
# Velocity S-wave (km/s) = 3.30089 4.23046 3.79425
# Velocity P-wave (km/s) = 5.03377 7.78386 6.55467
#
# Compressibility (1/GPa) = 0.03903480
#
# Stress axis : x y z
#
# Youngs Moduli (GPa) = 28.12500 207.70587 137.57798
#
# Poissons Ratio (x) = 0.88126 -0.23864
# Poissons Ratio (y) = 0.11933 0.24677
# Poissons Ratio (z) = -0.04878 0.37256
#
# Static dielectric constant tensor:
#      x y z
#    x 2.014680 0.000000 0.000550 
#    y 0.000000 1.936160 0.000000 
#    z 0.000550 0.000000 1.931570 
# 
# From -- ./inp_files/1763.got.cif
#   From: 2010.05.17/outbox.cif.g08.bks.cpg/sg8_1_cif.got.tgz:1763.got - 2010.06.03 19:46:02.
