data_PCOD9131791
_publ_section_title
;
Structure prediction by ZEFSAII (Michael W. Deem and Ramdas Pophale) SiO2 
 PCOD9131791
Probable space group: C M
;
_chemical_formula_sum "Si O2"
_cell_formula_units_Z 32
_cell_length_a 24.274993
_cell_length_b 7.537231
_cell_length_c 20.001217
_cell_angle_alpha 90.000000
_cell_angle_beta 156.594834
_cell_angle_gamma 90.000000
_cell_volume 1453.684292
_symmetry_space_group_name_H-M "C M"
_symmetry_group_IT_number 8
_symmetry_cell_setting 'monoclinic'
loop_
_space_group_symop_operation_xyz
x,y,z
x,-y,z
1/2+x,1/2+y,z
1/2+x,1/2-y,z
loop_
_atom_site_type_symbol
_atom_site_label
_atom_site_fract_x
_atom_site_fract_y
_atom_site_fract_z
Si Si1 0.151260 0.715989 0.192440
Si Si2 0.719390 0.208074 0.867646
Si Si3 0.623011 0.214104 0.011881
Si Si4 0.338607 0.717794 0.140077
Si Si5 0.836345 0.203570 0.636009
Si Si6 0.837007 0.294678 0.856229
Si Si7 0.408903 0.284911 0.568758
Si Si8 0.130612 0.798219 0.515183
O O1 0.151374 0.500000 0.197822
O O2 0.181052 0.763480 0.148770
O O3 0.276047 0.776593 0.378440
O O4 0.994329 0.777738 0.034005
O O5 0.766919 0.290365 0.850788
O O6 0.556518 0.228585 0.703148
O O7 0.749195 0.000000 0.894275
O O8 0.803806 0.277002 0.026262
O O9 0.716579 0.271402 0.054259
O O10 0.613265 0.000000 0.999255
O O11 0.470003 0.287767 0.832141
O O12 0.341322 0.500000 0.141238
O O13 0.482397 0.781814 0.331876
O O14 0.885186 0.274925 0.618716
O O15 0.715375 0.300684 0.540468
O O16 0.791925 0.000000 0.577261
O O17 0.855542 0.500000 0.855174
O O18 0.730317 0.215476 0.682797
O O19 0.411927 0.500000 0.572404
O O20 0.101391 0.000000 0.505491
#
# Coordination Sequence:
#
# PCOD9131791 Si02
#       8
#     4   4   4   4   4   4   4   4
#     4   9  19  36  61  87 108 145 196 237 274 327
#     4  11  23  39  57  83 119 152 185 231 287 339
#     4  10  18  37  64  83 107 146 194 241 277 328
#     4   9  20  36  59  87 111 144 192 239 278 328
#     4  11  22  36  57  86 118 148 183 236 290 333
#     4  10  21  38  61  85 112 148 190 234 280 336
#     4  10  22  39  59  84 114 150 192 233 279 335
#     4  10  21  39  62  85 109 149 198 233 275 334
#
# _framework density 22.013031999999999
#
# number of rings (size 3 to 8) (size 9 to 14) (size 15 to 20)
#    0.000    2.000    2.500    0.750    3.500    1.000 
#    0.000    2.500    0.000    0.000    0.000    0.000 
#    0.000    0.000    0.000    0.000    0.000    0.000 
#
# Total GULP energy -89364.518258 kJ/mol
# GULP energy per Si atom -5585.282391 kJ/mol
# Density = 2.196293 g / cm^3
# Si number density = 22.013032 Si / 1000 Ang^3
#
#
#
# Elastic Constant Matrix: (Units=GPa)
#
#
# Indices 1 2 3 4 5 6 
#
# 1 92.1421 -8.1923 21.2341 0.0000 -10.1050 0.0000
# 2 -8.1923 55.3922 -3.3864 0.0000 -2.4097 0.0000
# 3 21.2341 -3.3864 129.1242 0.0000 -10.5370 0.0000
# 4 0.0000 0.0000 0.0000 21.8505 0.0000 7.3711
# 5 -10.1050 -2.4097 -10.5370 0.0000 34.8978 0.0000
# 6 0.0000 0.0000 0.0000 7.3711 0.0000 14.1231
#
#
#
# Elastic Compliance Matrix: (Units=1/GPa)
#
#
# Indices 1 2 3 4 5 6 
#
# 1 0.011718 0.001765 -0.001634 0.000000 0.003021 0.000000
# 2 0.001765 0.018417 0.000347 0.000000 0.001887 0.000000
# 3 -0.001634 0.000347 0.008187 0.000000 0.002023 0.000000
# 4 0.000000 0.000000 0.000000 0.055545 0.000000 -0.028990
# 5 0.003021 0.001887 0.002023 0.000000 0.030271 0.000000
# 6 0.000000 0.000000 0.000000 -0.028990 0.000000 0.085937
#
#
# Mechanical properties :
#
#
# Convention : Reuss Voigt Hill
#
# Bulk Modulus (GPa) = 25.46023 32.88547 29.17285
# Shear Modulus (GPa) = 22.50093 31.97449 27.23771
#
# Velocity S-wave (km/s) = 3.20060 3.81534 3.52141
# Velocity P-wave (km/s) = 5.02489 5.86349 5.46032
#
# Compressibility (1/GPa) = 0.03927694
#
# Stress axis : x y z
#
# Youngs Moduli (GPa) = 85.34161 54.29660 122.13934
#
# Poissons Ratio (x) = -0.09581 0.19959
# Poissons Ratio (y) = -0.15059 -0.04237
# Poissons Ratio (z) = 0.13946 -0.01883
#
# Static dielectric constant tensor:
#      x y z
#    x 1.755750 0.000000 -0.015570 
#    y 0.000000 1.791310 0.000000 
#    z -0.015570 0.000000 1.784740 
# 
# From -- ./inp_files/17352.got.cif
#   From: 2010.05.17/outbox.cif.g08.bks.cpg/sg8_9_cif.got.tgz:17352.got - 2010.06.03 19:46:02.
