data_PCOD9131410
_publ_section_title
;
Structure prediction by ZEFSAII (Michael W. Deem and Ramdas Pophale) SiO2 
 PCOD9131410
Probable space group: P C
;
_chemical_formula_sum "Si O2"
_cell_formula_units_Z 12
_cell_length_a 7.027184
_cell_length_b 14.118348
_cell_length_c 5.026650
_cell_angle_alpha 90.000000
_cell_angle_beta 100.163698
_cell_angle_gamma 90.000000
_cell_volume 490.879276
_symmetry_space_group_name_H-M "P C"
_symmetry_group_IT_number 7
_symmetry_cell_setting 'monoclinic'
loop_
_space_group_symop_operation_xyz
x,y,z
x,-y,1/2+z
loop_
_atom_site_type_symbol
_atom_site_label
_atom_site_fract_x
_atom_site_fract_y
_atom_site_fract_z
Si Si1 0.054000 0.752814 0.662010
Si Si2 0.538875 0.451331 0.272444
Si Si3 0.641782 0.818954 0.585317
Si Si4 0.453480 0.253698 0.517657
Si Si5 0.948614 0.059698 0.899461
Si Si6 0.077392 0.450914 0.075678
O O1 0.078978 0.849301 0.500980
O O2 0.049129 0.657360 0.488716
O O3 0.839578 0.766339 0.721331
O O4 0.223906 0.740528 0.915956
O O5 0.615589 0.469383 0.995732
O O6 0.544581 0.350171 0.418730
O O7 0.308406 0.464580 0.162844
O O8 0.517973 0.762813 0.334687
O O9 0.733979 0.906223 0.441078
O O10 0.525608 0.828029 0.829873
O O11 0.982449 0.972415 0.108002
O O12 0.000908 0.473585 0.348480
#
# Coordination Sequence:
#
# PCOD9131410 Si02
#       6
#     2   2   2   2   2   2
#     4   9  24  41  67  90 132 164 204 265 305 362
#     4   9  17  31  53  82 121 159 203 253 295 353
#     4  10  24  39  65  89 126 157 211 253 316 366
#     4  11  21  41  63  92 120 172 207 248 316 368
#     4  10  22  43  66  90 125 162 200 261 322 365
#     4   9  18  33  56  87 120 164 205 240 302 362
#
# _framework density 24.445931999999999
#
# number of rings (size 3 to 8) (size 9 to 14) (size 15 to 20)
#    1.000    1.333    0.000    2.000    0.000    9.333 
#    0.000   10.000    0.000    0.000    0.000    0.000 
#    0.000    0.000    0.000    0.000    0.000    0.000 
#
# Total GULP energy -66952.654115 kJ/mol
# GULP energy per Si atom -5579.387843 kJ/mol
# Density = 2.439029 g / cm^3
# Si number density = 24.445932 Si / 1000 Ang^3
#
#
#
# Elastic Constant Matrix: (Units=GPa)
#
#
# Indices 1 2 3 4 5 6 
#
# 1 66.8595 -8.1425 34.3718 0.0000 15.1301 0.0000
# 2 -8.1425 85.9684 25.0536 0.0000 15.2996 0.0000
# 3 34.3718 25.0536 51.7506 0.0000 -8.7514 0.0000
# 4 0.0000 0.0000 0.0000 20.9058 0.0000 0.2904
# 5 15.1301 15.2996 -8.7514 0.0000 35.9529 0.0000
# 6 0.0000 0.0000 0.0000 0.2904 0.0000 21.7464
#
#
#
# Elastic Compliance Matrix: (Units=1/GPa)
#
#
# Indices 1 2 3 4 5 6 
#
# 1 0.100947 0.058945 -0.111604 0.000000 -0.094731 0.000000
# 2 0.058945 0.050351 -0.074407 0.000000 -0.064344 0.000000
# 3 -0.111604 -0.074407 0.148897 0.000000 0.114874 0.000000
# 4 0.000000 0.000000 0.000000 0.047843 0.000000 -0.000639
# 5 -0.094731 -0.064344 0.114874 0.000000 0.123023 0.000000
# 6 0.000000 0.000000 0.000000 -0.000639 0.000000 0.045993
#
#
# Mechanical properties :
#
#
# Convention : Reuss Voigt Hill
#
# Bulk Modulus (GPa) = 21.70952 34.12716 27.91834
# Shear Modulus (GPa) = 6.35696 25.94072 16.14884
#
# Velocity S-wave (km/s) = 1.61433 3.26106 2.57299
# Velocity P-wave (km/s) = 3.51776 5.30753 4.50247
#
# Compressibility (1/GPa) = 0.04606273
#
# Stress axis : x y z
#
# Youngs Moduli (GPa) = 9.90617 19.86074 6.71606
#
# Poissons Ratio (x) = -1.17069 0.74954
# Poissons Ratio (y) = -0.58392 0.49972
# Poissons Ratio (z) = 1.10557 1.47778
#
# Static dielectric constant tensor:
#      x y z
#    x 1.991430 0.000000 0.014360 
#    y 0.000000 2.005220 0.000000 
#    z 0.014360 0.000000 1.889350 
# 
# From -- ./inp_files/774.got.cif
#   From: 2010.05.17/outbox.cif.g08.bks.cpg/sg7_cif.got.tgz:774.got - 2010.06.03 19:44:50.
