data_PCOD9131398
_publ_section_title
;
Structure prediction by ZEFSAII (Michael W. Deem and Ramdas Pophale) SiO2 
 PCOD9131398
Probable space group: P C
;
_chemical_formula_sum "Si O2"
_cell_formula_units_Z 16
_cell_length_a 9.219503
_cell_length_b 18.063295
_cell_length_c 5.223773
_cell_angle_alpha 90.000000
_cell_angle_beta 128.632038
_cell_angle_gamma 90.000000
_cell_volume 679.571519
_symmetry_space_group_name_H-M "P C"
_symmetry_group_IT_number 7
_symmetry_cell_setting 'monoclinic'
loop_
_space_group_symop_operation_xyz
x,y,z
x,-y,1/2+z
loop_
_atom_site_type_symbol
_atom_site_label
_atom_site_fract_x
_atom_site_fract_y
_atom_site_fract_z
Si Si1 0.555690 0.658023 0.809550
Si Si2 0.854945 0.551384 0.925327
Si Si3 0.375336 0.552029 0.953790
Si Si4 0.202193 0.185486 0.514927
Si Si5 0.171270 0.350814 0.569404
Si Si6 0.465536 0.818272 0.802236
Si Si7 0.976977 0.959599 0.859739
Si Si8 0.564593 0.022182 0.414707
O O1 0.702436 0.614364 0.802884
O O2 0.364405 0.655669 0.436952
O O3 0.583961 0.743355 0.908603
O O4 0.529573 0.612001 0.043759
O O5 0.840682 0.502495 0.653387
O O6 0.383188 0.501391 0.215911
O O7 0.042217 0.597676 0.097916
O O8 0.203088 0.604708 0.838909
O O9 0.111869 0.267157 0.444986
O O10 0.329386 0.184876 0.398987
O O11 0.051316 0.120169 0.359208
O O12 0.338556 0.175313 0.908817
O O13 0.594072 0.890639 0.957380
O O14 0.037560 0.018249 0.710783
O O15 0.751344 0.971816 0.616225
O O16 0.455396 0.998580 0.542705
#
# Coordination Sequence:
#
# PCOD9131398 Si02
#       8
#     2   2   2   2   2   2   2   2
#     4  11  26  48  72 102 142 190 233 293 366 415
#     4  12  30  44  68 108 138 180 242 294 346 432
#     4  12  22  38  72  98 128 184 228 274 348 420
#     4  11  24  42  70 101 136 179 236 289 349 424
#     4  11  26  48  72 102 142 190 233 293 366 415
#     4  11  24  42  70 101 136 179 236 289 349 424
#     4  10  22  41  65  97 133 178 226 272 347 410
#     4  10  22  41  65  97 133 178 226 272 347 410
#
# _framework density 23.544248
#
# number of rings (size 3 to 8) (size 9 to 14) (size 15 to 20)
#    0.000    1.000    2.500    3.000    3.500    5.000 
#    0.000    5.000    0.000    0.000    0.000    0.000 
#    0.000    0.000    0.000    0.000    0.000    0.000 
#
# Total GULP energy -89452.286266 kJ/mol
# GULP energy per Si atom -5590.767892 kJ/mol
# Density = 2.349066 g / cm^3
# Si number density = 23.544248 Si / 1000 Ang^3
#
#
#
# Elastic Constant Matrix: (Units=GPa)
#
#
# Indices 1 2 3 4 5 6 
#
# 1 106.4799 28.3994 53.3056 0.0000 -25.9733 0.0000
# 2 28.3994 178.0249 28.4394 0.0000 -14.5814 0.0000
# 3 53.3056 28.4394 62.7810 0.0000 -35.5879 0.0000
# 4 0.0000 0.0000 0.0000 26.0015 0.0000 10.2251
# 5 -25.9733 -14.5814 -35.5879 0.0000 50.0792 0.0000
# 6 0.0000 0.0000 0.0000 10.2251 0.0000 40.8714
#
#
#
# Elastic Compliance Matrix: (Units=1/GPa)
#
#
# Indices 1 2 3 4 5 6 
#
# 1 0.016524 -0.000404 -0.015164 0.000000 -0.002324 0.000000
# 2 -0.000404 0.006068 -0.002551 0.000000 -0.000255 0.000000
# 3 -0.015164 -0.002551 0.041998 0.000000 0.021238 0.000000
# 4 0.000000 0.000000 0.000000 0.042656 0.000000 -0.010672
# 5 -0.002324 -0.000255 0.021238 0.000000 0.033781 0.000000
# 6 0.000000 0.000000 0.000000 -0.010672 0.000000 0.027137
#
#
# Mechanical properties :
#
#
# Convention : Reuss Voigt Hill
#
# Bulk Modulus (GPa) = 35.26991 63.06384 49.16687
# Shear Modulus (GPa) = 23.38067 39.19985 31.29026
#
# Velocity S-wave (km/s) = 3.15469 4.08480 3.64950
# Velocity P-wave (km/s) = 5.31810 7.00649 6.21985
#
# Compressibility (1/GPa) = 0.02835278
#
# Stress axis : x y z
#
# Youngs Moduli (GPa) = 60.51893 164.79429 23.81061
#
# Poissons Ratio (x) = 0.06654 0.36107
# Poissons Ratio (y) = 0.02444 0.06073
# Poissons Ratio (z) = 0.91772 0.42033
#
# Static dielectric constant tensor:
#      x y z
#    x 1.914740 0.000000 -0.011570 
#    y 0.000000 1.899360 0.000000 
#    z -0.011570 0.000000 2.017940 
# 
# From -- ./inp_files/938.got.cif
#   From: 2010.05.17/outbox.cif.g08.bks.cpg/sg7_cif.got.tgz:938.got - 2010.06.03 19:44:50.
