data_PCOD9131241
_publ_section_title
;
Structure prediction by ZEFSAII (Michael W. Deem and Ramdas Pophale) SiO2 
 PCOD9131241
Probable space group: P C
;
_chemical_formula_sum "Si O2"
_cell_formula_units_Z 14
_cell_length_a 9.260496
_cell_length_b 9.273751
_cell_length_c 5.557107
_cell_angle_alpha 90.000000
_cell_angle_beta 106.724477
_cell_angle_gamma 90.000000
_cell_volume 457.054264
_symmetry_space_group_name_H-M "P C"
_symmetry_group_IT_number 7
_symmetry_cell_setting 'monoclinic'
loop_
_space_group_symop_operation_xyz
x,y,z
x,-y,1/2+z
loop_
_atom_site_type_symbol
_atom_site_label
_atom_site_fract_x
_atom_site_fract_y
_atom_site_fract_z
Si Si1 0.856600 0.322889 0.743240
Si Si2 0.601142 0.450185 0.087241
Si Si3 0.390960 0.225423 0.841627
Si Si4 0.272661 0.180470 0.287061
Si Si5 0.948509 0.177858 0.292311
Si Si6 0.666942 0.043881 0.659735
Si Si7 0.155963 0.494875 0.680250
O O1 0.763765 0.473453 0.687722
O O2 0.948586 0.268736 0.545493
O O3 0.716276 0.207882 0.650131
O O4 0.912334 0.272532 0.035746
O O5 0.535396 0.524886 0.818605
O O6 0.552226 0.287868 0.007601
O O7 0.385932 0.168940 0.565886
O O8 0.273533 0.363513 0.755517
O O9 0.321378 0.142175 0.038565
O O10 0.237844 0.352172 0.248126
O O11 0.113953 0.117463 0.308435
O O12 0.823462 0.053006 0.249146
O O13 0.592355 0.991622 0.378740
O O14 0.066631 0.516187 0.388122
#
# Coordination Sequence:
#
# PCOD9131241 Si02
#       7
#     2   2   2   2   2   2   2
#     4  10  21  37  55  83 120 161 201 245 302 361
#     4  12  23  38  57  78 118 167 208 253 291 349
#     4  10  19  33  51  74 107 150 201 240 281 345
#     4  10  18  30  51  78 108 146 192 241 294 352
#     4  10  19  35  57  85 121 152 192 252 313 369
#     4   8  16  32  56  80 112 147 191 246 301 353
#     4   8  14  25  39  60  88 125 171 211 252 311
#
# _framework density 30.630935999999998
#
# number of rings (size 3 to 8) (size 9 to 14) (size 15 to 20)
#    0.000    2.286    0.000    5.143    0.000    0.000 
#    0.000   12.857    0.000    0.000    0.000    0.000 
#    0.000  349.714    0.000    0.000    0.000    0.000 
#
# Total GULP energy -78347.350830 kJ/mol
# GULP energy per Si atom -5596.239345 kJ/mol
# Density = 3.056122 g / cm^3
# Si number density = 30.630936 Si / 1000 Ang^3
#
#
#
# Elastic Constant Matrix: (Units=GPa)
#
#
# Indices 1 2 3 4 5 6 
#
# 1 136.6046 28.3232 54.3345 0.0000 4.2821 0.0000
# 2 28.3232 86.7377 6.7265 0.0000 2.4857 0.0000
# 3 54.3345 6.7265 313.4086 0.0000 3.4087 0.0000
# 4 0.0000 0.0000 0.0000 38.9239 0.0000 1.4545
# 5 4.2821 2.4857 3.4087 0.0000 51.1659 0.0000
# 6 0.0000 0.0000 0.0000 1.4545 0.0000 33.1304
#
#
#
# Elastic Compliance Matrix: (Units=1/GPa)
#
#
# Indices 1 2 3 4 5 6 
#
# 1 0.008439 -0.002633 -0.001401 0.000000 -0.000485 0.000000
# 2 -0.002633 0.012385 0.000195 0.000000 -0.000394 0.000000
# 3 -0.001401 0.000195 0.003431 0.000000 -0.000121 0.000000
# 4 0.000000 0.000000 0.000000 0.025733 0.000000 -0.001130
# 5 -0.000485 -0.000394 -0.000121 0.000000 0.019612 0.000000
# 6 0.000000 0.000000 0.000000 -0.001130 0.000000 0.030233
#
#
# Mechanical properties :
#
#
# Convention : Reuss Voigt Hill
#
# Bulk Modulus (GPa) = 60.32824 79.50216 69.91520
# Shear Modulus (GPa) = 44.23314 54.46848 49.35081
#
# Velocity S-wave (km/s) = 3.80421 4.22147 4.01826
# Velocity P-wave (km/s) = 6.24772 7.05495 6.66357
#
# Compressibility (1/GPa) = 0.01657598
#
# Stress axis : x y z
#
# Youngs Moduli (GPa) = 118.49930 80.74293 291.47909
#
# Poissons Ratio (x) = 0.21260 0.40843
# Poissons Ratio (y) = 0.31202 -0.05683
# Poissons Ratio (z) = 0.16604 -0.01574
#
# Static dielectric constant tensor:
#      x y z
#    x 2.429580 0.000000 -0.069060 
#    y 0.000000 2.431410 0.000000 
#    z -0.069060 0.000000 2.383530 
# 
# From -- ./inp_files/543.got.cif
#   From: 2010.05.17/outbox.cif.g08.bks.cpg/sg7_cif.got.tgz:543.got - 2010.06.03 19:44:50.
