data_PCOD9131041
_publ_section_title
;
Structure prediction by ZEFSAII (Michael W. Deem and Ramdas Pophale) SiO2 
 PCOD9131041
Probable space group: P M
;
_chemical_formula_sum "Si O2"
_cell_formula_units_Z 16
_cell_length_a 13.336273
_cell_length_b 7.562032
_cell_length_c 12.883807
_cell_angle_alpha 90.000000
_cell_angle_beta 145.943716
_cell_angle_gamma 90.000000
_cell_volume 727.630137
_symmetry_space_group_name_H-M "P M"
_symmetry_group_IT_number 6
_symmetry_cell_setting 'monoclinic'
loop_
_space_group_symop_operation_xyz
x,y,z
x,-y,z
loop_
_atom_site_type_symbol
_atom_site_label
_atom_site_fract_x
_atom_site_fract_y
_atom_site_fract_z
Si Si1 0.758250 0.711100 0.321690
Si Si2 0.866205 0.286826 0.193010
Si Si3 0.216584 0.704858 0.378106
Si Si4 0.407141 0.295587 0.340985
Si Si5 0.775279 0.287371 0.569101
Si Si6 0.461779 0.788912 0.776976
Si Si7 0.354078 0.788214 0.905303
Si Si8 0.162654 0.790108 0.941233
O O1 0.786632 0.500000 0.348803
O O2 0.861847 0.780330 0.308794
O O3 0.795497 0.782508 0.468417
O O4 0.549676 0.746361 0.119116
O O5 0.880638 0.500000 0.211246
O O6 0.035081 0.218375 0.272550
O O7 0.672361 0.247831 0.976187
O O8 0.172134 0.500000 0.316478
O O9 0.296496 0.785459 0.341317
O O10 0.371431 0.711581 0.597577
O O11 0.441899 0.500000 0.400608
O O12 0.598762 0.216818 0.474319
O O13 0.288628 0.291580 0.135947
O O14 0.754833 0.500000 0.543246
O O15 0.956134 0.246898 0.784281
O O16 0.357720 0.720674 0.790714
O O17 0.441234 0.000000 0.753648
O O18 0.213632 0.721820 0.869697
O O19 0.334939 0.000000 0.881959
O O20 0.194841 0.000000 0.970456
#
# Coordination Sequence:
#
# PCOD9131041 Si02
#       8
#     2   2   2   2   2   2   2   2
#     4   9  17  32  56  84 112 143 183 231 279 326
#     4   9  19  36  57  84 114 145 185 233 280 326
#     4  10  22  39  61  84 110 149 192 232 275 329
#     4  10  22  42  61  80 111 150 192 234 276 327
#     4  10  21  36  57  84 112 146 187 232 281 331
#     4  10  21  37  57  84 117 151 185 226 279 336
#     4   9  19  35  54  81 117 151 181 222 280 337
#     4  11  23  37  57  85 115 149 187 230 282 336
#
# _framework density 21.989193
#
# number of rings (size 3 to 8) (size 9 to 14) (size 15 to 20)
#    0.000    2.250    1.250    0.750    1.750    4.000 
#    0.000    5.000    0.000    0.000    0.000    0.000 
#    0.000    0.000    0.000    0.000    0.000    0.000 
#
# Total GULP energy -89339.478612 kJ/mol
# GULP energy per Si atom -5583.717413 kJ/mol
# Density = 2.193915 g / cm^3
# Si number density = 21.989193 Si / 1000 Ang^3
#
#
#
# Elastic Constant Matrix: (Units=GPa)
#
#
# Indices 1 2 3 4 5 6 
#
# 1 183.8813 11.1227 50.9510 0.0000 20.6777 0.0000
# 2 11.1227 57.1023 -12.0866 0.0000 -2.1625 0.0000
# 3 50.9510 -12.0866 43.3971 0.0000 22.1430 0.0000
# 4 0.0000 0.0000 0.0000 34.2843 0.0000 3.7214
# 5 20.6777 -2.1625 22.1430 0.0000 27.5970 0.0000
# 6 0.0000 0.0000 0.0000 3.7214 0.0000 -1.0066
#
#
#
# Elastic Compliance Matrix: (Units=1/GPa)
#
#
# Indices 1 2 3 4 5 6 
#
# 1 0.009183 -0.004634 -0.014183 0.000000 0.004136 0.000000
# 2 -0.004634 0.021295 0.014813 0.000000 -0.006745 0.000000
# 3 -0.014183 0.014813 0.064013 0.000000 -0.039574 0.000000
# 4 0.000000 0.000000 0.000000 0.020815 0.000000 0.076953
# 5 0.004136 -0.006745 -0.039574 0.000000 0.064361 0.000000
# 6 0.000000 0.000000 0.000000 0.076953 0.000000 -0.708955
#
#
# Mechanical properties :
#
#
# Convention : Reuss Voigt Hill
#
# Bulk Modulus (GPa) = 11.56290 42.70612 27.13451
# Shear Modulus (GPa) = -10.15327 27.80119 8.82396
#
# Velocity S-wave (km/s) = -2.15114 3.55957 2.00539
# Velocity P-wave (km/s) = 0.94870 6.02973 4.21056
#
# Compressibility (1/GPa) = 0.08648352
#
# Stress axis : x y z
#
# Youngs Moduli (GPa) = 108.89187 46.95904 15.62190
#
# Poissons Ratio (x) = 0.21762 0.22156
# Poissons Ratio (y) = 0.50463 -0.23141
# Poissons Ratio (z) = 1.54441 -0.69562
#
# Static dielectric constant tensor:
#      x y z
#    x 1.850000 0.000000 0.000680 
#    y 0.000000 1.826640 0.000000 
#    z 0.000680 0.000000 1.742380 
# 
# From -- ./inp_files/5064.got.cif
#   From: 2010.05.17/outbox.cif.g08.bks.cpg/sg6_3_cif.got.tgz:5064.got - 2010.06.03 19:42:10.
