data_PCOD9131862
_publ_section_title
;
Structure prediction by ZEFSAII (Michael W. Deem and Ramdas Pophale) SiO2 
 PCOD9131862
Probable space group: C M
;
_chemical_formula_sum "Si O2"
_cell_formula_units_Z 24
_cell_length_a 13.129255
_cell_length_b 16.236650
_cell_length_c 5.019678
_cell_angle_alpha 90.000000
_cell_angle_beta 90.363957
_cell_angle_gamma 90.000000
_cell_volume 1070.048862
_symmetry_space_group_name_H-M "C M"
_symmetry_group_IT_number 8
_symmetry_cell_setting 'monoclinic'
loop_
_space_group_symop_operation_xyz
x,y,z
x,-y,z
1/2+x,1/2+y,z
1/2+x,1/2-y,z
loop_
_atom_site_type_symbol
_atom_site_label
_atom_site_fract_x
_atom_site_fract_y
_atom_site_fract_z
Si Si1 0.280320 0.857143 0.948160
Si Si2 0.347217 0.594525 0.706523
Si Si3 0.912012 0.405770 0.443664
Si Si4 0.809664 0.814891 0.210309
Si Si5 0.074477 0.830137 0.727880
Si Si6 0.532972 0.761467 0.236166
O O1 0.358214 0.863984 0.700131
O O2 0.168999 0.882596 0.841367
O O3 0.330774 0.903291 0.198386
O O4 0.266687 0.764051 0.056060
O O5 0.340664 0.500000 0.628092
O O6 0.283523 0.651157 0.499809
O O7 0.467420 0.621110 0.715497
O O8 0.307246 0.611256 0.001404
O O9 0.936877 0.500000 0.508407
O O10 0.007953 0.352562 0.339122
O O11 0.924458 0.783806 0.256796
O O12 0.100632 0.790893 0.442647
O O13 0.058574 0.753603 0.930489
#
# Coordination Sequence:
#
# PCOD9131862 Si02
#       6
#     4   4   4   4   4   4
#     4  11  21  36  56  81 111 143 182 226 275 327
#     4  10  19  32  52  77 104 134 172 219 267 315
#     4  11  22  36  57  83 112 145 181 227 278 328
#     4   9  18  33  52  73 100 141 181 209 251 321
#     4  10  20  34  55  79 106 141 179 222 269 320
#     4   9  18  35  54  75 103 144 189 215 252 325
#
# _framework density 22.428881000000001
#
# number of rings (size 3 to 8) (size 9 to 14) (size 15 to 20)
#    0.000    2.000    0.000    7.000    0.000    1.333 
#    0.000    0.000    0.000    6.000    0.000    0.000 
#    0.000    0.000    0.000    0.000    0.000    0.000 
#
# Total GULP energy -66908.721339 kJ/mol
# GULP energy per Si atom -5575.726778 kJ/mol
# Density = 2.237783 g / cm^3
# Si number density = 22.428881 Si / 1000 Ang^3
#
#
#
# Elastic Constant Matrix: (Units=GPa)
#
#
# Indices 1 2 3 4 5 6 
#
# 1 14.8408 -6.5693 -7.9958 0.0000 6.2495 0.0000
# 2 -6.5693 92.7617 18.6864 0.0000 0.1814 0.0000
# 3 -7.9958 18.6864 96.9386 0.0000 1.4155 0.0000
# 4 0.0000 0.0000 0.0000 23.5888 0.0000 5.9374
# 5 6.2495 0.1814 1.4155 0.0000 24.9887 0.0000
# 6 0.0000 0.0000 0.0000 5.9374 0.0000 2.5111
#
#
#
# Elastic Compliance Matrix: (Units=1/GPa)
#
#
# Indices 1 2 3 4 5 6 
#
# 1 0.081452 0.004572 0.006140 0.000000 -0.020752 0.000000
# 2 0.004572 0.011473 -0.001818 0.000000 -0.001124 0.000000
# 3 0.006140 -0.001818 0.011204 0.000000 -0.002157 0.000000
# 4 0.000000 0.000000 0.000000 0.104712 0.000000 -0.247588
# 5 -0.020752 -0.001124 -0.002157 0.000000 0.045338 0.000000
# 6 0.000000 0.000000 0.000000 -0.247588 0.000000 0.983637
#
#
# Mechanical properties :
#
#
# Convention : Reuss Voigt Hill
#
# Bulk Modulus (GPa) = 8.20228 23.64265 15.92246
# Shear Modulus (GPa) = 3.96615 23.57904 13.77260
#
# Velocity S-wave (km/s) = 1.33123 3.24586 2.48070
# Velocity P-wave (km/s) = 2.45517 4.96100 3.91404
#
# Compressibility (1/GPa) = 0.12191739
#
# Stress axis : x y z
#
# Youngs Moduli (GPa) = 12.27712 87.16485 89.25217
#
# Poissons Ratio (x) = -0.39852 -0.54802
# Poissons Ratio (y) = -0.05613 0.16226
# Poissons Ratio (z) = -0.07538 0.15846
#
# Static dielectric constant tensor:
#      x y z
#    x 1.906660 0.000000 0.020640 
#    y 0.000000 1.811240 0.000000 
#    z 0.020640 0.000000 1.815990 
# 
# From -- ./inp_files/3860.got.cif
#   From: 2010.05.17/outbox.cif.g08.bks.cpg/sg8_2_cif.got.tgz:3860.got - 2010.06.03 19:46:02.
