data_PCOD9131451
_publ_section_title
;
Structure prediction by ZEFSAII (Michael W. Deem and Ramdas Pophale) SiO2 
 PCOD9131451
Probable space group: P C
;
_chemical_formula_sum "Si O2"
_cell_formula_units_Z 16
_cell_length_a 7.389282
_cell_length_b 16.003168
_cell_length_c 5.113794
_cell_angle_alpha 90.000000
_cell_angle_beta 92.154723
_cell_angle_gamma 90.000000
_cell_volume 604.288395
_symmetry_space_group_name_H-M "P C"
_symmetry_group_IT_number 7
_symmetry_cell_setting 'monoclinic'
loop_
_space_group_symop_operation_xyz
x,y,z
x,-y,1/2+z
loop_
_atom_site_type_symbol
_atom_site_label
_atom_site_fract_x
_atom_site_fract_y
_atom_site_fract_z
Si Si1 0.761180 0.547072 0.364240
Si Si2 0.520521 0.821194 0.785319
Si Si3 0.317797 0.731875 0.378930
Si Si4 0.716793 0.275090 0.664662
Si Si5 0.320204 0.453771 0.873728
Si Si6 0.355506 0.946631 0.175712
Si Si7 0.837332 0.061144 0.150442
Si Si8 0.043836 0.165204 0.546793
O O1 0.822374 0.522048 0.656476
O O2 0.807218 0.638078 0.251447
O O3 0.540448 0.544517 0.369706
O O4 0.340134 0.796808 0.618330
O O5 0.630426 0.737061 0.870425
O O6 0.470126 0.872437 0.047657
O O7 0.658881 0.881295 0.647168
O O8 0.529931 0.727236 0.313559
O O9 0.262997 0.638773 0.453245
O O10 0.186823 0.762528 0.139701
O O11 0.861059 0.199475 0.673992
O O12 0.259216 0.478937 0.582221
O O13 0.149750 0.914637 0.163631
O O14 0.383284 0.981576 0.463386
O O15 0.986149 0.129869 0.257810
O O16 0.834217 0.007021 0.886661
#
# Coordination Sequence:
#
# PCOD9131451 Si02
#       8
#     2   2   2   2   2   2   2   2
#     4   9  19  37  64  98 136 183 232 282 348 423
#     4  11  25  42  72 105 140 187 241 295 363 429
#     4  11  24  45  73 106 150 186 246 301 358 432
#     4  10  24  44  69 103 144 187 236 297 358 426
#     4   9  20  37  66 100 141 190 234 286 355 425
#     4  12  25  45  69  97 136 181 230 290 354 422
#     4  11  26  47  70  99 139 182 234 294 356 428
#     4  11  25  47  71 104 138 188 237 295 362 427
#
# _framework density 26.477422000000001
#
# number of rings (size 3 to 8) (size 9 to 14) (size 15 to 20)
#    0.000    1.500    1.250    2.250   12.250    1.000 
#    4.500    1.250    0.000    0.000    0.000    0.000 
#    0.000    0.000    0.000    0.000    0.000    0.000 
#
# Total GULP energy -89372.954307 kJ/mol
# GULP energy per Si atom -5585.809644 kJ/mol
# Density = 2.641716 g / cm^3
# Si number density = 26.477422 Si / 1000 Ang^3
#
#
#
# Elastic Constant Matrix: (Units=GPa)
#
#
# Indices 1 2 3 4 5 6 
#
# 1 105.7781 26.5399 19.8649 0.0000 4.4462 0.0000
# 2 26.5399 130.0291 45.7723 0.0000 0.1767 0.0000
# 3 19.8649 45.7723 118.4429 0.0000 2.4334 0.0000
# 4 0.0000 0.0000 0.0000 30.6738 0.0000 -9.9053
# 5 4.4462 0.1767 2.4334 0.0000 25.1813 0.0000
# 6 0.0000 0.0000 0.0000 -9.9053 0.0000 23.9500
#
#
#
# Elastic Compliance Matrix: (Units=1/GPa)
#
#
# Indices 1 2 3 4 5 6 
#
# 1 0.010143 -0.001715 -0.001004 0.000000 -0.001682 0.000000
# 2 -0.001715 0.009193 -0.003277 0.000000 0.000555 0.000000
# 3 -0.001004 -0.003277 0.009893 0.000000 -0.000756 0.000000
# 4 0.000000 0.000000 0.000000 0.037626 0.000000 0.015562
# 5 -0.001682 0.000555 -0.000756 0.000000 0.040078 0.000000
# 6 0.000000 0.000000 0.000000 0.015562 0.000000 0.048190
#
#
# Mechanical properties :
#
#
# Convention : Reuss Voigt Hill
#
# Bulk Modulus (GPa) = 58.00770 59.84493 58.92632
# Shear Modulus (GPa) = 28.92513 33.43257 31.17885
#
# Velocity S-wave (km/s) = 3.30880 3.55728 3.43529
# Velocity P-wave (km/s) = 6.04595 6.28678 6.16754
#
# Compressibility (1/GPa) = 0.01723909
#
# Stress axis : x y z
#
# Youngs Moduli (GPa) = 98.58829 108.77629 101.08132
#
# Poissons Ratio (x) = 0.18650 0.10149
# Poissons Ratio (y) = 0.16904 0.33120
# Poissons Ratio (z) = 0.09899 0.35641
#
# Static dielectric constant tensor:
#      x y z
#    x 2.141740 0.000000 -0.035480 
#    y 0.000000 2.100320 0.000000 
#    z -0.035480 0.000000 2.157140 
# 
# From -- ./inp_files/736.got.cif
#   From: 2010.05.17/outbox.cif.g08.bks.cpg/sg7_cif.got.tgz:736.got - 2010.06.03 19:44:50.
