data_PCOD9131513
_publ_section_title
;
Structure prediction by ZEFSAII (Michael W. Deem and Ramdas Pophale) SiO2 
 PCOD9131513
Probable space group: C M
;
_chemical_formula_sum "Si O2"
_cell_formula_units_Z 24
_cell_length_a 7.725110
_cell_length_b 16.897644
_cell_length_c 8.504805
_cell_angle_alpha 90.000000
_cell_angle_beta 56.667828
_cell_angle_gamma 90.000000
_cell_volume 927.558046
_symmetry_space_group_name_H-M "C M"
_symmetry_group_IT_number 8
_symmetry_cell_setting 'monoclinic'
loop_
_space_group_symop_operation_xyz
x,y,z
x,-y,z
1/2+x,1/2+y,z
1/2+x,1/2-y,z
loop_
_atom_site_type_symbol
_atom_site_label
_atom_site_fract_x
_atom_site_fract_y
_atom_site_fract_z
Si Si1 0.363770 0.331976 0.244430
Si Si2 0.870833 0.408617 0.840762
Si Si3 0.372569 0.406253 0.912388
Si Si4 0.395913 0.148244 0.162507
Si Si5 0.913010 0.406923 0.476499
Si Si6 0.875520 0.906648 0.567134
O O1 0.401271 0.240029 0.201692
O O2 0.118173 0.353197 0.369115
O O3 0.438276 0.360930 0.377973
O O4 0.443507 0.375331 0.046977
O O5 0.818072 0.500000 0.900943
O O6 0.800223 0.388682 0.697845
O O7 0.121842 0.404141 0.697060
O O8 0.816286 0.359976 0.023794
O O9 0.408948 0.500000 0.886417
O O10 0.432717 0.372751 0.710711
O O11 0.124425 0.390642 0.040511
O O12 0.302399 0.105582 0.363952
O O13 0.971222 0.500000 0.457603
O O14 0.926308 0.000000 0.528534
#
# Coordination Sequence:
#
# PCOD9131513 Si02
#       6
#     4   4   4   4   4   4
#     4  10  17  24  40  67  92 108 131 175 220 249
#     4   8  14  26  43  60  81 111 143 172 203 245
#     4   9  17  31  47  61  83 115 146 172 202 249
#     4  10  17  24  40  67  92 108 131 175 220 249
#     4   9  17  31  47  61  83 115 146 172 202 249
#     4   8  14  26  43  60  81 111 143 172 203 245
#
# _framework density 25.874389999999998
#
# number of rings (size 3 to 8) (size 9 to 14) (size 15 to 20)
#    0.000    3.000    0.000    6.000    0.000    1.333 
#    0.000    0.000    0.000    0.000    0.000   42.000 
#    0.000  129.333    0.000    0.000    0.000    0.000 
#
# Total GULP energy -67130.056266 kJ/mol
# GULP energy per Si atom -5594.171355 kJ/mol
# Density = 2.581550 g / cm^3
# Si number density = 25.874390 Si / 1000 Ang^3
#
#
#
# Elastic Constant Matrix: (Units=GPa)
#
#
# Indices 1 2 3 4 5 6 
#
# 1 108.2442 8.5207 49.0932 0.0000 49.6650 0.0000
# 2 8.5207 78.4694 78.9084 0.0000 21.7263 0.0000
# 3 49.0932 78.9084 297.5228 0.0000 43.2114 0.0000
# 4 0.0000 0.0000 0.0000********** 0.0000 1900.9224
# 5 49.6650 21.7263 43.2114 0.0000 75.6757 0.0000
# 6 0.0000 0.0000 0.0000 1900.9224 0.0000 -263.4338
#
#
#
# Elastic Compliance Matrix: (Units=1/GPa)
#
#
# Indices 1 2 3 4 5 6 
#
# 1 0.013890 0.002676 -0.001708 0.000000 -0.008909 0.000000
# 2 0.002676 0.018365 -0.004680 0.000000 -0.004356 0.000000
# 3 -0.001708 -0.004680 0.004935 0.000000 -0.000354 0.000000
# 4 0.000000 0.000000 0.000000 0.000871 0.000000 0.006283
# 5 -0.008909 -0.004356 -0.000354 0.000000 0.020514 0.000000
# 6 0.000000 0.000000 0.000000 0.006283 0.000000 0.041541
#
#
# Mechanical properties :
#
#
# Convention : Reuss Voigt Hill
#
# Bulk Modulus (GPa) = 33.59410 84.14234 58.86822
# Shear Modulus (GPa) = 42.56708 -2528.05846 -1242.74569
#
# Velocity S-wave (km/s) = 4.06044 -31.29172 -21.93951
# Velocity P-wave (km/s) = 5.91562 35.67873 24.87948
#
# Compressibility (1/GPa) = 0.02976714
#
# Stress axis : x y z
#
# Youngs Moduli (GPa) = 71.99539 54.45077 202.61938
#
# Poissons Ratio (x) = -0.14569 0.34600
# Poissons Ratio (y) = -0.19263 0.94817
# Poissons Ratio (z) = 0.12294 0.25480
#
# Static dielectric constant tensor:
#      x y z
#    x 2.261710 0.000000 -0.011410 
#    y 0.000000 3.635470 0.000000 
#    z -0.011410 0.000000 2.049980 
# 
# From -- ./inp_files/10430.got.cif
#   From: 2010.05.17/outbox.cif.g08.bks.cpg/sg8_6_cif.got.tgz:10430.got - 2010.06.03 19:46:02.
