data_PCOD9131016
_publ_section_title
;
Structure prediction by ZEFSAII (Michael W. Deem and Ramdas Pophale) SiO2 
 PCOD9131016
Probable space group: P M
;
_chemical_formula_sum "Si O2"
_cell_formula_units_Z 16
_cell_length_a 8.691533
_cell_length_b 16.850367
_cell_length_c 4.972453
_cell_angle_alpha 90.000000
_cell_angle_beta 65.370386
_cell_angle_gamma 90.000000
_cell_volume 661.988231
_symmetry_space_group_name_H-M "P M"
_symmetry_group_IT_number 6
_symmetry_cell_setting 'monoclinic'
loop_
_space_group_symop_operation_xyz
x,y,z
x,-y,z
loop_
_atom_site_type_symbol
_atom_site_label
_atom_site_fract_x
_atom_site_fract_y
_atom_site_fract_z
Si Si1 0.201360 0.244365 0.916760
Si Si2 0.950133 0.155898 0.755008
Si Si3 0.138354 0.409873 0.217443
Si Si4 0.263613 0.087751 0.213989
Si Si5 0.621652 0.085219 0.264591
Si Si6 0.717592 0.279274 0.718896
Si Si7 0.915771 0.586955 0.876448
Si Si8 0.526676 0.752165 0.382903
O O1 0.330468 0.255711 0.576227
O O2 0.021636 0.219821 0.918701
O O3 0.218559 0.325363 0.074878
O O4 0.253482 0.163898 0.031120
O O5 0.865536 0.213148 0.593918
O O6 0.108620 0.105064 0.534184
O O7 0.797726 0.102488 0.982194
O O8 0.211372 0.500000 0.114151
O O9 0.085005 0.407973 0.567410
O O10 0.973742 0.405906 0.141419
O O11 0.449168 0.084068 0.213511
O O12 0.234835 0.000000 0.109757
O O13 0.587674 0.163090 0.461987
O O14 0.633851 0.000000 0.395912
O O15 0.794772 0.351066 0.828916
O O16 0.631883 0.304342 0.503641
O O17 0.580121 0.248318 0.036271
O O18 0.842037 0.500000 0.892527
#
# Coordination Sequence:
#
# PCOD9131016 Si02
#       8
#     2   2   2   2   2   2   2   2
#     4  12  24  42  68 100 136 184 233 290 350 418
#     4  11  23  40  69  95 128 179 233 281 343 413
#     4  10  22  39  66 102 137 178 232 291 348 412
#     4  11  25  44  67  99 140 183 235 291 352 418
#     4  10  23  45  65  94 136 177 227 290 346 408
#     4  11  23  42  65  99 129 176 226 278 341 416
#     4  10  20  38  65  98 134 175 226 286 347 413
#     4  11  25  42  66  95 136 176 221 281 352 410
#
# _framework density 24.169615
#
# number of rings (size 3 to 8) (size 9 to 14) (size 15 to 20)
#    0.000    1.250    2.500    3.375    5.250    1.500 
#    0.000    3.750    0.000    0.000    0.000    0.000 
#    0.000    0.000    0.000    0.000    0.000    0.000 
#
# Total GULP energy -89327.301897 kJ/mol
# GULP energy per Si atom -5582.956369 kJ/mol
# Density = 2.411460 g / cm^3
# Si number density = 24.169615 Si / 1000 Ang^3
#
#
#
# Elastic Constant Matrix: (Units=GPa)
#
#
# Indices 1 2 3 4 5 6 
#
# 1 99.8238 20.6081 27.7384 0.0000 -6.6142 0.0000
# 2 20.6081 131.6622 7.5322 0.0000 -15.1025 0.0000
# 3 27.7384 7.5322 103.9479 0.0000 -15.0081 0.0000
# 4 0.0000 0.0000 0.0000 20.6729 0.0000 2.1918
# 5 -6.6142 -15.1025 -15.0081 0.0000 37.9426 0.0000
# 6 0.0000 0.0000 0.0000 2.1918 0.0000 28.9514
#
#
#
# Elastic Compliance Matrix: (Units=1/GPa)
#
#
# Indices 1 2 3 4 5 6 
#
# 1 0.011139 -0.001558 -0.002830 0.000000 0.000202 0.000000
# 2 -0.001558 0.008178 0.000269 0.000000 0.003090 0.000000
# 3 -0.002830 0.000269 0.010924 0.000000 0.003935 0.000000
# 4 0.000000 0.000000 0.000000 0.048764 0.000000 -0.003692
# 5 0.000202 0.003090 0.003935 0.000000 0.029177 0.000000
# 6 0.000000 0.000000 0.000000 -0.003692 0.000000 0.034820
#
#
# Mechanical properties :
#
#
# Convention : Reuss Voigt Hill
#
# Bulk Modulus (GPa) = 45.44917 49.68794 47.56856
# Shear Modulus (GPa) = 31.53066 36.15040 33.84053
#
# Velocity S-wave (km/s) = 3.61578 3.87162 3.74589
# Velocity P-wave (km/s) = 6.02303 6.37091 6.19942
#
# Compressibility (1/GPa) = 0.02200260
#
# Stress axis : x y z
#
# Youngs Moduli (GPa) = 89.77248 122.27669 91.54083
#
# Poissons Ratio (x) = 0.19056 0.25910
# Poissons Ratio (y) = 0.13991 -0.02466
# Poissons Ratio (z) = 0.25409 -0.03294
#
# Static dielectric constant tensor:
#      x y z
#    x 1.956550 0.000000 -0.015970 
#    y 0.000000 2.038730 0.000000 
#    z -0.015970 0.000000 1.943290 
# 
# From -- ./inp_files/1360.got.cif
#   From: 2010.05.17/outbox.cif.g08.bks.cpg/sg6_1_cif.got.tgz:1360.got - 2010.06.03 19:42:10.
