data_PCOD9131870
_publ_section_title
;
Structure prediction by ZEFSAII (Michael W. Deem and Ramdas Pophale) SiO2 
 PCOD9131870
Probable space group: C M
;
_chemical_formula_sum "Si O2"
_cell_formula_units_Z 32
_cell_length_a 15.961424
_cell_length_b 7.665296
_cell_length_c 14.783823
_cell_angle_alpha 90.000000
_cell_angle_beta 41.140996
_cell_angle_gamma 90.000000
_cell_volume 1190.026467
_symmetry_space_group_name_H-M "C M"
_symmetry_group_IT_number 8
_symmetry_cell_setting 'monoclinic'
loop_
_space_group_symop_operation_xyz
x,y,z
x,-y,z
1/2+x,1/2+y,z
1/2+x,1/2-y,z
loop_
_atom_site_type_symbol
_atom_site_label
_atom_site_fract_x
_atom_site_fract_y
_atom_site_fract_z
Si Si1 0.425830 0.212366 0.632730
Si Si2 0.800711 0.300009 0.114761
Si Si3 0.018580 0.297963 0.291135
Si Si4 0.570220 0.293602 0.054619
Si Si5 0.746074 0.703747 0.545335
Si Si6 0.367704 0.792469 0.871604
Si Si7 0.140648 0.211266 0.806294
Si Si8 0.196572 0.295976 0.383231
O O1 0.440086 0.277416 0.724828
O O2 0.287748 0.261669 0.709119
O O3 0.552355 0.260734 0.475476
O O4 0.421374 0.000000 0.639316
O O5 0.836527 0.500000 0.091229
O O6 0.651786 0.291665 0.204931
O O7 0.793187 0.228278 0.222200
O O8 0.873653 0.216364 0.968813
O O9 0.033509 0.500000 0.307722
O O10 0.889067 0.221260 0.437361
O O11 0.002464 0.293545 0.194922
O O12 0.540194 0.500000 0.081612
O O13 0.720319 0.276066 0.958341
O O14 0.560876 0.226082 0.958650
O O15 0.758942 0.500000 0.558810
O O16 0.639361 0.772150 0.702485
O O17 0.720242 0.712214 0.460512
O O18 0.391096 0.000000 0.860018
O O19 0.127758 0.000000 0.822073
O O20 0.193929 0.500000 0.404673
#
# Coordination Sequence:
#
# PCOD9131870 Si02
#       8
#     4   4   4   4   4   4   4   4
#     4   8  14  28  51  76  97 121 159 203 246 293
#     4  10  19  33  55  78 101 131 165 203 248 300
#     4  10  19  32  53  78 102 130 166 208 249 292
#     4   8  14  27  50  77 100 124 158 203 252 298
#     4  10  21  36  51  69  99 139 176 207 244 293
#     4   7  12  25  48  75  97 121 157 197 239 293
#     4   8  14  29  54  76  94 124 167 207 245 297
#     4  11  22  34  50  73 102 134 168 210 253 292
#
# _framework density 26.890158
#
# number of rings (size 3 to 8) (size 9 to 14) (size 15 to 20)
#    0.000    3.000    0.000    4.125    0.000    3.000 
#    0.000    1.875    0.000   22.500    0.000    0.000 
#    0.000    0.000    0.000    0.000    0.000    0.000 
#
# Total GULP energy -89388.458770 kJ/mol
# GULP energy per Si atom -5586.778673 kJ/mol
# Density = 2.682896 g / cm^3
# Si number density = 26.890158 Si / 1000 Ang^3
#
#
#
# Elastic Constant Matrix: (Units=GPa)
#
#
# Indices 1 2 3 4 5 6 
#
# 1 85.5010 2.6322 21.4454 0.0000 22.7927 0.0000
# 2 2.6322 58.9791 8.5951 0.0000 -3.2503 0.0000
# 3 21.4454 8.5951 212.7951 0.0000 12.9370 0.0000
# 4 0.0000 0.0000 0.0000 15.5451 0.0000 0.8071
# 5 22.7927 -3.2503 12.9370 0.0000 56.3114 0.0000
# 6 0.0000 0.0000 0.0000 0.8071 0.0000 19.3715
#
#
#
# Elastic Compliance Matrix: (Units=1/GPa)
#
#
# Indices 1 2 3 4 5 6 
#
# 1 0.013361 -0.000738 -0.000999 0.000000 -0.005221 0.000000
# 2 -0.000738 0.017171 -0.000707 0.000000 0.001453 0.000000
# 3 -0.000999 -0.000707 0.004875 0.000000 -0.000756 0.000000
# 4 0.000000 0.000000 0.000000 0.064468 0.000000 -0.002686
# 5 -0.005221 0.001453 -0.000756 0.000000 0.020129 0.000000
# 6 0.000000 0.000000 0.000000 -0.002686 0.000000 0.051734
#
#
# Mechanical properties :
#
#
# Convention : Reuss Voigt Hill
#
# Bulk Modulus (GPa) = 32.76906 46.95784 39.86345
# Shear Modulus (GPa) = 26.76647 39.88580 33.32613
#
# Velocity S-wave (km/s) = 3.15842 3.85552 3.52425
# Velocity P-wave (km/s) = 5.05109 6.10908 5.60510
#
# Compressibility (1/GPa) = 0.03051659
#
# Stress axis : x y z
#
# Youngs Moduli (GPa) = 74.84493 58.23686 205.14444
#
# Poissons Ratio (x) = 0.04300 0.20499
# Poissons Ratio (y) = 0.05526 0.14513
# Poissons Ratio (z) = 0.07479 0.04120
#
# Static dielectric constant tensor:
#      x y z
#    x 2.239770 0.000000 0.030700 
#    y 0.000000 1.965630 0.000000 
#    z 0.030700 0.000000 2.153910 
# 
# From -- ./inp_files/27762.got.cif
#   From: 2010.05.17/outbox.cif.g08.bks.cpg/sg8_14_cif.got.tgz:27762.got - 2010.06.03 19:46:02.
