data_PCOD9131096
_publ_section_title
;
Structure prediction by ZEFSAII (Michael W. Deem and Ramdas Pophale) SiO2 
 PCOD9131096
Probable space group: P M
;
_chemical_formula_sum "Si O2"
_cell_formula_units_Z 16
_cell_length_a 9.867267
_cell_length_b 8.800458
_cell_length_c 12.295961
_cell_angle_alpha 90.000000
_cell_angle_beta 127.687484
_cell_angle_gamma 90.000000
_cell_volume 844.961915
_symmetry_space_group_name_H-M "P M"
_symmetry_group_IT_number 6
_symmetry_cell_setting 'monoclinic'
loop_
_space_group_symop_operation_xyz
x,y,z
x,-y,z
loop_
_atom_site_type_symbol
_atom_site_label
_atom_site_fract_x
_atom_site_fract_y
_atom_site_fract_z
Si Si1 0.595100 0.175363 0.607210
Si Si2 0.192135 0.824073 0.420118
Si Si3 0.366688 0.182963 0.895764
Si Si4 0.092829 0.317480 0.598147
Si Si5 0.683645 0.816465 0.895984
Si Si6 0.705939 0.318360 0.442902
Si Si7 0.375150 0.315548 0.142421
Si Si8 0.050940 0.682084 0.134097
O O1 0.392196 0.179521 0.489248
O O2 0.629778 0.226818 0.747142
O O3 0.680197 0.272295 0.554984
O O4 0.652643 0.000000 0.626108
O O5 0.169288 0.737472 0.521769
O O6 0.091839 0.746057 0.273271
O O7 0.140563 0.000000 0.407734
O O8 0.203498 0.245826 0.749603
O O9 0.536674 0.228253 0.910251
O O10 0.359565 0.000000 0.894667
O O11 0.371892 0.247650 0.020088
O O12 0.099302 0.500000 0.610199
O O13 0.894564 0.266431 0.501145
O O14 0.694780 0.000000 0.905345
O O15 0.867612 0.745702 0.009433
O O16 0.703310 0.500000 0.433017
O O17 0.545934 0.263591 0.291329
O O18 0.378085 0.500000 0.136965
O O19 0.205382 0.272719 0.127984
O O20 0.047148 0.500000 0.135267
#
# Coordination Sequence:
#
# PCOD9131096 Si02
#       8
#     2   2   2   2   2   2   2   2
#     4  10  21  40  65  90 120 157 204 255 307 361
#     4  11  22  41  66  92 123 158 204 259 306 362
#     4  11  24  43  64  89 124 166 207 252 308 366
#     4  11  24  41  64  94 125 162 205 253 308 365
#     4  10  23  43  62  90 125 160 205 256 306 364
#     4  10  23  42  63  90 124 159 203 253 305 364
#     4  10  23  43  62  88 126 163 203 253 304 366
#     4  11  24  41  64  93 123 163 207 251 308 366
#
# _framework density 18.935765
#
# number of rings (size 3 to 8) (size 9 to 14) (size 15 to 20)
#    0.000    1.500    2.500    1.500    3.500    4.500 
#    0.000    0.000    0.000    0.000    0.000    0.000 
#    0.000    0.000    0.000    0.000    0.000    0.000 
#
# Total GULP energy -89384.567170 kJ/mol
# GULP energy per Si atom -5586.535448 kJ/mol
# Density = 1.889267 g / cm^3
# Si number density = 18.935765 Si / 1000 Ang^3
#
#
#
# Elastic Constant Matrix: (Units=GPa)
#
#
# Indices 1 2 3 4 5 6 
#
# 1 59.9991 18.1141 21.2948 0.0000 2.3464 0.0000
# 2 18.1141 20.0831 20.5153 0.0000 3.8900 0.0000
# 3 21.2948 20.5153 104.5850 0.0000 -1.7087 0.0000
# 4 0.0000 0.0000 0.0000 46.4085 0.0000 -5.1593
# 5 2.3464 3.8900 -1.7087 0.0000 32.4847 0.0000
# 6 0.0000 0.0000 0.0000 -5.1593 0.0000 32.5466
#
#
#
# Elastic Compliance Matrix: (Units=1/GPa)
#
#
# Indices 1 2 3 4 5 6 
#
# 1 0.022969 -0.020121 -0.000718 0.000000 0.000713 0.000000
# 2 -0.020121 0.082106 -0.012156 0.000000 -0.009018 0.000000
# 3 -0.000718 -0.012156 0.012127 0.000000 0.002145 0.000000
# 4 0.000000 0.000000 0.000000 0.021934 0.000000 0.003477
# 5 0.000713 -0.009018 0.002145 0.000000 0.031925 0.000000
# 6 0.000000 0.000000 0.000000 0.003477 0.000000 0.031276
#
#
# Mechanical properties :
#
#
# Convention : Reuss Voigt Hill
#
# Bulk Modulus (GPa) = 19.52700 33.83506 26.68103
# Shear Modulus (GPa) = 17.51926 30.60416 24.06171
#
# Velocity S-wave (km/s) = 3.04500 4.02457 3.56856
# Velocity P-wave (km/s) = 4.76417 6.28517 5.57677
#
# Compressibility (1/GPa) = 0.05121116
#
# Stress axis : x y z
#
# Youngs Moduli (GPa) = 43.53756 12.17930 82.45760
#
# Poissons Ratio (x) = 0.24506 0.05921
# Poissons Ratio (y) = 0.87603 1.00238
# Poissons Ratio (z) = 0.03126 0.14806
#
# Static dielectric constant tensor:
#      x y z
#    x 1.638540 0.000000 0.019540 
#    y 0.000000 1.643270 0.000000 
#    z 0.019540 0.000000 1.645890 
# 
# From -- ./inp_files/2719.got.cif
#   From: 2010.05.17/outbox.cif.g08.bks.cpg/sg6_2_cif.got.tgz:2719.got - 2010.06.03 19:42:10.
