data_PCOD9131356
_publ_section_title
;
Structure prediction by ZEFSAII (Michael W. Deem and Ramdas Pophale) SiO2 
 PCOD9131356
Probable space group: P C
;
_chemical_formula_sum "Si O2"
_cell_formula_units_Z 14
_cell_length_a 16.321881
_cell_length_b 8.460611
_cell_length_c 5.255158
_cell_angle_alpha 90.000000
_cell_angle_beta 107.898401
_cell_angle_gamma 90.000000
_cell_volume 690.579221
_symmetry_space_group_name_H-M "P C"
_symmetry_group_IT_number 7
_symmetry_cell_setting 'monoclinic'
loop_
_space_group_symop_operation_xyz
x,y,z
x,-y,1/2+z
loop_
_atom_site_type_symbol
_atom_site_label
_atom_site_fract_x
_atom_site_fract_y
_atom_site_fract_z
Si Si1 0.909260 0.609045 0.534060
Si Si2 0.456703 0.954561 0.452846
Si Si3 0.535554 0.260677 0.689721
Si Si4 0.359159 0.596192 0.878728
Si Si5 0.241036 0.896600 0.904908
Si Si6 0.043514 0.107309 0.172909
Si Si7 0.721063 0.403563 0.943266
O O1 0.917065 0.514460 0.275828
O O2 0.978875 0.746061 0.619259
O O3 0.811787 0.678249 0.466503
O O4 0.407436 0.977525 0.663529
O O5 0.494244 0.785276 0.425642
O O6 0.531280 0.086974 0.556335
O O7 0.462102 0.366083 0.491685
O O8 0.631006 0.320134 0.798420
O O9 0.339737 0.532403 0.579483
O O10 0.306200 0.752872 0.905664
O O11 0.142617 0.835589 0.777869
O O12 0.246355 0.036013 0.697764
O O13 0.030442 0.992912 0.402706
O O14 0.721195 0.548138 0.739907
#
# Coordination Sequence:
#
# PCOD9131356 Si02
#       7
#     2   2   2   2   2   2   2
#     4  10  21  39  60  89 119 162 192 236 297 358
#     4   8  20  32  52  78 100 144 198 228 284 338
#     4  10  22  37  57  79 119 150 203 236 293 335
#     4  12  27  38  60  92 121 151 203 249 294 333
#     4  10  23  42  66  84 121 160 194 234 303 361
#     4  10  21  40  63  94 116 153 195 245 294 350
#     4  10  22  36  56  78 114 156 191 230 293 347
#
# _framework density 20.272835000000001
#
# number of rings (size 3 to 8) (size 9 to 14) (size 15 to 20)
#    0.857    1.143    0.000    2.571    6.000    1.143 
#    2.571    0.000    0.000    0.000    0.000    0.000 
#    0.000    0.000    0.000    0.000    0.000    0.000 
#
# Total GULP energy -78029.632810 kJ/mol
# GULP energy per Si atom -5573.545201 kJ/mol
# Density = 2.022669 g / cm^3
# Si number density = 20.272835 Si / 1000 Ang^3
#
#
#
# Elastic Constant Matrix: (Units=GPa)
#
#
# Indices 1 2 3 4 5 6 
#
# 1 121.7587 37.2496 32.4837 0.0000 21.5694 0.0000
# 2 37.2496 49.7331 8.8164 0.0000 8.8154 0.0000
# 3 32.4837 8.8164 94.2493 0.0000 -12.9275 0.0000
# 4 0.0000 0.0000 0.0000 33.6756 0.0000 5.5954
# 5 21.5694 8.8154 -12.9275 0.0000 38.3222 0.0000
# 6 0.0000 0.0000 0.0000 5.5954 0.0000 31.1019
#
#
#
# Elastic Compliance Matrix: (Units=1/GPa)
#
#
# Indices 1 2 3 4 5 6 
#
# 1 0.013131 -0.007702 -0.004798 0.000000 -0.007238 0.000000
# 2 -0.007702 0.026182 -0.000027 0.000000 -0.001697 0.000000
# 3 -0.004798 -0.000027 0.013251 0.000000 0.007177 0.000000
# 4 0.000000 0.000000 0.000000 0.030610 0.000000 -0.005507
# 5 -0.007238 -0.001697 0.007177 0.000000 0.032980 0.000000
# 6 0.000000 0.000000 0.000000 -0.005507 0.000000 0.033143
#
#
# Mechanical properties :
#
#
# Convention : Reuss Voigt Hill
#
# Bulk Modulus (GPa) = 36.35152 46.98227 41.66689
# Shear Modulus (GPa) = 27.24481 33.09937 30.17209
#
# Velocity S-wave (km/s) = 3.66991 4.04505 3.86204
# Velocity P-wave (km/s) = 5.99398 6.71132 6.36277
#
# Compressibility (1/GPa) = 0.02750917
#
# Stress axis : x y z
#
# Youngs Moduli (GPa) = 76.15307 38.19482 75.46679
#
# Poissons Ratio (x) = 0.29417 0.36210
# Poissons Ratio (y) = 0.58651 0.00207
# Poissons Ratio (z) = 0.36540 0.00105
#
# Static dielectric constant tensor:
#      x y z
#    x 1.738710 0.000000 -0.025360 
#    y 0.000000 1.710150 0.000000 
#    z -0.025360 0.000000 1.831380 
# 
# From -- ./inp_files/1271.got.cif
#   From: 2010.05.17/outbox.cif.g08.bks.cpg/sg7_cif.got.tgz:1271.got - 2010.06.03 19:44:50.
