data_PCOD9131153
_publ_section_title
;
Structure prediction by ZEFSAII (Michael W. Deem and Ramdas Pophale) SiO2 
 PCOD9131153
Probable space group: P M
;
_chemical_formula_sum "Si O2"
_cell_formula_units_Z 12
_cell_length_a 10.410246
_cell_length_b 8.748750
_cell_length_c 15.047043
_cell_angle_alpha 90.000000
_cell_angle_beta 28.328969
_cell_angle_gamma 90.000000
_cell_volume 650.316652
_symmetry_space_group_name_H-M "P M"
_symmetry_group_IT_number 6
_symmetry_cell_setting 'monoclinic'
loop_
_space_group_symop_operation_xyz
x,y,z
x,-y,z
loop_
_atom_site_type_symbol
_atom_site_label
_atom_site_fract_x
_atom_site_fract_y
_atom_site_fract_z
Si Si1 0.872720 0.683241 0.242750
Si Si2 0.941217 0.683241 0.886555
Si Si3 0.504204 0.817994 0.617414
Si Si4 0.973751 0.316501 0.659084
Si Si5 0.554282 0.182004 0.267360
Si Si6 0.490057 0.683488 0.820353
O O1 0.843123 0.500000 0.264464
O O2 0.742066 0.755927 0.409724
O O3 0.709526 0.745378 0.257123
O O4 0.188511 0.720771 0.037927
O O5 0.935244 0.500000 0.900400
O O6 0.924169 0.720769 0.792660
O O7 0.224463 0.745369 0.752144
O O8 0.701618 0.755932 0.089846
O O9 0.541654 0.766076 0.695870
O O10 0.486841 0.000000 0.621625
O O11 0.017120 0.500000 0.627505
O O12 0.717138 0.277934 0.754486
O O13 0.244007 0.233920 0.461716
O O14 0.576368 0.000000 0.258418
O O15 0.498034 0.500000 0.800572
#
# Coordination Sequence:
#
# PCOD9131153 Si02
#       6
#     2   2   2   2   2   2
#     4  11  22  39  65  92 123 166 213 259 305 370
#     4  11  22  39  65  92 123 166 213 259 305 370
#     4  12  24  38  62  95 129 164 205 260 316 370
#     4  10  23  43  66  92 124 165 213 261 309 368
#     4  12  24  38  62  95 129 164 205 260 316 370
#     4  10  23  43  66  92 124 165 213 261 309 368
#
# _framework density 18.452549999999999
#
# number of rings (size 3 to 8) (size 9 to 14) (size 15 to 20)
#    0.000    1.000    3.333    4.000    0.000    3.333 
#    0.000    3.333    0.000    0.000    0.000    0.000 
#    0.000    0.000    0.000    0.000    0.000    0.000 
#
# Total GULP energy -67125.929403 kJ/mol
# GULP energy per Si atom -5593.827450 kJ/mol
# Density = 1.841055 g / cm^3
# Si number density = 18.452550 Si / 1000 Ang^3
#
#
#
# Elastic Constant Matrix: (Units=GPa)
#
#
# Indices 1 2 3 4 5 6 
#
# 1 135.9816 54.6944 71.5962 0.0000 0.2831 0.0000
# 2 54.6944 61.6175 61.4080 0.0000 1.5445 0.0000
# 3 71.5962 61.4080 166.5992 0.0000 6.7913 0.0000
# 4 0.0000 0.0000 0.0000 -11.7567 0.0000 -0.4974
# 5 0.2831 1.5445 6.7913 0.0000 34.3203 0.0000
# 6 0.0000 0.0000 0.0000 -0.4974 0.0000 -9.6654
#
#
#
# Elastic Compliance Matrix: (Units=1/GPa)
#
#
# Indices 1 2 3 4 5 6 
#
# 1 0.011827 -0.008571 -0.001951 0.000000 0.000674 0.000000
# 2 -0.008571 0.031881 -0.008078 0.000000 0.000234 0.000000
# 3 -0.001951 -0.008078 0.009882 0.000000 -0.001576 0.000000
# 4 0.000000 0.000000 0.000000 -0.085243 0.000000 0.004386
# 5 0.000674 0.000234 -0.001576 0.000000 0.029433 0.000000
# 6 0.000000 0.000000 0.000000 0.004386 0.000000 -0.103688
#
#
# Mechanical properties :
#
#
# Convention : Reuss Voigt Hill
#
# Bulk Modulus (GPa) = 61.00518 82.17727 71.59123
# Shear Modulus (GPa) = -79.05773 14.34630 -32.35571
#
# Velocity S-wave (km/s) = -6.55262 2.79134 -4.19197
# Velocity P-wave (km/s) = 4.91088 7.41753 3.93085
#
# Compressibility (1/GPa) = 0.01639205
#
# Stress axis : x y z
#
# Youngs Moduli (GPa) = 84.55160 31.36649 101.18901
#
# Poissons Ratio (x) = 0.26883 0.19742
# Poissons Ratio (y) = 0.72467 0.81736
# Poissons Ratio (z) = 0.16496 0.25336
#
# Static dielectric constant tensor:
#      x y z
#    x 1.603890 0.000000 0.002100 
#    y 0.000000 1.615810 0.000000 
#    z 0.002100 0.000000 1.612960 
# 
# From -- ./inp_files/2465.got.cif
#   From: 2010.05.17/outbox.cif.g08.bks.cpg/sg6_2_cif.got.tgz:2465.got - 2010.06.03 19:42:10.
