data_PCOD9131172
_publ_section_title
;
Structure prediction by ZEFSAII (Michael W. Deem and Ramdas Pophale) SiO2 
 PCOD9131172
Probable space group: P M
;
_chemical_formula_sum "Si O2"
_cell_formula_units_Z 16
_cell_length_a 12.190745
_cell_length_b 7.572090
_cell_length_c 11.742220
_cell_angle_alpha 90.000000
_cell_angle_beta 144.278014
_cell_angle_gamma 90.000000
_cell_volume 632.848253
_symmetry_space_group_name_H-M "P M"
_symmetry_group_IT_number 6
_symmetry_cell_setting 'monoclinic'
loop_
_space_group_symop_operation_xyz
x,y,z
x,-y,z
loop_
_atom_site_type_symbol
_atom_site_label
_atom_site_fract_x
_atom_site_fract_y
_atom_site_fract_z
Si Si1 0.828090 0.192919 0.055720
Si Si2 0.811893 0.297808 0.789038
Si Si3 0.218681 0.303004 0.443864
Si Si4 0.381155 0.703557 0.349142
Si Si5 0.637915 0.288980 0.100624
Si Si6 0.066653 0.285235 0.541373
Si Si7 0.504967 0.714881 0.220070
Si Si8 0.933299 0.285492 0.660318
O O1 0.643441 0.227431 0.975018
O O2 0.996997 0.320485 0.230323
O O3 0.898703 0.000000 0.146312
O O4 0.801096 0.202649 0.899194
O O5 0.868923 0.500000 0.860140
O O6 0.602205 0.303058 0.562754
O O7 0.940852 0.222544 0.796635
O O8 0.307288 0.500000 0.525530
O O9 0.294305 0.215491 0.391219
O O10 0.209466 0.223460 0.563593
O O11 0.310227 0.500000 0.283748
O O12 0.375569 0.778761 0.215732
O O13 0.618325 0.500000 0.081987
O O14 0.851933 0.246194 0.321542
O O15 0.500372 0.224199 0.084765
O O16 0.084883 0.500000 0.557739
O O17 0.071538 0.225147 0.676735
O O18 0.483020 0.500000 0.200762
O O19 0.721085 0.751404 0.438569
O O20 0.949067 0.500000 0.679558
#
# Coordination Sequence:
#
# PCOD9131172 Si02
#       8
#     2   2   2   2   2   2   2   2
#     4  11  21  30  41  61  90 121 152 183 213 251
#     4   9  16  28  46  65  85 112 145 181 222 264
#     4   9  16  28  47  69  92 116 142 175 217 263
#     4   8  14  25  46  74  94 109 137 179 222 262
#     4   8  13  24  43  63  83 109 141 179 221 258
#     4   7  10  18  36  62  85 104 131 170 212 250
#     4   7  10  19  39  67  90 104 129 176 224 258
#     4   7  10  18  36  61  83 103 133 173 213 250
#
# _framework density 25.282520000000002
#
# number of rings (size 3 to 8) (size 9 to 14) (size 15 to 20)
#    0.000    3.750    0.000    4.875    0.000    0.000 
#    0.000    0.625    0.000   14.250    0.000    7.000 
#    0.000    0.000    0.000    0.000    0.000    0.000 
#
# Total GULP energy -89096.133784 kJ/mol
# GULP energy per Si atom -5568.508362 kJ/mol
# Density = 2.522498 g / cm^3
# Si number density = 25.282520 Si / 1000 Ang^3
#
#
#
# Elastic Constant Matrix: (Units=GPa)
#
#
# Indices 1 2 3 4 5 6 
#
# 1 272.1702 14.0724 74.1394 0.0000 -93.1085 0.0000
# 2 14.0724 69.8644 6.1225 0.0000 -11.0946 0.0000
# 3 74.1394 6.1225 49.6229 0.0000 -15.9751 0.0000
# 4 0.0000 0.0000 0.0000 -2.1424 0.0000 6.6205
# 5 -93.1085 -11.0946 -15.9751 0.0000 79.0686 0.0000
# 6 0.0000 0.0000 0.0000 6.6205 0.0000 -38.7846
#
#
#
# Elastic Compliance Matrix: (Units=1/GPa)
#
#
# Indices 1 2 3 4 5 6 
#
# 1 0.010378 0.000553 -0.012422 0.000000 0.009789 0.000000
# 2 0.000553 0.014739 -0.001892 0.000000 0.002337 0.000000
# 3 -0.012422 -0.001892 0.036526 0.000000 -0.007514 0.000000
# 4 0.000000 0.000000 0.000000 -0.987852 0.000000 -0.168626
# 5 0.009789 0.002337 -0.007514 0.000000 0.022984 0.000000
# 6 0.000000 0.000000 0.000000 -0.168626 0.000000 -0.054568
#
#
# Mechanical properties :
#
#
# Convention : Reuss Voigt Hill
#
# Bulk Modulus (GPa) = 29.30842 64.48067 46.89455
# Shear Modulus (GPa) = -5.44131 27.44986 11.00427
#
# Velocity S-wave (km/s) = -1.46863 3.29861 2.08853
# Velocity P-wave (km/s) = 2.95664 6.32986 4.94008
#
# Compressibility (1/GPa) = 0.03411989
#
# Stress axis : x y z
#
# Youngs Moduli (GPa) = 96.35620 67.84722 27.37751
#
# Poissons Ratio (x) = -0.03750 0.34010
# Poissons Ratio (y) = -0.05325 0.05180
# Poissons Ratio (z) = 1.19698 0.12837
#
# Static dielectric constant tensor:
#      x y z
#    x 2.089060 0.000000 -0.066670 
#    y 0.000000 1.932290 0.000000 
#    z -0.066670 0.000000 2.076660 
# 
# From -- ./inp_files/4905.got.cif
#   From: 2010.05.17/outbox.cif.g08.bks.cpg/sg6_3_cif.got.tgz:4905.got - 2010.06.03 19:42:10.
