data_PCOD9131654
_publ_section_title
;
Structure prediction by ZEFSAII (Michael W. Deem and Ramdas Pophale) SiO2 
 PCOD9131654
Probable space group: C M
;
_chemical_formula_sum "Si O2"
_cell_formula_units_Z 26
_cell_length_a 19.530397
_cell_length_b 7.919121
_cell_length_c 7.336182
_cell_angle_alpha 90.000000
_cell_angle_beta 62.113814
_cell_angle_gamma 90.000000
_cell_volume 1002.883945
_symmetry_space_group_name_H-M "C M"
_symmetry_group_IT_number 8
_symmetry_cell_setting 'monoclinic'
loop_
_space_group_symop_operation_xyz
x,y,z
x,-y,z
1/2+x,1/2+y,z
1/2+x,1/2-y,z
loop_
_atom_site_type_symbol
_atom_site_label
_atom_site_fract_x
_atom_site_fract_y
_atom_site_fract_z
Si Si1 0.848080 0.302227 0.674550
Si Si2 0.298898 0.689798 0.360934
Si Si3 0.141514 0.814557 0.674396
Si Si4 0.484281 0.811928 0.753773
Si Si5 0.568181 0.690047 0.167968
Si Si6 0.476197 0.000000 0.139324
Si Si7 0.726057 0.801466 0.098199
O O1 0.846198 0.284403 0.458734
O O2 0.919927 0.234338 0.702304
O O3 0.504475 0.000000 0.658985
O O4 0.771047 0.220385 0.852823
O O5 0.329893 0.500000 0.307769
O O6 0.209470 0.687722 0.541380
O O7 0.285383 0.765855 0.178087
O O8 0.111273 0.798919 0.917480
O O9 0.062727 0.792046 0.661753
O O10 0.176316 0.000000 0.606191
O O11 0.460059 0.853678 0.994284
O O12 0.344122 0.000000 0.720550
O O13 0.535511 0.500000 0.228269
O O14 0.510721 0.848903 0.232225
O O15 0.642944 0.714551 0.204376
O O16 0.714775 0.000000 0.144907
#
# Coordination Sequence:
#
# PCOD9131654 Si02
#       7
#     4   4   4   4   4   2   4
#     4  11  22  38  62  88 117 160 205 252 309 370
#     4  11  24  38  60  88 122 161 204 255 307 363
#     4  10  19  33  58  89 115 148 195 248 304 363
#     4   8  18  34  57  83 115 157 199 241 305 368
#     4  10  18  31  58  91 118 155 196 249 308 360
#     4   8  16  34  58  84 126 150 198 250 294 378
#     4  11  23  38  58  90 125 161 207 255 307 368
#
# _framework density 25.925232000000001
#
# number of rings (size 3 to 8) (size 9 to 14) (size 15 to 20)
#    0.462    1.538    2.308    1.846    1.077    3.692 
#    0.000    0.000    6.769    0.000    0.000    0.000 
#    0.000    0.000    0.000    0.000    0.000    0.000 
#
# Total GULP energy -72419.310182 kJ/mol
# GULP energy per Si atom -5570.716168 kJ/mol
# Density = 2.586623 g / cm^3
# Si number density = 25.925232 Si / 1000 Ang^3
#
#
#
# Elastic Constant Matrix: (Units=GPa)
#
#
# Indices 1 2 3 4 5 6 
#
# 1 156.9555 24.5615 27.6831 0.0000 36.5640 0.0000
# 2 24.5615 100.6097 2.9503 0.0000 2.9658 0.0000
# 3 27.6831 2.9503 105.3050 0.0000 17.0701 0.0000
# 4 0.0000 0.0000 0.0000 4.4406 0.0000 27.1049
# 5 36.5640 2.9658 17.0701 0.0000 34.7773 0.0000
# 6 0.0000 0.0000 0.0000 27.1049 0.0000 6.7389
#
#
#
# Elastic Compliance Matrix: (Units=1/GPa)
#
#
# Indices 1 2 3 4 5 6 
#
# 1 0.008848 -0.001878 -0.000860 0.000000 -0.008721 0.000000
# 2 -0.001878 0.010365 0.000029 0.000000 0.001076 0.000000
# 3 -0.000860 0.000029 0.010403 0.000000 -0.004205 0.000000
# 4 0.000000 0.000000 0.000000 -0.009562 0.000000 0.038460
# 5 -0.008721 0.001076 -0.004205 0.000000 0.039895 0.000000
# 6 0.000000 0.000000 0.000000 0.038460 0.000000 -0.006301
#
#
# Mechanical properties :
#
#
# Convention : Reuss Voigt Hill
#
# Bulk Modulus (GPa) = 41.32423 52.58445 46.95434
# Shear Modulus (GPa) = 74.47945 29.70307 52.09126
#
# Velocity S-wave (km/s) = 5.36572 3.38852 4.48737
# Velocity P-wave (km/s) = 7.37308 5.96964 6.70816
#
# Compressibility (1/GPa) = 0.02419888
#
# Stress axis : x y z
#
# Youngs Moduli (GPa) = 113.01612 96.47621 96.12568
#
# Poissons Ratio (x) = 0.18116 0.08265
# Poissons Ratio (y) = 0.21222 -0.00277
# Poissons Ratio (z) = 0.09717 -0.00278
#
# Static dielectric constant tensor:
#      x y z
#    x 2.065250 0.000000 0.028050 
#    y 0.000000 1.948880 0.000000 
#    z 0.028050 0.000000 2.095140 
# 
# From -- ./inp_files/14460.got.cif
#   From: 2010.05.17/outbox.cif.g08.bks.cpg/sg8_8_cif.got.tgz:14460.got - 2010.06.03 19:46:02.
