data_PCOD9131084
_publ_section_title
;
Structure prediction by ZEFSAII (Michael W. Deem and Ramdas Pophale) SiO2 
 PCOD9131084
Probable space group: P M
;
_chemical_formula_sum "Si O2"
_cell_formula_units_Z 11
_cell_length_a 7.708039
_cell_length_b 15.890360
_cell_length_c 7.059351
_cell_angle_alpha 90.000000
_cell_angle_beta 141.053571
_cell_angle_gamma 90.000000
_cell_volume 543.515954
_symmetry_space_group_name_H-M "P M"
_symmetry_group_IT_number 6
_symmetry_cell_setting 'monoclinic'
loop_
_space_group_symop_operation_xyz
x,y,z
x,-y,z
loop_
_atom_site_type_symbol
_atom_site_label
_atom_site_fract_x
_atom_site_fract_y
_atom_site_fract_z
Si Si1 0.765430 0.904261 0.061930
Si Si2 0.373605 0.745110 0.149721
Si Si3 0.629621 0.500000 0.780126
Si Si4 0.927464 0.747732 0.444274
Si Si5 0.131796 0.630371 0.276793
Si Si6 0.352669 0.095853 0.381972
O O1 0.819468 0.835315 0.265800
O O2 0.025442 0.899910 0.139403
O O3 0.751523 0.000000 0.123523
O O4 0.496956 0.887033 0.707029
O O5 0.659029 0.706784 0.314961
O O6 0.230190 0.685480 0.181767
O O7 0.438002 0.833313 0.307539
O O8 0.164509 0.759507 0.799972
O O9 0.871700 0.573012 0.002261
O O10 0.387393 0.572958 0.557395
O O11 0.041493 0.691643 0.370327
O O12 0.426708 0.000000 0.390465
#
# Coordination Sequence:
#
# PCOD9131084 Si02
#       6
#     2   2   1   2   2   2
#     4  10  21  39  63  93 134 180 220 267 316 368
#     4  12  25  40  69 101 131 176 220 265 326 384
#     4  10  24  46  76  90 126 180 198 264 362 378
#     4  12  25  40  69 101 131 176 220 265 326 384
#     4  11  24  48  67  98 134 162 215 276 320 409
#     4  10  21  39  63  93 134 180 220 267 316 368
#
# _framework density 20.238599000000001
#
# number of rings (size 3 to 8) (size 9 to 14) (size 15 to 20)
#    0.000    1.091    1.818    4.364    2.545    1.455 
#    0.000   18.182    0.000    0.000    0.000    0.000 
#    0.000    0.000    0.000    0.000    0.000    0.000 
#
# Total GULP energy -61252.330205 kJ/mol
# GULP energy per Si atom -5568.393655 kJ/mol
# Density = 2.019253 g / cm^3
# Si number density = 20.238599 Si / 1000 Ang^3
#
#
#
# Elastic Constant Matrix: (Units=GPa)
#
#
# Indices 1 2 3 4 5 6 
#
# 1 98.7878 56.6759 33.1539 0.0000 0.4416 0.0000
# 2 56.6759 124.8669 44.7114 0.0000 -14.4994 0.0000
# 3 33.1539 44.7114 107.8182 0.0000 21.7229 0.0000
# 4 0.0000 0.0000 0.0000 39.3448 0.0000 12.6772
# 5 0.4416 -14.4994 21.7229 0.0000 30.9361 0.0000
# 6 0.0000 0.0000 0.0000 12.6772 0.0000 -5.8670
#
#
#
# Elastic Compliance Matrix: (Units=1/GPa)
#
#
# Indices 1 2 3 4 5 6 
#
# 1 0.014131 -0.006181 -0.001349 0.000000 -0.002152 0.000000
# 2 -0.006181 0.014397 -0.006345 0.000000 0.011291 0.000000
# 3 -0.001349 -0.006345 0.015044 0.000000 -0.013518 0.000000
# 4 0.000000 0.000000 0.000000 0.014984 0.000000 0.032377
# 5 -0.002152 0.011291 -0.013518 0.000000 0.047140 0.000000
# 6 0.000000 0.000000 0.000000 0.032377 0.000000 -0.100485
#
#
# Mechanical properties :
#
#
# Convention : Reuss Voigt Hill
#
# Bulk Modulus (GPa) = 63.19485 66.72835 64.96160
# Shear Modulus (GPa) = 130.77668 26.01156 78.39412
#
# Velocity S-wave (km/s) = 8.04722 3.58892 6.23049
# Velocity P-wave (km/s) = 10.84603 7.08634 9.16113
#
# Compressibility (1/GPa) = 0.01582407
#
# Stress axis : x y z
#
# Youngs Moduli (GPa) = 70.76655 69.45963 66.47086
#
# Poissons Ratio (x) = 0.42932 0.08964
# Poissons Ratio (y) = 0.43740 0.42173
# Poissons Ratio (z) = 0.09543 0.44069
#
# Static dielectric constant tensor:
#      x y z
#    x 1.728810 0.000000 0.016030 
#    y 0.000000 1.703230 0.000000 
#    z 0.016030 0.000000 1.683230 
# 
# From -- ./inp_files/3151.got.cif
#   From: 2010.05.17/outbox.cif.g08.bks.cpg/sg6_2_cif.got.tgz:3151.got - 2010.06.03 19:42:10.
