data_PCOD9131655
_publ_section_title
;
Structure prediction by ZEFSAII (Michael W. Deem and Ramdas Pophale) SiO2 
 PCOD9131655
Probable space group: C M
;
_chemical_formula_sum "Si O2"
_cell_formula_units_Z 18
_cell_length_a 15.483075
_cell_length_b 8.251781
_cell_length_c 21.013582
_cell_angle_alpha 90.000000
_cell_angle_beta 164.183356
_cell_angle_gamma 90.000000
_cell_volume 731.756732
_symmetry_space_group_name_H-M "C M"
_symmetry_group_IT_number 8
_symmetry_cell_setting 'monoclinic'
loop_
_space_group_symop_operation_xyz
x,y,z
x,-y,z
1/2+x,1/2+y,z
1/2+x,1/2-y,z
loop_
_atom_site_type_symbol
_atom_site_label
_atom_site_fract_x
_atom_site_fract_y
_atom_site_fract_z
Si Si1 0.032910 0.672106 0.373610
Si Si2 0.546039 0.500000 0.350789
Si Si3 0.138066 0.812964 0.712200
Si Si4 0.382420 0.687130 0.756920
Si Si5 0.779642 0.000000 0.888831
Si Si6 0.341573 0.500000 0.071397
O O1 0.863569 0.500000 0.249811
O O2 0.294820 0.675632 0.502958
O O3 0.207152 0.680530 0.564912
O O4 0.863622 0.840599 0.242490
O O5 0.892719 0.500000 0.628983
O O6 0.583010 0.500000 0.301042
O O7 0.152631 0.744742 0.650849
O O8 0.305708 0.671094 0.871738
O O9 0.248280 0.000000 0.789942
O O10 0.495767 0.500000 0.849231
O O11 0.641794 0.831870 0.937244
O O12 0.963149 0.000000 0.085599
#
# Coordination Sequence:
#
# PCOD9131655 Si02
#       6
#     4   2   4   4   2   2
#     4   9  19  36  57  84 111 149 187 232 280 329
#     4  10  20  36  62  80 113 146 191 230 284 332
#     4  10  18  31  59  85 110 144 192 229 277 337
#     4  11  20  33  59  88 109 154 190 224 285 335
#     4  10  20  40  58  81 112 152 184 239 276 333
#     4  12  22  36  62  83 113 154 189 227 292 327
#
# _framework density 24.598337999999998
#
# number of rings (size 3 to 8) (size 9 to 14) (size 15 to 20)
#    0.000    1.778    6.667    0.000    0.000    0.889 
#    0.000    0.000    9.778    0.000    0.000    0.000 
#    0.000    0.000    0.000    0.000    0.000    0.000 
#
# Total GULP energy -50266.185387 kJ/mol
# GULP energy per Si atom -5585.131710 kJ/mol
# Density = 2.454235 g / cm^3
# Si number density = 24.598338 Si / 1000 Ang^3
#
#
#
# Elastic Constant Matrix: (Units=GPa)
#
#
# Indices 1 2 3 4 5 6 
#
# 1 107.1618 37.3767 10.1187 -0.0027 -9.0616 -0.0163
# 2 37.3767 307.6806 41.4010 0.0270 7.3558 0.0054
# 3 10.1187 41.4010 39.3328 0.0742 1.2967 0.0115
# 4 -0.0027 0.0270 0.0742 28.5185 0.0096 2.0379
# 5 -9.0616 7.3558 1.2967 0.0096 37.3511 -0.0067
# 6 -0.0163 0.0054 0.0115 2.0379 -0.0067 45.8051
#
#
#
# Elastic Compliance Matrix: (Units=1/GPa)
#
#
# Indices 1 2 3 4 5 6 
#
# 1 0.010084 -0.001082 -0.001545 0.000005 0.002713 0.000004
# 2 -0.001082 0.003916 -0.003814 0.000006 -0.000901 0.000000
# 3 -0.001545 -0.003814 0.029858 -0.000074 -0.000660 -0.000004
# 4 0.000005 0.000006 -0.000074 0.035177 -0.000007 -0.001565
# 5 0.002713 -0.000901 -0.000660 -0.000007 0.027632 0.000006
# 6 0.000004 0.000000 -0.000004 -0.001565 0.000006 0.021901
#
#
# Mechanical properties :
#
#
# Convention : Reuss Voigt Hill
#
# Bulk Modulus (GPa) = 32.28227 70.21867 51.25047
# Shear Modulus (GPa) = 32.94317 46.68685 39.81501
#
# Velocity S-wave (km/s) = 3.66354 4.36129 4.02755
# Velocity P-wave (km/s) = 5.57204 7.34638 6.51985
#
# Compressibility (1/GPa) = 0.03097675
#
# Stress axis : x y z
#
# Youngs Moduli (GPa) = 99.16319 255.33980 33.49169
#
# Poissons Ratio (x) = 0.27629 0.05174
# Poissons Ratio (y) = 0.10730 0.12774
# Poissons Ratio (z) = 0.15319 0.97392
#
# Static dielectric constant tensor:
#      x y z
#    x 1.933330 -0.000020 0.057730 
#    y -0.000020 2.017550 -0.000050 
#    z 0.057730 -0.000050 1.943190 
# 
# From -- ./inp_files/11904.got.cif
#   From: 2010.05.17/outbox.cif.g08.bks.cpg/sg8_6_cif.got.tgz:11904.got - 2010.06.03 19:46:02.
