data_PCOD9131067
_publ_section_title
;
Structure prediction by ZEFSAII (Michael W. Deem and Ramdas Pophale) SiO2 
 PCOD9131067
Probable space group: P M
;
_chemical_formula_sum "Si O2"
_cell_formula_units_Z 12
_cell_length_a 5.528345
_cell_length_b 16.953747
_cell_length_c 4.870554
_cell_angle_alpha 90.000000
_cell_angle_beta 94.217529
_cell_angle_gamma 90.000000
_cell_volume 455.262149
_symmetry_space_group_name_H-M "P M"
_symmetry_group_IT_number 6
_symmetry_cell_setting 'monoclinic'
loop_
_space_group_symop_operation_xyz
x,y,z
x,-y,z
loop_
_atom_site_type_symbol
_atom_site_label
_atom_site_fract_x
_atom_site_fract_y
_atom_site_fract_z
Si Si1 0.550640 0.414270 0.360350
Si Si2 0.736927 0.752664 0.154322
Si Si3 0.013398 0.249263 0.682579
Si Si4 0.133273 0.083982 0.714125
Si Si5 0.238985 0.584452 0.838952
Si Si6 0.606050 0.916089 0.369563
O O1 0.668832 0.500000 0.305538
O O2 0.657836 0.332274 0.263658
O O3 0.483676 0.413980 0.674698
O O4 0.301344 0.415724 0.164351
O O5 0.984198 0.761778 0.355900
O O6 0.761767 0.750442 0.830189
O O7 0.114112 0.665209 0.753025
O O8 0.143707 0.173231 0.824799
O O9 0.601203 0.166432 0.211921
O O10 0.863331 0.084435 0.554682
O O11 0.365245 0.081252 0.533944
O O12 0.138439 0.000000 0.875067
O O13 0.118209 0.500000 0.763944
O O14 0.613516 0.000000 0.210298
#
# Coordination Sequence:
#
# PCOD9131067 Si02
#       6
#     2   2   2   2   2   2
#     4  10  21  38  60  86 120 164 212 263 319 380
#     4  11  23  38  60  90 124 165 212 263 318 379
#     4  11  23  38  60  90 124 165 212 263 318 379
#     4   9  19  38  63  92 127 167 212 262 317 378
#     4  10  21  38  60  86 120 164 212 263 319 380
#     4   9  19  38  63  92 127 167 212 262 317 378
#
# _framework density 26.358439000000001
#
# number of rings (size 3 to 8) (size 9 to 14) (size 15 to 20)
#    0.000    2.000    0.000    3.000    0.000    4.667 
#    0.000    0.000    0.000   19.000    0.000    0.000 
#    0.000    0.000    0.000    0.000    0.000    0.000 
#
# Total GULP energy -66914.235056 kJ/mol
# GULP energy per Si atom -5576.186255 kJ/mol
# Density = 2.629845 g / cm^3
# Si number density = 26.358439 Si / 1000 Ang^3
#
#
#
# Elastic Constant Matrix: (Units=GPa)
#
#
# Indices 1 2 3 4 5 6 
#
# 1 99.0163 30.3761 23.1643 0.0000 5.7775 0.0000
# 2 30.3761 315.6667 25.4687 0.0000 -14.8253 0.0000
# 3 23.1643 25.4687 78.2446 0.0000 -0.9518 0.0000
# 4 0.0000 0.0000 0.0000 68.2463 0.0000 -6.5058
# 5 5.7775 -14.8253 -0.9518 0.0000 45.0643 0.0000
# 6 0.0000 0.0000 0.0000 -6.5058 0.0000 53.1410
#
#
#
# Elastic Compliance Matrix: (Units=1/GPa)
#
#
# Indices 1 2 3 4 5 6 
#
# 1 0.011196 -0.000917 -0.003038 0.000000 -0.001801 0.000000
# 2 -0.000917 0.003379 -0.000814 0.000000 0.001212 0.000000
# 3 -0.003038 -0.000814 0.013950 0.000000 0.000417 0.000000
# 4 0.000000 0.000000 0.000000 0.014826 0.000000 0.001815
# 5 -0.001801 0.001212 0.000417 0.000000 0.022829 0.000000
# 6 0.000000 0.000000 0.000000 0.001815 0.000000 0.019040
#
#
# Mechanical properties :
#
#
# Convention : Reuss Voigt Hill
#
# Bulk Modulus (GPa) = 52.66581 72.32732 62.49657
# Shear Modulus (GPa) = 49.46266 60.88488 55.17377
#
# Velocity S-wave (km/s) = 4.33660 4.81134 4.58013
# Velocity P-wave (km/s) = 6.71557 7.63968 7.19248
#
# Compressibility (1/GPa) = 0.01898765
#
# Stress axis : x y z
#
# Youngs Moduli (GPa) = 89.31363 295.97299 71.68571
#
# Poissons Ratio (x) = 0.27137 0.21779
# Poissons Ratio (y) = 0.08189 0.05832
# Poissons Ratio (z) = 0.27135 0.24080
#
# Static dielectric constant tensor:
#      x y z
#    x 2.140410 0.000000 0.046030 
#    y 0.000000 2.128480 0.000000 
#    z 0.046030 0.000000 2.035240 
# 
# From -- ./inp_files/409.got.cif
#   From: 2010.05.17/outbox.cif.g08.bks.cpg/sg6_1_cif.got.tgz:409.got - 2010.06.03 19:42:10.
