data_PCOD9131357
_publ_section_title
;
Structure prediction by ZEFSAII (Michael W. Deem and Ramdas Pophale) SiO2 
 PCOD9131357
Probable space group: P C
;
_chemical_formula_sum "Si O2"
_cell_formula_units_Z 16
_cell_length_a 18.642988
_cell_length_b 7.725847
_cell_length_c 5.240298
_cell_angle_alpha 90.000000
_cell_angle_beta 97.694957
_cell_angle_gamma 90.000000
_cell_volume 747.978417
_symmetry_space_group_name_H-M "P C"
_symmetry_group_IT_number 7
_symmetry_cell_setting 'monoclinic'
loop_
_space_group_symop_operation_xyz
x,y,z
x,-y,1/2+z
loop_
_atom_site_type_symbol
_atom_site_label
_atom_site_fract_x
_atom_site_fract_y
_atom_site_fract_z
Si Si1 0.954430 0.616001 0.186710
Si Si2 0.519500 0.113475 0.970421
Si Si3 0.386101 0.619547 0.393161
Si Si4 0.753138 0.429967 0.419738
Si Si5 0.251869 0.880920 0.314054
Si Si6 0.122164 0.381655 0.746937
Si Si7 0.591163 0.568222 0.347265
Si Si8 0.826528 0.110284 0.630915
O O1 0.944693 0.518663 0.450554
O O2 0.038132 0.675015 0.211834
O O3 0.897774 0.771223 0.133371
O O4 0.452234 0.244520 0.911544
O O5 0.587992 0.238152 0.949512
O O6 0.518242 0.972111 0.746521
O O7 0.388041 0.510656 0.655151
O O8 0.313775 0.734925 0.347448
O O9 0.787181 0.550486 0.656388
O O10 0.671479 0.495060 0.340878
O O11 0.760417 0.239683 0.535460
O O12 0.175858 0.779723 0.278668
O O13 0.258871 0.001909 0.565453
O O14 0.134499 0.495567 0.498412
O O15 0.555979 0.450802 0.552009
O O16 0.824805 0.035159 0.913043
#
# Coordination Sequence:
#
# PCOD9131357 Si02
#       8
#     2   2   2   2   2   2   2   2
#     4  10  21  39  63  86 117 163 205 244 295 363
#     4  12  24  41  64  95 125 150 195 256 306 347
#     4  12  24  42  66  89 120 166 208 242 292 363
#     4  10  21  41  63  82 115 158 197 235 289 365
#     4  12  24  39  60  91 128 161 199 255 308 343
#     4  10  21  39  61  87 119 162 210 245 291 363
#     4  10  21  41  63  86 116 159 197 231 289 365
#     4  12  24  38  60  92 122 151 197 256 306 347
#
# _framework density 21.390991
#
# number of rings (size 3 to 8) (size 9 to 14) (size 15 to 20)
#    0.000    1.000    0.000    7.500    0.000    1.000 
#    0.000   15.000    0.000    0.000    0.000    0.000 
#    0.000    0.000    0.000    0.000    0.000    0.000 
#
# Total GULP energy -89493.116908 kJ/mol
# GULP energy per Si atom -5593.319807 kJ/mol
# Density = 2.134230 g / cm^3
# Si number density = 21.390991 Si / 1000 Ang^3
#
#
#
# Elastic Constant Matrix: (Units=GPa)
#
#
# Indices 1 2 3 4 5 6 
#
# 1 96.4038 39.0051 9.6651 0.0000 8.3013 0.0000
# 2 39.0051 90.7068 22.7636 0.0000 3.0292 0.0000
# 3 9.6651 22.7636 140.4196 0.0000 -16.0445 0.0000
# 4 0.0000 0.0000 0.0000 58.6949 0.0000 0.3088
# 5 8.3013 3.0292 -16.0445 0.0000 25.1410 0.0000
# 6 0.0000 0.0000 0.0000 0.3088 0.0000 42.9042
#
#
#
# Elastic Compliance Matrix: (Units=1/GPa)
#
#
# Indices 1 2 3 4 5 6 
#
# 1 0.012902 -0.005297 -0.000478 0.000000 -0.003927 0.000000
# 2 -0.005297 0.013849 -0.002019 0.000000 -0.001208 0.000000
# 3 -0.000478 -0.002019 0.008120 0.000000 0.005583 0.000000
# 4 0.000000 0.000000 0.000000 0.017038 0.000000 -0.000123
# 5 -0.003927 -0.001208 0.005583 0.000000 0.044781 0.000000
# 6 0.000000 0.000000 0.000000 -0.000123 0.000000 0.023309
#
#
# Mechanical properties :
#
#
# Convention : Reuss Voigt Hill
#
# Bulk Modulus (GPa) = 51.85697 52.26642 52.06169
# Shear Modulus (GPa) = 35.20790 42.42110 38.81450
#
# Velocity S-wave (km/s) = 4.06140 4.45807 4.26435
# Velocity P-wave (km/s) = 6.80355 7.14045 6.97404
#
# Compressibility (1/GPa) = 0.01928381
#
# Stress axis : x y z
#
# Youngs Moduli (GPa) = 77.50545 72.20615 123.15961
#
# Poissons Ratio (x) = 0.38248 0.05888
# Poissons Ratio (y) = 0.41055 0.24860
# Poissons Ratio (z) = 0.03705 0.14575
#
# Static dielectric constant tensor:
#      x y z
#    x 1.876950 0.000000 0.007080 
#    y 0.000000 1.757980 0.000000 
#    z 0.007080 0.000000 1.805770 
# 
# From -- ./inp_files/1342.got.cif
#   From: 2010.05.17/outbox.cif.g08.bks.cpg/sg7_cif.got.tgz:1342.got - 2010.06.03 19:44:50.
