data_PCOD9131193
_publ_section_title
;
Structure prediction by ZEFSAII (Michael W. Deem and Ramdas Pophale) SiO2 
 PCOD9131193
Probable space group: P M
;
_chemical_formula_sum "Si O2"
_cell_formula_units_Z 16
_cell_length_a 18.000000
_cell_length_b 9.000000
_cell_length_c 15.000000
_cell_angle_alpha 90.000000
_cell_angle_beta 20.000000
_cell_angle_gamma 90.000000
_cell_volume 831.108948
_symmetry_space_group_name_H-M "P M"
_symmetry_group_IT_number 6
_symmetry_cell_setting 'monoclinic'
loop_
_space_group_symop_operation_xyz
x,y,z
x,-y,z
loop_
_atom_site_type_symbol
_atom_site_label
_atom_site_fract_x
_atom_site_fract_y
_atom_site_fract_z
Si Si1 0.883370 0.322661 0.381670
Si Si2 0.274513 0.832925 0.861335
Si Si3 0.779502 0.170663 0.862869
Si Si4 0.412845 0.667960 0.371757
Si Si5 0.647123 0.673736 0.829971
Si Si6 0.091560 0.166993 0.866401
Si Si7 0.197551 0.335073 0.418586
Si Si8 0.711116 0.328354 0.377341
O O1 0.932892 0.500000 0.330592
O O2 0.741883 0.282617 0.627498
O O3 0.766014 0.297031 0.419199
O O4 0.097967 0.224020 0.130872
O O5 0.176334 0.835452 0.872671
O O6 0.464885 0.715326 0.643423
O O7 0.350804 0.000000 0.796416
O O8 0.737082 0.237838 0.812864
O O9 0.026907 0.205373 0.604753
O O10 0.722884 0.000000 0.925315
O O11 0.635754 0.248153 0.100957
O O12 0.456498 0.500000 0.350479
O O13 0.254077 0.743202 0.621016
O O14 0.302220 0.665936 0.398613
O O15 0.701164 0.500000 0.782739
O O16 0.387489 0.684164 0.132119
O O17 0.076922 0.000000 0.848752
O O18 0.855912 0.237883 0.144395
O O19 0.097084 0.500000 0.518787
O O20 0.756600 0.500000 0.310903
#
# Coordination Sequence:
#
# PCOD9131193 Si02
#       8
#     2   2   2   2   2   2   2   2
#     4   9  19  36  57  80 105 138 181 224 265 311
#     4  10  21  36  54  79 111 144 176 216 268 319
#     4  11  22  35  54  81 111 141 174 216 266 319
#     4  10  21  38  59  80 104 138 180 223 264 312
#     4   9  19  37  58  78 105 141 180 222 264 311
#     4  10  21  37  56  79 109 142 176 219 269 318
#     4   9  19  36  56  78 105 139 177 217 264 315
#     4  10  20  35  56  81 108 141 182 223 262 311
#
# _framework density 19.251387000000001
#
# number of rings (size 3 to 8) (size 9 to 14) (size 15 to 20)
#    0.000    2.250    0.000    3.375    0.000    7.000 
#    0.000    2.500    0.000    0.000    0.000    0.000 
#    0.000    0.000    0.000    0.000    0.000    0.000 
#
# Total GULP energy -89202.038632 kJ/mol
# GULP energy per Si atom -5575.127414 kJ/mol
# Density = 1.920757 g / cm^3
# Si number density = 19.251387 Si / 1000 Ang^3
#
#
#
# Elastic Constant Matrix: (Units=GPa)
#
#
# Indices 1 2 3 4 5 6 
#
# 1 5.5036 19.7462 27.2321 0.0000 20.0896 0.0000
# 2 19.7462 54.0070 49.8637 0.0000 21.7641 0.0000
# 3 27.2321 49.8637 96.9490 0.0000 39.0695 0.0000
# 4 0.0000 0.0000 0.0000 41.7702 0.0000 0.2575
# 5 20.0896 21.7641 39.0695 0.0000 36.5520 0.0000
# 6 0.0000 0.0000 0.0000 0.2575 0.0000 14.4849
#
#
#
# Elastic Compliance Matrix: (Units=1/GPa)
#
#
# Indices 1 2 3 4 5 6 
#
# 1 -0.142296 0.025249 0.002679 0.000000 0.060311 0.000000
# 2 0.025249 0.030947 -0.017551 0.000000 -0.013544 0.000000
# 3 0.002679 -0.017551 0.026300 0.000000 -0.019133 0.000000
# 4 0.000000 0.000000 0.000000 0.023943 0.000000 -0.000426
# 5 0.060311 -0.013544 -0.019133 0.000000 0.022725 0.000000
# 6 0.000000 0.000000 0.000000 -0.000426 0.000000 0.069045
#
#
# Mechanical properties :
#
#
# Convention : Reuss Voigt Hill
#
# Bulk Modulus (GPa) = -15.55300 38.90486 11.67593
# Shear Modulus (GPa) = -434.02981 22.53590 -205.74696
#
# Velocity S-wave (km/s) = -15.03141 3.42513 -10.34920
# Velocity P-wave (km/s) = 17.58846 5.99122 11.69315
#
# Compressibility (1/GPa) = -0.06429630
#
# Stress axis : x y z
#
# Youngs Moduli (GPa) = -7.02760 32.31299 38.02312
#
# Poissons Ratio (x) = -0.81587 -0.10185
# Poissons Ratio (y) = 0.17744 0.66735
# Poissons Ratio (z) = 0.01882 0.56713
#
# Static dielectric constant tensor:
#      x y z
#    x 1.648830 0.000000 -0.038580 
#    y 0.000000 1.667720 0.000000 
#    z -0.038580 0.000000 1.659230 
# 
# From -- ./inp_files/1858.got.cif
#   From: 2010.05.17/outbox.ucp.g08.bks.cvg/sg6_1_cif.got.tgz:1858.got - 2010.06.11 12:59:37.
