data_PCOD9131101
_publ_section_title
;
Structure prediction by ZEFSAII (Michael W. Deem and Ramdas Pophale) SiO2 
 PCOD9131101
Probable space group: P M
;
_chemical_formula_sum "Si O2"
_cell_formula_units_Z 12
_cell_length_a 10.344301
_cell_length_b 8.806474
_cell_length_c 14.926704
_cell_angle_alpha 90.000000
_cell_angle_beta 151.548242
_cell_angle_gamma 90.000000
_cell_volume 647.822272
_symmetry_space_group_name_H-M "P M"
_symmetry_group_IT_number 6
_symmetry_cell_setting 'monoclinic'
loop_
_space_group_symop_operation_xyz
x,y,z
x,-y,z
loop_
_atom_site_type_symbol
_atom_site_label
_atom_site_fract_x
_atom_site_fract_y
_atom_site_fract_z
Si Si1 0.501950 0.181254 0.827660
Si Si2 0.538279 0.680779 0.043015
Si Si3 0.064562 0.181997 0.874662
Si Si4 0.482690 0.319238 0.483148
Si Si5 0.132980 0.182093 0.432971
Si Si6 0.091448 0.818669 0.102007
O O1 0.277814 0.215040 0.615803
O O2 0.494423 0.000000 0.841402
O O3 0.466442 0.270281 0.897919
O O4 0.797518 0.215725 0.965807
O O5 0.546564 0.500000 0.055501
O O6 0.833661 0.749779 0.244198
O O7 0.315790 0.749611 0.973971
O O8 0.783368 0.250896 0.668120
O O9 0.059069 0.000000 0.861483
O O10 0.087199 0.216747 0.994279
O O11 0.492256 0.500000 0.496569
O O12 0.316589 0.250154 0.465672
O O13 0.320260 0.269504 0.295752
O O14 0.122007 0.000000 0.415035
O O15 0.135685 0.000000 0.139179
#
# Coordination Sequence:
#
# PCOD9131101 Si02
#       6
#     2   2   2   2   2   2
#     4  10  21  40  67  94 122 166 217 259 302 369
#     4  12  26  42  62  96 134 166 202 261 325 374
#     4  11  24  45  68  91 124 170 214 260 310 371
#     4  12  24  38  63  98 131 164 203 260 321 373
#     4  11  22  41  67  93 123 167 218 259 302 371
#     4  10  21  40  67  94 122 165 218 259 302 370
#
# _framework density 18.523599999999998
#
# number of rings (size 3 to 8) (size 9 to 14) (size 15 to 20)
#    0.000    1.000    3.333    4.000    0.000    4.000 
#    0.000    1.667    0.000    0.000    0.000    0.000 
#    0.000    0.000    0.000    0.000    0.000    0.000 
#
# Total GULP energy -67133.277697 kJ/mol
# GULP energy per Si atom -5594.439808 kJ/mol
# Density = 1.848144 g / cm^3
# Si number density = 18.523600 Si / 1000 Ang^3
#
#
#
# Elastic Constant Matrix: (Units=GPa)
#
#
# Indices 1 2 3 4 5 6 
#
# 1 75.5300 30.4483 7.1393 0.0000 4.9447 0.0000
# 2 30.4483 81.9593 46.7033 0.0000 -9.8019 0.0000
# 3 7.1393 46.7033 97.1731 0.0000 0.8508 0.0000
# 4 0.0000 0.0000 0.0000 -209.6283 0.0000 -10.7602
# 5 4.9447 -9.8019 0.8508 0.0000 32.7072 0.0000
# 6 0.0000 0.0000 0.0000 -10.7602 0.0000 -2.4613
#
#
#
# Elastic Compliance Matrix: (Units=1/GPa)
#
#
# Indices 1 2 3 4 5 6 
#
# 1 0.016719 -0.008472 0.002888 0.000000 -0.005142 0.000000
# 2 -0.008472 0.022047 -0.010045 0.000000 0.008149 0.000000
# 3 0.002888 -0.010045 0.014940 0.000000 -0.003836 0.000000
# 4 0.000000 0.000000 0.000000 -0.006151 0.000000 0.026889
# 5 -0.005142 0.008149 -0.003836 0.000000 0.033894 0.000000
# 6 0.000000 0.000000 0.000000 0.026889 0.000000 -0.523845
#
#
# Mechanical properties :
#
#
# Convention : Reuss Voigt Hill
#
# Bulk Modulus (GPa) = 44.54597 47.02712 45.78654
# Shear Modulus (GPa) = -12.38680 -24.51839 -18.45259
#
# Velocity S-wave (km/s) = -2.58874 -3.64212 -3.15963
# Velocity P-wave (km/s) = 3.89423 2.78497 3.38534
#
# Compressibility (1/GPa) = 0.02244872
#
# Stress axis : x y z
#
# Youngs Moduli (GPa) = 59.81356 45.35703 66.93332
#
# Poissons Ratio (x) = 0.38426 -0.19333
# Poissons Ratio (y) = 0.50673 0.67236
# Poissons Ratio (z) = -0.17277 0.45562
#
# Static dielectric constant tensor:
#      x y z
#    x 1.603080 0.000000 -0.008310 
#    y 0.000000 1.687230 0.000000 
#    z -0.008310 0.000000 1.616990 
# 
# From -- ./inp_files/4672.got.cif
#   From: 2010.05.17/outbox.cif.g08.bks.cpg/sg6_3_cif.got.tgz:4672.got - 2010.06.03 19:42:10.
