data_PCOD9131566
_publ_section_title
;
Structure prediction by ZEFSAII (Michael W. Deem and Ramdas Pophale) SiO2 
 PCOD9131566
Probable space group: C M
;
_chemical_formula_sum "Si O2"
_cell_formula_units_Z 32
_cell_length_a 13.973823
_cell_length_b 12.934943
_cell_length_c 17.115986
_cell_angle_alpha 90.000000
_cell_angle_beta 154.892258
_cell_angle_gamma 90.000000
_cell_volume 1312.734825
_symmetry_space_group_name_H-M "C M"
_symmetry_group_IT_number 8
_symmetry_cell_setting 'monoclinic'
loop_
_space_group_symop_operation_xyz
x,y,z
x,-y,z
1/2+x,1/2+y,z
1/2+x,1/2-y,z
loop_
_atom_site_type_symbol
_atom_site_label
_atom_site_fract_x
_atom_site_fract_y
_atom_site_fract_z
Si Si1 0.013230 0.704271 0.631780
Si Si2 0.186333 0.621407 0.595785
Si Si3 0.251771 0.826316 0.195576
Si Si4 0.682264 0.882362 0.345708
Si Si5 0.903301 0.115908 0.340124
Si Si6 0.853651 0.124671 0.989733
Si Si7 0.402707 0.882807 0.708156
Si Si8 0.172350 0.882345 0.970464
O O1 0.069958 0.665052 0.587876
O O2 0.859593 0.805494 0.516966
O O3 0.897942 0.626556 0.609218
O O4 0.257596 0.705989 0.854062
O O5 0.222812 0.500000 0.637335
O O6 0.005106 0.632771 0.393381
O O7 0.438871 0.664056 0.764842
O O8 0.278467 0.704585 0.199910
O O9 0.135907 0.880904 0.037054
O O10 0.116769 0.852032 0.175841
O O11 0.770810 0.890126 0.322918
O O12 0.426460 0.839805 0.151264
O O13 0.681838 0.000000 0.377644
O O14 0.155429 0.157751 0.547438
O O15 0.916350 0.000000 0.315747
O O16 0.831804 0.000000 0.957252
O O17 0.667131 0.144008 0.919441
O O18 0.386659 0.000000 0.724659
O O19 0.192962 0.000000 0.955328
#
# Coordination Sequence:
#
# PCOD9131566 Si02
#       8
#     4   4   4   4   4   4   4   4
#     4  10  17  35  57  88 113 149 191 238 306 343
#     4  11  21  35  61  93 123 149 189 250 309 358
#     4  12  21  36  61  93 118 154 201 240 301 360
#     4  10  21  38  58  81 120 167 201 239 288 350
#     4  10  21  38  54  81 118 161 205 239 284 347
#     4   9  18  34  60  89 117 146 184 246 309 349
#     4   8  16  33  60  81 109 152 191 238 299 348
#     4  10  21  39  61  88 124 154 190 248 304 349
#
# _framework density 24.376591999999999
#
# number of rings (size 3 to 8) (size 9 to 14) (size 15 to 20)
#    0.750    1.250    2.500    2.625    0.000    0.000 
#    2.250    0.625    0.000    0.750    0.000    0.000 
#    0.000    0.000    0.000    0.000    0.000    0.000 
#
# Total GULP energy -89088.423447 kJ/mol
# GULP energy per Si atom -5568.026465 kJ/mol
# Density = 2.432111 g / cm^3
# Si number density = 24.376592 Si / 1000 Ang^3
#
#
#
# Elastic Constant Matrix: (Units=GPa)
#
#
# Indices 1 2 3 4 5 6 
#
# 1 75.7799 4.6393 17.6694 0.0015 32.0112 -0.0017
# 2 4.6393 109.5502 45.3456 0.0045 18.1335 0.0022
# 3 17.6694 45.3456 125.5622 0.0197 34.5109 0.0092
# 4 0.0015 0.0045 0.0197 33.3340 0.0052 17.1205
# 5 32.0112 18.1335 34.5109 0.0052 48.9906 0.0009
# 6 -0.0017 0.0022 0.0092 17.1205 0.0009 24.9260
#
#
#
# Elastic Compliance Matrix: (Units=1/GPa)
#
#
# Indices 1 2 3 4 5 6 
#
# 1 0.018422 0.001125 0.000526 0.000000 -0.012824 0.000001
# 2 0.001125 0.010896 -0.003451 0.000001 -0.002337 0.000000
# 3 0.000526 -0.003451 0.011012 -0.000005 -0.006824 0.000000
# 4 0.000000 0.000001 -0.000005 0.046351 -0.000001 -0.031836
# 5 -0.012824 -0.002337 -0.006824 -0.000001 0.034463 0.000002
# 6 0.000001 0.000000 0.000000 -0.031836 0.000002 0.061986
#
#
# Mechanical properties :
#
#
# Convention : Reuss Voigt Hill
#
# Bulk Modulus (GPa) = 27.22597 49.57787 38.40192
# Shear Modulus (GPa) = 25.12915 37.66596 31.39756
#
# Velocity S-wave (km/s) = 3.21420 3.93513 3.59279
# Velocity P-wave (km/s) = 4.99679 6.40542 5.74445
#
# Compressibility (1/GPa) = 0.03672964
#
# Stress axis : x y z
#
# Youngs Moduli (GPa) = 54.28365 91.77805 90.81096
#
# Poissons Ratio (x) = -0.10323 -0.04778
# Poissons Ratio (y) = -0.06106 0.31338
# Poissons Ratio (z) = -0.02856 0.31671
#
# Static dielectric constant tensor:
#      x y z
#    x 1.928230 -0.000010 0.033530 
#    y -0.000010 2.033600 0.000000 
#    z 0.033530 0.000000 1.992060 
# 
# From -- ./inp_files/31205.got.cif
#   From: 2010.05.17/outbox.cif.g08.bks.cpg/sg8_16_cif.got.tgz:31205.got - 2010.06.03 19:46:02.
