data_PCOD9131776
_publ_section_title
;
Structure prediction by ZEFSAII (Michael W. Deem and Ramdas Pophale) SiO2 
 PCOD9131776
Probable space group: C M
;
_chemical_formula_sum "Si O2"
_cell_formula_units_Z 32
_cell_length_a 17.866214
_cell_length_b 14.141529
_cell_length_c 12.447373
_cell_angle_alpha 90.000000
_cell_angle_beta 25.655577
_cell_angle_gamma 90.000000
_cell_volume 1361.616183
_symmetry_space_group_name_H-M "C M"
_symmetry_group_IT_number 8
_symmetry_cell_setting 'monoclinic'
loop_
_space_group_symop_operation_xyz
x,y,z
x,-y,z
1/2+x,1/2+y,z
1/2+x,1/2-y,z
loop_
_atom_site_type_symbol
_atom_site_label
_atom_site_fract_x
_atom_site_fract_y
_atom_site_fract_z
Si Si1 0.325850 0.846349 0.940660
Si Si2 0.070608 0.101882 0.830935
Si Si3 0.429194 0.605922 0.396380
Si Si4 0.548315 0.109752 0.448413
Si Si5 0.247168 0.399591 0.853950
Si Si6 0.930471 0.688542 0.371390
Si Si7 0.516622 0.349430 0.666791
Si Si8 0.831719 0.264421 0.155437
O O1 0.428973 0.896643 0.710070
O O2 0.389800 0.740215 0.836551
O O3 0.367258 0.842775 0.015652
O O4 0.125775 0.873788 0.183524
O O5 0.273579 0.118093 0.555296
O O6 0.001566 0.099599 0.798653
O O7 0.032712 0.000000 0.932978
O O8 0.993613 0.199354 0.980108
O O9 0.425282 0.500000 0.352255
O O10 0.296374 0.605874 0.667064
O O11 0.379957 0.704201 0.404055
O O12 0.468159 0.166136 0.449757
O O13 0.702604 0.180338 0.281824
O O14 0.591424 0.000000 0.363338
O O15 0.163674 0.500000 0.987402
O O16 0.431888 0.398453 0.674779
O O17 0.105147 0.328400 0.079760
O O18 0.713302 0.317628 0.394607
#
# Coordination Sequence:
#
# PCOD9131776 Si02
#       8
#     4   4   4   4   4   4   4   4
#     4  10  18  36  59  90 120 148 195 250 306 356
#     4  11  24  40  60  89 126 168 211 249 298 369
#     4  11  22  38  63  91 119 156 206 261 312 365
#     4  11  21  35  62  92 123 157 200 250 305 366
#     4  11  21  37  65  94 123 157 205 260 309 365
#     4  12  24  40  60  89 129 167 207 252 308 361
#     4  10  19  37  63  90 123 160 199 250 310 359
#     4  10  20  39  63  89 123 161 200 252 313 357
#
# _framework density 23.501481999999999
#
# number of rings (size 3 to 8) (size 9 to 14) (size 15 to 20)
#    0.000    1.250    3.750    3.750    0.000    1.000 
#    0.000    0.000    0.000   10.500    0.000    0.000 
#    0.000    0.000    0.000    0.000    0.000    0.000 
#
# Total GULP energy -89099.517237 kJ/mol
# GULP energy per Si atom -5568.719827 kJ/mol
# Density = 2.344799 g / cm^3
# Si number density = 23.501482 Si / 1000 Ang^3
#
#
#
# Elastic Constant Matrix: (Units=GPa)
#
#
# Indices 1 2 3 4 5 6 
#
# 1 25.1509 9.9362 16.3155 -0.0002 9.0941 0.0002
# 2 9.9362 114.9843 11.5420 -0.0005 13.5519 0.0007
# 3 16.3155 11.5420 117.5046 -0.0009 19.0243 0.0016
# 4 -0.0002 -0.0005 -0.0009 13.7393 0.0004 3.6757
# 5 9.0941 13.5519 19.0243 0.0004 30.4246 -0.0007
# 6 0.0002 0.0007 0.0016 3.6757 -0.0007 -2.7663
#
#
#
# Elastic Compliance Matrix: (Units=1/GPa)
#
#
# Indices 1 2 3 4 5 6 
#
# 1 0.047445 -0.002431 -0.004704 0.000000 -0.010157 0.000003
# 2 -0.002431 0.009311 -0.000026 0.000000 -0.003405 0.000003
# 3 -0.004704 -0.000026 0.009943 -0.000001 -0.004800 0.000006
# 4 0.000000 0.000000 -0.000001 0.053696 0.000002 0.071348
# 5 -0.010157 -0.003405 -0.004800 0.000002 0.040422 -0.000012
# 6 0.000003 0.000003 0.000006 0.071348 -0.000012 -0.266691
#
#
# Mechanical properties :
#
#
# Convention : Reuss Voigt Hill
#
# Bulk Modulus (GPa) = 19.09241 37.02525 28.05883
# Shear Modulus (GPa) = -67.48202 22.93592 -22.27305
#
# Velocity S-wave (km/s) = -5.36435 3.12739 -3.08186
# Velocity P-wave (km/s) = 5.49789 5.36930 0.83590
#
# Compressibility (1/GPa) = 0.05237684
#
# Stress axis : x y z
#
# Youngs Moduli (GPa) = 21.07718 107.40302 100.57193
#
# Poissons Ratio (x) = 0.26105 0.47314
# Poissons Ratio (y) = 0.05123 0.00260
# Poissons Ratio (z) = 0.09916 0.00278
#
# Static dielectric constant tensor:
#      x y z
#    x 1.934290 0.000000 0.010550 
#    y 0.000000 2.012860 0.000000 
#    z 0.010550 0.000000 1.888170 
# 
# From -- ./inp_files/27986.got.cif
#   From: 2010.05.17/outbox.cif.g08.bks.cpg/sg8_14_cif.got.tgz:27986.got - 2010.06.03 19:46:02.
