data_PCOD9131628
_publ_section_title
;
Structure prediction by ZEFSAII (Michael W. Deem and Ramdas Pophale) SiO2 
 PCOD9131628
Probable space group: C M
;
_chemical_formula_sum "Si O2"
_cell_formula_units_Z 26
_cell_length_a 20.108214
_cell_length_b 7.430316
_cell_length_c 9.402628
_cell_angle_alpha 90.000000
_cell_angle_beta 136.921159
_cell_angle_gamma 90.000000
_cell_volume 959.518464
_symmetry_space_group_name_H-M "C M"
_symmetry_group_IT_number 8
_symmetry_cell_setting 'monoclinic'
loop_
_space_group_symop_operation_xyz
x,y,z
x,-y,z
1/2+x,1/2+y,z
1/2+x,1/2-y,z
loop_
_atom_site_type_symbol
_atom_site_label
_atom_site_fract_x
_atom_site_fract_y
_atom_site_fract_z
Si Si1 0.596740 0.789586 0.837240
Si Si2 0.401479 0.213505 0.341139
Si Si3 0.013099 0.000000 0.345806
Si Si4 0.684943 0.777615 0.694040
Si Si5 0.579031 0.793150 0.125348
Si Si6 0.286614 0.206764 0.425693
Si Si7 0.877168 0.204956 0.842817
O O1 0.496807 0.770606 0.593618
O O2 0.676463 0.728327 0.848274
O O3 0.587769 0.711368 0.980033
O O4 0.613569 0.000000 0.889497
O O5 0.428520 0.343885 0.255442
O O6 0.317902 0.279322 0.321042
O O7 0.391233 0.000000 0.291732
O O8 0.100244 0.840145 0.488507
O O9 0.790304 0.720005 0.801065
O O10 0.669293 0.000000 0.659059
O O11 0.489829 0.699618 0.065605
O O12 0.547951 0.000000 0.076072
O O13 0.690494 0.788165 0.347106
O O14 0.371018 0.214899 0.675030
O O15 0.264973 0.000000 0.368313
O O16 0.849732 0.000000 0.780730
#
# Coordination Sequence:
#
# PCOD9131628 Si02
#       7
#     4   4   2   4   4   4   4
#     4   8  15  34  58  84 115 154 193 249 312 358
#     4   9  18  33  56  88 119 152 199 258 306 360
#     4  10  18  30  62  86 114 158 202 248 304 382
#     4   9  20  36  58  91 123 159 206 256 311 376
#     4  11  22  37  64  92 122 165 210 257 312 378
#     4  11  23  39  60  91 132 162 208 263 313 368
#     4  11  23  39  64  90 125 167 212 258 311 376
#
# _framework density 27.096927000000001
#
# number of rings (size 3 to 8) (size 9 to 14) (size 15 to 20)
#    0.000    2.154    1.538    2.769    4.308    0.000 
#    5.538    0.000    6.769    0.000    0.000    0.000 
#    0.000    0.000    0.000    0.000    0.000    0.000 
#
# Total GULP energy -72434.733427 kJ/mol
# GULP energy per Si atom -5571.902571 kJ/mol
# Density = 2.703525 g / cm^3
# Si number density = 27.096927 Si / 1000 Ang^3
#
#
#
# Elastic Constant Matrix: (Units=GPa)
#
#
# Indices 1 2 3 4 5 6 
#
# 1 185.3811 14.9779 33.2821 0.0000 38.6427 0.0000
# 2 14.9779 119.0405 1.6836 0.0000 14.3198 0.0000
# 3 33.2821 1.6836 108.6996 0.0000 10.2972 0.0000
# 4 0.0000 0.0000 0.0000 6.9592 0.0000 36.2577
# 5 38.6427 14.3198 10.2972 0.0000 47.9361 0.0000
# 6 0.0000 0.0000 0.0000 36.2577 0.0000 -10.3776
#
#
#
# Elastic Compliance Matrix: (Units=1/GPa)
#
#
# Indices 1 2 3 4 5 6 
#
# 1 0.006746 -0.000221 -0.001585 0.000000 -0.005031 0.000000
# 2 -0.000221 0.008722 0.000166 0.000000 -0.002463 0.000000
# 3 -0.001585 0.000166 0.009765 0.000000 -0.000869 0.000000
# 4 0.000000 0.000000 0.000000 0.007483 0.000000 0.026144
# 5 -0.005031 -0.002463 -0.000869 0.000000 0.025839 0.000000
# 6 0.000000 0.000000 0.000000 0.026144 0.000000 -0.005018
#
#
# Mechanical properties :
#
#
# Convention : Reuss Voigt Hill
#
# Bulk Modulus (GPa) = 45.55478 57.00093 51.27786
# Shear Modulus (GPa) = 77.96051 33.11540 55.53795
#
# Velocity S-wave (km/s) = 5.36968 3.49966 4.53217
# Velocity P-wave (km/s) = 7.43592 6.11652 6.80825
#
# Compressibility (1/GPa) = 0.02195159
#
# Stress axis : x y z
#
# Youngs Moduli (GPa) = 148.24639 114.64928 102.40818
#
# Poissons Ratio (x) = 0.02535 0.16235
# Poissons Ratio (y) = 0.03278 -0.01699
# Poissons Ratio (z) = 0.23502 -0.01902
#
# Static dielectric constant tensor:
#      x y z
#    x 2.240540 0.000000 -0.039800 
#    y 0.000000 2.033740 0.000000 
#    z -0.039800 0.000000 2.135520 
# 
# From -- ./inp_files/23927.got.cif
#   From: 2010.05.17/outbox.cif.g08.bks.cpg/sg8_12_cif.got.tgz:23927.got - 2010.06.03 19:46:02.
