data_PCOD9131020
_publ_section_title
;
Structure prediction by ZEFSAII (Michael W. Deem and Ramdas Pophale) SiO2 
 PCOD9131020
Probable space group: P M
;
_chemical_formula_sum "Si O2"
_cell_formula_units_Z 16
_cell_length_a 20.055140
_cell_length_b 7.756828
_cell_length_c 9.921674
_cell_angle_alpha 90.000000
_cell_angle_beta 151.046384
_cell_angle_gamma 90.000000
_cell_volume 747.190188
_symmetry_space_group_name_H-M "P M"
_symmetry_group_IT_number 6
_symmetry_cell_setting 'monoclinic'
loop_
_space_group_symop_operation_xyz
x,y,z
x,-y,z
loop_
_atom_site_type_symbol
_atom_site_label
_atom_site_fract_x
_atom_site_fract_y
_atom_site_fract_z
Si Si1 0.543750 0.792704 0.628280
Si Si2 0.688981 0.291927 0.155652
Si Si3 0.510430 0.697143 0.072590
Si Si4 0.245092 0.709629 0.761544
Si Si5 0.979160 0.703923 0.786373
Si Si6 0.695353 0.795371 0.629272
Si Si7 0.237785 0.202964 0.062896
Si Si8 0.002603 0.708021 0.133699
O O1 0.605118 0.731659 0.594935
O O2 0.387999 0.726637 0.372904
O O3 0.535892 0.000000 0.605881
O O4 0.648339 0.748280 0.931860
O O5 0.690047 0.500000 0.171432
O O6 0.564967 0.222956 0.030905
O O7 0.837640 0.226678 0.469521
O O8 0.468686 0.500000 0.969614
O O9 0.643573 0.701869 0.403882
O O10 0.386545 0.772582 0.941600
O O11 0.247630 0.500000 0.772460
O O12 0.123178 0.766266 0.446422
O O13 0.228008 0.769963 0.884613
O O14 0.957130 0.500000 0.764390
O O15 0.108760 0.724961 0.916828
O O16 0.008840 0.772654 0.989741
O O17 0.673991 0.000000 0.573910
O O18 0.855398 0.760393 0.932329
O O19 0.236790 0.000000 0.088014
O O20 0.011228 0.500000 0.145660
#
# Coordination Sequence:
#
# PCOD9131020 Si02
#       8
#     2   2   2   2   2   2   2   2
#     4  10  24  42  58  85 122 158 197 242 293 348
#     4  10  22  39  63  91 117 152 198 246 295 347
#     4  10  20  39  64  90 117 150 197 249 298 348
#     4  10  22  39  64  92 117 153 198 244 298 351
#     4  10  22  41  62  88 121 155 195 244 294 351
#     4  11  22  39  62  87 118 157 199 243 294 352
#     4  11  24  42  60  84 123 162 196 241 293 352
#     4  10  22  41  63  89 121 153 194 249 297 347
#
# _framework density 21.413556
#
# number of rings (size 3 to 8) (size 9 to 14) (size 15 to 20)
#    0.000    1.750    2.500    0.750    3.500    4.000 
#    0.000    0.000    0.000    0.000    0.000    0.000 
#    0.000    0.000    0.000    0.000    0.000    0.000 
#
# Total GULP energy -89361.961589 kJ/mol
# GULP energy per Si atom -5585.122599 kJ/mol
# Density = 2.136482 g / cm^3
# Si number density = 21.413556 Si / 1000 Ang^3
#
#
#
# Elastic Constant Matrix: (Units=GPa)
#
#
# Indices 1 2 3 4 5 6 
#
# 1 79.2001 -9.0605 12.9507 0.0000 10.9296 0.0000
# 2 -9.0605 24.4405 -2.2082 0.0000 -3.4559 0.0000
# 3 12.9507 -2.2082 97.6405 0.0000 9.8810 0.0000
# 4 0.0000 0.0000 0.0000 26.6321 0.0000 -13.5385
# 5 10.9296 -3.4559 9.8810 0.0000 34.8212 0.0000
# 6 0.0000 0.0000 0.0000 -13.5385 0.0000 27.8208
#
#
#
# Elastic Compliance Matrix: (Units=1/GPa)
#
#
# Indices 1 2 3 4 5 6 
#
# 1 0.013853 0.004515 -0.001380 0.000000 -0.003508 0.000000
# 2 0.004515 0.042997 0.000088 0.000000 0.002825 0.000000
# 3 -0.001380 0.000088 0.010689 0.000000 -0.002591 0.000000
# 4 0.000000 0.000000 0.000000 0.049891 0.000000 0.024278
# 5 -0.003508 0.002825 -0.002591 0.000000 0.030835 0.000000
# 6 0.000000 0.000000 0.000000 0.024278 0.000000 0.047759
#
#
# Mechanical properties :
#
#
# Convention : Reuss Voigt Hill
#
# Bulk Modulus (GPa) = 13.51673 22.73833 18.12753
# Shear Modulus (GPa) = 23.33836 31.16143 27.24990
#
# Velocity S-wave (km/s) = 3.30493 3.81887 3.57116
# Velocity P-wave (km/s) = 4.57048 5.48514 5.04857
#
# Compressibility (1/GPa) = 0.07398236
#
# Stress axis : x y z
#
# Youngs Moduli (GPa) = 72.18890 23.25757 93.55475
#
# Poissons Ratio (x) = -0.10500 0.12913
# Poissons Ratio (y) = -0.32590 -0.00820
# Poissons Ratio (z) = 0.09964 -0.00204
#
# Static dielectric constant tensor:
#      x y z
#    x 1.747850 0.000000 0.016730 
#    y 0.000000 1.816190 0.000000 
#    z 0.016730 0.000000 1.748880 
# 
# From -- ./inp_files/3458.got.cif
#   From: 2010.05.17/outbox.cif.g08.bks.cpg/sg6_2_cif.got.tgz:3458.got - 2010.06.03 19:42:10.
