data_PCOD9131166
_publ_section_title
;
Structure prediction by ZEFSAII (Michael W. Deem and Ramdas Pophale) SiO2 
 PCOD9131166
Probable space group: P M
;
_chemical_formula_sum "Si O2"
_cell_formula_units_Z 13
_cell_length_a 8.619015
_cell_length_b 13.410146
_cell_length_c 5.215938
_cell_angle_alpha 90.000000
_cell_angle_beta 117.147659
_cell_angle_gamma 90.000000
_cell_volume 536.453829
_symmetry_space_group_name_H-M "P M"
_symmetry_group_IT_number 6
_symmetry_cell_setting 'monoclinic'
loop_
_space_group_symop_operation_xyz
x,y,z
x,-y,z
loop_
_atom_site_type_symbol
_atom_site_label
_atom_site_fract_x
_atom_site_fract_y
_atom_site_fract_z
Si Si1 0.757900 0.165382 0.988550
Si Si2 0.916916 0.670296 0.777163
Si Si3 0.700684 0.500000 0.405940
Si Si4 0.581892 0.000000 0.537191
Si Si5 0.088002 0.170366 0.536770
Si Si6 0.469490 0.500000 0.728353
Si Si7 0.416098 0.165987 0.088881
Si Si8 0.254872 0.332113 0.292528
O O1 0.797229 0.274897 0.899907
O O2 0.714764 0.087532 0.736222
O O3 0.589233 0.168253 0.045212
O O4 0.924415 0.123354 0.269347
O O5 0.818759 0.598722 0.505224
O O6 0.998050 0.761719 0.683712
O O7 0.085847 0.618441 0.032121
O O8 0.620780 0.500000 0.630713
O O9 0.555110 0.500000 0.074289
O O10 0.450054 0.087791 0.337156
O O11 0.174479 0.242572 0.393814
O O12 0.254050 0.123952 0.801296
O O13 0.354870 0.404361 0.561162
O O14 0.374825 0.275884 0.172361
#
# Coordination Sequence:
#
# PCOD9131166 Si02
#       8
#     2   2   1   1   2   1   2   2
#     4  11  25  46  74 106 143 194 244 312 374 447
#     4  10  25  48  73 103 146 197 248 306 371 443
#     4  12  31  43  74 116 151 199 253 314 374 450
#     4  12  26  42  74 106 150 186 244 310 380 454
#     4  10  24  44  76  98 146 194 246 304 366 450
#     4  12  31  43  74 116 151 199 253 314 374 450
#     4  11  25  46  74 106 143 194 244 312 374 447
#     4  10  25  48  73 103 146 197 248 306 371 443
#
# _framework density 24.233212000000002
#
# number of rings (size 3 to 8) (size 9 to 14) (size 15 to 20)
#    0.000    1.231    0.000    2.769   15.077    1.231 
#    0.000   14.615    0.000    0.000    0.000    0.000 
#    0.000    0.000    0.000    0.000    0.000    0.000 
#
# Total GULP energy -72450.246478 kJ/mol
# GULP energy per Si atom -5573.095883 kJ/mol
# Density = 2.417806 g / cm^3
# Si number density = 24.233212 Si / 1000 Ang^3
#
#
#
# Elastic Constant Matrix: (Units=GPa)
#
#
# Indices 1 2 3 4 5 6 
#
# 1 82.3658 26.2717 2.2684 0.0000 17.6066 0.0000
# 2 26.2717 104.5382 54.6219 0.0000 26.7243 0.0000
# 3 2.2684 54.6219 172.1670 0.0000 64.3236 0.0000
# 4 0.0000 0.0000 0.0000 123.0649 0.0000 93.8917
# 5 17.6066 26.7243 64.3236 0.0000 54.0312 0.0000
# 6 0.0000 0.0000 0.0000 93.8917 0.0000 52.7416
#
#
#
# Elastic Compliance Matrix: (Units=1/GPa)
#
#
# Indices 1 2 3 4 5 6 
#
# 1 0.014853 -0.003809 0.003813 0.000000 -0.007496 0.000000
# 2 -0.003809 0.012621 -0.003756 0.000000 -0.000530 0.000000
# 3 0.003813 -0.003756 0.012103 0.000000 -0.013793 0.000000
# 4 0.000000 0.000000 0.000000 -0.022684 0.000000 0.040383
# 5 -0.007496 -0.000530 -0.013793 0.000000 0.037633 0.000000
# 6 0.000000 0.000000 0.000000 0.040383 0.000000 -0.052931
#
#
# Mechanical properties :
#
#
# Convention : Reuss Voigt Hill
#
# Bulk Modulus (GPa) = 31.17827 58.37720 44.77774
# Shear Modulus (GPa) = 252.64969 64.36147 158.50558
#
# Velocity S-wave (km/s) = 10.22174 5.15915 8.09632
# Velocity P-wave (km/s) = 12.33717 7.72212 10.29167
#
# Compressibility (1/GPa) = 0.03207362
#
# Stress axis : x y z
#
# Youngs Moduli (GPa) = 67.32576 79.23214 82.62354
#
# Poissons Ratio (x) = 0.30180 -0.31506
# Poissons Ratio (y) = 0.25644 0.31034
# Poissons Ratio (z) = -0.25673 0.29760
#
# Static dielectric constant tensor:
#      x y z
#    x 1.999760 0.000000 -0.002690 
#    y 0.000000 1.479800 0.000000 
#    z -0.002690 0.000000 2.030590 
# 
# From -- ./inp_files/1149.got.cif
#   From: 2010.05.17/outbox.cif.g08.bks.cpg/sg6_1_cif.got.tgz:1149.got - 2010.06.03 19:42:10.
