data_PCOD9131063
_publ_section_title
;
Structure prediction by ZEFSAII (Michael W. Deem and Ramdas Pophale) SiO2 
 PCOD9131063
Probable space group: P M
;
_chemical_formula_sum "Si O2"
_cell_formula_units_Z 14
_cell_length_a 5.154573
_cell_length_b 19.703346
_cell_length_c 4.792581
_cell_angle_alpha 90.000000
_cell_angle_beta 87.947931
_cell_angle_gamma 90.000000
_cell_volume 486.433568
_symmetry_space_group_name_H-M "P M"
_symmetry_group_IT_number 6
_symmetry_cell_setting 'monoclinic'
loop_
_space_group_symop_operation_xyz
x,y,z
x,-y,z
loop_
_atom_site_type_symbol
_atom_site_label
_atom_site_fract_x
_atom_site_fract_y
_atom_site_fract_z
Si Si1 0.458650 0.214410 0.450110
Si Si2 0.838156 0.647416 0.060874
Si Si3 0.969165 0.212702 0.063291
Si Si4 0.318501 0.646036 0.421165
Si Si5 0.474429 0.500000 0.399355
Si Si6 0.332997 0.073354 0.463336
Si Si7 0.796779 0.500000 0.862614
Si Si8 0.843675 0.927282 0.075034
O O1 0.745494 0.212787 0.312415
O O2 0.400321 0.287320 0.590699
O O3 0.392679 0.144675 0.612307
O O4 0.248204 0.213431 0.202069
O O5 0.908547 0.717582 0.904575
O O6 0.540437 0.648019 0.169356
O O7 0.904310 0.574326 0.930562
O O8 0.030606 0.652243 0.316975
O O9 0.907281 0.141945 0.912177
O O10 0.352226 0.569018 0.517337
O O11 0.531632 0.500000 0.067641
O O12 0.755313 0.500000 0.533879
O O13 0.559833 0.074083 0.220244
O O14 0.058571 0.074053 0.314619
O O15 0.361363 0.000000 0.608644
O O16 0.873793 0.000000 0.927091
#
# Coordination Sequence:
#
# PCOD9131063 Si02
#       8
#     2   2   2   2   1   2   1   2
#     4   8  13  21  35  54  80 115 154 196 242 293
#     4   9  17  31  49  71  98 131 170 212 259 310
#     4   8  13  21  35  54  80 115 154 196 242 293
#     4   9  17  31  49  71  98 131 170 212 259 310
#     4  10  21  38  58  82 110 142 180 222 270 322
#     4   8  12  17  26  44  72 107 146 188 234 284
#     4  10  21  38  58  82 110 142 180 222 270 322
#     4   8  12  17  26  44  72 107 146 188 234 284
#
# _framework density 28.780905000000001
#
# number of rings (size 3 to 8) (size 9 to 14) (size 15 to 20)
#    0.000    3.429    0.000    0.429    0.000    0.000 
#    0.000   11.429    0.000    0.000    0.000    0.000 
#    0.000    1.143    0.000    0.857    0.000  435.143 
#
# Total GULP energy -78268.756880 kJ/mol
# GULP energy per Si atom -5590.625491 kJ/mol
# Density = 2.871540 g / cm^3
# Si number density = 28.780905 Si / 1000 Ang^3
#
#
#
# Elastic Constant Matrix: (Units=GPa)
#
#
# Indices 1 2 3 4 5 6 
#
# 1 171.6578 -1.5410 56.5370 0.0000 -9.4327 0.0000
# 2 -1.5410 335.5226 26.4108 0.0000 1.0695 0.0000
# 3 56.5370 26.4108 79.4820 0.0000 3.0767 0.0000
# 4 0.0000 0.0000 0.0000 -32.8820 0.0000 20.6812
# 5 -9.4327 1.0695 3.0767 0.0000 60.9196 0.0000
# 6 0.0000 0.0000 0.0000 20.6812 0.0000 30.0808
#
#
#
# Elastic Compliance Matrix: (Units=1/GPa)
#
#
# Indices 1 2 3 4 5 6 
#
# 1 0.007815 0.000486 -0.005778 0.000000 0.001493 0.000000
# 2 0.000486 0.003091 -0.001376 0.000000 0.000090 0.000000
# 3 -0.005778 -0.001376 0.017216 0.000000 -0.001740 0.000000
# 4 0.000000 0.000000 0.000000 -0.021231 0.000000 0.014597
# 5 0.001493 0.000090 -0.001740 0.000000 0.016733 0.000000
# 6 0.000000 0.000000 0.000000 0.014597 0.000000 0.023208
#
#
# Mechanical properties :
#
#
# Convention : Reuss Voigt Hill
#
# Bulk Modulus (GPa) = 67.63575 83.27512 75.45544
# Shear Modulus (GPa) = 76.80822 45.30739 61.05780
#
# Velocity S-wave (km/s) = 5.17157 3.97194 4.61094
# Velocity P-wave (km/s) = 7.69490 7.07334 7.39065
#
# Compressibility (1/GPa) = 0.01478508
#
# Stress axis : x y z
#
# Youngs Moduli (GPa) = 127.95727 323.55175 58.08440
#
# Poissons Ratio (x) = -0.15724 0.33563
# Poissons Ratio (y) = -0.06218 0.07993
# Poissons Ratio (z) = 0.73938 0.44527
#
# Static dielectric constant tensor:
#      x y z
#    x 2.157300 0.000000 0.018840 
#    y 0.000000 2.404070 0.000000 
#    z 0.018840 0.000000 2.081360 
# 
# From -- ./inp_files/566.got.cif
#   From: 2010.05.17/outbox.cif.g08.bks.cpg/sg6_1_cif.got.tgz:566.got - 2010.06.03 19:42:10.
