data_PCOD9131625
_publ_section_title
;
Structure prediction by ZEFSAII (Michael W. Deem and Ramdas Pophale) SiO2 
 PCOD9131625
Probable space group: C M
;
_chemical_formula_sum "Si O2"
_cell_formula_units_Z 26
_cell_length_a 18.679972
_cell_length_b 7.242786
_cell_length_c 7.410486
_cell_angle_alpha 90.000000
_cell_angle_beta 108.684887
_cell_angle_gamma 90.000000
_cell_volume 949.759672
_symmetry_space_group_name_H-M "C M"
_symmetry_group_IT_number 8
_symmetry_cell_setting 'monoclinic'
loop_
_space_group_symop_operation_xyz
x,y,z
x,-y,z
1/2+x,1/2+y,z
1/2+x,1/2-y,z
loop_
_atom_site_type_symbol
_atom_site_label
_atom_site_fract_x
_atom_site_fract_y
_atom_site_fract_z
Si Si1 0.669780 0.793838 0.801360
Si Si2 0.269849 0.724424 0.215271
Si Si3 0.049801 0.778259 0.980716
Si Si4 0.272850 0.000000 0.558779
Si Si5 0.934722 0.778564 0.408656
Si Si6 0.885660 0.220119 0.776270
Si Si7 0.591228 0.285495 0.384968
O O1 0.653332 0.709326 0.592506
O O2 0.696798 0.000000 0.788953
O O3 0.720166 0.716394 0.004067
O O4 0.587339 0.797662 0.831101
O O5 0.263343 0.500000 0.237476
O O6 0.254782 0.839390 0.385315
O O7 0.358124 0.762908 0.240145
O O8 0.099345 0.709810 0.190385
O O9 0.052347 0.000000 0.954353
O O10 0.961909 0.735869 0.948544
O O11 0.310639 0.839399 0.725454
O O12 0.915116 0.728186 0.597809
O O13 0.013636 0.705475 0.401452
O O14 0.942471 0.000000 0.417977
O O15 0.871944 0.000000 0.778262
O O16 0.577799 0.500000 0.335726
#
# Coordination Sequence:
#
# PCOD9131625 Si02
#       7
#     4   4   4   2   4   4   4
#     4  11  23  37  59  86 121 164 203 248 300 360
#     4   9  20  35  55  87 118 155 203 247 301 364
#     4  10  21  36  59  90 124 156 199 251 304 359
#     4  10  18  30  60  84 112 156 192 242 302 358
#     4   8  14  31  56  79 110 146 187 244 297 348
#     4   9  17  31  53  86 117 148 193 246 296 357
#     4  10  20  36  63  89 114 157 204 250 304 360
#
# _framework density 27.375346
#
# number of rings (size 3 to 8) (size 9 to 14) (size 15 to 20)
#    0.000    2.462    1.538    1.846    3.231    0.615 
#    0.000    0.000    6.769    0.000    0.000    0.000 
#    0.000    0.000    0.000    0.000    0.000    0.000 
#
# Total GULP energy -72444.378328 kJ/mol
# GULP energy per Si atom -5572.644487 kJ/mol
# Density = 2.731304 g / cm^3
# Si number density = 27.375346 Si / 1000 Ang^3
#
#
#
# Elastic Constant Matrix: (Units=GPa)
#
#
# Indices 1 2 3 4 5 6 
#
# 1 101.0572 -7.6418 36.3624 0.0000 8.9844 0.0000
# 2 -7.6418 150.1194 17.8504 0.0000 8.4708 0.0000
# 3 36.3624 17.8504 161.5258 0.0000 13.6601 0.0000
# 4 0.0000 0.0000 0.0000 18.1520 0.0000 33.5335
# 5 8.9844 8.4708 13.6601 0.0000 55.0790 0.0000
# 6 0.0000 0.0000 0.0000 33.5335 0.0000 -18.0198
#
#
#
# Elastic Compliance Matrix: (Units=1/GPa)
#
#
# Indices 1 2 3 4 5 6 
#
# 1 0.010968 0.000925 -0.002460 0.000000 -0.001321 0.000000
# 2 0.000925 0.006869 -0.000884 0.000000 -0.000988 0.000000
# 3 -0.002460 -0.000884 0.006943 0.000000 -0.001185 0.000000
# 4 0.000000 0.000000 0.000000 0.012414 0.000000 0.023101
# 5 -0.001321 -0.000988 -0.001185 0.000000 0.018817 0.000000
# 6 0.000000 0.000000 0.000000 0.023101 0.000000 -0.012505
#
#
# Mechanical properties :
#
#
# Convention : Reuss Voigt Hill
#
# Bulk Modulus (GPa) = 50.14170 56.20490 53.17330
# Shear Modulus (GPa) = 90.92608 35.45100 63.18854
#
# Velocity S-wave (km/s) = 5.76946 3.60251 4.80961
# Velocity P-wave (km/s) = 7.92076 6.15466 7.09289
#
# Compressibility (1/GPa) = 0.01994348
#
# Stress axis : x y z
#
# Youngs Moduli (GPa) = 91.17565 145.57458 144.03987
#
# Poissons Ratio (x) = -0.13471 0.35428
# Poissons Ratio (y) = -0.08437 0.12731
# Poissons Ratio (z) = 0.22425 0.12867
#
# Static dielectric constant tensor:
#      x y z
#    x 2.312850 0.000000 0.041220 
#    y 0.000000 1.812660 0.000000 
#    z 0.041220 0.000000 2.116180 
# 
# From -- ./inp_files/15676.got.cif
#   From: 2010.05.17/outbox.cif.g08.bks.cpg/sg8_8_cif.got.tgz:15676.got - 2010.06.03 19:46:02.
