data_PCOD9131682
_publ_section_title
;
Structure prediction by ZEFSAII (Michael W. Deem and Ramdas Pophale) SiO2 
 PCOD9131682
Probable space group: C M
;
_chemical_formula_sum "Si O2"
_cell_formula_units_Z 26
_cell_length_a 19.862784
_cell_length_b 7.639291
_cell_length_c 18.295229
_cell_angle_alpha 90.000000
_cell_angle_beta 20.492825
_cell_angle_gamma 90.000000
_cell_volume 971.875939
_symmetry_space_group_name_H-M "C M"
_symmetry_group_IT_number 8
_symmetry_cell_setting 'monoclinic'
loop_
_space_group_symop_operation_xyz
x,y,z
x,-y,z
1/2+x,1/2+y,z
1/2+x,1/2-y,z
loop_
_atom_site_type_symbol
_atom_site_label
_atom_site_fract_x
_atom_site_fract_y
_atom_site_fract_z
Si Si1 0.951010 0.314385 0.512470
Si Si2 0.493848 0.792441 0.098685
Si Si3 0.205719 0.500000 0.152677
Si Si4 0.538069 0.296225 0.582487
Si Si5 0.573001 0.196247 0.858465
Si Si6 0.614168 0.207420 0.664035
Si Si7 0.566223 0.296737 0.184145
O O1 0.858720 0.500000 0.584237
O O2 0.807102 0.180219 0.622109
O O3 0.159396 0.345005 0.265098
O O4 0.954092 0.292965 0.595965
O O5 0.534798 0.721546 0.976272
O O6 0.538347 0.000000 0.052923
O O7 0.267009 0.771095 0.340700
O O8 0.596289 0.715412 0.065756
O O9 0.174864 0.653817 0.121144
O O10 0.492387 0.500000 0.622201
O O11 0.505692 0.241662 0.698825
O O12 0.534914 0.291375 0.819869
O O13 0.485830 0.000000 0.948599
O O14 0.838625 0.253295 0.425770
O O15 0.607605 0.000000 0.682449
O O16 0.596516 0.500000 0.175230
#
# Coordination Sequence:
#
# PCOD9131682 Si02
#       7
#     4   4   2   4   4   4   4
#     4  10  21  34  54  80 109 144 186 233 283 328
#     4   9  19  34  57  85 117 145 183 235 284 336
#     4  10  20  34  58  80 116 142 192 240 278 328
#     4  10  20  34  56  78 109 149 190 230 284 339
#     4  10  19  34  58  86 112 144 186 236 284 333
#     4   9  17  30  53  79 108 143 189 230 271 332
#     4  10  18  32  55  85 109 147 189 233 279 333
#
# _framework density 26.752383999999999
#
# number of rings (size 3 to 8) (size 9 to 14) (size 15 to 20)
#    0.462    1.846    2.308    0.923    1.077    2.462 
#    0.000    0.000    3.385    0.000    0.000    0.000 
#    0.000    0.000    0.000    0.000    0.000    0.000 
#
# Total GULP energy -72392.825792 kJ/mol
# GULP energy per Si atom -5568.678907 kJ/mol
# Density = 2.669149 g / cm^3
# Si number density = 26.752384 Si / 1000 Ang^3
#
#
#
# Elastic Constant Matrix: (Units=GPa)
#
#
# Indices 1 2 3 4 5 6 
#
# 1 175.5867 24.3147 58.4197 -0.0006 39.9943 0.0003
# 2 24.3147 87.6451 -11.4947 -0.0007 16.8060 0.0007
# 3 58.4197 -11.4947 140.0704 -0.0003 54.6742 0.0006
# 4 -0.0006 -0.0007 -0.0003 -1.3128 0.0004 32.4340
# 5 39.9943 16.8060 54.6742 0.0004 69.7191 -0.0003
# 6 0.0003 0.0007 0.0006 32.4340 -0.0003 8.3936
#
#
#
# Elastic Compliance Matrix: (Units=1/GPa)
#
#
# Indices 1 2 3 4 5 6 
#
# 1 0.007188 -0.002003 -0.002509 0.000000 -0.001673 0.000000
# 2 -0.002003 0.013489 0.003982 0.000000 -0.005226 0.000000
# 3 -0.002509 0.003982 0.011998 0.000000 -0.008929 0.000000
# 4 0.000000 0.000000 0.000000 -0.007896 0.000001 0.030512
# 5 -0.001673 -0.005226 -0.008929 0.000001 0.023565 0.000000
# 6 0.000000 0.000000 0.000000 0.030512 0.000000 0.001235
#
#
# Mechanical properties :
#
#
# Convention : Reuss Voigt Hill
#
# Bulk Modulus (GPa) = 31.62969 60.64240 46.13604
# Shear Modulus (GPa) = 81.72806 37.49749 59.61277
#
# Velocity S-wave (km/s) = 5.53319 3.74792 4.72563
# Velocity P-wave (km/s) = 7.25743 6.43789 6.85991
#
# Compressibility (1/GPa) = 0.03161586
#
# Stress axis : x y z
#
# Youngs Moduli (GPa) = 139.11134 74.13205 83.34693
#
# Poissons Ratio (x) = 0.14845 0.20915
# Poissons Ratio (y) = 0.27858 -0.33188
# Poissons Ratio (z) = 0.34909 -0.29519
#
# Static dielectric constant tensor:
#      x y z
#    x 2.084700 0.000000 -0.068260 
#    y 0.000000 2.042520 0.000000 
#    z -0.068260 0.000000 2.302890 
# 
# From -- ./inp_files/23921.got.cif
#   From: 2010.05.17/outbox.cif.g08.bks.cpg/sg8_12_cif.got.tgz:23921.got - 2010.06.03 19:46:02.
