data_PCOD9131090
_publ_section_title
;
Structure prediction by ZEFSAII (Michael W. Deem and Ramdas Pophale) SiO2 
 PCOD9131090
Probable space group: P M
;
_chemical_formula_sum "Si O2"
_cell_formula_units_Z 14
_cell_length_a 5.051455
_cell_length_b 15.389977
_cell_length_c 10.432777
_cell_angle_alpha 90.000000
_cell_angle_beta 128.669699
_cell_angle_gamma 90.000000
_cell_volume 633.246026
_symmetry_space_group_name_H-M "P M"
_symmetry_group_IT_number 6
_symmetry_cell_setting 'monoclinic'
loop_
_space_group_symop_operation_xyz
x,y,z
x,-y,z
loop_
_atom_site_type_symbol
_atom_site_label
_atom_site_fract_x
_atom_site_fract_y
_atom_site_fract_z
Si Si1 0.767550 0.592837 0.661180
Si Si2 0.543525 0.249825 0.219537
Si Si3 0.227279 0.741205 0.861056
Si Si4 0.175753 0.347477 0.311533
Si Si5 0.821381 0.098252 0.647829
Si Si6 0.035619 0.097987 0.418273
Si Si7 0.752660 0.594038 0.964362
O O1 0.900741 0.500000 0.652410
O O2 0.409268 0.606409 0.485955
O O3 0.781619 0.589862 0.820111
O O4 0.975376 0.680199 0.702541
O O5 0.377145 0.266628 0.307377
O O6 0.828493 0.322343 0.277094
O O7 0.765786 0.162279 0.271660
O O8 0.254771 0.255898 0.023729
O O9 0.565799 0.685670 0.933773
O O10 0.105392 0.837081 0.788421
O O11 0.079948 0.401387 0.154853
O O12 0.429320 0.128056 0.546139
O O13 0.899922 0.093335 0.521647
O O14 0.843288 0.000000 0.708650
O O15 0.040739 0.000000 0.364172
O O16 0.588447 0.500000 0.952738
#
# Coordination Sequence:
#
# PCOD9131090 Si02
#       7
#     2   2   2   2   2   2   2
#     4  11  23  40  64  92 124 175 217 264 323 381
#     4  11  23  40  63  93 125 170 212 267 318 383
#     4  11  23  39  65  91 134 164 219 266 329 373
#     4  11  24  42  63  92 126 170 216 260 320 376
#     4  10  23  40  66  94 127 166 214 266 321 385
#     4  10  21  40  61  91 126 166 212 267 321 382
#     4  10  23  43  61  93 132 171 218 270 319 382
#
# _framework density 22.108311
#
# number of rings (size 3 to 8) (size 9 to 14) (size 15 to 20)
#    0.000    1.429    1.429    3.429    6.000    0.571 
#    0.000    1.429    0.000    6.000    0.000    0.000 
#    0.000    0.000    0.000    0.000    0.000    0.000 
#
# Total GULP energy -77942.704131 kJ/mol
# GULP energy per Si atom -5567.336009 kJ/mol
# Density = 2.205799 g / cm^3
# Si number density = 22.108311 Si / 1000 Ang^3
#
#
#
# Elastic Constant Matrix: (Units=GPa)
#
#
# Indices 1 2 3 4 5 6 
#
# 1 60.7303 -1.9588 -1.3139 0.0000 12.4949 0.0000
# 2 -1.9588 102.4545 36.6303 0.0000 18.4298 0.0000
# 3 -1.3139 36.6303 133.0051 0.0000 13.6042 0.0000
# 4 0.0000 0.0000 0.0000 81.3538 0.0000 4.3067
# 5 12.4949 18.4298 13.6042 0.0000 25.2955 0.0000
# 6 0.0000 0.0000 0.0000 4.3067 0.0000 37.4931
#
#
#
# Elastic Compliance Matrix: (Units=1/GPa)
#
#
# Indices 1 2 3 4 5 6 
#
# 1 0.018870 0.002118 0.000756 0.000000 -0.011270 0.000000
# 2 0.002118 0.012236 -0.002466 0.000000 -0.008635 0.000000
# 3 0.000756 -0.002466 0.008529 0.000000 -0.003164 0.000000
# 4 0.000000 0.000000 0.000000 0.012367 0.000000 -0.001421
# 5 -0.011270 -0.008635 -0.003164 0.000000 0.053092 0.000000
# 6 0.000000 0.000000 0.000000 -0.001421 0.000000 0.026835
#
#
# Mechanical properties :
#
#
# Convention : Reuss Voigt Hill
#
# Bulk Modulus (GPa) = 24.72172 40.32279 32.52226
# Shear Modulus (GPa) = 34.57918 46.35063 40.46491
#
# Velocity S-wave (km/s) = 3.95914 4.58375 4.28285
# Velocity P-wave (km/s) = 5.66622 6.80387 6.26094
#
# Compressibility (1/GPa) = 0.04045026
#
# Stress axis : x y z
#
# Youngs Moduli (GPa) = 52.99491 81.72800 117.25216
#
# Poissons Ratio (x) = -0.17309 -0.08863
# Poissons Ratio (y) = -0.11224 0.28910
# Poissons Ratio (z) = -0.04006 0.20151
#
# Static dielectric constant tensor:
#      x y z
#    x 1.846850 0.000000 0.031750 
#    y 0.000000 1.899070 0.000000 
#    z 0.031750 0.000000 1.808820 
# 
# From -- ./inp_files/1112.got.cif
#   From: 2010.05.17/outbox.cif.g08.bks.cpg/sg6_1_cif.got.tgz:1112.got - 2010.06.03 19:42:10.
