data_PCOD9131301
_publ_section_title
;
Structure prediction by ZEFSAII (Michael W. Deem and Ramdas Pophale) SiO2 
 PCOD9131301
Probable space group: P C
;
_chemical_formula_sum "Si O2"
_cell_formula_units_Z 16
_cell_length_a 17.215098
_cell_length_b 7.516249
_cell_length_c 5.538653
_cell_angle_alpha 90.000000
_cell_angle_beta 56.707495
_cell_angle_gamma 90.000000
_cell_volume 599.043445
_symmetry_space_group_name_H-M "P C"
_symmetry_group_IT_number 7
_symmetry_cell_setting 'monoclinic'
loop_
_space_group_symop_operation_xyz
x,y,z
x,-y,1/2+z
loop_
_atom_site_type_symbol
_atom_site_label
_atom_site_fract_x
_atom_site_fract_y
_atom_site_fract_z
Si Si1 0.557470 0.750967 0.741010
Si Si2 0.963665 0.903659 0.244156
Si Si3 0.766267 0.971094 0.099808
Si Si4 0.151881 0.116057 0.554601
Si Si5 0.323188 0.390744 0.206398
Si Si6 0.608725 0.366535 0.657775
Si Si7 0.819284 0.426237 0.396596
Si Si8 0.393056 0.961609 0.541042
O O1 0.538450 0.534683 0.766348
O O2 0.601509 0.759064 0.401039
O O3 0.477604 0.899402 0.886441
O O4 0.604403 0.747979 0.923444
O O5 0.051452 0.786795 0.177265
O O6 0.977038 0.949742 0.938713
O O7 0.852047 0.886539 0.451426
O O8 0.813898 0.779825 0.980654
O O9 0.716730 0.016998 0.937664
O O10 0.154498 0.027857 0.822681
O O11 0.232732 0.261814 0.378700
O O12 0.324505 0.499696 0.953973
O O13 0.407844 0.247576 0.047935
O O14 0.709643 0.461250 0.521713
O O15 0.860969 0.520319 0.564505
O O16 0.343099 0.020535 0.870246
#
# Coordination Sequence:
#
# PCOD9131301 Si02
#       8
#     2   2   2   2   2   2   2   2
#     4  10  20  40  66  91 126 167 220 276 330 399
#     4   8  16  32  60  89 124 169 219 267 309 370
#     4  10  21  38  59  94 134 177 229 263 318 394
#     4  10  19  38  72  98 126 179 225 268 324 392
#     4  12  26  46  68 101 143 172 215 284 345 398
#     4  10  19  40  66  94 125 167 213 286 340 376
#     4  12  21  38  67  95 133 174 210 272 353 389
#     4  12  26  48  68 100 129 179 231 264 335 422
#
# _framework density 26.709249
#
# number of rings (size 3 to 8) (size 9 to 14) (size 15 to 20)
#    0.000    1.500    2.500    3.750    0.000    0.000 
#   13.500    3.750    0.000   40.500    0.000    0.000 
#    0.000    0.000    0.000    0.000    0.000    0.000 
#
# Total GULP energy -89179.159740 kJ/mol
# GULP energy per Si atom -5573.697484 kJ/mol
# Density = 2.664846 g / cm^3
# Si number density = 26.709249 Si / 1000 Ang^3
#
#
#
# Elastic Constant Matrix: (Units=GPa)
#
#
# Indices 1 2 3 4 5 6 
#
# 1 97.2763 43.8942 74.6697 0.0000 42.5106 0.0000
# 2 43.8942 138.2845 73.0166 0.0000 26.8156 0.0000
# 3 74.6697 73.0166 205.7943 0.0000 88.5635 0.0000
# 4 0.0000 0.0000 0.0000 51.4794 0.0000 14.3413
# 5 42.5106 26.8156 88.5635 0.0000 69.4082 0.0000
# 6 0.0000 0.0000 0.0000 14.3413 0.0000 36.8443
#
#
#
# Elastic Compliance Matrix: (Units=1/GPa)
#
#
# Indices 1 2 3 4 5 6 
#
# 1 0.015739 -0.002667 -0.002350 0.000000 -0.005611 0.000000
# 2 -0.002667 0.009405 -0.003345 0.000000 0.002269 0.000000
# 3 -0.002350 -0.003345 0.012693 0.000000 -0.013465 0.000000
# 4 0.000000 0.000000 0.000000 0.021788 0.000000 -0.008481
# 5 -0.005611 0.002269 -0.013465 0.000000 0.034149 0.000000
# 6 0.000000 0.000000 0.000000 -0.008481 0.000000 0.030442
#
#
# Mechanical properties :
#
#
# Convention : Reuss Voigt Hill
#
# Bulk Modulus (GPa) = 47.36478 91.61289 69.48883
# Shear Modulus (GPa) = 33.78880 48.19803 40.99341
#
# Velocity S-wave (km/s) = 3.56063 4.25260 3.92191
# Velocity P-wave (km/s) = 5.88864 7.64770 6.82508
#
# Compressibility (1/GPa) = 0.02111273
#
# Stress axis : x y z
#
# Youngs Moduli (GPa) = 63.53512 106.33148 78.78164
#
# Poissons Ratio (x) = 0.28361 0.18511
# Poissons Ratio (y) = 0.16946 0.26356
# Poissons Ratio (z) = 0.14928 0.35572
#
# Static dielectric constant tensor:
#      x y z
#    x 2.212350 0.000000 -0.070310 
#    y 0.000000 2.154840 0.000000 
#    z -0.070310 0.000000 2.229900 
# 
# From -- ./inp_files/1269.got.cif
#   From: 2010.05.17/outbox.cif.g08.bks.cpg/sg7_cif.got.tgz:1269.got - 2010.06.03 19:44:50.
