data_PCOD9131194
_publ_section_title
;
Structure prediction by ZEFSAII (Michael W. Deem and Ramdas Pophale) SiO2 
 PCOD9131194
Probable space group: P M
;
_chemical_formula_sum "Si O2"
_cell_formula_units_Z 16
_cell_length_a 12.000000
_cell_length_b 9.000000
_cell_length_c 9.000000
_cell_angle_alpha 90.000000
_cell_angle_beta 130.000000
_cell_angle_gamma 90.000000
_cell_volume 744.595199
_symmetry_space_group_name_H-M "P M"
_symmetry_group_IT_number 6
_symmetry_cell_setting 'monoclinic'
loop_
_space_group_symop_operation_xyz
x,y,z
x,-y,z
loop_
_atom_site_type_symbol
_atom_site_label
_atom_site_fract_x
_atom_site_fract_y
_atom_site_fract_z
Si Si1 0.839240 0.825167 0.877550
Si Si2 0.575053 0.673124 0.162305
Si Si3 0.860681 0.829329 0.415873
Si Si4 0.975890 0.329388 0.251134
Si Si5 0.565248 0.828897 0.843589
Si Si6 0.999100 0.325950 0.778583
Si Si7 0.288188 0.829013 0.977788
Si Si8 0.241312 0.163781 0.579828
O O1 0.682108 0.801189 0.816025
O O2 0.866049 0.763249 0.737746
O O3 0.872433 0.000000 0.913718
O O4 0.950575 0.720473 0.062056
O O5 0.608663 0.500000 0.213741
O O6 0.699707 0.784395 0.321888
O O7 0.567015 0.711198 0.979238
O O8 0.426393 0.723031 0.111256
O O9 0.878139 0.789777 0.257556
O O10 0.968446 0.709104 0.579832
O O11 0.897695 0.000000 0.479046
O O12 0.934056 0.500000 0.239578
O O13 0.139123 0.293813 0.437526
O O14 0.400299 0.826722 0.645746
O O15 0.588748 0.000000 0.922085
O O16 0.001586 0.500000 0.810274
O O17 0.149649 0.242387 0.938779
O O18 0.260931 0.832865 0.775229
O O19 0.312727 0.000000 0.043841
O O20 0.177604 0.000000 0.489419
#
# Coordination Sequence:
#
# PCOD9131194 Si02
#       8
#     2   2   2   2   2   2   2   2
#     4  11  23  41  63  86 119 163 202 242 300 367
#     4  11  21  34  58  91 123 152 195 253 304 344
#     4  12  23  39  61  87 119 159 205 248 299 361
#     4  12  23  36  58  91 122 153 199 252 301 347
#     4   9  19  36  59  85 117 156 201 241 292 359
#     4  12  25  41  61  89 123 157 200 254 307 355
#     4  10  20  37  60  86 120 160 200 239 296 365
#     4   9  18  34  58  87 117 152 196 245 293 350
#
# _framework density 21.488185999999999
#
# number of rings (size 3 to 8) (size 9 to 14) (size 15 to 20)
#    0.000    1.250    2.500    6.000    0.000    2.500 
#    0.000    1.250    0.000    1.500    0.000    0.000 
#    0.000    0.000    0.000    0.000    0.000    0.000 
#
# Total GULP energy -89240.993748 kJ/mol
# GULP energy per Si atom -5577.562109 kJ/mol
# Density = 2.143928 g / cm^3
# Si number density = 21.488186 Si / 1000 Ang^3
#
#
#
# Elastic Constant Matrix: (Units=GPa)
#
#
# Indices 1 2 3 4 5 6 
#
# 1 110.8656 36.8235 15.5764 0.0000 19.2088 0.0000
# 2 36.8235 126.1416 4.7801 0.0000 7.3502 0.0000
# 3 15.5764 4.7801 27.3087 0.0000 9.5173 0.0000
# 4 0.0000 0.0000 0.0000 18.3079 0.0000 -2.7074
# 5 19.2088 7.3502 9.5173 0.0000 15.7068 0.0000
# 6 0.0000 0.0000 0.0000 -2.7074 0.0000 28.5311
#
#
#
# Elastic Compliance Matrix: (Units=1/GPa)
#
#
# Indices 1 2 3 4 5 6 
#
# 1 0.012443 -0.002817 -0.002231 0.000000 -0.012547 0.000000
# 2 -0.002817 0.008788 0.000382 0.000000 -0.000899 0.000000
# 3 -0.002231 0.000382 0.046823 0.000000 -0.025822 0.000000
# 4 0.000000 0.000000 0.000000 0.055399 0.000000 0.005257
# 5 -0.012547 -0.000899 -0.025822 0.000000 0.095078 0.000000
# 6 0.000000 0.000000 0.000000 0.005257 0.000000 0.035548
#
#
# Mechanical properties :
#
#
# Convention : Reuss Voigt Hill
#
# Bulk Modulus (GPa) = 17.02965 42.07510 29.55238
# Shear Modulus (GPa) = 17.66872 26.31820 21.99346
#
# Velocity S-wave (km/s) = 2.87061 3.50348 3.20271
# Velocity P-wave (km/s) = 4.35080 5.99907 5.24015
#
# Compressibility (1/GPa) = 0.05872111
#
# Stress axis : x y z
#
# Youngs Moduli (GPa) = 80.36701 113.79446 21.35683
#
# Poissons Ratio (x) = 0.32052 0.04766
# Poissons Ratio (y) = 0.22637 -0.00815
# Poissons Ratio (z) = 0.17934 -0.04343
#
# Static dielectric constant tensor:
#      x y z
#    x 1.795990 0.000000 0.043940 
#    y 0.000000 1.708010 0.000000 
#    z 0.043940 0.000000 1.825740 
# 
# From -- ./inp_files/3812.got.cif
#   From: 2010.05.17/outbox.ucp.g08.bks.cvg/sg6_2_cif.got.tgz:3812.got - 2010.06.11 12:59:37.
