data_PCOD9131529
_publ_section_title
;
Structure prediction by ZEFSAII (Michael W. Deem and Ramdas Pophale) SiO2 
 PCOD9131529
Probable space group: C M
;
_chemical_formula_sum "Si O2"
_cell_formula_units_Z 32
_cell_length_a 14.789076
_cell_length_b 8.341327
_cell_length_c 21.115058
_cell_angle_alpha 90.000000
_cell_angle_beta 31.886363
_cell_angle_gamma 90.000000
_cell_volume 1375.931053
_symmetry_space_group_name_H-M "C M"
_symmetry_group_IT_number 8
_symmetry_cell_setting 'monoclinic'
loop_
_space_group_symop_operation_xyz
x,y,z
x,-y,z
1/2+x,1/2+y,z
1/2+x,1/2-y,z
loop_
_atom_site_type_symbol
_atom_site_label
_atom_site_fract_x
_atom_site_fract_y
_atom_site_fract_z
Si Si1 0.486290 0.681475 0.950820
Si Si2 0.047599 0.809557 0.453848
Si Si3 0.842974 0.805231 0.444694
Si Si4 0.521132 0.818724 0.700570
Si Si5 0.725678 0.682063 0.686935
Si Si6 0.165369 0.319904 0.960487
Si Si7 0.841234 0.812381 0.205730
Si Si8 0.160647 0.810697 0.185526
O O1 0.497166 0.500000 0.970793
O O2 0.606046 0.686546 0.819022
O O3 0.564519 0.804802 0.954052
O O4 0.286705 0.723372 0.061573
O O5 0.948728 0.768611 0.446275
O O6 0.924603 0.724810 0.577873
O O7 0.237899 0.745381 0.328716
O O8 0.049666 0.000000 0.460974
O O9 0.648351 0.746967 0.571136
O O10 0.967929 0.750827 0.313958
O O11 0.833075 0.000000 0.446852
O O12 0.646484 0.811641 0.686556
O O13 0.352557 0.736353 0.827956
O O14 0.474465 0.000000 0.710312
O O15 0.713859 0.500000 0.667921
O O16 0.174806 0.500000 0.978493
O O17 0.044001 0.221068 0.080464
O O18 0.756470 0.718926 0.196402
O O19 0.809613 0.000000 0.216771
O O20 0.154975 0.000000 0.175476
#
# Coordination Sequence:
#
# PCOD9131529 Si02
#       8
#     4   4   4   4   4   4   4   4
#     4  10  20  33  49  72 102 133 165 203 247 293
#     4   9  16  28  46  69  96 125 160 202 246 288
#     4   7  13  25  43  67  92 119 152 194 239 283
#     4  10  19  33  52  73 100 131 163 202 251 300
#     4  10  20  33  50  74 102 131 165 205 248 294
#     4  11  21  33  50  73 101 131 167 207 248 294
#     4  10  17  27  45  69  96 125 160 201 247 292
#     4   9  15  26  45  69  95 123 160 202 244 288
#
# _framework density 23.256979000000001
#
# number of rings (size 3 to 8) (size 9 to 14) (size 15 to 20)
#    0.000    2.500    0.000    7.125    0.000    2.000 
#    0.000    1.875    0.000    1.500    0.000    1.750 
#    0.000    0.000    0.000    0.000    0.000    0.000 
#
# Total GULP energy -89188.385236 kJ/mol
# GULP energy per Si atom -5574.274077 kJ/mol
# Density = 2.320404 g / cm^3
# Si number density = 23.256979 Si / 1000 Ang^3
#
#
#
# Elastic Constant Matrix: (Units=GPa)
#
#
# Indices 1 2 3 4 5 6 
#
# 1 35.1229 -8.5362 11.4516 0.0000 -10.4383 0.0000
# 2 -8.5362 62.2448 42.3433 0.0000 9.5727 0.0000
# 3 11.4516 42.3433 250.5009 0.0001 11.4561 0.0002
# 4 0.0000 0.0000 0.0001 36.5245 0.0000 -1.5691
# 5 -10.4383 9.5727 11.4561 0.0000 14.0246 0.0000
# 6 0.0000 0.0000 0.0002 -1.5691 0.0000 18.5556
#
#
#
# Elastic Compliance Matrix: (Units=1/GPa)
#
#
# Indices 1 2 3 4 5 6 
#
# 1 0.039464 0.003321 -0.003745 0.000000 0.030165 0.000000
# 2 0.003321 0.019977 -0.003135 0.000000 -0.008603 0.000000
# 3 -0.003745 -0.003135 0.004906 0.000000 -0.004655 0.000000
# 4 0.000000 0.000000 0.000000 0.027479 0.000000 0.002324
# 5 0.030165 -0.008603 -0.004655 0.000000 0.103429 0.000000
# 6 0.000000 0.000000 0.000000 0.002324 0.000000 0.054088
#
#
# Mechanical properties :
#
#
# Convention : Reuss Voigt Hill
#
# Bulk Modulus (GPa) = 17.47392 48.70956 33.09174
# Shear Modulus (GPa) = 18.14629 33.99493 26.07061
#
# Velocity S-wave (km/s) = 2.79633 3.82738 3.35174
# Velocity P-wave (km/s) = 4.23741 6.36563 5.40726
#
# Compressibility (1/GPa) = 0.05722816
#
# Stress axis : x y z
#
# Youngs Moduli (GPa) = 25.33931 50.05812 203.83095
#
# Poissons Ratio (x) = -0.16622 0.76333
# Poissons Ratio (y) = -0.08414 0.63904
# Poissons Ratio (z) = 0.09489 0.15694
#
# Static dielectric constant tensor:
#      x y z
#    x 1.943140 0.000000 -0.010370 
#    y 0.000000 1.669820 0.000000 
#    z -0.010370 0.000000 2.020450 
# 
# From -- ./inp_files/33458.got.cif
#   From: 2010.05.17/outbox.cif.g08.bks.cpg/sg8_17_cif.got.tgz:33458.got - 2010.06.03 19:46:02.
