data_PCOD9131645
_publ_section_title
;
Structure prediction by ZEFSAII (Michael W. Deem and Ramdas Pophale) SiO2 
 PCOD9131645
Probable space group: C M
;
_chemical_formula_sum "Si O2"
_cell_formula_units_Z 32
_cell_length_a 14.459571
_cell_length_b 8.240632
_cell_length_c 18.976049
_cell_angle_alpha 90.000000
_cell_angle_beta 40.976933
_cell_angle_gamma 90.000000
_cell_volume 1482.734595
_symmetry_space_group_name_H-M "C M"
_symmetry_group_IT_number 8
_symmetry_cell_setting 'monoclinic'
loop_
_space_group_symop_operation_xyz
x,y,z
x,-y,z
1/2+x,1/2+y,z
1/2+x,1/2-y,z
loop_
_atom_site_type_symbol
_atom_site_label
_atom_site_fract_x
_atom_site_fract_y
_atom_site_fract_z
Si Si1 0.428880 0.688505 0.954560
Si Si2 0.687539 0.193786 0.370817
Si Si3 0.731406 0.197979 0.186397
Si Si4 0.979242 0.692633 0.227619
Si Si5 0.178683 0.812698 0.004945
Si Si6 0.387921 0.303705 0.600574
Si Si7 0.589103 0.809511 0.735205
Si Si8 0.832143 0.809474 0.790766
O O1 0.469641 0.500000 0.936927
O O2 0.543740 0.784073 0.843140
O O3 0.369305 0.752028 0.063197
O O4 0.288649 0.702217 0.985523
O O5 0.711817 0.255150 0.276980
O O6 0.536124 0.245153 0.486203
O O7 0.820580 0.260102 0.337513
O O8 0.694618 0.000000 0.366192
O O9 0.592789 0.243830 0.221119
O O10 0.738032 0.000000 0.182750
O O11 0.989411 0.500000 0.212795
O O12 0.028710 0.777685 0.126394
O O13 0.215880 0.000000 0.996048
O O14 0.207944 0.775624 0.906621
O O15 0.388923 0.500000 0.601208
O O16 0.250139 0.253830 0.635304
O O17 0.361480 0.246529 0.695746
O O18 0.475741 0.718053 0.752741
O O19 0.578200 0.000000 0.725236
O O20 0.800794 0.000000 0.805790
#
# Coordination Sequence:
#
# PCOD9131645 Si02
#       8
#     4   4   4   4   4   4   4   4
#     4   9  16  31  55  82 112 145 179 216 271 337
#     4  11  23  39  58  82 109 141 189 238 275 318
#     4   8  18  36  57  81 111 145 178 218 269 328
#     4  10  20  38  60  82 113 150 183 219 273 333
#     4  10  18  31  54  86 117 142 178 226 274 324
#     4  10  24  42  56  76 110 149 189 230 274 329
#     4  10  20  36  57  83 113 142 179 229 278 323
#     4  10  20  37  59  82 111 148 185 222 274 334
#
# _framework density 21.581745000000002
#
# number of rings (size 3 to 8) (size 9 to 14) (size 15 to 20)
#    0.000    2.250    0.000    5.250    0.000    4.000 
#    0.000   13.750    0.000    0.000    0.000    0.000 
#    0.000    0.000    0.000    0.000    0.000    0.000 
#
# Total GULP energy -89376.182840 kJ/mol
# GULP energy per Si atom -5586.011427 kJ/mol
# Density = 2.153262 g / cm^3
# Si number density = 21.581745 Si / 1000 Ang^3
#
#
#
# Elastic Constant Matrix: (Units=GPa)
#
#
# Indices 1 2 3 4 5 6 
#
# 1 55.5208 -0.0027 23.8977 0.0000 -8.9255 0.0000
# 2 -0.0027 41.0541 -0.7418 0.0000 -2.5365 0.0000
# 3 23.8977 -0.7418 85.4736 0.0000 -23.3758 0.0000
# 4 0.0000 0.0000 0.0000 34.6721 0.0000 -1.4660
# 5 -8.9255 -2.5365 -23.3758 0.0000 38.0782 0.0000
# 6 0.0000 0.0000 0.0000 -1.4660 0.0000 15.7649
#
#
#
# Elastic Compliance Matrix: (Units=1/GPa)
#
#
# Indices 1 2 3 4 5 6 
#
# 1 0.020551 0.000001 -0.005322 0.000000 0.001550 0.000000
# 2 0.000001 0.024503 0.000792 0.000000 0.002119 0.000000
# 3 -0.005322 0.000792 0.015464 0.000000 0.008298 0.000000
# 4 0.000000 0.000000 0.000000 0.028956 0.000000 0.002693
# 5 0.001550 0.002119 0.008298 0.000000 0.031860 0.000000
# 6 0.000000 0.000000 0.000000 0.002693 0.000000 0.063682
#
#
# Mechanical properties :
#
#
# Convention : Reuss Voigt Hill
#
# Bulk Modulus (GPa) = 19.43266 25.37277 22.40271
# Shear Modulus (GPa) = 23.67105 28.29605 25.98355
#
# Velocity S-wave (km/s) = 3.31540 3.62485 3.47358
# Velocity P-wave (km/s) = 4.86617 5.41309 5.14690
#
# Compressibility (1/GPa) = 0.05145977
#
# Stress axis : x y z
#
# Youngs Moduli (GPa) = 48.65894 40.81086 64.66687
#
# Poissons Ratio (x) = -0.00004 0.34416
# Poissons Ratio (y) = -0.00005 -0.05120
# Poissons Ratio (z) = 0.25896 -0.03231
#
# Static dielectric constant tensor:
#      x y z
#    x 1.834420 0.000000 0.006620 
#    y 0.000000 1.737680 0.000000 
#    z 0.006620 0.000000 1.787890 
# 
# From -- ./inp_files/30699.got.cif
#   From: 2010.05.17/outbox.cif.g08.bks.cpg/sg8_16_cif.got.tgz:30699.got - 2010.06.03 19:46:02.
