data_PCOD9131892
_publ_section_title
;
Structure prediction by ZEFSAII (Michael W. Deem and Ramdas Pophale) SiO2 
 PCOD9131892
Probable space group: C M
;
_chemical_formula_sum "Si O2"
_cell_formula_units_Z 32
_cell_length_a 20.916792
_cell_length_b 9.059894
_cell_length_c 12.437451
_cell_angle_alpha 90.000000
_cell_angle_beta 52.331014
_cell_angle_gamma 90.000000
_cell_volume 1865.650819
_symmetry_space_group_name_H-M "C M"
_symmetry_group_IT_number 8
_symmetry_cell_setting 'monoclinic'
loop_
_space_group_symop_operation_xyz
x,y,z
x,-y,z
1/2+x,1/2+y,z
1/2+x,1/2-y,z
loop_
_atom_site_type_symbol
_atom_site_label
_atom_site_fract_x
_atom_site_fract_y
_atom_site_fract_z
Si Si1 0.074120 0.175550 0.264890
Si Si2 0.965031 0.675519 0.546914
Si Si3 0.642504 0.322683 0.965807
Si Si4 0.613314 0.175716 0.556909
Si Si5 0.723073 0.675229 0.273095
Si Si6 0.367902 0.323024 0.004512
Si Si7 0.555623 0.677063 0.831099
Si Si8 0.816333 0.823399 0.812796
O O1 0.156510 0.203135 0.247589
O O2 0.003521 0.262475 0.397784
O O3 0.057775 0.000000 0.287620
O O4 0.091015 0.217535 0.124637
O O5 0.954148 0.500000 0.552329
O O6 0.882812 0.754105 0.665672
O O7 0.032439 0.707461 0.569703
O O8 0.655592 0.500000 0.957564
O O9 0.595685 0.288784 0.904268
O O10 0.728319 0.242577 0.882060
O O11 0.686597 0.249443 0.416583
O O12 0.600284 0.242837 0.687495
O O13 0.623619 0.000000 0.550356
O O14 0.729263 0.500000 0.281272
O O15 0.806834 0.743291 0.147665
O O16 0.360373 0.500000 0.025366
O O17 0.461067 0.281868 0.926578
O O18 0.342595 0.286481 0.908204
O O19 0.560104 0.500000 0.809492
O O20 0.815814 0.000000 0.803022
#
# Coordination Sequence:
#
# PCOD9131892 Si02
#       8
#     4   4   4   4   4   4   4   4
#     4   9  18  33  53  79 109 141 180 225 276 327
#     4  10  20  33  54  82 110 142 183 231 276 320
#     4  10  21  38  58  81 112 148 184 224 273 331
#     4  10  20  34  54  81 113 145 183 229 275 323
#     4  10  19  32  55  82 109 142 183 229 275 324
#     4  10  20  34  54  82 111 142 183 228 274 323
#     4  10  21  38  58  80 112 150 184 222 274 332
#     4  11  21  34  56  83 112 144 184 230 273 324
#
# _framework density 17.152191999999999
#
# number of rings (size 3 to 8) (size 9 to 14) (size 15 to 20)
#    0.000    2.000    2.500    1.500    0.000    3.500 
#    0.000    1.250    0.000    4.500    0.000    0.000 
#    0.000    0.000    0.000    0.000    0.000    0.000 
#
# Total GULP energy -89329.447304 kJ/mol
# GULP energy per Si atom -5583.090456 kJ/mol
# Density = 1.711315 g / cm^3
# Si number density = 17.152192 Si / 1000 Ang^3
#
#
#
# Elastic Constant Matrix: (Units=GPa)
#
#
# Indices 1 2 3 4 5 6 
#
# 1 100.3832 50.2643 79.7714 0.0000 1.6263 0.0000
# 2 50.2643 43.0640 72.6135 0.0000 1.8318 0.0000
# 3 79.7714 72.6135 191.9334 0.0000 2.1488 0.0000
# 4 0.0000 0.0000 0.0000 36.7968 0.0000 -4.0049
# 5 1.6263 1.8318 2.1488 0.0000 24.4761 0.0000
# 6 0.0000 0.0000 0.0000 -4.0049 0.0000 21.2858
#
#
#
# Elastic Compliance Matrix: (Units=1/GPa)
#
#
# Indices 1 2 3 4 5 6 
#
# 1 0.024188 -0.031194 0.001742 0.000000 0.000575 0.000000
# 2 -0.031194 0.104538 -0.026546 0.000000 -0.003421 0.000000
# 3 0.001742 -0.026546 0.014523 0.000000 0.000596 0.000000
# 4 0.000000 0.000000 0.000000 0.027744 0.000000 0.005220
# 5 0.000575 -0.003421 0.000596 0.000000 0.041022 0.000000
# 6 0.000000 0.000000 0.000000 0.005220 0.000000 0.047962
#
#
# Mechanical properties :
#
#
# Convention : Reuss Voigt Hill
#
# Bulk Modulus (GPa) = 31.99779 82.29767 57.14773
# Shear Modulus (GPa) = 13.07568 25.36050 19.21809
#
# Velocity S-wave (km/s) = 2.76403 3.84937 3.35094
# Velocity P-wave (km/s) = 5.37422 8.23662 6.95428
#
# Compressibility (1/GPa) = 0.03125216
#
# Stress axis : x y z
#
# Youngs Moduli (GPa) = 41.34363 9.56590 68.85795
#
# Poissons Ratio (x) = 0.29840 -0.11996
# Poissons Ratio (y) = 1.28966 1.82794
# Poissons Ratio (z) = -0.07203 0.25394
#
# Static dielectric constant tensor:
#      x y z
#    x 1.562120 0.000000 0.006950 
#    y 0.000000 1.569510 0.000000 
#    z 0.006950 0.000000 1.557850 
# 
# From -- ./inp_files/22920.got.cif
#   From: 2010.05.17/outbox.cif.g08.bks.cpg/sg8_12_cif.got.tgz:22920.got - 2010.06.03 19:46:02.
