data_PCOD9131246
_publ_section_title
;
Structure prediction by ZEFSAII (Michael W. Deem and Ramdas Pophale) SiO2 
 PCOD9131246
Probable space group: P C
;
_chemical_formula_sum "Si O2"
_cell_formula_units_Z 12
_cell_length_a 13.125851
_cell_length_b 9.510679
_cell_length_c 5.157674
_cell_angle_alpha 90.000000
_cell_angle_beta 123.729975
_cell_angle_gamma 90.000000
_cell_volume 535.476784
_symmetry_space_group_name_H-M "P C"
_symmetry_group_IT_number 7
_symmetry_cell_setting 'monoclinic'
loop_
_space_group_symop_operation_xyz
x,y,z
x,-y,1/2+z
loop_
_atom_site_type_symbol
_atom_site_label
_atom_site_fract_x
_atom_site_fract_y
_atom_site_fract_z
Si Si1 0.656690 0.410815 0.873910
Si Si2 0.250125 0.907345 0.833650
Si Si3 0.053624 0.447153 0.371336
Si Si4 0.955306 0.083731 0.935799
Si Si5 0.374084 0.399646 0.534035
Si Si6 0.889167 0.315161 0.462589
O O1 0.668433 0.456761 0.591227
O O2 0.519066 0.359091 0.724940
O O3 0.764326 0.310849 0.130133
O O4 0.101830 0.896244 0.625308
O O5 0.305288 0.750555 0.923897
O O6 0.284971 0.995209 0.627129
O O7 0.116902 0.539383 0.684917
O O8 0.009955 0.303789 0.441554
O O9 0.927655 0.530873 0.126037
O O10 0.894678 0.218655 0.719943
O O11 0.921016 0.964987 0.673385
O O12 0.355657 0.490544 0.770360
#
# Coordination Sequence:
#
# PCOD9131246 Si02
#       6
#     2   2   2   2   2   2
#     4  10  18  32  53  81 114 143 173 223 290 328
#     4  10  21  43  62  79 113 160 194 228 296 358
#     4   8  16  26  46  72  94 128 160 208 246 302
#     4  10  24  37  54  75 107 152 182 226 268 324
#     4  10  21  37  59  91 116 142 191 252 287 325
#     4  10  18  33  52  76 108 135 184 203 271 327
#
# _framework density 22.409935000000001
#
# number of rings (size 3 to 8) (size 9 to 14) (size 15 to 20)
#    1.000    1.333    1.667    1.000    2.333    0.000 
#    3.000    1.667    0.000    0.000    0.000    0.000 
#    0.000    0.000    0.000    0.000    0.000    0.000 
#
# Total GULP energy -66887.178282 kJ/mol
# GULP energy per Si atom -5573.931524 kJ/mol
# Density = 2.235893 g / cm^3
# Si number density = 22.409935 Si / 1000 Ang^3
#
#
#
# Elastic Constant Matrix: (Units=GPa)
#
#
# Indices 1 2 3 4 5 6 
#
# 1 69.0769 28.4807 38.4425 0.0000 -14.5408 0.0000
# 2 28.4807 121.2528 45.4356 0.0000 -3.3755 0.0000
# 3 38.4425 45.4356 127.9497 0.0000 -20.0408 0.0000
# 4 0.0000 0.0000 0.0000 51.0994 0.0000 -0.5032
# 5 -14.5408 -3.3755 -20.0408 0.0000 49.3295 0.0000
# 6 0.0000 0.0000 0.0000 -0.5032 0.0000 22.8456
#
#
#
# Elastic Compliance Matrix: (Units=1/GPa)
#
#
# Indices 1 2 3 4 5 6 
#
# 1 0.018637 -0.002759 -0.004046 0.000000 0.003661 0.000000
# 2 -0.002759 0.009949 -0.002910 0.000000 -0.001315 0.000000
# 3 -0.004046 -0.002910 0.010516 0.000000 0.002880 0.000000
# 4 0.000000 0.000000 0.000000 0.019574 0.000000 0.000431
# 5 0.003661 -0.001315 0.002880 0.000000 0.022431 0.000000
# 6 0.000000 0.000000 0.000000 0.000431 0.000000 0.043782
#
#
# Mechanical properties :
#
#
# Convention : Reuss Voigt Hill
#
# Bulk Modulus (GPa) = 50.83692 60.33298 55.58495
# Shear Modulus (GPa) = 33.13980 38.38294 35.76137
#
# Velocity S-wave (km/s) = 3.84969 4.14305 3.99906
# Velocity P-wave (km/s) = 6.51877 7.06168 6.79565
#
# Compressibility (1/GPa) = 0.01967074
#
# Stress axis : x y z
#
# Youngs Moduli (GPa) = 53.65758 100.51092 95.09616
#
# Poissons Ratio (x) = 0.27736 0.38477
# Poissons Ratio (y) = 0.14807 0.27672
# Poissons Ratio (z) = 0.21710 0.29247
#
# Static dielectric constant tensor:
#      x y z
#    x 2.018710 0.000000 -0.076230 
#    y 0.000000 1.924210 0.000000 
#    z -0.076230 0.000000 1.901540 
# 
# From -- ./inp_files/1049.got.cif
#   From: 2010.05.17/outbox.cif.g08.bks.cpg/sg7_cif.got.tgz:1049.got - 2010.06.03 19:44:50.
