data_PCOD9131349
_publ_section_title
;
Structure prediction by ZEFSAII (Michael W. Deem and Ramdas Pophale) SiO2 
 PCOD9131349
Probable space group: P C
;
_chemical_formula_sum "Si O2"
_cell_formula_units_Z 16
_cell_length_a 15.960168
_cell_length_b 7.676631
_cell_length_c 5.341483
_cell_angle_alpha 90.000000
_cell_angle_beta 94.801199
_cell_angle_gamma 90.000000
_cell_volume 652.143849
_symmetry_space_group_name_H-M "P C"
_symmetry_group_IT_number 7
_symmetry_cell_setting 'monoclinic'
loop_
_space_group_symop_operation_xyz
x,y,z
x,-y,1/2+z
loop_
_atom_site_type_symbol
_atom_site_label
_atom_site_fract_x
_atom_site_fract_y
_atom_site_fract_z
Si Si1 0.342230 0.594925 0.171780
Si Si2 0.666642 0.061096 0.269491
Si Si3 0.905028 0.119491 0.478168
Si Si4 0.748664 0.387310 0.451582
Si Si5 0.218449 0.885324 0.032771
Si Si6 0.525509 0.455108 0.249810
Si Si7 0.474121 0.063016 0.205351
Si Si8 0.063312 0.619306 0.013543
O O1 0.314708 0.538432 0.443592
O O2 0.304113 0.776530 0.081092
O O3 0.443589 0.581437 0.204348
O O4 0.671191 0.254559 0.379580
O O5 0.571050 0.995611 0.203844
O O6 0.705468 0.946228 0.502287
O O7 0.826238 0.251477 0.451674
O O8 0.986352 0.244392 0.494650
O O9 0.904547 0.995598 0.232411
O O10 0.752365 0.523134 0.223404
O O11 0.146647 0.737698 0.033065
O O12 0.211428 0.015422 0.266985
O O13 0.572309 0.527937 0.500535
O O14 0.485917 0.265378 0.257028
O O15 0.433675 0.970172 0.429680
O O16 0.060364 0.500128 0.262878
#
# Coordination Sequence:
#
# PCOD9131349 Si02
#       8
#     2   2   2   2   2   2   2   2
#     4  10  21  41  60  84 117 155 192 239 299 355
#     4  10  21  39  60  85 119 159 200 247 305 358
#     4  12  24  42  64  90 126 166 205 247 298 353
#     4  12  24  39  60  91 124 160 207 251 298 353
#     4  12  24  41  64  92 121 156 203 248 296 357
#     4  10  21  38  59  83 117 153 191 238 299 360
#     4  10  21  38  61  88 117 153 200 250 299 357
#     4  12  24  42  66  93 125 160 200 250 302 353
#
# _framework density 24.534462999999999
#
# number of rings (size 3 to 8) (size 9 to 14) (size 15 to 20)
#    0.000    1.000    0.000    7.500    0.000    1.000 
#    0.000   15.000    0.000    0.000    0.000    0.000 
#    0.000    0.000    0.000    0.000    0.000    0.000 
#
# Total GULP energy -89609.705761 kJ/mol
# GULP energy per Si atom -5600.606610 kJ/mol
# Density = 2.447862 g / cm^3
# Si number density = 24.534463 Si / 1000 Ang^3
#
#
#
# Elastic Constant Matrix: (Units=GPa)
#
#
# Indices 1 2 3 4 5 6 
#
# 1 76.0340 27.3858 0.7349 0.0000 16.4239 0.0000
# 2 27.3858 118.4896 63.4332 0.0000 1.7398 0.0000
# 3 0.7349 63.4332 198.8165 0.0000 -0.4837 0.0000
# 4 0.0000 0.0000 0.0000 77.4175 0.0000 -1.2086
# 5 16.4239 1.7398 -0.4837 0.0000 25.1527 0.0000
# 6 0.0000 0.0000 0.0000 -1.2086 0.0000 64.9269
#
#
#
# Elastic Compliance Matrix: (Units=1/GPa)
#
#
# Indices 1 2 3 4 5 6 
#
# 1 0.017106 -0.004518 0.001352 0.000000 -0.010831 0.000000
# 2 -0.004518 0.011386 -0.003611 0.000000 0.002093 0.000000
# 3 0.001352 -0.003611 0.006176 0.000000 -0.000514 0.000000
# 4 0.000000 0.000000 0.000000 0.012921 0.000000 0.000241
# 5 -0.010831 0.002093 -0.000514 0.000000 0.046675 0.000000
# 6 0.000000 0.000000 0.000000 0.000241 0.000000 0.015406
#
#
# Mechanical properties :
#
#
# Convention : Reuss Voigt Hill
#
# Bulk Modulus (GPa) = 47.36395 64.04977 55.70686
# Shear Modulus (GPa) = 38.38410 53.61851 46.00131
#
# Velocity S-wave (km/s) = 3.95966 4.67994 4.33479
# Velocity P-wave (km/s) = 6.34446 7.44077 6.91438
#
# Compressibility (1/GPa) = 0.02111310
#
# Stress axis : x y z
#
# Youngs Moduli (GPa) = 58.45916 87.82482 161.92663
#
# Poissons Ratio (x) = 0.39683 -0.21893
# Poissons Ratio (y) = 0.26414 0.58473
# Poissons Ratio (z) = -0.07904 0.31714
#
# Static dielectric constant tensor:
#      x y z
#    x 2.029470 0.000000 0.005280 
#    y 0.000000 1.926540 0.000000 
#    z 0.005280 0.000000 2.007130 
# 
# From -- ./inp_files/1345.got.cif
#   From: 2010.05.17/outbox.cif.g08.bks.cpg/sg7_cif.got.tgz:1345.got - 2010.06.03 19:44:50.
