data_PCOD9131624
_publ_section_title
;
Structure prediction by ZEFSAII (Michael W. Deem and Ramdas Pophale) SiO2 
 PCOD9131624
Probable space group: C M
;
_chemical_formula_sum "Si O2"
_cell_formula_units_Z 28
_cell_length_a 5.735389
_cell_length_b 29.336469
_cell_length_c 6.895995
_cell_angle_alpha 90.000000
_cell_angle_beta 103.901060
_cell_angle_gamma 90.000000
_cell_volume 1126.310342
_symmetry_space_group_name_H-M "C M"
_symmetry_group_IT_number 8
_symmetry_cell_setting 'monoclinic'
loop_
_space_group_symop_operation_xyz
x,y,z
x,-y,z
1/2+x,1/2+y,z
1/2+x,1/2-y,z
loop_
_atom_site_type_symbol
_atom_site_label
_atom_site_fract_x
_atom_site_fract_y
_atom_site_fract_z
Si Si1 0.587430 0.869212 0.963930
Si Si2 0.739516 0.867316 0.544690
Si Si3 0.407196 0.048819 0.419849
Si Si4 0.423468 0.549317 0.073024
Si Si5 0.422199 0.769562 0.916664
Si Si6 0.158781 0.076390 0.744528
Si Si7 0.270997 0.262206 0.452231
O O1 0.671277 0.863837 0.757655
O O2 0.337444 0.895629 0.915144
O O3 0.778969 0.904522 0.089614
O O4 0.527431 0.817927 0.008629
O O5 0.559825 0.905329 0.424807
O O6 0.742979 0.816349 0.470762
O O7 0.003789 0.888404 0.588485
O O8 0.316910 0.049179 0.624343
O O9 0.171173 0.049528 0.240157
O O10 0.534638 0.000000 0.412632
O O11 0.302311 0.500000 0.086440
O O12 0.483051 0.550741 0.855080
O O13 0.164359 0.761336 0.967746
O O14 0.347051 0.763752 0.670650
O O15 0.500287 0.254764 0.359185
#
# Coordination Sequence:
#
# PCOD9131624 Si02
#       7
#     4   4   4   4   4   4   4
#     4  10  20  34  58  91 123 160 214 261 315 386
#     4  10  20  34  58  91 123 160 214 261 315 386
#     4  10  23  41  60  88 127 167 210 262 321 384
#     4  10  23  41  60  88 127 167 210 262 321 384
#     4  10  18  30  56  90 127 165 211 264 324 392
#     4  10  21  36  64  90 122 164 208 264 317 382
#     4  10  18  30  56  90 127 165 211 264 324 392
#
# _framework density 24.859935
#
# number of rings (size 3 to 8) (size 9 to 14) (size 15 to 20)
#    0.000    2.000    2.857    2.143    4.000    7.429 
#    0.000    2.857    0.000    1.714    0.000    0.000 
#    0.000    0.000    0.000    0.000    0.000    0.000 
#
# Total GULP energy -78210.024557 kJ/mol
# GULP energy per Si atom -5586.430326 kJ/mol
# Density = 2.480335 g / cm^3
# Si number density = 24.859935 Si / 1000 Ang^3
#
#
#
# Elastic Constant Matrix: (Units=GPa)
#
#
# Indices 1 2 3 4 5 6 
#
# 1 131.8658 27.8543 9.2446 0.0000 -9.8581 0.0000
# 2 27.8543 142.5834 3.8974 0.0000 -1.6604 0.0000
# 3 9.2446 3.8974 74.9275 0.0000 0.5044 0.0000
# 4 0.0000 0.0000 0.0000 108.7863 0.0000 47.9271
# 5 -9.8581 -1.6604 0.5044 0.0000 48.8689 0.0000
# 6 0.0000 0.0000 0.0000 47.9271 0.0000 148.2027
#
#
#
# Elastic Compliance Matrix: (Units=1/GPa)
#
#
# Indices 1 2 3 4 5 6 
#
# 1 0.008092 -0.001537 -0.000929 0.000000 0.001590 0.000000
# 2 -0.001537 0.007318 -0.000191 0.000000 -0.000059 0.000000
# 3 -0.000929 -0.000191 0.013473 0.000000 -0.000333 0.000000
# 4 0.000000 0.000000 0.000000 0.010720 0.000000 -0.003467
# 5 0.001590 -0.000059 -0.000333 0.000000 0.020785 0.000000
# 6 0.000000 0.000000 0.000000 -0.003467 0.000000 0.007869
#
#
# Mechanical properties :
#
#
# Convention : Reuss Voigt Hill
#
# Bulk Modulus (GPa) = 42.42700 47.92993 45.17847
# Shear Modulus (GPa) = 61.40500 81.73027 71.56764
#
# Velocity S-wave (km/s) = 4.97534 5.74001 5.37130
# Velocity P-wave (km/s) = 7.07876 7.95312 7.52864
#
# Compressibility (1/GPa) = 0.02356989
#
# Stress axis : x y z
#
# Youngs Moduli (GPa) = 123.57729 136.64558 74.22231
#
# Poissons Ratio (x) = 0.21001 0.06896
# Poissons Ratio (y) = 0.18993 0.01415
# Poissons Ratio (z) = 0.11482 0.02605
#
# Static dielectric constant tensor:
#      x y z
#    x 1.983020 0.000000 -0.048480 
#    y 0.000000 1.942470 0.000000 
#    z -0.048480 0.000000 2.057110 
# 
# From -- ./inp_files/7084.got.cif
#   From: 2010.05.17/outbox.cif.g08.bks.cpg/sg8_4_cif.got.tgz:7084.got - 2010.06.03 19:46:02.
