data_PCOD9131112
_publ_section_title
;
Structure prediction by ZEFSAII (Michael W. Deem and Ramdas Pophale) SiO2 
 PCOD9131112
Probable space group: P M
;
_chemical_formula_sum "Si O2"
_cell_formula_units_Z 13
_cell_length_a 9.554162
_cell_length_b 11.440120
_cell_length_c 4.834510
_cell_angle_alpha 90.000000
_cell_angle_beta 98.412806
_cell_angle_gamma 90.000000
_cell_volume 522.729683
_symmetry_space_group_name_H-M "P M"
_symmetry_group_IT_number 6
_symmetry_cell_setting 'monoclinic'
loop_
_space_group_symop_operation_xyz
x,y,z
x,-y,z
loop_
_atom_site_type_symbol
_atom_site_label
_atom_site_fract_x
_atom_site_fract_y
_atom_site_fract_z
Si Si1 0.087510 0.270004 0.570620
Si Si2 0.814172 0.864836 0.576414
Si Si3 0.275209 0.712060 0.099736
Si Si4 0.759086 0.500000 0.236583
Si Si5 0.949018 0.500000 0.784806
Si Si6 0.628413 0.694328 0.831274
Si Si7 0.518007 0.869724 0.169681
Si Si8 0.428644 0.500000 0.808161
O O1 0.166689 0.310780 0.317214
O O2 0.958458 0.180791 0.478229
O O3 0.031275 0.386462 0.708163
O O4 0.193508 0.218930 0.831626
O O5 0.770940 0.754783 0.759916
O O6 0.674585 0.867630 0.345305
O O7 0.830087 0.000000 0.687782
O O8 0.398895 0.789965 0.264976
O O9 0.345887 0.601700 0.967003
O O10 0.900806 0.500000 0.088472
O O11 0.673251 0.613424 0.109634
O O12 0.802899 0.500000 0.564942
O O13 0.520428 0.602524 0.666245
O O14 0.542031 0.809614 0.882554
O O15 0.468385 0.000000 0.139357
#
# Coordination Sequence:
#
# PCOD9131112 Si02
#       8
#     2   2   2   1   1   2   2   1
#     4  12  26  45  72 103 149 183 235 292 366 424
#     4  11  25  44  72 106 142 192 246 304 358 425
#     4  11  26  47  70 105 141 192 233 292 358 436
#     4  11  22  37  68 101 139 173 220 283 353 418
#     4  12  22  40  66  97 140 180 223 275 354 426
#     4  10  21  42  67 103 138 180 234 296 353 421
#     4  10  24  45  71  99 138 190 246 297 350 423
#     4   9  22  45  68 104 137 189 233 294 357 432
#
# _framework density 24.869448999999999
#
# number of rings (size 3 to 8) (size 9 to 14) (size 15 to 20)
#    0.000    1.231    1.538    3.231    6.462    1.231 
#    2.769    0.000    0.000    0.000    0.000    0.000 
#    0.000    0.000    0.000    0.000    0.000    0.000 
#
# Total GULP energy -72369.757964 kJ/mol
# GULP energy per Si atom -5566.904459 kJ/mol
# Density = 2.481285 g / cm^3
# Si number density = 24.869449 Si / 1000 Ang^3
#
#
#
# Elastic Constant Matrix: (Units=GPa)
#
#
# Indices 1 2 3 4 5 6 
#
# 1 152.8185 61.4926 32.6025 0.0000 -20.5430 0.0000
# 2 61.4926 172.4371 17.4393 0.0000 5.1407 0.0000
# 3 32.6025 17.4393 75.1348 0.0000 1.9607 0.0000
# 4 0.0000 0.0000 0.0000 20.5887 0.0000 12.6769
# 5 -20.5430 5.1407 1.9607 0.0000 44.1112 0.0000
# 6 0.0000 0.0000 0.0000 12.6769 0.0000 22.6804
#
#
#
# Elastic Compliance Matrix: (Units=1/GPa)
#
#
# Indices 1 2 3 4 5 6 
#
# 1 0.009135 -0.003058 -0.003378 0.000000 0.004761 0.000000
# 2 -0.003058 0.006980 -0.000235 0.000000 -0.002227 0.000000
# 3 -0.003378 -0.000235 0.014887 0.000000 -0.002208 0.000000
# 4 0.000000 0.000000 0.000000 0.074057 0.000000 -0.041393
# 5 0.004761 -0.002227 -0.002208 0.000000 0.025245 0.000000
# 6 0.000000 0.000000 0.000000 -0.041393 0.000000 0.067227
#
#
# Mechanical properties :
#
#
# Convention : Reuss Voigt Hill
#
# Bulk Modulus (GPa) = 56.62594 69.27325 62.94959
# Shear Modulus (GPa) = 23.06694 36.73312 29.90003
#
# Velocity S-wave (km/s) = 3.04883 3.84739 3.47115
# Velocity P-wave (km/s) = 5.93401 6.90303 6.43678
#
# Compressibility (1/GPa) = 0.01765975
#
# Stress axis : x y z
#
# Youngs Moduli (GPa) = 109.47083 143.26982 67.17045
#
# Poissons Ratio (x) = 0.43810 0.22692
# Poissons Ratio (y) = 0.33474 0.01579
# Poissons Ratio (z) = 0.36982 0.03368
#
# Static dielectric constant tensor:
#      x y z
#    x 2.118150 0.000000 0.053990 
#    y 0.000000 2.018900 0.000000 
#    z 0.053990 0.000000 2.065510 
# 
# From -- ./inp_files/1015.got.cif
#   From: 2010.05.17/outbox.cif.g08.bks.cpg/sg6_1_cif.got.tgz:1015.got - 2010.06.03 19:42:10.
