data_PCOD9131639
_publ_section_title
;
Structure prediction by ZEFSAII (Michael W. Deem and Ramdas Pophale) SiO2 
 PCOD9131639
Probable space group: C M
;
_chemical_formula_sum "Si O2"
_cell_formula_units_Z 32
_cell_length_a 21.297765
_cell_length_b 8.337867
_cell_length_c 26.123202
_cell_angle_alpha 90.000000
_cell_angle_beta 157.551098
_cell_angle_gamma 90.000000
_cell_volume 1771.408884
_symmetry_space_group_name_H-M "C M"
_symmetry_group_IT_number 8
_symmetry_cell_setting 'monoclinic'
loop_
_space_group_symop_operation_xyz
x,y,z
x,-y,z
1/2+x,1/2+y,z
1/2+x,1/2-y,z
loop_
_atom_site_type_symbol
_atom_site_label
_atom_site_fract_x
_atom_site_fract_y
_atom_site_fract_z
Si Si1 0.296160 0.808911 0.946190
Si Si2 0.879021 0.305779 0.516102
Si Si3 0.527796 0.306635 0.928467
Si Si4 0.046639 0.806325 0.215977
Si Si5 0.984410 0.195862 0.779251
Si Si6 0.748939 0.806994 0.795836
Si Si7 0.716327 0.191761 0.498622
Si Si8 0.889163 0.191077 0.205579
O O1 0.289552 0.736994 0.884754
O O2 0.140318 0.751550 0.862701
O O3 0.283654 0.000000 0.932322
O O4 0.458389 0.763818 0.100119
O O5 0.877946 0.500000 0.517542
O O6 0.735820 0.258546 0.368488
O O7 0.821280 0.243952 0.528002
O O8 0.063541 0.250210 0.643906
O O9 0.519062 0.500000 0.920857
O O10 0.500024 0.248605 0.849329
O O11 0.387429 0.246506 0.861166
O O12 0.710916 0.259843 0.083174
O O13 0.947728 0.754300 0.192802
O O14 0.039415 0.000000 0.207974
O O15 0.817885 0.245469 0.624905
O O16 0.987201 0.000000 0.781885
O O17 0.746666 0.000000 0.790199
O O18 0.534183 0.259324 0.353276
O O19 0.706519 0.000000 0.491831
O O20 0.879986 0.000000 0.197264
#
# Coordination Sequence:
#
# PCOD9131639 Si02
#       8
#     4   4   4   4   4   4   4   4
#     4  11  20  33  54  80 109 140 177 225 267 311
#     4   9  18  33  51  77 109 139 175 220 269 316
#     4  10  20  37  57  78 107 144 183 218 263 322
#     4   9  18  32  51  77 107 137 175 221 267 315
#     4   9  18  32  52  80 107 135 178 224 263 309
#     4  10  21  36  56  79 108 145 179 219 268 320
#     4  10  18  31  53  80 106 136 176 223 269 316
#     4  10  20  34  52  79 111 142 175 220 270 315
#
# _framework density 18.064717000000002
#
# number of rings (size 3 to 8) (size 9 to 14) (size 15 to 20)
#    0.000    2.250    2.500    1.875    0.000    2.500 
#    0.000    2.500    0.000    4.500    0.000    0.000 
#    0.000    0.000    0.000    0.000    0.000    0.000 
#
# Total GULP energy -89261.299888 kJ/mol
# GULP energy per Si atom -5578.831243 kJ/mol
# Density = 1.802360 g / cm^3
# Si number density = 18.064717 Si / 1000 Ang^3
#
#
#
# Elastic Constant Matrix: (Units=GPa)
#
#
# Indices 1 2 3 4 5 6 
#
# 1 108.9828 10.0743 81.1737 0.0006 9.8143 0.0001
# 2 10.0743 7.6706 12.1258 0.0004 4.8794 0.0001
# 3 81.1737 12.1258 165.2883 0.0013 7.4286 0.0001
# 4 0.0006 0.0004 0.0013 21.8170 -0.0011 -1.1537
# 5 9.8143 4.8794 7.4286 -0.0011 26.0146 -0.0002
# 6 0.0001 0.0001 0.0001 -1.1537 -0.0002 18.8082
#
#
#
# Elastic Compliance Matrix: (Units=1/GPa)
#
#
# Indices 1 2 3 4 5 6 
#
# 1 0.015135 -0.007702 -0.006763 0.000000 -0.002334 0.000000
# 2 -0.007702 0.169223 -0.007431 -0.000004 -0.026713 -0.000002
# 3 -0.006763 -0.007431 0.009866 0.000000 0.001128 0.000000
# 4 0.000000 -0.000004 0.000000 0.045985 0.000003 0.002821
# 5 -0.002334 -0.026713 0.001128 0.000003 0.044009 0.000001
# 6 0.000000 -0.000002 0.000000 0.002821 0.000001 0.053341
#
#
# Mechanical properties :
#
#
# Convention : Reuss Voigt Hill
#
# Bulk Modulus (GPa) = 6.64758 54.29881 30.47320
# Shear Modulus (GPa) = 11.58761 25.23249 18.41005
#
# Velocity S-wave (km/s) = 2.53543 3.74141 3.19582
# Velocity P-wave (km/s) = 3.50130 6.98480 5.52478
#
# Compressibility (1/GPa) = 0.15043066
#
# Stress axis : x y z
#
# Youngs Moduli (GPa) = 66.07087 5.90938 101.35962
#
# Poissons Ratio (x) = 0.04551 0.68550
# Poissons Ratio (y) = 0.50889 0.75323
# Poissons Ratio (z) = 0.44684 0.04391
#
# Static dielectric constant tensor:
#      x y z
#    x 1.596110 0.000000 0.003950 
#    y 0.000000 1.621010 0.000000 
#    z 0.003950 0.000000 1.632500 
# 
# From -- ./inp_files/31318.got.cif
#   From: 2010.05.17/outbox.cif.g08.bks.cpg/sg8_16_cif.got.tgz:31318.got - 2010.06.03 19:46:02.
