data_PCOD9131593
_publ_section_title
;
Structure prediction by ZEFSAII (Michael W. Deem and Ramdas Pophale) SiO2 
 PCOD9131593
Probable space group: C M
;
_chemical_formula_sum "Si O2"
_cell_formula_units_Z 32
_cell_length_a 19.393540
_cell_length_b 9.036253
_cell_length_c 25.914352
_cell_angle_alpha 90.000000
_cell_angle_beta 25.344168
_cell_angle_gamma 90.000000
_cell_volume 1943.949901
_symmetry_space_group_name_H-M "C M"
_symmetry_group_IT_number 8
_symmetry_cell_setting 'monoclinic'
loop_
_space_group_symop_operation_xyz
x,y,z
x,-y,z
1/2+x,1/2+y,z
1/2+x,1/2-y,z
loop_
_atom_site_type_symbol
_atom_site_label
_atom_site_fract_x
_atom_site_fract_y
_atom_site_fract_z
Si Si1 0.221920 0.175181 0.212990
Si Si2 0.592094 0.675810 0.669113
Si Si3 0.472261 0.173862 0.238216
Si Si4 0.273949 0.168810 0.892182
Si Si5 0.425331 0.677789 0.159432
Si Si6 0.838197 0.173239 0.032066
Si Si7 0.001640 0.669495 0.830279
Si Si8 0.860809 0.824232 0.416707
O O1 0.278659 0.258148 0.225797
O O2 0.319928 0.242036 0.098296
O O3 0.033698 0.198609 0.327499
O O4 0.250436 0.000000 0.197923
O O5 0.603153 0.500000 0.662903
O O6 0.411233 0.727853 0.775147
O O7 0.609681 0.743943 0.715187
O O8 0.722061 0.747474 0.543682
O O9 0.436375 0.251829 0.208426
O O10 0.662087 0.184680 0.124174
O O11 0.378435 0.252299 0.348417
O O12 0.432573 0.000000 0.262477
O O13 0.332805 0.163992 0.912317
O O14 0.286908 0.000000 0.863773
O O15 0.090409 0.218228 0.017074
O O16 0.420564 0.500000 0.165983
O O17 0.872190 0.000000 0.017424
O O18 0.966845 0.246494 0.906581
O O19 0.054238 0.500000 0.802102
O O20 0.832923 0.000000 0.431745
#
# Coordination Sequence:
#
# PCOD9131593 Si02
#       8
#     4   4   4   4   4   4   4   4
#     4  10  22  35  50  72 104 140 169 204 251 302
#     4  10  18  29  49  76 101 127 166 213 251 289
#     4  10  19  30  49  74 100 129 167 211 250 293
#     4   8  17  30  48  73 100 130 162 200 245 294
#     4  11  20  33  52  76 105 136 168 204 250 302
#     4  10  18  30  49  75 102 129 166 210 251 293
#     4   9  16  28  47  72 100 128 160 199 244 293
#     4  10  20  35  52  72 100 135 172 209 250 296
#
# _framework density 16.461328000000002
#
# number of rings (size 3 to 8) (size 9 to 14) (size 15 to 20)
#    0.750    1.500    1.250    3.000    0.000    3.500 
#    0.000    0.000    0.000    1.500    0.000    0.000 
#    0.000    0.000    0.000    0.000    0.000    0.000 
#
# Total GULP energy -89106.706427 kJ/mol
# GULP energy per Si atom -5569.169152 kJ/mol
# Density = 1.642386 g / cm^3
# Si number density = 16.461328 Si / 1000 Ang^3
#
#
#
# Elastic Constant Matrix: (Units=GPa)
#
#
# Indices 1 2 3 4 5 6 
#
# 1 73.1107 50.1186 32.3916 -0.0001 10.6533 0.0000
# 2 50.1186 134.7318 79.6458 -0.0003 15.3254 0.0000
# 3 32.3916 79.6458 110.5241 -0.0004 26.1810 -0.0001
# 4 -0.0001 -0.0003 -0.0004 28.2599 -0.0002 6.9966
# 5 10.6533 15.3254 26.1810 -0.0002 16.6455 0.0000
# 6 0.0000 0.0000 -0.0001 6.9966 0.0000 24.3043
#
#
#
# Elastic Compliance Matrix: (Units=1/GPa)
#
#
# Indices 1 2 3 4 5 6 
#
# 1 0.019002 -0.006935 0.001270 0.000000 -0.007774 0.000000
# 2 -0.006935 0.015665 -0.010983 0.000000 0.007291 0.000000
# 3 0.001270 -0.010983 0.022931 0.000000 -0.026768 0.000000
# 4 0.000000 0.000000 0.000000 0.038101 0.000000 -0.010969
# 5 -0.007774 0.007291 -0.026768 0.000000 0.100442 0.000000
# 6 0.000000 0.000000 0.000000 -0.010969 0.000000 0.044303
#
#
# Mechanical properties :
#
#
# Convention : Reuss Voigt Hill
#
# Bulk Modulus (GPa) = 41.14864 71.40874 56.27869
# Shear Modulus (GPa) = 17.74042 24.25595 20.99818
#
# Velocity S-wave (km/s) = 3.28640 3.84280 3.57544
# Velocity P-wave (km/s) = 6.28108 7.94754 7.16294
#
# Compressibility (1/GPa) = 0.02430214
#
# Stress axis : x y z
#
# Youngs Moduli (GPa) = 52.62575 63.83521 43.60862
#
# Poissons Ratio (x) = 0.44270 -0.05539
# Poissons Ratio (y) = 0.36496 0.47897
# Poissons Ratio (z) = -0.06684 0.70112
#
# Static dielectric constant tensor:
#      x y z
#    x 1.543950 0.000000 -0.006580 
#    y 0.000000 1.548950 0.000000 
#    z -0.006580 0.000000 1.538980 
# 
# From -- ./inp_files/32112.got.cif
#   From: 2010.05.17/outbox.cif.g08.bks.cpg/sg8_17_cif.got.tgz:32112.got - 2010.06.03 19:46:02.
