data_PCOD9131168
_publ_section_title
;
Structure prediction by ZEFSAII (Michael W. Deem and Ramdas Pophale) SiO2 
 PCOD9131168
Probable space group: P M
;
_chemical_formula_sum "Si O2"
_cell_formula_units_Z 15
_cell_length_a 5.086233
_cell_length_b 22.046527
_cell_length_c 5.233349
_cell_angle_alpha 90.000000
_cell_angle_beta 94.329028
_cell_angle_gamma 90.000000
_cell_volume 585.160940
_symmetry_space_group_name_H-M "P M"
_symmetry_group_IT_number 6
_symmetry_cell_setting 'monoclinic'
loop_
_space_group_symop_operation_xyz
x,y,z
x,-y,z
loop_
_atom_site_type_symbol
_atom_site_label
_atom_site_fract_x
_atom_site_fract_y
_atom_site_fract_z
Si Si1 0.851920 0.386789 0.063230
Si Si2 0.218109 0.612971 0.585065
Si Si3 0.722525 0.934282 0.638493
Si Si4 0.534623 0.500000 0.826299
Si Si5 0.825819 0.195627 0.503333
Si Si6 0.530766 0.715991 0.827786
Si Si7 0.359814 0.065638 0.113107
Si Si8 0.272471 0.196783 0.164741
O O1 0.037393 0.390154 0.322731
O O2 0.677058 0.446636 0.011128
O O3 0.663641 0.328362 0.044209
O O4 0.032742 0.382975 0.822460
O O5 0.392009 0.553192 0.640992
O O6 0.408303 0.670959 0.609574
O O7 0.882341 0.873054 0.598563
O O8 0.507298 0.934684 0.395414
O O9 0.860150 0.000000 0.628440
O O10 0.570555 0.930541 0.897128
O O11 0.744204 0.239095 0.725836
O O12 0.562694 0.193289 0.310466
O O13 0.063992 0.219350 0.353190
O O14 0.309087 0.758388 0.933534
O O15 0.196847 0.127576 0.090897
O O16 0.222322 0.000000 0.082590
#
# Coordination Sequence:
#
# PCOD9131168 Si02
#       8
#     2   2   2   1   2   2   2   2
#     4  11  27  47  79 113 158 209 256 326 388 467
#     4  11  27  47  79 113 158 209 256 326 388 467
#     4   9  18  39  68 102 143 192 256 331 405 477
#     4  10  24  50  80 120 158 198 268 314 392 462
#     4  11  26  45  73 105 152 206 267 332 405 479
#     4  11  28  45  71 110 157 206 274 324 395 482
#     4   9  18  39  68 102 143 192 256 331 405 477
#     4  11  26  45  73 105 152 206 267 332 405 479
#
# _framework density 25.633976000000001
#
# number of rings (size 3 to 8) (size 9 to 14) (size 15 to 20)
#    0.000    1.600    1.333    0.800    7.467    4.800 
#    0.000    0.000    0.000    8.000    0.000    0.000 
#    0.000    1.067    0.000    0.000    0.000    0.000 
#
# Total GULP energy -83878.311949 kJ/mol
# GULP energy per Si atom -5591.887463 kJ/mol
# Density = 2.557563 g / cm^3
# Si number density = 25.633976 Si / 1000 Ang^3
#
#
#
# Elastic Constant Matrix: (Units=GPa)
#
#
# Indices 1 2 3 4 5 6 
#
# 1 115.9356 54.8383 58.8234 0.0000 41.1946 0.0000
# 2 54.8383 243.2993 53.0005 0.0000 -1.3486 0.0000
# 3 58.8234 53.0005 140.8615 0.0000 1.8568 0.0000
# 4 0.0000 0.0000 0.0000 5.8922 0.0000 14.9068
# 5 41.1946 -1.3486 1.8568 0.0000 67.8476 0.0000
# 6 0.0000 0.0000 0.0000 14.9068 0.0000 -29.5413
#
#
#
# Elastic Compliance Matrix: (Units=1/GPa)
#
#
# Indices 1 2 3 4 5 6 
#
# 1 0.016096 -0.002445 -0.005674 0.000000 -0.009666 0.000000
# 2 -0.002445 0.004850 -0.000825 0.000000 0.001604 0.000000
# 3 -0.005674 -0.000825 0.009737 0.000000 0.003162 0.000000
# 4 0.000000 0.000000 0.000000 0.074547 0.000000 0.037617
# 5 -0.009666 0.001604 0.003162 0.000000 0.020553 0.000000
# 6 0.000000 0.000000 0.000000 0.037617 0.000000 -0.014869
#
#
# Mechanical properties :
#
#
# Convention : Reuss Voigt Hill
#
# Bulk Modulus (GPa) = 78.15883 92.60231 85.38057
# Shear Modulus (GPa) = 37.57516 31.06867 34.32191
#
# Velocity S-wave (km/s) = 3.83278 3.48517 3.66310
# Velocity P-wave (km/s) = 7.08120 7.23868 7.16037
#
# Compressibility (1/GPa) = 0.01279446
#
# Stress axis : x y z
#
# Youngs Moduli (GPa) = 62.12902 206.18966 102.69861
#
# Poissons Ratio (x) = 0.50422 0.58270
# Poissons Ratio (y) = 0.15193 0.08470
# Poissons Ratio (z) = 0.35252 0.17006
#
# Static dielectric constant tensor:
#      x y z
#    x 2.267840 0.000000 0.085120 
#    y 0.000000 1.986970 0.000000 
#    z 0.085120 0.000000 2.027070 
# 
# From -- ./inp_files/658.got.cif
#   From: 2010.05.17/outbox.cif.g08.bks.cpg/sg6_1_cif.got.tgz:658.got - 2010.06.03 19:42:10.
