data_PCOD9131070
_publ_section_title
;
Structure prediction by ZEFSAII (Michael W. Deem and Ramdas Pophale) SiO2 
 PCOD9131070
Probable space group: P M
;
_chemical_formula_sum "Si O2"
_cell_formula_units_Z 16
_cell_length_a 14.505701
_cell_length_b 9.016880
_cell_length_c 19.309562
_cell_angle_alpha 90.000000
_cell_angle_beta 19.170667
_cell_angle_gamma 90.000000
_cell_volume 829.369887
_symmetry_space_group_name_H-M "P M"
_symmetry_group_IT_number 6
_symmetry_cell_setting 'monoclinic'
loop_
_space_group_symop_operation_xyz
x,y,z
x,-y,z
loop_
_atom_site_type_symbol
_atom_site_label
_atom_site_fract_x
_atom_site_fract_y
_atom_site_fract_z
Si Si1 0.000000 0.829807 0.842690
Si Si2 0.917786 0.822737 0.165383
Si Si3 0.440900 0.170222 0.401687
Si Si4 0.511588 0.676491 0.726514
Si Si5 0.976478 0.176509 0.494281
Si Si6 0.002288 0.326018 0.622649
Si Si7 0.567610 0.673978 0.057469
Si Si8 0.485939 0.822750 0.597352
O O1 0.224981 0.831516 0.619920
O O2 0.184255 0.782644 0.777779
O O3 0.905472 0.000000 0.919329
O O4 0.748228 0.728587 0.995253
O O5 0.734151 0.782562 0.227734
O O6 0.721138 0.797943 0.371726
O O7 0.972413 0.000000 0.122268
O O8 0.203960 0.733900 0.966531
O O9 0.295443 0.271294 0.447827
O O10 0.463929 0.000000 0.360812
O O11 0.529645 0.500000 0.717530
O O12 0.549165 0.733857 0.621454
O O13 0.744060 0.750184 0.610335
O O14 0.284312 0.233021 0.253654
O O15 0.936692 0.233099 0.601005
O O16 0.959718 0.000000 0.502665
O O17 0.015742 0.500000 0.596469
O O18 0.765232 0.304313 0.849922
O O19 0.503160 0.500000 0.109158
O O20 0.477567 0.000000 0.617328
#
# Coordination Sequence:
#
# PCOD9131070 Si02
#       8
#     2   2   2   2   2   2   2   2
#     4   8  15  31  57  88 119 151 189 230 275 334
#     4   9  19  38  63  88 116 152 193 236 280 332
#     4   8  15  31  57  88 119 151 189 230 275 334
#     4  12  26  41  58  83 116 151 191 241 291 342
#     4  12  26  43  62  81 108 151 201 245 281 334
#     4  10  21  38  61  89 121 152 184 232 291 344
#     4  10  21  38  61  89 121 152 184 232 291 344
#     4   9  19  38  63  88 116 152 193 236 280 332
#
# _framework density 19.291754000000001
#
# number of rings (size 3 to 8) (size 9 to 14) (size 15 to 20)
#    0.000    2.250    0.000    4.500    0.000    5.000 
#    0.000    3.750    0.000    0.000    0.000    0.000 
#    0.000    0.000    0.000    0.000    0.000    0.000 
#
# Total GULP energy -89397.237608 kJ/mol
# GULP energy per Si atom -5587.327350 kJ/mol
# Density = 1.924784 g / cm^3
# Si number density = 19.291754 Si / 1000 Ang^3
#
#
#
# Elastic Constant Matrix: (Units=GPa)
#
#
# Indices 1 2 3 4 5 6 
#
# 1 149.5867 96.1426 69.3114 0.0000 -25.6472 0.0000
# 2 96.1426 140.9972 77.7469 0.0000 -22.8333 0.0000
# 3 69.3114 77.7469 113.0050 0.0000 -19.7376 0.0000
# 4 0.0000 0.0000 0.0000 505.8372 0.0000 -707.3289
# 5 -25.6472 -22.8333 -19.7376 0.0000 37.0525 0.0000
# 6 0.0000 0.0000 0.0000 -707.3289 0.0000 1067.8920
#
#
#
# Elastic Compliance Matrix: (Units=1/GPa)
#
#
# Indices 1 2 3 4 5 6 
#
# 1 0.012809 -0.006743 -0.002640 0.000000 0.003304 0.000000
# 2 -0.006743 0.015320 -0.006142 0.000000 0.001502 0.000000
# 3 -0.002640 -0.006142 0.015121 0.000000 0.002442 0.000000
# 4 0.000000 0.000000 0.000000 0.026787 0.000000 0.017743
# 5 0.003304 0.001502 0.002442 0.000000 0.031502 0.000000
# 6 0.000000 0.000000 0.000000 0.017743 0.000000 0.012689
#
#
# Mechanical properties :
#
#
# Convention : Reuss Voigt Hill
#
# Bulk Modulus (GPa) = 81.97066 98.88787 90.42927
# Shear Modulus (GPa) = 33.47947 332.84888 183.16417
#
# Velocity S-wave (km/s) = 4.17037 13.14948 9.75451
# Velocity P-wave (km/s) = 8.10996 16.79034 13.18497
#
# Compressibility (1/GPa) = 0.01219949
#
# Stress axis : x y z
#
# Youngs Moduli (GPa) = 78.07091 65.27230 66.13508
#
# Poissons Ratio (x) = 0.44015 0.17458
# Poissons Ratio (y) = 0.52646 0.40621
# Poissons Ratio (z) = 0.20609 0.40091
#
# Static dielectric constant tensor:
#      x y z
#    x 1.663540 0.000000 0.028730 
#    y 0.000000 1.635380 0.000000 
#    z 0.028730 0.000000 1.686290 
# 
# From -- ./inp_files/5929.got.cif
#   From: 2010.05.17/outbox.cif.g08.bks.cpg/sg6_3_cif.got.tgz:5929.got - 2010.06.03 19:42:10.
