data_PCOD9131615
_publ_section_title
;
Structure prediction by ZEFSAII (Michael W. Deem and Ramdas Pophale) SiO2 
 PCOD9131615
Probable space group: C M
;
_chemical_formula_sum "Si O2"
_cell_formula_units_Z 32
_cell_length_a 21.788704
_cell_length_b 7.684726
_cell_length_c 16.175692
_cell_angle_alpha 90.000000
_cell_angle_beta 153.443992
_cell_angle_gamma 90.000000
_cell_volume 1210.878405
_symmetry_space_group_name_H-M "C M"
_symmetry_group_IT_number 8
_symmetry_cell_setting 'monoclinic'
loop_
_space_group_symop_operation_xyz
x,y,z
x,-y,z
1/2+x,1/2+y,z
1/2+x,1/2-y,z
loop_
_atom_site_type_symbol
_atom_site_label
_atom_site_fract_x
_atom_site_fract_y
_atom_site_fract_z
Si Si1 0.521840 0.200399 0.418370
Si Si2 0.841099 0.795433 0.991371
Si Si3 0.546936 0.298460 0.637442
Si Si4 0.319697 0.287850 0.777560
Si Si5 0.935063 0.212689 0.748135
Si Si6 0.141469 0.300496 0.341982
Si Si7 0.252221 0.204849 0.310133
Si Si8 0.229847 0.786664 0.090753
O O1 0.539794 0.200235 0.540628
O O2 0.667891 0.274188 0.566482
O O3 0.371496 0.279665 0.221061
O O4 0.514895 0.000000 0.383123
O O5 0.700382 0.719212 0.859284
O O6 0.842118 0.725554 0.897535
O O7 0.818037 0.000000 0.962994
O O8 0.998541 0.766049 0.206634
O O9 0.527299 0.500000 0.595077
O O10 0.412346 0.240858 0.525063
O O11 0.314503 0.500000 0.775331
O O12 0.429333 0.248607 0.839449
O O13 0.788290 0.282117 0.541587
O O14 0.935109 0.000000 0.738015
O O15 0.078647 0.274056 0.883674
O O16 0.149111 0.500000 0.376403
O O17 0.150486 0.288584 0.253389
O O18 0.240071 0.260435 0.200390
O O19 0.224852 0.000000 0.279784
O O20 0.233401 0.000000 0.090388
#
# Coordination Sequence:
#
# PCOD9131615 Si02
#       8
#     4   4   4   4   4   4   4   4
#     4   8  14  26  47  74  99 125 163 205 245 294
#     4  10  19  34  56  77 100 134 175 211 247 302
#     4  10  18  30  51  80 109 129 157 209 265 306
#     4   8  14  27  49  73  93 122 167 210 242 285
#     4   9  17  29  45  69 100 129 164 210 250 287
#     4  11  22  33  47  73 108 139 170 214 262 299
#     4  10  19  34  56  77 100 134 175 211 247 302
#     4   8  14  27  49  73  93 122 167 210 242 285
#
# _framework density 26.427095000000001
#
# number of rings (size 3 to 8) (size 9 to 14) (size 15 to 20)
#    0.000    2.750    0.000    4.500    0.000    2.000 
#    0.000    1.250    0.000   22.500    0.000    0.000 
#    0.000    0.000    0.000    0.000    0.000    0.000 
#
# Total GULP energy -89407.925453 kJ/mol
# GULP energy per Si atom -5587.995341 kJ/mol
# Density = 2.636695 g / cm^3
# Si number density = 26.427095 Si / 1000 Ang^3
#
#
#
# Elastic Constant Matrix: (Units=GPa)
#
#
# Indices 1 2 3 4 5 6 
#
# 1 118.7143 4.9703 46.2756 0.0000 44.1647 0.0000
# 2 4.9703 57.6217 -5.5436 0.0000 2.2540 0.0000
# 3 46.2756 -5.5436 187.8725 0.0000 40.2921 0.0000
# 4 0.0000 0.0000 0.0000 19.3155 0.0000 10.2670
# 5 44.1647 2.2540 40.2921 0.0000 61.2556 0.0000
# 6 0.0000 0.0000 0.0000 10.2670 0.0000 6.5347
#
#
#
# Elastic Compliance Matrix: (Units=1/GPa)
#
#
# Indices 1 2 3 4 5 6 
#
# 1 0.011801 -0.000844 -0.001296 0.000000 -0.007624 0.000000
# 2 -0.000844 0.017533 0.000854 0.000000 -0.000598 0.000000
# 3 -0.001296 0.000854 0.006373 0.000000 -0.003288 0.000000
# 4 0.000000 0.000000 0.000000 0.314015 0.000000 -0.493361
# 5 -0.007624 -0.000598 -0.003288 0.000000 0.024007 0.000000
# 6 0.000000 0.000000 0.000000 -0.493361 0.000000 0.928168
#
#
# Mechanical properties :
#
#
# Convention : Reuss Voigt Hill
#
# Bulk Modulus (GPa) = 30.18265 50.62367 40.40316
# Shear Modulus (GPa) = 3.80079 38.65492 21.22786
#
# Velocity S-wave (km/s) = 1.20056 3.82868 2.83726
# Velocity P-wave (km/s) = 3.65618 6.22435 5.10442
#
# Compressibility (1/GPa) = 0.03313161
#
# Stress axis : x y z
#
# Youngs Moduli (GPa) = 84.74017 57.03565 156.92417
#
# Poissons Ratio (x) = 0.04816 0.20344
# Poissons Ratio (y) = 0.07155 -0.13394
# Poissons Ratio (z) = 0.10986 -0.04868
#
# Static dielectric constant tensor:
#      x y z
#    x 2.087930 0.000000 -0.080540 
#    y 0.000000 1.946920 0.000000 
#    z -0.080540 0.000000 2.182980 
# 
# From -- ./inp_files/22748.got.cif
#   From: 2010.05.17/outbox.cif.g08.bks.cpg/sg8_12_cif.got.tgz:22748.got - 2010.06.03 19:46:02.
