data_PCOD9131314
_publ_section_title
;
Structure prediction by ZEFSAII (Michael W. Deem and Ramdas Pophale) SiO2 
 PCOD9131314
Probable space group: P C
;
_chemical_formula_sum "Si O2"
_cell_formula_units_Z 14
_cell_length_a 11.419302
_cell_length_b 11.720459
_cell_length_c 5.210236
_cell_angle_alpha 90.000000
_cell_angle_beta 102.461976
_cell_angle_gamma 90.000000
_cell_volume 680.905564
_symmetry_space_group_name_H-M "P C"
_symmetry_group_IT_number 7
_symmetry_cell_setting 'monoclinic'
loop_
_space_group_symop_operation_xyz
x,y,z
x,-y,1/2+z
loop_
_atom_site_type_symbol
_atom_site_label
_atom_site_fract_x
_atom_site_fract_y
_atom_site_fract_z
Si Si1 0.287570 0.274556 0.567580
Si Si2 0.621461 0.227680 0.028703
Si Si3 0.475721 0.071754 0.636872
Si Si4 0.406649 0.365778 0.118361
Si Si5 0.816557 0.074208 0.351120
Si Si6 0.629026 0.463511 0.737530
Si Si7 0.100652 0.078714 0.465833
O O1 0.376427 0.167043 0.628115
O O2 0.327692 0.345108 0.334669
O O3 0.164028 0.203193 0.496438
O O4 0.318898 0.350300 0.832698
O O5 0.506090 0.263188 0.147316
O O6 0.729926 0.180027 0.246982
O O7 0.592694 0.133909 0.799949
O O8 0.635420 0.341668 0.869496
O O9 0.464772 0.027060 0.344512
O O10 0.496096 0.476398 0.148017
O O11 0.958044 0.100649 0.400486
O O12 0.795001 0.018500 0.616639
O O13 0.686262 0.459241 0.485990
O O14 0.131058 0.999608 0.729759
#
# Coordination Sequence:
#
# PCOD9131314 Si02
#       7
#     2   2   2   2   2   2   2
#     4  11  20  34  53  77 109 140 175 218 275 323
#     4  10  21  35  54  78 108 146 180 216 280 332
#     4  11  20  29  44  72 105 132 164 208 256 317
#     4  10  21  34  53  82 105 133 179 233 277 323
#     4  10  22  37  54  80 116 151 186 226 263 316
#     4  10  20  35  53  77 105 136 178 223 272 328
#     4  10  20  36  55  78 112 154 192 222 261 321
#
# _framework density 20.560853000000002
#
# number of rings (size 3 to 8) (size 9 to 14) (size 15 to 20)
#    0.000    1.714    0.000    6.857    0.000    5.714 
#    0.000    0.000    0.000    0.000    0.000   32.000 
#    0.000    0.000    0.000    0.000    0.000    0.000 
#
# Total GULP energy -78018.934316 kJ/mol
# GULP energy per Si atom -5572.781023 kJ/mol
# Density = 2.051406 g / cm^3
# Si number density = 20.560853 Si / 1000 Ang^3
#
#
#
# Elastic Constant Matrix: (Units=GPa)
#
#
# Indices 1 2 3 4 5 6 
#
# 1 67.3464 12.9866 26.4697 0.0000 8.9570 0.0000
# 2 12.9866 29.9124 9.0090 0.0000 9.4534 0.0000
# 3 26.4697 9.0090 122.1977 0.0000 -11.6912 0.0000
# 4 0.0000 0.0000 0.0000 36.4485 0.0000 11.4811
# 5 8.9570 9.4534 -11.6912 0.0000 25.7010 0.0000
# 6 0.0000 0.0000 0.0000 11.4811 0.0000 30.6070
#
#
#
# Elastic Compliance Matrix: (Units=1/GPa)
#
#
# Indices 1 2 3 4 5 6 
#
# 1 0.018284 -0.004559 -0.004259 0.000000 -0.006632 0.000000
# 2 -0.004559 0.041266 -0.003508 0.000000 -0.015185 0.000000
# 3 -0.004259 -0.003508 0.010068 0.000000 0.007354 0.000000
# 4 0.000000 0.000000 0.000000 0.031112 0.000000 -0.011671
# 5 -0.006632 -0.015185 0.007354 0.000000 0.050151 0.000000
# 6 0.000000 0.000000 0.000000 -0.011671 0.000000 0.037050
#
#
# Mechanical properties :
#
#
# Convention : Reuss Voigt Hill
#
# Bulk Modulus (GPa) = 22.23884 35.15414 28.69649
# Shear Modulus (GPa) = 21.97113 29.95072 25.96092
#
# Velocity S-wave (km/s) = 3.27248 3.82080 3.55722
# Velocity P-wave (km/s) = 5.01183 6.04974 5.55508
#
# Compressibility (1/GPa) = 0.04496637
#
# Stress axis : x y z
#
# Youngs Moduli (GPa) = 54.69326 24.23314 99.32236
#
# Poissons Ratio (x) = 0.11048 0.42301
# Poissons Ratio (y) = 0.24936 0.34838
# Poissons Ratio (z) = 0.23294 0.08500
#
# Static dielectric constant tensor:
#      x y z
#    x 1.881270 0.000000 -0.001050 
#    y 0.000000 1.820550 0.000000 
#    z -0.001050 0.000000 1.829480 
# 
# From -- ./inp_files/1099.got.cif
#   From: 2010.05.17/outbox.cif.g08.bks.cpg/sg7_cif.got.tgz:1099.got - 2010.06.03 19:44:50.
