data_PCOD9131231
_publ_section_title
;
Structure prediction by ZEFSAII (Michael W. Deem and Ramdas Pophale) SiO2 
 PCOD9131231
Probable space group: P C
;
_chemical_formula_sum "Si O2"
_cell_formula_units_Z 14
_cell_length_a 11.311044
_cell_length_b 10.708141
_cell_length_c 5.326687
_cell_angle_alpha 90.000000
_cell_angle_beta 91.662689
_cell_angle_gamma 90.000000
_cell_volume 644.898045
_symmetry_space_group_name_H-M "P C"
_symmetry_group_IT_number 7
_symmetry_cell_setting 'monoclinic'
loop_
_space_group_symop_operation_xyz
x,y,z
x,-y,1/2+z
loop_
_atom_site_type_symbol
_atom_site_label
_atom_site_fract_x
_atom_site_fract_y
_atom_site_fract_z
Si Si1 0.235060 0.769930 0.057310
Si Si2 0.455491 0.132767 0.801913
Si Si3 0.552101 0.847826 0.807501
Si Si4 0.067690 0.082346 0.222623
Si Si5 0.808537 0.917023 0.770004
Si Si6 0.395991 0.535232 0.948569
Si Si7 0.137441 0.568243 0.368060
O O1 0.319166 0.867842 0.207443
O O2 0.170775 0.825437 0.811792
O O3 0.138200 0.703948 0.234186
O O4 0.328317 0.666230 0.969397
O O5 0.528878 0.199812 0.585258
O O6 0.510044 0.993784 0.833130
O O7 0.474395 0.197782 0.069704
O O8 0.688763 0.838954 0.744075
O O9 0.074074 0.978691 0.448265
O O10 0.937457 0.143087 0.245604
O O11 0.802908 0.017360 0.542529
O O12 0.463575 0.507636 0.698759
O O13 0.279277 0.446734 0.917556
O O14 0.093647 0.526230 0.641840
#
# Coordination Sequence:
#
# PCOD9131231 Si02
#       7
#     2   2   2   2   2   2   2
#     4  10  20  32  46  71 107 118 154 190 235 296
#     4  10  20  26  46  65  89 122 150 190 231 257
#     4  10  18  32  43  62  83 128 165 190 213 252
#     4  10  24  32  45  68  95 136 155 183 239 270
#     4  10  16  34  50  56  80 124 170 201 212 251
#     4   8  16  30  48  65  87 124 152 186 228 276
#     4   8  16  30  48  65  87 124 152 186 228 276
#
# _framework density 21.708857999999999
#
# number of rings (size 3 to 8) (size 9 to 14) (size 15 to 20)
#    0.000    2.857    2.857    0.000    4.000    9.143 
#    0.000    0.000    0.000    0.000    0.000    0.000 
#    0.000   61.714    0.000    0.000    0.000    0.000 
#
# Total GULP energy -77946.509561 kJ/mol
# GULP energy per Si atom -5567.607826 kJ/mol
# Density = 2.165945 g / cm^3
# Si number density = 21.708858 Si / 1000 Ang^3
#
#
#
# Elastic Constant Matrix: (Units=GPa)
#
#
# Indices 1 2 3 4 5 6 
#
# 1 65.1425 16.2034 5.6587 0.0000 7.8958 0.0000
# 2 16.2034 39.7914 7.7112 0.0000 -1.7664 0.0000
# 3 5.6587 7.7112 147.6435 0.0000 -0.2250 0.0000
# 4 0.0000 0.0000 0.0000 5.5741 0.0000 -63.7033
# 5 7.8958 -1.7664 -0.2250 0.0000 26.5767 0.0000
# 6 0.0000 0.0000 0.0000 -63.7033 0.0000 -340.9980
#
#
#
# Elastic Compliance Matrix: (Units=1/GPa)
#
#
# Indices 1 2 3 4 5 6 
#
# 1 0.017953 -0.007511 -0.000305 0.000000 -0.005835 0.000000
# 2 -0.007511 0.028605 -0.001200 0.000000 0.004122 0.000000
# 3 -0.000305 -0.001200 0.006848 0.000000 0.000069 0.000000
# 4 0.000000 0.000000 0.000000 0.057225 0.000000 -0.010690
# 5 -0.005835 0.004122 0.000069 0.000000 0.039635 0.000000
# 6 0.000000 0.000000 0.000000 -0.010690 0.000000 -0.000935
#
#
# Mechanical properties :
#
#
# Convention : Reuss Voigt Hill
#
# Bulk Modulus (GPa) = 28.26846 34.63599 31.45222
# Shear Modulus (GPa) = 27.90921 -46.90249 -9.49664
#
# Velocity S-wave (km/s) = 3.58944 -4.65319 -2.09381
# Velocity P-wave (km/s) = 5.49806 3.58889 2.94521
#
# Compressibility (1/GPa) = 0.03537512
#
# Stress axis : x y z
#
# Youngs Moduli (GPa) = 55.70125 34.95897 146.03824
#
# Poissons Ratio (x) = 0.26256 0.04450
# Poissons Ratio (y) = 0.41835 0.17522
# Poissons Ratio (z) = 0.01697 0.04195
#
# Static dielectric constant tensor:
#      x y z
#    x 1.788300 0.000000 -0.023170 
#    y 0.000000 12.405290 0.000000 
#    z -0.023170 0.000000 1.963880 
# 
# From -- ./inp_files/1109.got.cif
#   From: 2010.05.17/outbox.cif.g08.bks.cpg/sg7_cif.got.tgz:1109.got - 2010.06.03 19:44:50.
