data_PCOD9131921
_publ_section_title
;
Structure prediction by ZEFSAII (Michael W. Deem and Ramdas Pophale) SiO2 
 PCOD9131921
Probable space group: C M
;
_chemical_formula_sum "Si O2"
_cell_formula_units_Z 32
_cell_length_a 14.567214
_cell_length_b 8.831389
_cell_length_c 14.158898
_cell_angle_alpha 90.000000
_cell_angle_beta 108.176106
_cell_angle_gamma 90.000000
_cell_volume 1730.634280
_symmetry_space_group_name_H-M "C M"
_symmetry_group_IT_number 8
_symmetry_cell_setting 'monoclinic'
loop_
_space_group_symop_operation_xyz
x,y,z
x,-y,z
1/2+x,1/2+y,z
1/2+x,1/2-y,z
loop_
_atom_site_type_symbol
_atom_site_label
_atom_site_fract_x
_atom_site_fract_y
_atom_site_fract_z
Si Si1 0.419220 0.323967 0.504470
Si Si2 0.777351 0.680320 0.178933
Si Si3 0.616018 0.321738 0.650191
Si Si4 0.238419 0.820508 0.378444
Si Si5 0.682430 0.181175 0.865318
Si Si6 0.582992 0.178494 0.450566
Si Si7 0.378474 0.681925 0.038126
Si Si8 0.077959 0.181540 0.005085
O O1 0.393318 0.500000 0.488558
O O2 0.498301 0.305687 0.613275
O O3 0.324790 0.223015 0.476951
O O4 0.483529 0.268534 0.435750
O O5 0.793629 0.500000 0.183075
O O6 0.773000 0.729925 0.285918
O O7 0.854871 0.754966 0.134291
O O8 0.671065 0.709528 0.101037
O O9 0.635811 0.500000 0.642069
O O10 0.663469 0.258987 0.759185
O O11 0.641845 0.226939 0.564483
O O12 0.142676 0.735647 0.380990
O O13 0.221549 0.000000 0.372094
O O14 0.679146 0.000000 0.854787
O O15 0.786798 0.224255 0.942896
O O16 0.602579 0.236786 0.914929
O O17 0.566061 0.000000 0.443512
O O18 0.380600 0.500000 0.044644
O O19 0.479350 0.731543 0.024190
O O20 0.072151 0.000000 0.987018
#
# Coordination Sequence:
#
# PCOD9131921 Si02
#       8
#     4   4   4   4   4   4   4   4
#     4   9  20  37  55  77 106 143 186 227 272 323
#     4   9  20  35  54  79 108 141 178 221 269 320
#     4   9  19  37  57  78 108 145 182 224 274 324
#     4  11  21  35  55  82 113 147 187 228 274 327
#     4  10  19  33  54  81 109 138 177 223 270 321
#     4  10  20  36  56  79 109 144 182 228 275 321
#     4   9  19  35  55  80 107 139 179 220 266 323
#     4   9  18  36  56  76 106 143 177 217 268 323
#
# _framework density 18.49033
#
# number of rings (size 3 to 8) (size 9 to 14) (size 15 to 20)
#    0.750    1.750    0.000    2.250    0.000    3.000 
#    2.250    1.250    0.000    0.000    0.000    0.000 
#    0.000    0.000    0.000    0.000    0.000    0.000 
#
# Total GULP energy -89139.515018 kJ/mol
# GULP energy per Si atom -5571.219689 kJ/mol
# Density = 1.844825 g / cm^3
# Si number density = 18.490330 Si / 1000 Ang^3
#
#
#
# Elastic Constant Matrix: (Units=GPa)
#
#
# Indices 1 2 3 4 5 6 
#
# 1 70.5699 -2.4377 -4.1126 0.0000 -14.9021 0.0000
# 2 -2.4377 29.7990 11.8718 0.0000 -0.6309 0.0000
# 3 -4.1126 11.8718 43.2352 0.0000 -9.2405 0.0000
# 4 0.0000 0.0000 0.0000 27.6888 0.0000 -6.4606
# 5 -14.9021 -0.6309 -9.2405 0.0000 16.4244 0.0000
# 6 0.0000 0.0000 0.0000 -6.4606 0.0000 25.9726
#
#
#
# Elastic Compliance Matrix: (Units=1/GPa)
#
#
# Indices 1 2 3 4 5 6 
#
# 1 0.018896 -0.000556 0.006377 0.000000 0.020711 0.000000
# 2 -0.000556 0.038057 -0.011706 0.000000 -0.005628 0.000000
# 3 0.006377 -0.011706 0.031930 0.000000 0.023300 0.000000
# 4 0.000000 0.000000 0.000000 0.038341 0.000000 0.009537
# 5 0.020711 -0.005628 0.023300 0.000000 0.092569 0.000000
# 6 0.000000 0.000000 0.000000 0.009537 0.000000 0.040875
#
#
# Mechanical properties :
#
#
# Convention : Reuss Voigt Hill
#
# Bulk Modulus (GPa) = 12.96802 17.13858 15.05330
# Shear Modulus (GPa) = 16.77048 23.23599 20.00323
#
# Velocity S-wave (km/s) = 3.01489 3.54878 3.29267
# Velocity P-wave (km/s) = 4.37585 5.10694 4.75546
#
# Compressibility (1/GPa) = 0.07711277
#
# Stress axis : x y z
#
# Youngs Moduli (GPa) = 52.92044 26.27636 31.31852
#
# Poissons Ratio (x) = 0.01461 -0.19971
# Poissons Ratio (y) = 0.02943 0.36661
# Poissons Ratio (z) = -0.33746 0.30759
#
# Static dielectric constant tensor:
#      x y z
#    x 1.645610 0.000000 0.016830 
#    y 0.000000 1.612580 0.000000 
#    z 0.016830 0.000000 1.647050 
# 
# From -- ./inp_files/26449.got.cif
#   From: 2010.05.17/outbox.cif.g08.bks.cpg/sg8_14_cif.got.tgz:26449.got - 2010.06.03 19:46:02.
