data_PCOD9131820
_publ_section_title
;
Structure prediction by ZEFSAII (Michael W. Deem and Ramdas Pophale) SiO2 
 PCOD9131820
Probable space group: C M
;
_chemical_formula_sum "Si O2"
_cell_formula_units_Z 32
_cell_length_a 9.568180
_cell_length_b 13.308892
_cell_length_c 23.279995
_cell_angle_alpha 90.000000
_cell_angle_beta 147.756209
_cell_angle_gamma 90.000000
_cell_volume 1581.638236
_symmetry_space_group_name_H-M "C M"
_symmetry_group_IT_number 8
_symmetry_cell_setting 'monoclinic'
loop_
_space_group_symop_operation_xyz
x,y,z
x,-y,z
1/2+x,1/2+y,z
1/2+x,1/2-y,z
loop_
_atom_site_type_symbol
_atom_site_label
_atom_site_fract_x
_atom_site_fract_y
_atom_site_fract_z
Si Si1 0.649170 0.803391 0.219090
Si Si2 0.612130 0.755184 0.080688
Si Si3 0.403038 0.114282 0.351669
Si Si4 0.146587 0.121532 0.718975
Si Si5 0.617192 0.619807 0.459547
Si Si6 0.051073 0.622414 0.527697
Si Si7 0.636967 0.876753 0.969570
Si Si8 0.029633 0.118828 0.555013
O O1 0.655366 0.823166 0.153175
O O2 0.735497 0.686792 0.254620
O O3 0.867855 0.857804 0.333154
O O4 0.367524 0.810598 0.151726
O O5 0.587967 0.826798 0.015713
O O6 0.375053 0.681329 0.018858
O O7 0.388677 0.144776 0.413276
O O8 0.714135 0.122302 0.449359
O O9 0.321871 0.000000 0.315573
O O10 0.378950 0.148379 0.842137
O O11 0.853623 0.151515 0.635427
O O12 0.170193 0.156758 0.661183
O O13 0.145350 0.000000 0.716928
O O14 0.636744 0.500000 0.469869
O O15 0.875990 0.659626 0.518829
O O16 0.598825 0.661335 0.517197
O O17 0.056011 0.500000 0.529754
O O18 0.670720 0.000000 0.983980
O O19 0.093448 0.000000 0.575480
#
# Coordination Sequence:
#
# PCOD9131820 Si02
#       8
#     4   4   4   4   4   4   4   4
#     4  11  21  35  54  79 119 157 193 251 296 339
#     4  10  24  40  58  90 118 148 216 270 288 352
#     4   9  17  31  52  76 107 154 197 225 280 359
#     4   8  15  33  60  80 102 147 192 231 294 357
#     4  10  19  30  47  77 118 152 179 226 289 349
#     4   8  15  29  50  79 112 144 186 231 274 351
#     4  10  22  45  70  86 116 162 200 255 322 354
#     4   8  15  29  50  79 112 144 186 231 274 351
#
# _framework density 20.232188000000001
#
# number of rings (size 3 to 8) (size 9 to 14) (size 15 to 20)
#    0.000    2.750    0.000    3.000    0.000    3.000 
#    0.000    9.375    0.000    6.000    0.000    0.000 
#    0.000    0.000    0.000    0.000    0.000    0.000 
#
# Total GULP energy -89206.783345 kJ/mol
# GULP energy per Si atom -5575.423959 kJ/mol
# Density = 2.018614 g / cm^3
# Si number density = 20.232188 Si / 1000 Ang^3
#
#
#
# Elastic Constant Matrix: (Units=GPa)
#
#
# Indices 1 2 3 4 5 6 
#
# 1 183.7578 13.8972 78.5560 0.0000 -22.5924 0.0000
# 2 13.8972 83.7319 20.6801 0.0000 -11.4055 0.0000
# 3 78.5560 20.6801 127.1931 0.0003 -18.2056 0.0001
# 4 0.0000 0.0000 0.0003 33.9778 0.0000 -3.7878
# 5 -22.5924 -11.4055 -18.2056 0.0000 18.4891 0.0000
# 6 0.0000 0.0000 0.0001 -3.7878 0.0000 11.9754
#
#
#
# Elastic Compliance Matrix: (Units=1/GPa)
#
#
# Indices 1 2 3 4 5 6 
#
# 1 0.007886 0.000510 -0.004108 0.000000 0.005905 0.000000
# 2 0.000510 0.013212 -0.001405 0.000000 0.007390 0.000000
# 3 -0.004108 -0.001405 0.011390 0.000000 0.005329 0.000000
# 4 0.000000 0.000000 0.000000 0.030507 0.000000 0.009649
# 5 0.005905 0.007390 0.005329 0.000000 0.071108 0.000000
# 6 0.000000 0.000000 0.000000 0.009649 0.000000 0.086556
#
#
# Mechanical properties :
#
#
# Convention : Reuss Voigt Hill
#
# Bulk Modulus (GPa) = 44.48112 68.99439 56.73775
# Shear Modulus (GPa) = 20.99442 31.65845 26.32643
#
# Velocity S-wave (km/s) = 3.22479 3.95999 3.61115
# Velocity P-wave (km/s) = 5.99156 7.42186 6.74473
#
# Compressibility (1/GPa) = 0.02248145
#
# Stress axis : x y z
#
# Youngs Moduli (GPa) = 126.81482 75.68937 87.79279
#
# Poissons Ratio (x) = -0.03861 0.36064
# Poissons Ratio (y) = -0.06470 0.12339
# Poissons Ratio (z) = 0.52094 0.10638
#
# Static dielectric constant tensor:
#      x y z
#    x 1.774450 0.000000 -0.008900 
#    y 0.000000 1.788030 0.000000 
#    z -0.008900 0.000000 1.684770 
# 
# From -- ./inp_files/18874.got.cif
#   From: 2010.05.17/outbox.cif.g08.bks.cpg/sg8_10_cif.got.tgz:18874.got - 2010.06.03 19:46:02.
