data_PCOD9131351
_publ_section_title
;
Structure prediction by ZEFSAII (Michael W. Deem and Ramdas Pophale) SiO2 
 PCOD9131351
Probable space group: P C
;
_chemical_formula_sum "Si O2"
_cell_formula_units_Z 14
_cell_length_a 7.598396
_cell_length_b 15.628646
_cell_length_c 5.378438
_cell_angle_alpha 90.000000
_cell_angle_beta 118.311585
_cell_angle_gamma 90.000000
_cell_volume 562.302923
_symmetry_space_group_name_H-M "P C"
_symmetry_group_IT_number 7
_symmetry_cell_setting 'monoclinic'
loop_
_space_group_symop_operation_xyz
x,y,z
x,-y,1/2+z
loop_
_atom_site_type_symbol
_atom_site_label
_atom_site_fract_x
_atom_site_fract_y
_atom_site_fract_z
Si Si1 0.225380 0.552363 0.221000
Si Si2 0.828725 0.944944 0.249180
Si Si3 0.643937 0.242430 0.666734
Si Si4 0.701683 0.546349 0.567410
Si Si5 0.921969 0.695479 0.002620
Si Si6 0.568096 0.786173 0.628492
Si Si7 0.300170 0.051402 0.053942
O O1 0.165998 0.497594 0.426806
O O2 0.463456 0.555299 0.399026
O O3 0.131568 0.647837 0.153986
O O4 0.065721 0.922835 0.392864
O O5 0.703735 0.857998 0.198294
O O6 0.789758 0.003074 0.467657
O O7 0.843885 0.293802 0.733706
O O8 0.509829 0.264340 0.338039
O O9 0.528678 0.253920 0.839271
O O10 0.752840 0.522200 0.319126
O O11 0.799507 0.629680 0.750363
O O12 0.816692 0.783727 0.820591
O O13 0.447856 0.873064 0.575242
O O14 0.331298 0.018455 0.356218
#
# Coordination Sequence:
#
# PCOD9131351 Si02
#       7
#     2   2   2   2   2   2   2
#     4  10  22  39  63  90 116 153 199 242 289 349
#     4  10  21  38  60  82 112 153 199 248 294 342
#     4  10  23  37  55  87 115 153 196 234 303 350
#     4  10  22  39  63  90 116 153 199 242 289 349
#     4  10  24  38  62  86 124 158 190 242 300 356
#     4  10  23  37  55  87 115 153 196 234 303 350
#     4  10  21  38  60  82 112 153 199 248 294 342
#
# _framework density 24.897614999999998
#
# number of rings (size 3 to 8) (size 9 to 14) (size 15 to 20)
#    0.857    1.143    0.000    2.571    4.000    4.571 
#    0.000    0.000    0.000    0.000    0.000    0.000 
#    0.000    0.000    0.000    0.000    0.000    0.000 
#
# Total GULP energy -78045.411082 kJ/mol
# GULP energy per Si atom -5574.672220 kJ/mol
# Density = 2.484095 g / cm^3
# Si number density = 24.897615 Si / 1000 Ang^3
#
#
#
# Elastic Constant Matrix: (Units=GPa)
#
#
# Indices 1 2 3 4 5 6 
#
# 1 101.3479 38.7620 48.6447 0.0000 -8.0123 0.0000
# 2 38.7620 78.9138 26.8743 0.0000 -4.7299 0.0000
# 3 48.6447 26.8743 139.2722 0.0000 -35.8219 0.0000
# 4 0.0000 0.0000 0.0000 33.1701 0.0000 -4.2660
# 5 -8.0123 -4.7299 -35.8219 0.0000 38.9828 0.0000
# 6 0.0000 0.0000 0.0000 -4.2660 0.0000 39.9465
#
#
#
# Elastic Compliance Matrix: (Units=1/GPa)
#
#
# Indices 1 2 3 4 5 6 
#
# 1 0.013849 -0.005468 -0.004217 0.000000 -0.001692 0.000000
# 2 -0.005468 0.015752 -0.001214 0.000000 -0.000328 0.000000
# 3 -0.004217 -0.001214 0.011297 0.000000 0.009367 0.000000
# 4 0.000000 0.000000 0.000000 0.030567 0.000000 0.003264
# 5 -0.001692 -0.000328 0.009367 0.000000 0.033872 0.000000
# 6 0.000000 0.000000 0.000000 0.003264 0.000000 0.025382
#
#
# Mechanical properties :
#
#
# Convention : Reuss Voigt Hill
#
# Bulk Modulus (GPa) = 52.35970 60.89955 56.62963
# Shear Modulus (GPa) = 31.46987 36.10342 33.78664
#
# Velocity S-wave (km/s) = 3.55909 3.81212 3.68778
# Velocity P-wave (km/s) = 6.16159 6.62491 6.39744
#
# Compressibility (1/GPa) = 0.01909866
#
# Stress axis : x y z
#
# Youngs Moduli (GPa) = 72.20980 63.48599 88.52208
#
# Poissons Ratio (x) = 0.34711 0.37332
# Poissons Ratio (y) = 0.39481 0.10748
# Poissons Ratio (z) = 0.30453 0.07708
#
# Static dielectric constant tensor:
#      x y z
#    x 2.005250 0.000000 -0.008000 
#    y 0.000000 2.038660 0.000000 
#    z -0.008000 0.000000 2.086570 
# 
# From -- ./inp_files/888.got.cif
#   From: 2010.05.17/outbox.cif.g08.bks.cpg/sg7_cif.got.tgz:888.got - 2010.06.03 19:44:50.
