data_PCOD9131724
_publ_section_title
;
Structure prediction by ZEFSAII (Michael W. Deem and Ramdas Pophale) SiO2 
 PCOD9131724
Probable space group: C M
;
_chemical_formula_sum "Si O2"
_cell_formula_units_Z 26
_cell_length_a 8.390986
_cell_length_b 17.279482
_cell_length_c 9.144171
_cell_angle_alpha 90.000000
_cell_angle_beta 44.998790
_cell_angle_gamma 90.000000
_cell_volume 937.484044
_symmetry_space_group_name_H-M "C M"
_symmetry_group_IT_number 8
_symmetry_cell_setting 'monoclinic'
loop_
_space_group_symop_operation_xyz
x,y,z
x,-y,z
1/2+x,1/2+y,z
1/2+x,1/2-y,z
loop_
_atom_site_type_symbol
_atom_site_label
_atom_site_fract_x
_atom_site_fract_y
_atom_site_fract_z
Si Si1 0.803130 0.210389 0.844560
Si Si2 0.618777 0.361914 0.267982
Si Si3 0.327808 0.129224 0.697335
Si Si4 0.844290 0.918226 0.040517
Si Si5 0.181268 0.417486 0.701162
Si Si6 0.832404 0.708686 0.404571
Si Si7 0.552047 0.500000 0.157122
O O1 0.736685 0.298015 0.854156
O O2 0.768854 0.162818 0.017642
O O3 0.682456 0.156788 0.803326
O O4 0.070793 0.217062 0.630711
O O5 0.434577 0.415074 0.470061
O O6 0.795465 0.328607 0.270393
O O7 0.471817 0.288050 0.311327
O O8 0.718350 0.428294 0.100191
O O9 0.516743 0.089330 0.670485
O O10 0.425014 0.157084 0.478546
O O11 0.105163 0.079678 0.814317
O O12 0.729590 0.000000 0.068536
O O13 0.888548 0.932988 0.183028
O O14 0.165621 0.500000 0.785374
#
# Coordination Sequence:
#
# PCOD9131724 Si02
#       7
#     4   4   4   4   4   4   2
#     4  10  18  33  59  87 113 134 182 239 298 332
#     4  11  19  38  59  80 119 145 195 228 283 343
#     4  11  18  35  58  90 114 134 181 249 295 332
#     4   9  21  39  53  76 116 156 191 220 273 343
#     4  11  19  29  56  91 112 141 174 242 304 326
#     4  10  19  33  61  89 109 138 182 248 296 328
#     4  10  24  42  52  74 116 174 192 214 264 350
#
# _framework density 27.733805
#
# number of rings (size 3 to 8) (size 9 to 14) (size 15 to 20)
#    0.462    1.231    5.385    1.846    0.000    0.000 
#    5.538    0.000    0.000    3.692    0.000    0.000 
#    0.000    0.000    0.000    0.000    0.000    0.000 
#
# Total GULP energy -72420.357897 kJ/mol
# GULP energy per Si atom -5570.796761 kJ/mol
# Density = 2.767068 g / cm^3
# Si number density = 27.733805 Si / 1000 Ang^3
#
#
#
# Elastic Constant Matrix: (Units=GPa)
#
#
# Indices 1 2 3 4 5 6 
#
# 1 141.5717 66.1738 18.3886 0.0000 18.3584 0.0000
# 2 66.1738 236.2569 26.3986 0.0000 19.5043 0.0000
# 3 18.3886 26.3986 98.0407 0.0000 3.2388 0.0000
# 4 0.0000 0.0000 0.0000 151.6364 0.0000 104.5390
# 5 18.3584 19.5043 3.2388 0.0000 33.2985 0.0000
# 6 0.0000 0.0000 0.0000 104.5390 0.0000 118.0837
#
#
#
# Elastic Compliance Matrix: (Units=1/GPa)
#
#
# Indices 1 2 3 4 5 6 
#
# 1 0.008575 -0.002010 -0.000953 0.000000 -0.003458 0.000000
# 2 -0.002010 0.005044 -0.000923 0.000000 -0.001756 0.000000
# 3 -0.000953 -0.000923 0.010626 0.000000 0.000033 0.000000
# 4 0.000000 0.000000 0.000000 0.016924 0.000000 -0.014983
# 5 -0.003458 -0.001756 0.000033 0.000000 0.032963 0.000000
# 6 0.000000 0.000000 0.000000 -0.014983 0.000000 0.021733
#
#
# Mechanical properties :
#
#
# Convention : Reuss Voigt Hill
#
# Bulk Modulus (GPa) = 60.70486 77.53234 69.11860
# Shear Modulus (GPa) = 45.81782 84.93093 65.37437
#
# Velocity S-wave (km/s) = 4.06896 5.53986 4.86038
# Velocity P-wave (km/s) = 6.63409 8.30281 7.51491
#
# Compressibility (1/GPa) = 0.01647315
#
# Stress axis : x y z
#
# Youngs Moduli (GPa) = 116.61526 198.26355 94.10830
#
# Poissons Ratio (x) = 0.39849 0.08968
# Poissons Ratio (y) = 0.23439 0.08687
# Poissons Ratio (z) = 0.11113 0.18302
#
# Static dielectric constant tensor:
#      x y z
#    x 2.163440 0.000000 0.037730 
#    y 0.000000 2.150300 0.000000 
#    z 0.037730 0.000000 2.491740 
# 
# From -- ./inp_files/18932.got.cif
#   From: 2010.05.17/outbox.cif.g08.bks.cpg/sg8_10_cif.got.tgz:18932.got - 2010.06.03 19:46:02.
