data_PCOD9131091
_publ_section_title
;
Structure prediction by ZEFSAII (Michael W. Deem and Ramdas Pophale) SiO2 
 PCOD9131091
Probable space group: P M
;
_chemical_formula_sum "Si O2"
_cell_formula_units_Z 16
_cell_length_a 9.963649
_cell_length_b 8.429669
_cell_length_c 8.525063
_cell_angle_alpha 90.000000
_cell_angle_beta 90.188781
_cell_angle_gamma 90.000000
_cell_volume 716.018398
_symmetry_space_group_name_H-M "P M"
_symmetry_group_IT_number 6
_symmetry_cell_setting 'monoclinic'
loop_
_space_group_symop_operation_xyz
x,y,z
x,-y,z
loop_
_atom_site_type_symbol
_atom_site_label
_atom_site_fract_x
_atom_site_fract_y
_atom_site_fract_z
Si Si1 0.339860 0.190679 0.691990
Si Si2 0.856724 0.683602 0.689747
Si Si3 0.603322 0.191532 0.524574
Si Si4 0.225515 0.688118 0.018015
Si Si5 0.087609 0.186253 0.503517
Si Si6 0.472573 0.190856 0.189681
Si Si7 0.726752 0.813328 0.002981
Si Si8 0.961614 0.311985 0.187597
O O1 0.490760 0.240089 0.651653
O O2 0.284177 0.241031 0.859180
O O3 0.233663 0.243787 0.559107
O O4 0.340239 0.000000 0.686322
O O5 0.895147 0.500000 0.685054
O O6 0.742065 0.723433 0.561958
O O7 0.790260 0.724861 0.855746
O O8 0.986333 0.787158 0.648322
O O9 0.538789 0.229510 0.356438
O O10 0.623890 0.000000 0.532783
O O11 0.220792 0.500000 0.002005
O O12 0.329253 0.734231 0.155331
O O13 0.076393 0.740735 0.064448
O O14 0.023642 0.277423 0.357466
O O15 0.095149 0.000000 0.464170
O O16 0.458153 0.000000 0.183693
O O17 0.578983 0.238928 0.055717
O O18 0.720623 0.000000 0.966599
O O19 0.826708 0.782358 0.148819
O O20 0.936901 0.500000 0.170244
#
# Coordination Sequence:
#
# PCOD9131091 Si02
#       8
#     2   2   2   2   2   2   2   2
#     4  10  22  39  62  89 118 155 202 250 296 349
#     4  12  25  40  60  89 124 161 198 246 303 359
#     4  10  21  40  63  89 119 154 200 251 298 354
#     4  11  24  39  59  88 123 159 196 240 297 360
#     4  11  23  41  65  91 118 156 202 248 298 358
#     4  10  22  40  63  88 117 154 200 250 297 349
#     4  11  23  40  63  90 119 159 207 252 296 352
#     4  11  24  41  61  90 124 158 197 247 303 359
#
# _framework density 22.345791999999999
#
# number of rings (size 3 to 8) (size 9 to 14) (size 15 to 20)
#    0.000    1.250    0.000    5.625    0.000   12.000 
#    0.000    0.000    0.000    0.000    0.000    0.000 
#    0.000    0.000    0.000    0.000    0.000    0.000 
#
# Total GULP energy -89581.640282 kJ/mol
# GULP energy per Si atom -5598.852518 kJ/mol
# Density = 2.229493 g / cm^3
# Si number density = 22.345792 Si / 1000 Ang^3
#
#
#
# Elastic Constant Matrix: (Units=GPa)
#
#
# Indices 1 2 3 4 5 6 
#
# 1 77.7208 0.8962 -17.6505 0.0000 0.0651 0.0000
# 2 0.8962 14.0160 -4.6428 0.0000 0.0161 0.0000
# 3 -17.6505 -4.6428 57.2714 0.0000 -2.7981 0.0000
# 4 0.0000 0.0000 0.0000 61.7064 0.0000 5.7974
# 5 0.0651 0.0161 -2.7981 0.0000 37.5228 0.0000
# 6 0.0000 0.0000 0.0000 5.7974 0.0000 13.3719
#
#
#
# Elastic Compliance Matrix: (Units=1/GPa)
#
#
# Indices 1 2 3 4 5 6 
#
# 1 0.013842 0.000547 0.004325 0.000000 0.000298 0.000000
# 2 0.000547 0.073344 0.006135 0.000000 0.000425 0.000000
# 3 0.004325 0.006135 0.019361 0.000000 0.001434 0.000000
# 4 0.000000 0.000000 0.000000 0.016894 0.000000 -0.007324
# 5 0.000298 0.000425 0.001434 0.000000 0.026757 0.000000
# 6 0.000000 0.000000 0.000000 -0.007324 0.000000 0.077959
#
#
# Mechanical properties :
#
#
# Convention : Reuss Voigt Hill
#
# Bulk Modulus (GPa) = 7.77837 11.80156 9.78997
# Shear Modulus (GPa) = 20.08067 33.88058 26.98063
#
# Velocity S-wave (km/s) = 3.00097 3.89806 3.47856
# Velocity P-wave (km/s) = 3.93653 5.05496 4.53039
#
# Compressibility (1/GPa) = 0.12856162
#
# Stress axis : x y z
#
# Youngs Moduli (GPa) = 72.24276 13.63443 51.65016
#
# Poissons Ratio (x) = -0.00746 -0.22339
# Poissons Ratio (y) = -0.03953 -0.31688
# Poissons Ratio (z) = -0.31245 -0.08365
#
# Static dielectric constant tensor:
#      x y z
#    x 1.804380 0.000000 -0.012270 
#    y 0.000000 1.760330 0.000000 
#    z -0.012270 0.000000 1.861160 
# 
# From -- ./inp_files/2687.got.cif
#   From: 2010.05.17/outbox.cif.g08.bks.cpg/sg6_2_cif.got.tgz:2687.got - 2010.06.03 19:42:10.
