data_PCOD9131037
_publ_section_title
;
Structure prediction by ZEFSAII (Michael W. Deem and Ramdas Pophale) SiO2 
 PCOD9131037
Probable space group: P M
;
_chemical_formula_sum "Si O2"
_cell_formula_units_Z 16
_cell_length_a 12.637619
_cell_length_b 9.164951
_cell_length_c 8.239797
_cell_angle_alpha 90.000000
_cell_angle_beta 124.831772
_cell_angle_gamma 90.000000
_cell_volume 783.369247
_symmetry_space_group_name_H-M "P M"
_symmetry_group_IT_number 6
_symmetry_cell_setting 'monoclinic'
loop_
_space_group_symop_operation_xyz
x,y,z
x,-y,z
loop_
_atom_site_type_symbol
_atom_site_label
_atom_site_fract_x
_atom_site_fract_y
_atom_site_fract_z
Si Si1 0.452580 0.347987 0.873520
Si Si2 0.249475 0.323401 0.166818
Si Si3 0.111054 0.175114 0.353936
Si Si4 0.848072 0.672505 0.136078
Si Si5 0.701054 0.659510 0.322756
Si Si6 0.519401 0.839122 0.366788
Si Si7 0.167875 0.666553 0.745501
Si Si8 0.606321 0.157621 0.808947
O O1 0.452087 0.500000 0.773866
O O2 0.321648 0.343052 0.854668
O O3 0.478844 0.207262 0.791847
O O4 0.574367 0.353870 0.098144
O O5 0.251152 0.500000 0.183055
O O6 0.200205 0.250439 0.292402
O O7 0.393262 0.263137 0.254426
O O8 0.159164 0.287931 0.928277
O O9 0.129078 0.236632 0.554940
O O10 0.966881 0.229693 0.186451
O O11 0.125367 0.000000 0.362699
O O12 0.870709 0.500000 0.130914
O O13 0.816110 0.694035 0.300117
O O14 0.718608 0.725394 0.933478
O O15 0.724163 0.500000 0.418776
O O16 0.649377 0.780139 0.397097
O O17 0.562097 0.850279 0.588373
O O18 0.485019 0.000000 0.271209
O O19 0.115386 0.500000 0.681270
O O20 0.652370 0.000000 0.909321
#
# Coordination Sequence:
#
# PCOD9131037 Si02
#       8
#     2   2   2   2   2   2   2   2
#     4   9  17  33  56  84 114 150 196 245 296 358
#     4  11  23  42  67  94 128 169 214 261 306 368
#     4  12  26  43  64  93 128 166 209 262 323 377
#     4  10  22  43  65  84 111 158 213 256 298 362
#     4   9  18  35  59  85 114 150 196 246 297 357
#     4  11  22  35  56  92 130 159 194 247 315 375
#     4  10  21  40  65  92 123 166 216 259 306 368
#     4  10  21  35  54  86 122 158 196 246 311 371
#
# _framework density 20.424595
#
# number of rings (size 3 to 8) (size 9 to 14) (size 15 to 20)
#    0.000    1.750    1.250    4.125    0.000    8.000 
#    2.250    0.000    0.000    0.000    0.000    0.000 
#    0.000    0.000    0.000    0.000    0.000    0.000 
#
# Total GULP energy -89112.060743 kJ/mol
# GULP energy per Si atom -5569.503796 kJ/mol
# Density = 2.037811 g / cm^3
# Si number density = 20.424595 Si / 1000 Ang^3
#
#
#
# Elastic Constant Matrix: (Units=GPa)
#
#
# Indices 1 2 3 4 5 6 
#
# 1 53.9403 29.8104 5.0174 0.0000 -0.1490 0.0000
# 2 29.8104 115.8280 32.3741 0.0000 -20.4536 0.0000
# 3 5.0174 32.3741 59.6290 0.0000 -16.0377 0.0000
# 4 0.0000 0.0000 0.0000 23.8937 0.0000 8.1005
# 5 -0.1490 -20.4536 -16.0377 0.0000 24.8738 0.0000
# 6 0.0000 0.0000 0.0000 8.1005 0.0000 33.0497
#
#
#
# Elastic Compliance Matrix: (Units=1/GPa)
#
#
# Indices 1 2 3 4 5 6 
#
# 1 0.022211 -0.006739 0.000405 0.000000 -0.005147 0.000000
# 2 -0.006739 0.012969 -0.004375 0.000000 0.007803 0.000000
# 3 0.000405 -0.004375 0.021951 0.000000 0.010558 0.000000
# 4 0.000000 0.000000 0.000000 0.045645 0.000000 -0.011188
# 5 -0.005147 0.007803 0.010558 0.000000 0.053396 0.000000
# 6 0.000000 0.000000 0.000000 -0.011188 0.000000 0.032999
#
#
# Mechanical properties :
#
#
# Convention : Reuss Voigt Hill
#
# Bulk Modulus (GPa) = 28.00021 40.42233 34.21127
# Shear Modulus (GPa) = 22.47261 27.17646 24.82453
#
# Velocity S-wave (km/s) = 3.32063 3.65166 3.49007
# Velocity P-wave (km/s) = 5.33301 6.13298 5.74693
#
# Compressibility (1/GPa) = 0.03571402
#
# Stress axis : x y z
#
# Youngs Moduli (GPa) = 45.02234 77.10976 45.55509
#
# Poissons Ratio (x) = 0.51961 -0.01847
# Poissons Ratio (y) = 0.30339 0.19932
# Poissons Ratio (z) = -0.01825 0.33738
#
# Static dielectric constant tensor:
#      x y z
#    x 1.779860 0.000000 -0.044780 
#    y 0.000000 1.808200 0.000000 
#    z -0.044780 0.000000 1.763810 
# 
# From -- ./inp_files/3780.got.cif
#   From: 2010.05.17/outbox.cif.g08.bks.cpg/sg6_2_cif.got.tgz:3780.got - 2010.06.03 19:42:10.
