data_PCOD9131540
_publ_section_title
;
Structure prediction by ZEFSAII (Michael W. Deem and Ramdas Pophale) SiO2 
 PCOD9131540
Probable space group: C M
;
_chemical_formula_sum "Si O2"
_cell_formula_units_Z 32
_cell_length_a 9.796440
_cell_length_b 14.255184
_cell_length_c 11.850008
_cell_angle_alpha 90.000000
_cell_angle_beta 67.295561
_cell_angle_gamma 90.000000
_cell_volume 1526.616611
_symmetry_space_group_name_H-M "C M"
_symmetry_group_IT_number 8
_symmetry_cell_setting 'monoclinic'
loop_
_space_group_symop_operation_xyz
x,y,z
x,-y,z
1/2+x,1/2+y,z
1/2+x,1/2-y,z
loop_
_atom_site_type_symbol
_atom_site_label
_atom_site_fract_x
_atom_site_fract_y
_atom_site_fract_z
Si Si1 0.348110 0.885991 0.261690
Si Si2 0.670095 0.112973 0.231253
Si Si3 0.354503 0.658077 0.952525
Si Si4 0.062564 0.114153 0.497882
Si Si5 0.122937 0.102949 0.731477
Si Si6 0.368889 0.390069 0.362175
Si Si7 0.633584 0.260025 0.900199
Si Si8 0.660606 0.391003 0.110969
O O1 0.509204 0.849425 0.245908
O O2 0.219837 0.861970 0.391154
O O3 0.287850 0.858944 0.157763
O O4 0.356166 0.000000 0.256245
O O5 0.735638 0.149668 0.328687
O O6 0.658152 0.000000 0.244945
O O7 0.785726 0.131564 0.093623
O O8 0.479748 0.593684 0.858436
O O9 0.460399 0.750356 0.927104
O O10 0.221788 0.669242 0.907601
O O11 0.068911 0.137759 0.627152
O O12 0.929230 0.150547 0.460963
O O13 0.052398 0.000000 0.496020
O O14 0.208024 0.183577 0.772811
O O15 0.193792 0.000000 0.697310
O O16 0.332500 0.500000 0.394154
O O17 0.511397 0.389023 0.233763
O O18 0.642492 0.325713 0.008760
O O19 0.684813 0.500000 0.070404
#
# Coordination Sequence:
#
# PCOD9131540 Si02
#       8
#     4   4   4   4   4   4   4   4
#     4   8  16  25  45  77 108 130 153 207 268 299
#     4  10  17  29  50  79 110 133 162 209 258 308
#     4  10  22  33  51  75 101 139 169 207 261 303
#     4   8  14  28  50  75  97 127 172 215 248 293
#     4   9  18  34  59  77  94 132 186 218 237 296
#     4   8  13  24  47  76 101 126 165 212 254 293
#     4  10  21  33  51  73 103 137 168 213 260 303
#     4   9  15  28  49  74  99 132 173 205 243 307
#
# _framework density 20.961386000000001
#
# number of rings (size 3 to 8) (size 9 to 14) (size 15 to 20)
#    0.750    2.250    1.250    2.250    1.750    0.000 
#    0.000    0.000    2.750    6.000    0.000    0.000 
#    0.000    0.000    0.000    0.000    0.000    0.000 
#
# Total GULP energy -89071.479276 kJ/mol
# GULP energy per Si atom -5566.967455 kJ/mol
# Density = 2.091368 g / cm^3
# Si number density = 20.961386 Si / 1000 Ang^3
#
#
#
# Elastic Constant Matrix: (Units=GPa)
#
#
# Indices 1 2 3 4 5 6 
#
# 1 99.7609 -11.7344 19.9567 0.0000 17.7011 0.0000
# 2 -11.7344 26.6026 0.8711 0.0000 2.5696 0.0000
# 3 19.9567 0.8711 77.8770 0.0000 31.2679 0.0000
# 4 0.0000 0.0000 0.0000 1.1554 0.0000 24.8722
# 5 17.7011 2.5696 31.2679 0.0000 27.7333 0.0000
# 6 0.0000 0.0000 0.0000 24.8722 0.0000 -14.7215
#
#
#
# Elastic Compliance Matrix: (Units=1/GPa)
#
#
# Indices 1 2 3 4 5 6 
#
# 1 0.012247 0.006236 0.000297 0.000000 -0.008729 0.000000
# 2 0.006236 0.041244 0.001960 0.000000 -0.010012 0.000000
# 3 0.000297 0.001960 0.023554 0.000000 -0.026927 0.000000
# 4 0.000000 0.000000 0.000000 0.023160 0.000000 0.039130
# 5 -0.008729 -0.010012 -0.026927 0.000000 0.072916 0.000000
# 6 0.000000 0.000000 0.000000 0.039130 0.000000 -0.001818
#
#
# Mechanical properties :
#
#
# Convention : Reuss Voigt Hill
#
# Bulk Modulus (GPa) = 10.63495 24.71414 17.67455
# Shear Modulus (GPa) = 26.93079 15.84324 21.38701
#
# Velocity S-wave (km/s) = 3.58827 2.75222 3.19769
# Velocity P-wave (km/s) = 4.71722 4.68140 4.69935
#
# Compressibility (1/GPa) = 0.09402958
#
# Stress axis : x y z
#
# Youngs Moduli (GPa) = 81.65333 24.24619 42.45537
#
# Poissons Ratio (x) = -0.15119 -0.01259
# Poissons Ratio (y) = -0.50915 -0.08323
# Poissons Ratio (z) = -0.02421 -0.04753
#
# Static dielectric constant tensor:
#      x y z
#    x 1.802620 0.000000 0.027540 
#    y 0.000000 1.896520 0.000000 
#    z 0.027540 0.000000 1.731800 
# 
# From -- ./inp_files/19133.got.cif
#   From: 2010.05.17/outbox.cif.g08.bks.cpg/sg8_10_cif.got.tgz:19133.got - 2010.06.03 19:46:02.
