data_PCOD9131794
_publ_section_title
;
Structure prediction by ZEFSAII (Michael W. Deem and Ramdas Pophale) SiO2 
 PCOD9131794
Probable space group: C M
;
_chemical_formula_sum "Si O2"
_cell_formula_units_Z 32
_cell_length_a 9.480212
_cell_length_b 17.480478
_cell_length_c 12.498727
_cell_angle_alpha 90.000000
_cell_angle_beta 51.998846
_cell_angle_gamma 90.000000
_cell_volume 1632.158930
_symmetry_space_group_name_H-M "C M"
_symmetry_group_IT_number 8
_symmetry_cell_setting 'monoclinic'
loop_
_space_group_symop_operation_xyz
x,y,z
x,-y,z
1/2+x,1/2+y,z
1/2+x,1/2-y,z
loop_
_atom_site_type_symbol
_atom_site_label
_atom_site_fract_x
_atom_site_fract_y
_atom_site_fract_z
Si Si1 0.125000 0.409335 0.960640
Si Si2 0.480614 0.665418 0.716517
Si Si3 0.520479 0.648127 0.250159
Si Si4 0.598283 0.839410 0.424574
Si Si5 0.811990 0.671457 0.725635
Si Si6 0.797468 0.410724 0.959129
Si Si7 0.623393 0.336413 0.422749
Si Si8 0.045107 0.324276 0.216235
O O1 0.102080 0.500000 0.988462
O O2 0.320409 0.390305 0.823853
O O3 0.966533 0.383069 0.953173
O O4 0.112171 0.364426 0.078427
O O5 0.632187 0.676276 0.737091
O O6 0.388692 0.746334 0.728290
O O7 0.572393 0.636441 0.563959
O O8 0.306592 0.653074 0.353106
O O9 0.568837 0.616466 0.344564
O O10 0.598921 0.734753 0.197387
O O11 0.616783 0.601950 0.111847
O O12 0.463475 0.868382 0.578789
O O13 0.542368 0.749175 0.446248
O O14 0.588546 0.866635 0.306943
O O15 0.782722 0.627991 0.850601
O O16 0.827594 0.500000 0.928131
O O17 0.832428 0.324830 0.314089
#
# Coordination Sequence:
#
# PCOD9131794 Si02
#       8
#     4   4   4   4   4   4   4   4
#     4  11  25  42  60  85 123 169 208 248 298 356
#     4  11  23  39  65  94 121 158 200 250 306 360
#     4  10  20  36  63  91 120 155 195 249 306 356
#     4   9  20  33  61  96 117 148 192 251 309 355
#     4  11  23  40  64  93 123 157 200 252 303 361
#     4  11  25  43  59  84 125 168 208 250 297 355
#     4   9  18  35  61  90 120 148 192 253 303 360
#     4  10  18  38  61  89 121 149 197 251 302 359
#
# _framework density 19.605934000000001
#
# number of rings (size 3 to 8) (size 9 to 14) (size 15 to 20)
#    0.000    1.750    2.500    1.500    8.750    0.500 
#    0.000    2.500    0.000    0.000    0.000    0.000 
#    0.000    0.000    0.000    0.000    0.000    0.000 
#
# Total GULP energy -89177.716939 kJ/mol
# GULP energy per Si atom -5573.607309 kJ/mol
# Density = 1.956131 g / cm^3
# Si number density = 19.605934 Si / 1000 Ang^3
#
#
#
# Elastic Constant Matrix: (Units=GPa)
#
#
# Indices 1 2 3 4 5 6 
#
# 1 113.0095 10.4923 16.5809 0.0000 21.3204 0.0000
# 2 10.4923 20.0858 5.3868 0.0000 7.6644 0.0000
# 3 16.5809 5.3868 96.2464 0.0000 16.6615 0.0000
# 4 0.0000 0.0000 0.0000 -20.4622 0.0000 -8.8903
# 5 21.3204 7.6644 16.6615 0.0000 40.8822 0.0000
# 6 0.0000 0.0000 0.0000 -8.8903 0.0000 22.4575
#
#
#
# Elastic Compliance Matrix: (Units=1/GPa)
#
#
# Indices 1 2 3 4 5 6 
#
# 1 0.010095 -0.003418 -0.000804 0.000000 -0.004296 0.000000
# 2 -0.003418 0.054945 -0.001089 0.000000 -0.008075 0.000000
# 3 -0.000804 -0.001089 0.011277 0.000000 -0.003973 0.000000
# 4 0.000000 0.000000 0.000000 -0.041698 0.000000 -0.016507
# 5 -0.004296 -0.008075 -0.003973 0.000000 0.029834 0.000000
# 6 0.000000 0.000000 0.000000 -0.016507 0.000000 0.037994
#
#
# Mechanical properties :
#
#
# Convention : Reuss Voigt Hill
#
# Bulk Modulus (GPa) = 15.22179 32.69574 23.95877
# Shear Modulus (GPa) = 37.04632 21.70092 29.37362
#
# Velocity S-wave (km/s) = 4.35161 3.33055 3.87486
# Velocity P-wave (km/s) = 5.74712 5.61273 5.68032
#
# Compressibility (1/GPa) = 0.06569528
#
# Stress axis : x y z
#
# Youngs Moduli (GPa) = 99.06265 18.19994 88.67488
#
# Poissons Ratio (x) = 0.06221 0.07130
# Poissons Ratio (y) = 0.33863 0.09652
# Poissons Ratio (z) = 0.07965 0.01981
#
# Static dielectric constant tensor:
#      x y z
#    x 1.598510 0.000000 0.025280 
#    y 0.000000 1.702040 0.000000 
#    z 0.025280 0.000000 1.700220 
# 
# From -- ./inp_files/19272.got.cif
#   From: 2010.05.17/outbox.cif.g08.bks.cpg/sg8_10_cif.got.tgz:19272.got - 2010.06.03 19:46:02.
