data_PCOD9131780
_publ_section_title
;
Structure prediction by ZEFSAII (Michael W. Deem and Ramdas Pophale) SiO2 
 PCOD9131780
Probable space group: C M
;
_chemical_formula_sum "Si O2"
_cell_formula_units_Z 26
_cell_length_a 15.258664
_cell_length_b 7.374038
_cell_length_c 18.689797
_cell_angle_alpha 90.000000
_cell_angle_beta 31.130017
_cell_angle_gamma 90.000000
_cell_volume 1087.180774
_symmetry_space_group_name_H-M "C M"
_symmetry_group_IT_number 8
_symmetry_cell_setting 'monoclinic'
loop_
_space_group_symop_operation_xyz
x,y,z
x,-y,z
1/2+x,1/2+y,z
1/2+x,1/2-y,z
loop_
_atom_site_type_symbol
_atom_site_label
_atom_site_fract_x
_atom_site_fract_y
_atom_site_fract_z
Si Si1 0.632400 0.717563 0.475010
Si Si2 0.178376 0.292893 0.993940
Si Si3 0.830378 0.207746 0.476148
Si Si4 0.947161 0.000000 0.125177
Si Si5 0.755822 0.220360 0.779633
Si Si6 0.196462 0.217424 0.264652
Si Si7 0.549369 0.219918 0.786237
O O1 0.635307 0.500000 0.476957
O O2 0.760606 0.785720 0.445083
O O3 0.443975 0.779344 0.627083
O O4 0.665405 0.764831 0.370188
O O5 0.120007 0.500000 0.033093
O O6 0.217480 0.218174 0.886338
O O7 0.358632 0.284315 0.907100
O O8 0.032585 0.157838 0.118102
O O9 0.682424 0.283379 0.631667
O O10 0.021696 0.277791 0.348997
O O11 0.848925 0.000000 0.488374
O O12 0.858277 0.839607 0.136872
O O13 0.627133 0.274896 0.807793
O O14 0.755981 0.000000 0.781876
O O15 0.223660 0.000000 0.236184
O O16 0.542752 0.000000 0.787945
#
# Coordination Sequence:
#
# PCOD9131780 Si02
#       7
#     4   4   4   2   4   4   4
#     4  10  19  35  62  96 129 161 204 259 329 388
#     4  11  23  42  66  94 126 171 215 264 314 376
#     4  10  20  34  62  98 132 161 201 260 329 382
#     4  12  26  46  68  84 126 180 230 256 304 368
#     4   9  18  35  63  95 131 164 200 260 333 381
#     4  10  23  44  66  91 127 173 213 262 316 379
#     4  10  18  36  63  97 132 166 199 257 330 387
#
# _framework density 23.915067000000001
#
# number of rings (size 3 to 8) (size 9 to 14) (size 15 to 20)
#    0.000    1.846    3.846    0.462    2.154    0.000 
#    1.385    1.538    0.000    0.000    0.000    0.000 
#    0.000    0.000    0.000    0.000    0.000    0.000 
#
# Total GULP energy -72437.339196 kJ/mol
# GULP energy per Si atom -5572.103015 kJ/mol
# Density = 2.386063 g / cm^3
# Si number density = 23.915067 Si / 1000 Ang^3
#
#
#
# Elastic Constant Matrix: (Units=GPa)
#
#
# Indices 1 2 3 4 5 6 
#
# 1 135.8102 15.5925 34.1067 0.0000 -46.3774 0.0000
# 2 15.5925 117.8219 12.9739 0.0002 -14.5238 0.0000
# 3 34.1067 12.9739 69.2811 0.0003 -37.7040 0.0000
# 4 0.0000 0.0002 0.0003 -183.7906 -0.0001 -89.8572
# 5 -46.3774 -14.5238 -37.7040 -0.0001 56.1853 0.0000
# 6 0.0000 0.0000 0.0000 -89.8572 0.0000 -26.4568
#
#
#
# Elastic Compliance Matrix: (Units=1/GPa)
#
#
# Indices 1 2 3 4 5 6 
#
# 1 0.010285 -0.000306 -0.000676 0.000000 0.007958 0.000000
# 2 -0.000306 0.008794 -0.000625 0.000000 0.001602 0.000000
# 3 -0.000676 -0.000625 0.022830 0.000000 0.014601 0.000000
# 4 0.000000 0.000000 0.000000 0.008237 0.000000 -0.027977
# 5 0.007958 0.001602 0.014601 0.000000 0.034579 0.000000
# 6 0.000000 0.000000 0.000000 -0.027977 0.000000 0.057224
#
#
# Mechanical properties :
#
#
# Convention : Reuss Voigt Hill
#
# Bulk Modulus (GPa) = 25.84169 49.80659 37.82414
# Shear Modulus (GPa) = 31.63355 -13.46309 9.08523
#
# Velocity S-wave (km/s) = 3.64090 -2.37524 1.95121
# Velocity P-wave (km/s) = 5.33891 3.65367 4.57456
#
# Compressibility (1/GPa) = 0.03869715
#
# Stress axis : x y z
#
# Youngs Moduli (GPa) = 97.22536 113.71292 43.80266
#
# Poissons Ratio (x) = 0.03478 0.02959
# Poissons Ratio (y) = 0.02974 0.02736
# Poissons Ratio (z) = 0.06568 0.07103
#
# Static dielectric constant tensor:
#      x y z
#    x 1.868160 0.000000 0.029140 
#    y 0.000000 1.996020 0.000000 
#    z 0.029140 0.000000 2.106850 
# 
# From -- ./inp_files/21253.got.cif
#   From: 2010.05.17/outbox.cif.g08.bks.cpg/sg8_11_cif.got.tgz:21253.got - 2010.06.03 19:46:02.
