data_PCOD9131527
_publ_section_title
;
Structure prediction by ZEFSAII (Michael W. Deem and Ramdas Pophale) SiO2 
 PCOD9131527
Probable space group: C M
;
_chemical_formula_sum "Si O2"
_cell_formula_units_Z 32
_cell_length_a 14.704222
_cell_length_b 8.209993
_cell_length_c 11.690783
_cell_angle_alpha 90.000000
_cell_angle_beta 106.563283
_cell_angle_gamma 90.000000
_cell_volume 1352.767081
_symmetry_space_group_name_H-M "C M"
_symmetry_group_IT_number 8
_symmetry_cell_setting 'monoclinic'
loop_
_space_group_symop_operation_xyz
x,y,z
x,-y,z
1/2+x,1/2+y,z
1/2+x,1/2-y,z
loop_
_atom_site_type_symbol
_atom_site_label
_atom_site_fract_x
_atom_site_fract_y
_atom_site_fract_z
Si Si1 0.232690 0.316723 0.774530
Si Si2 0.540746 0.812340 0.008724
Si Si3 0.951855 0.306291 0.522236
Si Si4 0.668278 0.801446 0.520353
Si Si5 0.913745 0.187197 0.276570
Si Si6 0.329448 0.818897 0.034645
Si Si7 0.114258 0.691700 0.264606
Si Si8 0.038094 0.184976 0.759684
O O1 0.270743 0.500000 0.784249
O O2 0.236001 0.241906 0.647507
O O3 0.272731 0.234488 0.902247
O O4 0.120070 0.312386 0.757034
O O5 0.437112 0.820659 0.027406
O O6 0.527422 0.708387 0.890501
O O7 0.569039 0.000000 0.990969
O O8 0.609040 0.743021 0.133122
O O9 0.941259 0.500000 0.525153
O O10 0.059721 0.264560 0.518838
O O11 0.949256 0.226448 0.646667
O O12 0.888716 0.235570 0.397018
O O13 0.675651 0.740682 0.392465
O O14 0.676355 0.000000 0.522033
O O15 0.005420 0.292925 0.271907
O O16 0.943324 0.000000 0.284713
O O17 0.833680 0.213660 0.151629
O O18 0.299733 0.000000 0.056446
O O19 0.136327 0.500000 0.261479
O O20 0.068564 0.000000 0.746446
#
# Coordination Sequence:
#
# PCOD9131527 Si02
#       8
#     4   4   4   4   4   4   4   4
#     4  10  19  32  51  74 101 131 163 202 251 300
#     4   9  18  32  50  71  97 131 168 204 246 295
#     4   9  16  29  47  67  94 126 161 201 246 290
#     4   7  12  24  44  68  91 118 153 194 238 283
#     4  10  17  26  44  71  98 123 158 202 247 291
#     4  10  20  34  51  72 100 133 168 205 247 293
#     4   8  14  27  46  67  93 126 162 199 242 290
#     4  11  21  32  49  74 102 130 165 207 249 294
#
# _framework density 23.655217
#
# number of rings (size 3 to 8) (size 9 to 14) (size 15 to 20)
#    0.000    2.750    0.000    5.625    0.000    2.500 
#    0.000    0.625    0.000    1.500    0.000    5.250 
#    0.000    0.000    0.000    0.000    0.000    0.000 
#
# Total GULP energy -89161.013023 kJ/mol
# GULP energy per Si atom -5572.563314 kJ/mol
# Density = 2.360138 g / cm^3
# Si number density = 23.655217 Si / 1000 Ang^3
#
#
#
# Elastic Constant Matrix: (Units=GPa)
#
#
# Indices 1 2 3 4 5 6 
#
# 1 42.6023 -11.2233 5.9282 0.0000 5.9594 0.0000
# 2 -11.2233 51.9898 28.8188 0.0000 -3.7273 0.0000
# 3 5.9282 28.8188 258.3970 0.0000 -8.5555 0.0000
# 4 0.0000 0.0000 0.0000 28.6898 0.0000 3.1083
# 5 5.9594 -3.7273 -8.5555 0.0000 10.2393 0.0000
# 6 0.0000 0.0000 0.0000 3.1083 0.0000 3.2841
#
#
#
# Elastic Compliance Matrix: (Units=1/GPa)
#
#
# Indices 1 2 3 4 5 6 
#
# 1 0.027393 0.005803 -0.001783 0.000000 -0.015320 0.000000
# 2 0.005803 0.022061 -0.002509 0.000000 0.002557 0.000000
# 3 -0.001783 -0.002509 0.004314 0.000000 0.003729 0.000000
# 4 0.000000 0.000000 0.000000 0.038838 0.000000 -0.036759
# 5 -0.015320 0.002557 0.003729 0.000000 0.110626 0.000000
# 6 0.000000 0.000000 0.000000 -0.036759 0.000000 0.339288
#
#
# Mechanical properties :
#
#
# Convention : Reuss Voigt Hill
#
# Bulk Modulus (GPa) = 17.60822 44.44849 31.02835
# Shear Modulus (GPa) = 8.95371 30.40700 19.68036
#
# Velocity S-wave (km/s) = 1.94764 3.58917 2.88751
# Velocity P-wave (km/s) = 3.53802 6.00059 4.92568
#
# Compressibility (1/GPa) = 0.05679166
#
# Stress axis : x y z
#
# Youngs Moduli (GPa) = 36.50570 45.32797 231.79183
#
# Poissons Ratio (x) = -0.26306 0.41328
# Poissons Ratio (y) = -0.21186 0.58156
# Poissons Ratio (z) = 0.06509 0.11373
#
# Static dielectric constant tensor:
#      x y z
#    x 1.954230 0.000000 0.005540 
#    y 0.000000 1.857100 0.000000 
#    z 0.005540 0.000000 2.043180 
# 
# From -- ./inp_files/23760.got.cif
#   From: 2010.05.17/outbox.cif.g08.bks.cpg/sg8_12_cif.got.tgz:23760.got - 2010.06.03 19:46:02.
