data_PCOD9131606
_publ_section_title
;
Structure prediction by ZEFSAII (Michael W. Deem and Ramdas Pophale) SiO2 
 PCOD9131606
Probable space group: C M
;
_chemical_formula_sum "Si O2"
_cell_formula_units_Z 24
_cell_length_a 21.464360
_cell_length_b 7.874619
_cell_length_c 7.476115
_cell_angle_alpha 90.000000
_cell_angle_beta 67.780744
_cell_angle_gamma 90.000000
_cell_volume 1169.806852
_symmetry_space_group_name_H-M "C M"
_symmetry_group_IT_number 8
_symmetry_cell_setting 'monoclinic'
loop_
_space_group_symop_operation_xyz
x,y,z
x,-y,z
1/2+x,1/2+y,z
1/2+x,1/2-y,z
loop_
_atom_site_type_symbol
_atom_site_label
_atom_site_fract_x
_atom_site_fract_y
_atom_site_fract_z
Si Si1 0.843010 0.809761 0.170480
Si Si2 0.495652 0.810326 0.949438
Si Si3 0.090903 0.000000 0.844393
Si Si4 0.481382 0.304387 0.579359
Si Si5 0.251720 0.000000 0.248198
Si Si6 0.744589 0.500000 0.695739
Si Si7 0.835464 0.808639 0.602823
Si Si8 0.597809 0.500000 0.398449
O O1 0.793572 0.666812 0.147909
O O2 0.828330 0.818422 0.397184
O O3 0.835618 0.000000 0.104056
O O4 0.920032 0.749502 0.073085
O O5 0.548929 0.666331 0.945001
O O6 0.496807 0.809183 0.731878
O O7 0.508128 0.000000 0.004779
O O8 0.097417 0.000000 0.618640
O O9 0.166674 0.000000 0.830461
O O10 0.466602 0.500000 0.659913
O O11 0.412784 0.254363 0.557578
O O12 0.550526 0.339367 0.396334
O O13 0.248899 0.000000 0.471209
O O14 0.175120 0.000000 0.263168
O O15 0.783733 0.666147 0.720360
O O16 0.823900 0.000000 0.684349
#
# Coordination Sequence:
#
# PCOD9131606 Si02
#       8
#     4   4   2   4   2   2   4   2
#     4  10  18  30  49  73  98 127 161 201 243 285
#     4  11  19  30  50  73  96 131 167 198 243 289
#     4   9  18  34  45  71 104 129 158 208 243 285
#     4   8  16  32  50  71 100 127 155 203 242 281
#     4   9  16  30  47  73  98 127 162 198 241 291
#     4   9  18  30  51  71 102 129 160 200 249 287
#     4   9  18  31  51  75  98 126 161 199 244 291
#     4   7  14  30  51  65 102 131 148 202 249 273
#
# _framework density 20.516207000000001
#
# number of rings (size 3 to 8) (size 9 to 14) (size 15 to 20)
#    0.500    2.333    2.500    0.000    1.167    0.667 
#    0.000    8.333    0.000    4.000    0.000    2.333 
#    0.000    0.000    0.000    0.000    0.000    0.000 
#
# Total GULP energy -66829.970658 kJ/mol
# GULP energy per Si atom -5569.164222 kJ/mol
# Density = 2.046951 g / cm^3
# Si number density = 20.516207 Si / 1000 Ang^3
#
#
#
# Elastic Constant Matrix: (Units=GPa)
#
#
# Indices 1 2 3 4 5 6 
#
# 1 162.2558 86.0318 30.4359 0.0000 -52.7888 0.0000
# 2 86.0318 176.5262 34.3769 0.0000 -44.9117 0.0000
# 3 30.4359 34.3769 43.2811 0.0000 -11.3964 0.0000
# 4 0.0000 0.0000 0.0000 8.1608 0.0000 -26.5644
# 5 -52.7888 -44.9117 -11.3964 0.0000 48.0792 0.0000
# 6 0.0000 0.0000 0.0000 -26.5644 0.0000 -45.9671
#
#
#
# Elastic Compliance Matrix: (Units=1/GPa)
#
#
# Indices 1 2 3 4 5 6 
#
# 1 0.011028 -0.002398 -0.003469 0.000000 0.009047 0.000000
# 2 -0.002398 0.008807 -0.004091 0.000000 0.004624 0.000000
# 3 -0.003469 -0.004091 0.028568 0.000000 -0.000859 0.000000
# 4 0.000000 0.000000 0.000000 0.042531 0.000000 -0.024579
# 5 0.009047 0.004624 -0.000859 0.000000 0.034848 0.000000
# 6 0.000000 0.000000 0.000000 -0.024579 0.000000 -0.007551
#
#
# Mechanical properties :
#
#
# Convention : Reuss Voigt Hill
#
# Bulk Modulus (GPa) = 35.10347 75.97246 55.53797
# Shear Modulus (GPa) = 33.86582 17.46914 25.66748
#
# Velocity S-wave (km/s) = 4.06727 2.92118 3.54090
# Velocity P-wave (km/s) = 6.26133 6.96337 6.62166
#
# Compressibility (1/GPa) = 0.02848721
#
# Stress axis : x y z
#
# Youngs Moduli (GPa) = 90.67542 113.55155 35.00480
#
# Poissons Ratio (x) = 0.27225 0.12143
# Poissons Ratio (y) = 0.21740 0.14321
# Poissons Ratio (z) = 0.31454 0.46456
#
# Static dielectric constant tensor:
#      x y z
#    x 1.732580 0.000000 0.023810 
#    y 0.000000 1.737260 0.000000 
#    z 0.023810 0.000000 1.801480 
# 
# From -- ./inp_files/16635.got.cif
#   From: 2010.05.17/outbox.cif.g08.bks.cpg/sg8_9_cif.got.tgz:16635.got - 2010.06.03 19:46:02.
