data_PCOD9131331
_publ_section_title
;
Structure prediction by ZEFSAII (Michael W. Deem and Ramdas Pophale) SiO2 
 PCOD9131331
Probable space group: P C
;
_chemical_formula_sum "Si O2"
_cell_formula_units_Z 16
_cell_length_a 6.604038
_cell_length_b 19.779569
_cell_length_c 5.628983
_cell_angle_alpha 90.000000
_cell_angle_beta 73.470545
_cell_angle_gamma 90.000000
_cell_volume 704.899321
_symmetry_space_group_name_H-M "P C"
_symmetry_group_IT_number 7
_symmetry_cell_setting 'monoclinic'
loop_
_space_group_symop_operation_xyz
x,y,z
x,-y,1/2+z
loop_
_atom_site_type_symbol
_atom_site_label
_atom_site_fract_x
_atom_site_fract_y
_atom_site_fract_z
Si Si1 0.795250 0.642125 0.417220
Si Si2 0.129657 0.717373 0.632592
Si Si3 0.145510 0.539546 0.192516
Si Si4 0.213029 0.071719 0.184117
Si Si5 0.531735 0.253248 0.693042
Si Si6 0.417580 0.358171 0.367194
Si Si7 0.228859 0.911097 0.173727
Si Si8 0.912923 0.165482 0.502460
O O1 0.678732 0.690260 0.269286
O O2 0.618982 0.615467 0.658758
O O3 0.956628 0.688999 0.510645
O O4 0.929008 0.582181 0.259928
O O5 0.321622 0.750243 0.420894
O O6 0.228825 0.655052 0.745869
O O7 0.028203 0.769311 0.851865
O O8 0.158307 0.504226 0.445826
O O9 0.335820 0.593373 0.100568
O O10 0.338569 0.095563 0.378958
O O11 0.982881 0.105730 0.299981
O O12 0.179331 0.991441 0.187660
O O13 0.315859 0.096535 0.907226
O O14 0.471581 0.285068 0.459616
O O15 0.673197 0.186888 0.616771
O O16 0.028637 0.861397 0.202425
#
# Coordination Sequence:
#
# PCOD9131331 Si02
#       8
#     2   2   2   2   2   2   2   2
#     4  11  25  45  71  94 140 174 219 270 349 382
#     4  11  23  41  66 100 135 175 214 283 334 405
#     4  12  28  47  73 102 134 178 227 271 328 408
#     4   8  16  30  53  87 123 168 219 271 322 389
#     4  11  24  39  68 100 131 173 220 279 335 405
#     4  11  25  45  68  98 141 171 218 275 341 390
#     4   8  16  30  53  87 123 168 221 267 327 384
#     4  10  21  33  64  94 127 175 228 264 344 401
#
# _framework density 22.698276
#
# number of rings (size 3 to 8) (size 9 to 14) (size 15 to 20)
#    0.750    1.000    2.500    1.500    5.250    1.000 
#    0.000    0.000    0.000    1.500    0.000    0.000 
#    0.000    0.000    0.000    0.000    0.000    0.000 
#
# Total GULP energy -89269.060708 kJ/mol
# GULP energy per Si atom -5579.316294 kJ/mol
# Density = 2.264661 g / cm^3
# Si number density = 22.698276 Si / 1000 Ang^3
#
#
#
# Elastic Constant Matrix: (Units=GPa)
#
#
# Indices 1 2 3 4 5 6 
#
# 1 59.0019 19.1887 22.0693 0.0000 -7.0678 0.0000
# 2 19.1887 74.5715 22.5236 0.0000 -10.4661 0.0000
# 3 22.0693 22.5236 141.0971 0.0000 -4.3501 0.0000
# 4 0.0000 0.0000 0.0000 39.0774 0.0000 1.7165
# 5 -7.0678 -10.4661 -4.3501 0.0000 45.2134 0.0000
# 6 0.0000 0.0000 0.0000 1.7165 0.0000 17.2684
#
#
#
# Elastic Compliance Matrix: (Units=1/GPa)
#
#
# Indices 1 2 3 4 5 6 
#
# 1 0.019349 -0.004013 -0.002328 0.000000 0.001872 0.000000
# 2 -0.004013 0.015355 -0.001738 0.000000 0.002760 0.000000
# 3 -0.002328 -0.001738 0.007728 0.000000 -0.000023 0.000000
# 4 0.000000 0.000000 0.000000 0.025702 0.000000 -0.002555
# 5 0.001872 0.002760 -0.000023 0.000000 0.023047 0.000000
# 6 0.000000 0.000000 0.000000 -0.002555 0.000000 0.058163
#
#
# Mechanical properties :
#
#
# Convention : Reuss Voigt Hill
#
# Bulk Modulus (GPa) = 38.06169 44.69264 41.37717
# Shear Modulus (GPa) = 28.69267 34.37110 31.53188
#
# Velocity S-wave (km/s) = 3.55926 3.89557 3.73121
# Velocity P-wave (km/s) = 5.80483 6.32191 6.06888
#
# Compressibility (1/GPa) = 0.02627314
#
# Stress axis : x y z
#
# Youngs Moduli (GPa) = 51.68303 65.12550 129.39523
#
# Poissons Ratio (x) = 0.26134 0.30124
# Poissons Ratio (y) = 0.20740 0.22494
# Poissons Ratio (z) = 0.12032 0.11321
#
# Static dielectric constant tensor:
#      x y z
#    x 1.818780 0.000000 0.025370 
#    y 0.000000 1.869120 0.000000 
#    z 0.025370 0.000000 1.885750 
# 
# From -- ./inp_files/432.got.cif
#   From: 2010.05.17/outbox.cif.g08.bks.cpg/sg7_cif.got.tgz:432.got - 2010.06.03 19:44:50.
