data_PCOD9131492
_publ_section_title
;
Structure prediction by ZEFSAII (Michael W. Deem and Ramdas Pophale) SiO2 
 PCOD9131492
Probable space group: C M
;
_chemical_formula_sum "Si O2"
_cell_formula_units_Z 26
_cell_length_a 7.382504
_cell_length_b 21.027924
_cell_length_c 9.041574
_cell_angle_alpha 90.000000
_cell_angle_beta 54.531691
_cell_angle_gamma 90.000000
_cell_volume 1143.145225
_symmetry_space_group_name_H-M "C M"
_symmetry_group_IT_number 8
_symmetry_cell_setting 'monoclinic'
loop_
_space_group_symop_operation_xyz
x,y,z
x,-y,z
1/2+x,1/2+y,z
1/2+x,1/2-y,z
loop_
_atom_site_type_symbol
_atom_site_label
_atom_site_fract_x
_atom_site_fract_y
_atom_site_fract_z
Si Si1 0.482170 0.207674 0.433900
Si Si2 0.066354 0.500000 0.434271
Si Si3 0.906017 0.392236 0.699827
Si Si4 0.702811 0.426476 0.092795
Si Si5 0.233816 0.605223 0.166494
Si Si6 0.926745 0.925073 0.775716
Si Si7 0.577833 0.652168 0.437115
O O1 0.461440 0.176565 0.606594
O O2 0.691952 0.174910 0.252669
O O3 0.467584 0.282880 0.433991
O O4 0.278627 0.179288 0.439001
O O5 0.051287 0.556257 0.313824
O O6 0.077632 0.443787 0.556160
O O7 0.674300 0.416514 0.731453
O O8 0.864543 0.396091 0.893563
O O9 0.762031 0.500000 0.087948
O O10 0.457794 0.424193 0.132344
O O11 0.672454 0.388637 0.257775
O O12 0.262422 0.602910 0.977555
O O13 0.929349 0.888721 0.619720
O O14 0.889256 0.000000 0.775906
#
# Coordination Sequence:
#
# PCOD9131492 Si02
#       7
#     4   2   4   4   4   4   4
#     4  10  23  41  59  89 110 169 198 251 289 353
#     4  10  14  30  56  90 114 150 182 236 268 368
#     4   9  18  33  63  85 118 151 200 232 298 351
#     4  11  20  38  60  94 121 160 186 250 294 360
#     4  10  19  35  65  88 120 149 203 232 300 351
#     4  10  18  36  59  93 116 158 186 248 292 363
#     4  11  24  40  61  80 128 154 209 242 299 345
#
# _framework density 22.744267000000001
#
# number of rings (size 3 to 8) (size 9 to 14) (size 15 to 20)
#    0.000    1.846    3.077    2.308    0.000    1.231 
#    1.385    7.692    0.000    0.000    0.000    0.000 
#    0.000    0.000    0.000    0.000    0.000    0.000 
#
# Total GULP energy -72438.060195 kJ/mol
# GULP energy per Si atom -5572.158477 kJ/mol
# Density = 2.269250 g / cm^3
# Si number density = 22.744267 Si / 1000 Ang^3
#
#
#
# Elastic Constant Matrix: (Units=GPa)
#
#
# Indices 1 2 3 4 5 6 
#
# 1 42.3092 31.9888 25.3436 0.0000 12.3234 0.0000
# 2 31.9888 119.1809 103.1731 0.0000 29.1600 0.0000
# 3 25.3436 103.1731 229.1330 0.0000 47.4264 0.0000
# 4 0.0000 0.0000 0.0000 23.0461 0.0000 3.5706
# 5 12.3234 29.1600 47.4264 0.0000 30.9694 0.0000
# 6 0.0000 0.0000 0.0000 3.5706 0.0000 14.1383
#
#
#
# Elastic Compliance Matrix: (Units=1/GPa)
#
#
# Indices 1 2 3 4 5 6 
#
# 1 0.030753 -0.007910 0.001686 0.000000 -0.007371 0.000000
# 2 -0.007910 0.016352 -0.005787 0.000000 -0.003387 0.000000
# 3 0.001686 -0.005787 0.008484 0.000000 -0.008214 0.000000
# 4 0.000000 0.000000 0.000000 0.045158 0.000000 -0.011405
# 5 -0.007371 -0.003387 -0.008214 0.000000 0.050991 0.000000
# 6 0.000000 0.000000 0.000000 -0.011405 0.000000 0.073610
#
#
# Mechanical properties :
#
#
# Convention : Reuss Voigt Hill
#
# Bulk Modulus (GPa) = 31.67918 79.07042 55.37480
# Shear Modulus (GPa) = 19.23864 28.97193 24.10528
#
# Velocity S-wave (km/s) = 2.91154 3.57292 3.25905
# Velocity P-wave (km/s) = 5.02607 7.20149 6.20979
#
# Compressibility (1/GPa) = 0.03156648
#
# Stress axis : x y z
#
# Youngs Moduli (GPa) = 32.51663 61.15368 117.87336
#
# Poissons Ratio (x) = 0.48376 -0.19874
# Poissons Ratio (y) = 0.25722 0.68214
# Poissons Ratio (z) = -0.05483 0.35390
#
# Static dielectric constant tensor:
#      x y z
#    x 1.992890 0.000000 -0.074540 
#    y 0.000000 1.868150 0.000000 
#    z -0.074540 0.000000 1.915850 
# 
# From -- ./inp_files/8798.got.cif
#   From: 2010.05.17/outbox.cif.g08.bks.cpg/sg8_5_cif.got.tgz:8798.got - 2010.06.03 19:46:02.
