data_PCOD9131591
_publ_section_title
;
Structure prediction by ZEFSAII (Michael W. Deem and Ramdas Pophale) SiO2 
 PCOD9131591
Probable space group: C M
;
_chemical_formula_sum "Si O2"
_cell_formula_units_Z 28
_cell_length_a 13.772884
_cell_length_b 13.512370
_cell_length_c 9.206163
_cell_angle_alpha 90.000000
_cell_angle_beta 137.132078
_cell_angle_gamma 90.000000
_cell_volume 1165.580677
_symmetry_space_group_name_H-M "C M"
_symmetry_group_IT_number 8
_symmetry_cell_setting 'monoclinic'
loop_
_space_group_symop_operation_xyz
x,y,z
x,-y,z
1/2+x,1/2+y,z
1/2+x,1/2-y,z
loop_
_atom_site_type_symbol
_atom_site_label
_atom_site_fract_x
_atom_site_fract_y
_atom_site_fract_z
Si Si1 0.312180 0.193665 0.400110
Si Si2 0.803496 0.110933 0.236149
Si Si3 0.512812 0.884803 0.385073
Si Si4 0.116551 0.111664 0.726218
Si Si5 0.223387 0.235569 0.591439
Si Si6 0.542032 0.387347 0.974005
Si Si7 0.423150 0.717932 0.106229
O O1 0.244814 0.298531 0.269180
O O2 0.453169 0.167628 0.464824
O O3 0.337977 0.202527 0.599110
O O4 0.195956 0.114659 0.221217
O O5 0.815422 0.151907 0.084281
O O6 0.963520 0.104694 0.477333
O O7 0.741183 0.000000 0.176272
O O8 0.675492 0.850051 0.541696
O O9 0.421649 0.831769 0.158454
O O10 0.495534 0.000000 0.370629
O O11 0.211606 0.186537 0.735574
O O12 0.176667 0.000000 0.794855
O O13 0.077472 0.141469 0.847494
O O14 0.079770 0.192810 0.349419
O O15 0.486426 0.500000 0.913386
O O16 0.440977 0.315092 0.959051
#
# Coordination Sequence:
#
# PCOD9131591 Si02
#       7
#     4   4   4   4   4   4   4
#     4  10  18  31  49  78  95 132 173 210 246 292
#     4   9  16  30  51  72  95 124 168 208 246 295
#     4   9  17  31  51  73 100 130 166 208 251 295
#     4   9  17  31  50  71  99 128 159 208 259 294
#     4   8  17  31  48  71  99 127 168 207 246 292
#     4  10  18  29  49  75 101 128 163 209 258 295
#     4   7  15  29  46  72  93 123 163 200 246 287
#
# _framework density 24.022361
#
# number of rings (size 3 to 8) (size 9 to 14) (size 15 to 20)
#    0.857    2.286    1.429    0.857    0.000    4.571 
#    0.000    2.857    0.000    1.714    0.000    0.000 
#    0.000    0.000    0.000    0.000    0.000    0.000 
#
# Total GULP energy -78024.830108 kJ/mol
# GULP energy per Si atom -5573.202151 kJ/mol
# Density = 2.396768 g / cm^3
# Si number density = 24.022361 Si / 1000 Ang^3
#
#
#
# Elastic Constant Matrix: (Units=GPa)
#
#
# Indices 1 2 3 4 5 6 
#
# 1 105.6537 70.3354 27.2528 0.0000 -50.8695 0.0000
# 2 70.3354 177.1961 29.5501 0.0000 -33.4924 0.0000
# 3 27.2528 29.5501 61.1051 0.0000 -35.5903 0.0000
# 4 0.0000 0.0000 0.0000 7.6099 0.0000 -16.0067
# 5 -50.8695 -33.4924 -35.5903 0.0000 55.7743 0.0000
# 6 0.0000 0.0000 0.0000 -16.0067 0.0000 -4.2585
#
#
#
# Elastic Compliance Matrix: (Units=1/GPa)
#
#
# Indices 1 2 3 4 5 6 
#
# 1 0.020927 -0.005510 0.004012 0.000000 0.018339 0.000000
# 2 -0.005510 0.007888 -0.002427 0.000000 -0.001837 0.000000
# 3 0.004012 -0.002427 0.027107 0.000000 0.019499 0.000000
# 4 0.000000 0.000000 0.000000 0.014755 0.000000 -0.055459
# 5 0.018339 -0.001837 0.019499 0.000000 0.045994 0.000000
# 6 0.000000 0.000000 0.000000 -0.055459 0.000000 -0.026366
#
#
# Mechanical properties :
#
#
# Convention : Reuss Voigt Hill
#
# Bulk Modulus (GPa) = 20.80213 66.47017 43.63615
# Shear Modulus (GPa) = 43.79099 26.27959 35.03529
#
# Velocity S-wave (km/s) = 4.27421 3.31110 3.82310
# Velocity P-wave (km/s) = 5.74776 6.50754 6.13941
#
# Compressibility (1/GPa) = 0.04807201
#
# Stress axis : x y z
#
# Youngs Moduli (GPa) = 47.78415 126.77540 36.89130
#
# Poissons Ratio (x) = 0.69849 -0.14801
# Poissons Ratio (y) = 0.26327 0.08955
# Poissons Ratio (z) = -0.19171 0.30774
#
# Static dielectric constant tensor:
#      x y z
#    x 1.979940 0.000000 0.059260 
#    y 0.000000 1.964350 0.000000 
#    z 0.059260 0.000000 2.117980 
# 
# From -- ./inp_files/13307.got.cif
#   From: 2010.05.17/outbox.cif.g08.bks.cpg/sg8_7_cif.got.tgz:13307.got - 2010.06.03 19:46:02.
