data_PCOD9131447
_publ_section_title
;
Structure prediction by ZEFSAII (Michael W. Deem and Ramdas Pophale) SiO2 
 PCOD9131447
Probable space group: P C
;
_chemical_formula_sum "Si O2"
_cell_formula_units_Z 16
_cell_length_a 4.996475
_cell_length_b 28.183408
_cell_length_c 5.642952
_cell_angle_alpha 90.000000
_cell_angle_beta 51.074696
_cell_angle_gamma 90.000000
_cell_volume 618.192960
_symmetry_space_group_name_H-M "P C"
_symmetry_group_IT_number 7
_symmetry_cell_setting 'monoclinic'
loop_
_space_group_symop_operation_xyz
x,y,z
x,-y,1/2+z
loop_
_atom_site_type_symbol
_atom_site_label
_atom_site_fract_x
_atom_site_fract_y
_atom_site_fract_z
Si Si1 0.399870 0.972480 0.074470
Si Si2 0.869587 0.650710 0.534131
Si Si3 0.369507 0.840766 0.036019
Si Si4 0.861322 0.093202 0.061868
Si Si5 0.630663 0.496514 0.677253
Si Si6 0.358008 0.583473 0.051349
Si Si7 0.469816 0.713429 0.407567
Si Si8 0.971364 0.221253 0.408759
O O1 0.027011 0.945543 0.291575
O O2 0.411968 0.998338 0.322002
O O3 0.733171 0.937180 0.861624
O O4 0.618938 0.688943 0.557584
O O5 0.012774 0.613373 0.260721
O O6 0.202741 0.677812 0.441017
O O7 0.668193 0.620101 0.838315
O O8 0.171075 0.869211 0.353119
O O9 0.510892 0.875358 0.743779
O O10 0.707631 0.815102 0.941279
O O11 0.117756 0.802244 0.064142
O O12 0.819428 0.502263 0.322655
O O13 0.423176 0.448038 0.749493
O O14 0.400156 0.544192 0.823366
O O15 0.285120 0.763103 0.569934
O O16 0.781718 0.729096 0.067766
#
# Coordination Sequence:
#
# PCOD9131447 Si02
#       8
#     2   2   2   2   2   2   2   2
#     4  11  24  44  71 105 154 218 249 311 372 446
#     4  12  26  45  70 105 142 190 237 302 359 434
#     4  11  24  43  72 108 139 193 240 324 377 430
#     4  10  24  43  69 110 150 188 266 309 365 446
#     4   8  20  44  68 106 138 196 236 302 358 438
#     4  10  24  44  70 103 142 188 239 300 358 436
#     4  12  26  45  69 102 139 187 240 295 365 464
#     4  12  24  46  73  99 144 186 241 297 390 450
#
# _framework density 25.881886000000002
#
# number of rings (size 3 to 8) (size 9 to 14) (size 15 to 20)
#    0.750    0.500    0.000    5.250    1.750    5.000 
#    0.000    0.000    0.000    0.000    0.000    0.000 
#    0.000    0.000    0.000    0.000    0.000    0.000 
#
# Total GULP energy -89357.741574 kJ/mol
# GULP energy per Si atom -5584.858848 kJ/mol
# Density = 2.582298 g / cm^3
# Si number density = 25.881886 Si / 1000 Ang^3
#
#
#
# Elastic Constant Matrix: (Units=GPa)
#
#
# Indices 1 2 3 4 5 6 
#
# 1 146.8555 37.4295 30.8050 0.0000 -0.4077 0.0000
# 2 37.4295 104.3190 61.2620 0.0000 -11.9966 0.0000
# 3 30.8050 61.2620 171.5554 0.0000 -6.0528 0.0000
# 4 0.0000 0.0000 0.0000 180.9075 0.0000 -75.2906
# 5 -0.4077 -11.9966 -6.0528 0.0000 39.0850 0.0000
# 6 0.0000 0.0000 0.0000 -75.2906 0.0000 23.9117
#
#
#
# Elastic Compliance Matrix: (Units=1/GPa)
#
#
# Indices 1 2 3 4 5 6 
#
# 1 0.007549 -0.002512 -0.000486 0.000000 -0.000767 0.000000
# 2 -0.002512 0.013343 -0.004193 0.000000 0.003420 0.000000
# 3 -0.000486 -0.004193 0.007408 0.000000 -0.000145 0.000000
# 4 0.000000 0.000000 0.000000 -0.017806 0.000000 -0.056067
# 5 -0.000767 0.003420 -0.000145 0.000000 0.026604 0.000000
# 6 0.000000 0.000000 0.000000 -0.056067 0.000000 -0.134716
#
#
# Mechanical properties :
#
#
# Convention : Reuss Voigt Hill
#
# Bulk Modulus (GPa) = 71.84057 75.74701 73.79379
# Shear Modulus (GPa) = -63.61601 68.32973 2.35686
#
# Velocity S-wave (km/s) = -4.96314 5.14373 0.95530
# Velocity P-wave (km/s) = 2.24194 8.03786 5.45806
#
# Compressibility (1/GPa) = 0.01391971
#
# Stress axis : x y z
#
# Youngs Moduli (GPa) = 132.46196 74.94651 134.98094
#
# Poissons Ratio (x) = 0.18824 0.06557
# Poissons Ratio (y) = 0.33270 0.56598
# Poissons Ratio (z) = 0.06434 0.31425
#
# Static dielectric constant tensor:
#      x y z
#    x 1.984860 0.000000 0.009640 
#    y 0.000000 2.099560 0.000000 
#    z 0.009640 0.000000 1.985480 
# 
# From -- ./inp_files/463.got.cif
#   From: 2010.05.17/outbox.cif.g08.bks.cpg/sg7_cif.got.tgz:463.got - 2010.06.03 19:44:50.
