data_PCOD9131725
_publ_section_title
;
Structure prediction by ZEFSAII (Michael W. Deem and Ramdas Pophale) SiO2 
 PCOD9131725
Probable space group: C M
;
_chemical_formula_sum "Si O2"
_cell_formula_units_Z 32
_cell_length_a 16.950172
_cell_length_b 13.815633
_cell_length_c 13.191826
_cell_angle_alpha 90.000000
_cell_angle_beta 25.707715
_cell_angle_gamma 90.000000
_cell_volume 1340.046132
_symmetry_space_group_name_H-M "C M"
_symmetry_group_IT_number 8
_symmetry_cell_setting 'monoclinic'
loop_
_space_group_symop_operation_xyz
x,y,z
x,-y,z
1/2+x,1/2+y,z
1/2+x,1/2-y,z
loop_
_atom_site_type_symbol
_atom_site_label
_atom_site_fract_x
_atom_site_fract_y
_atom_site_fract_z
Si Si1 0.390800 0.894204 0.656070
Si Si2 0.485398 0.888453 0.858832
Si Si3 0.196606 0.890839 0.673729
Si Si4 0.810318 0.885988 0.175295
Si Si5 0.398341 0.274622 0.794615
Si Si6 0.865807 0.888456 0.341490
Si Si7 0.619766 0.384958 0.380878
Si Si8 0.032036 0.249963 0.286332
O O1 0.245762 0.901766 0.735122
O O2 0.603352 0.880078 0.375640
O O3 0.392283 0.000000 0.707013
O O4 0.356785 0.794142 0.748361
O O5 0.452718 0.808518 0.811396
O O6 0.339694 0.871880 0.116836
O O7 0.448835 0.000000 0.868197
O O8 0.702642 0.884297 0.613762
O O9 0.354829 0.814825 0.464844
O O10 0.211951 0.000000 0.610598
O O11 0.990135 0.850481 0.907293
O O12 0.810277 0.851783 0.293185
O O13 0.847752 0.000000 0.134687
O O14 0.210802 0.314318 0.056869
O O15 0.539688 0.350147 0.582057
O O16 0.026094 0.831447 0.206559
O O17 0.912399 0.000000 0.275270
O O18 0.579494 0.500000 0.412278
O O19 0.547665 0.315989 0.371234
#
# Coordination Sequence:
#
# PCOD9131725 Si02
#       8
#     4   4   4   4   4   4   4   4
#     4  10  18  33  59  87 113 143 180 236 297 345
#     4   9  19  37  60  87 113 142 189 245 291 340
#     4  10  21  37  55  82 117 148 187 238 289 345
#     4   9  18  33  57  87 113 141 180 236 299 341
#     4  11  20  35  58  81 112 147 192 235 287 343
#     4  10  19  34  56  83 112 142 185 243 295 339
#     4  10  22  39  57  81 115 152 190 234 287 350
#     4  11  23  36  55  84 111 151 198 235 284 349
#
# _framework density 23.879774000000001
#
# number of rings (size 3 to 8) (size 9 to 14) (size 15 to 20)
#    0.000    2.000    2.500    1.500    0.000    4.000 
#    0.000    0.000    0.000    0.750    0.000    0.000 
#    0.000    0.000    0.000    0.000    0.000    0.000 
#
# Total GULP energy -89077.702245 kJ/mol
# GULP energy per Si atom -5567.356390 kJ/mol
# Density = 2.382542 g / cm^3
# Si number density = 23.879774 Si / 1000 Ang^3
#
#
#
# Elastic Constant Matrix: (Units=GPa)
#
#
# Indices 1 2 3 4 5 6 
#
# 1 15.9854 12.2761 14.3485 0.0011 -7.6971 -0.0016
# 2 12.2761 98.5300 39.4392 0.0014 6.7757 -0.0018
# 3 14.3485 39.4392 181.8432 0.0012 -15.7390 -0.0018
# 4 0.0011 0.0014 0.0012 30.8657 -0.0014 -4.6076
# 5 -7.6971 6.7757 -15.7390 -0.0014 35.2571 0.0018
# 6 -0.0016 -0.0018 -0.0018 -4.6076 0.0018 24.0427
#
#
#
# Elastic Compliance Matrix: (Units=1/GPa)
#
#
# Indices 1 2 3 4 5 6 
#
# 1 0.081933 -0.010468 -0.002572 -0.000001 0.018751 0.000003
# 2 -0.010468 0.012843 -0.002466 0.000000 -0.005855 0.000000
# 3 -0.002572 -0.002466 0.006480 0.000000 0.002805 0.000000
# 4 -0.000001 0.000000 0.000000 0.033353 0.000001 0.006392
# 5 0.018751 -0.005855 0.002805 0.000001 0.034834 -0.000001
# 6 0.000003 0.000000 0.000000 0.006392 -0.000001 0.042818
#
#
# Mechanical properties :
#
#
# Convention : Reuss Voigt Hill
#
# Bulk Modulus (GPa) = 14.23612 47.60957 30.92285
# Shear Modulus (GPa) = 18.74854 33.38608 26.06731
#
# Velocity S-wave (km/s) = 2.80504 3.74316 3.30753
# Velocity P-wave (km/s) = 4.05778 6.21789 5.25013
#
# Compressibility (1/GPa) = 0.07024387
#
# Stress axis : x y z
#
# Youngs Moduli (GPa) = 12.20507 77.86193 154.32460
#
# Poissons Ratio (x) = 0.81509 0.39687
# Poissons Ratio (y) = 0.12777 0.38060
# Poissons Ratio (z) = 0.03139 0.19203
#
# Static dielectric constant tensor:
#      x y z
#    x 1.924160 0.000000 -0.001280 
#    y 0.000000 1.971700 0.000000 
#    z -0.001280 0.000000 2.057800 
# 
# From -- ./inp_files/13125.got.cif
#   From: 2010.05.17/outbox.cif.g08.bks.cpg/sg8_7_cif.got.tgz:13125.got - 2010.06.03 19:46:02.
