data_PCOD9131583
_publ_section_title
;
Structure prediction by ZEFSAII (Michael W. Deem and Ramdas Pophale) SiO2 
 PCOD9131583
Probable space group: C M
;
_chemical_formula_sum "Si O2"
_cell_formula_units_Z 32
_cell_length_a 12.847544
_cell_length_b 21.099393
_cell_length_c 11.395802
_cell_angle_alpha 90.000000
_cell_angle_beta 34.309388
_cell_angle_gamma 90.000000
_cell_volume 1741.218465
_symmetry_space_group_name_H-M "C M"
_symmetry_group_IT_number 8
_symmetry_cell_setting 'monoclinic'
loop_
_space_group_symop_operation_xyz
x,y,z
x,-y,z
1/2+x,1/2+y,z
1/2+x,1/2-y,z
loop_
_atom_site_type_symbol
_atom_site_label
_atom_site_fract_x
_atom_site_fract_y
_atom_site_fract_z
Si Si1 0.404450 0.074869 0.861540
Si Si2 0.584963 0.348777 0.075213
Si Si3 0.491943 0.233647 0.325435
Si Si4 0.451213 0.816526 0.977743
Si Si5 0.101022 0.756967 0.608614
Si Si6 0.344434 0.427124 0.482220
Si Si7 0.854520 0.173585 0.663045
Si Si8 0.760978 0.801864 0.242717
O O1 0.369993 0.116347 0.012069
O O2 0.627689 0.078474 0.648083
O O3 0.356241 0.000000 0.908287
O O4 0.280548 0.115111 0.883988
O O5 0.588982 0.281374 0.141507
O O6 0.465679 0.393401 0.271294
O O7 0.456128 0.336551 0.081657
O O8 0.298287 0.210978 0.452914
O O9 0.417975 0.276176 0.503920
O O10 0.630257 0.182959 0.254440
O O11 0.516629 0.777736 0.800421
O O12 0.634641 0.822395 0.883920
O O13 0.308463 0.771760 0.174068
O O14 0.151842 0.701710 0.466877
O O15 0.963356 0.806360 0.676874
O O16 0.391421 0.500000 0.445800
O O17 0.380310 0.392801 0.572643
#
# Coordination Sequence:
#
# PCOD9131583 Si02
#       8
#     4   4   4   4   4   4   4   4
#     4  10  19  31  48  71 103 132 163 204 250 303
#     4  10  18  30  47  72 100 133 166 206 251 306
#     4   8  15  29  42  65  98 126 161 203 244 297
#     4  10  19  30  46  72 102 134 166 204 255 304
#     4   9  18  30  46  68 102 132 165 208 251 311
#     4   9  18  33  50  73 103 130 163 210 256 304
#     4   8  16  28  45  69  94 129 159 200 253 302
#     4  10  18  29  47  68 100 138 165 203 256 311
#
# _framework density 18.377935999999998
#
# number of rings (size 3 to 8) (size 9 to 14) (size 15 to 20)
#    0.000    2.750    1.250    2.625    1.750    0.000 
#    2.250    0.000    0.000    0.000    0.000    3.500 
#    0.000    2.000    0.000    0.000    0.000    0.000 
#
# Total GULP energy -89088.173958 kJ/mol
# GULP energy per Si atom -5568.010872 kJ/mol
# Density = 1.833611 g / cm^3
# Si number density = 18.377936 Si / 1000 Ang^3
#
#
#
# Elastic Constant Matrix: (Units=GPa)
#
#
# Indices 1 2 3 4 5 6 
#
# 1 137.2384 40.4922 15.1276 0.0016 -36.0151 -0.0007
# 2 40.4922 60.6958 9.5390 0.0010 -9.5374 -0.0005
# 3 15.1276 9.5390 39.1281 0.0028 -9.8070 -0.0012
# 4 0.0016 0.0010 0.0028 19.8831 -0.0023 -6.8008
# 5 -36.0151 -9.5374 -9.8070 -0.0023 32.5695 0.0010
# 6 -0.0007 -0.0005 -0.0012 -6.8008 0.0010 22.7707
#
#
#
# Elastic Compliance Matrix: (Units=1/GPa)
#
#
# Indices 1 2 3 4 5 6 
#
# 1 0.012209 -0.006281 -0.000288 0.000001 0.011575 0.000000
# 2 -0.006281 0.020876 -0.003104 0.000000 -0.001767 0.000000
# 3 -0.000288 -0.003104 0.028249 -0.000003 0.007279 0.000000
# 4 0.000001 0.000000 -0.000003 0.056016 0.000003 0.016730
# 5 0.011575 -0.001767 0.007279 0.000003 0.045177 0.000000
# 6 0.000000 0.000000 0.000000 0.016730 0.000000 0.048913
#
#
# Mechanical properties :
#
#
# Convention : Reuss Voigt Hill
#
# Bulk Modulus (GPa) = 23.81581 40.82001 32.31791
# Shear Modulus (GPa) = 20.42625 26.50487 23.46556
#
# Velocity S-wave (km/s) = 3.33747 3.80177 3.57716
# Velocity P-wave (km/s) = 5.27623 6.44445 5.88938
#
# Compressibility (1/GPa) = 0.04198892
#
# Stress axis : x y z
#
# Youngs Moduli (GPa) = 81.90632 47.90176 35.39889
#
# Poissons Ratio (x) = 0.30087 0.01019
# Poissons Ratio (y) = 0.51446 0.10987
# Poissons Ratio (z) = 0.02358 0.14868
#
# Static dielectric constant tensor:
#      x y z
#    x 1.737900 0.000000 -0.051590 
#    y 0.000000 1.621690 0.000000 
#    z -0.051590 0.000000 1.684280 
# 
# From -- ./inp_files/20852.got.cif
#   From: 2010.05.17/outbox.cif.g08.bks.cpg/sg8_11_cif.got.tgz:20852.got - 2010.06.03 19:46:02.
