data_PCOD9131322
_publ_section_title
;
Structure prediction by ZEFSAII (Michael W. Deem and Ramdas Pophale) SiO2 
 PCOD9131322
Probable space group: P C
;
_chemical_formula_sum "Si O2"
_cell_formula_units_Z 16
_cell_length_a 8.257149
_cell_length_b 15.498299
_cell_length_c 5.458292
_cell_angle_alpha 90.000000
_cell_angle_beta 73.798550
_cell_angle_gamma 90.000000
_cell_volume 670.767175
_symmetry_space_group_name_H-M "P C"
_symmetry_group_IT_number 7
_symmetry_cell_setting 'monoclinic'
loop_
_space_group_symop_operation_xyz
x,y,z
x,-y,1/2+z
loop_
_atom_site_type_symbol
_atom_site_label
_atom_site_fract_x
_atom_site_fract_y
_atom_site_fract_z
Si Si1 0.010310 0.763980 0.794420
Si Si2 0.408389 0.955896 0.036984
Si Si3 0.540156 0.513514 0.775534
Si Si4 0.203866 0.215543 0.703555
Si Si5 0.790288 0.020413 0.833639
Si Si6 0.772555 0.348097 0.665625
Si Si7 0.740520 0.203245 0.040771
Si Si8 0.504494 0.700835 0.921511
O O1 0.135978 0.767331 0.507064
O O2 0.852332 0.813015 0.736297
O O3 0.081219 0.801318 0.021023
O O4 0.926337 0.671875 0.914561
O O5 0.335383 0.863734 0.148441
O O6 0.352729 0.017882 0.285984
O O7 0.613102 0.967543 0.931521
O O8 0.443145 0.500238 0.567257
O O9 0.698965 0.445944 0.717191
O O10 0.577294 0.614012 0.770512
O O11 0.310638 0.297962 0.566642
O O12 0.745717 0.121190 0.867663
O O13 0.884752 0.000615 0.045554
O O14 0.610252 0.296716 0.626232
O O15 0.813386 0.290673 0.886372
O O16 0.554798 0.224642 0.213577
#
# Coordination Sequence:
#
# PCOD9131322 Si02
#       8
#     2   2   2   2   2   2   2   2
#     4  11  26  44  68  98 141 192 227 277 347 436
#     4  10  21  39  61  92 133 176 228 282 344 403
#     4  10  20  38  64 105 134 163 221 293 339 396
#     4  12  25  43  69 101 144 186 232 284 355 425
#     4  10  23  37  62  97 133 162 226 294 339 386
#     4  10  22  42  73 101 135 180 236 283 344 414
#     4  11  22  44  72 100 133 182 238 281 346 415
#     4  10  23  37  73 106 131 177 232 292 344 403
#
# _framework density 23.853283000000001
#
# number of rings (size 3 to 8) (size 9 to 14) (size 15 to 20)
#    0.000    1.500    2.500    2.250    8.750    0.000 
#    0.000    3.750    0.000   27.000    0.000    0.000 
#    0.000    0.000    0.000    0.000    0.000    0.000 
#
# Total GULP energy -89110.062846 kJ/mol
# GULP energy per Si atom -5569.378928 kJ/mol
# Density = 2.379899 g / cm^3
# Si number density = 23.853283 Si / 1000 Ang^3
#
#
#
# Elastic Constant Matrix: (Units=GPa)
#
#
# Indices 1 2 3 4 5 6 
#
# 1 48.2272 16.9346 23.5590 0.0000 -11.4244 0.0000
# 2 16.9346 104.2921 29.9148 0.0000 -15.1872 0.0000
# 3 23.5590 29.9148 178.1177 0.0000 -1.2204 0.0000
# 4 0.0000 0.0000 0.0000 35.8136 0.0000 0.5877
# 5 -11.4244 -15.1872 -1.2204 0.0000 37.0802 0.0000
# 6 0.0000 0.0000 0.0000 0.5877 0.0000 22.9468
#
#
#
# Elastic Compliance Matrix: (Units=1/GPa)
#
#
# Indices 1 2 3 4 5 6 
#
# 1 0.024433 -0.002209 -0.002816 0.000000 0.006531 0.000000
# 2 -0.002209 0.010928 -0.001518 0.000000 0.003745 0.000000
# 3 -0.002816 -0.001518 0.006233 0.000000 -0.001284 0.000000
# 4 0.000000 0.000000 0.000000 0.027934 0.000000 -0.000715
# 5 0.006531 0.003745 -0.001284 0.000000 0.030472 0.000000
# 6 0.000000 0.000000 0.000000 -0.000715 0.000000 0.043597
#
#
# Mechanical properties :
#
#
# Convention : Reuss Voigt Hill
#
# Bulk Modulus (GPa) = 35.07599 52.38376 43.72988
# Shear Modulus (GPa) = 30.08689 36.51671 33.30180
#
# Velocity S-wave (km/s) = 3.55538 3.91690 3.74051
# Velocity P-wave (km/s) = 5.62059 6.51649 6.08505
#
# Compressibility (1/GPa) = 0.02850953
#
# Stress axis : x y z
#
# Youngs Moduli (GPa) = 40.92757 91.50995 160.44145
#
# Poissons Ratio (x) = 0.20212 0.45181
# Poissons Ratio (y) = 0.09040 0.24347
# Poissons Ratio (z) = 0.11525 0.13887
#
# Static dielectric constant tensor:
#      x y z
#    x 1.948020 0.000000 0.059530 
#    y 0.000000 1.997960 0.000000 
#    z 0.059530 0.000000 2.086280 
# 
# From -- ./inp_files/656.got.cif
#   From: 2010.05.17/outbox.cif.g08.bks.cpg/sg7_cif.got.tgz:656.got - 2010.06.03 19:44:50.
