data_PCOD9131595
_publ_section_title
;
Structure prediction by ZEFSAII (Michael W. Deem and Ramdas Pophale) SiO2 
 PCOD9131595
Probable space group: C M
;
_chemical_formula_sum "Si O2"
_cell_formula_units_Z 32
_cell_length_a 28.565727
_cell_length_b 8.434678
_cell_length_c 21.583795
_cell_angle_alpha 90.000000
_cell_angle_beta 19.173928
_cell_angle_gamma 90.000000
_cell_volume 1708.022221
_symmetry_space_group_name_H-M "C M"
_symmetry_group_IT_number 8
_symmetry_cell_setting 'monoclinic'
loop_
_space_group_symop_operation_xyz
x,y,z
x,-y,z
1/2+x,1/2+y,z
1/2+x,1/2-y,z
loop_
_atom_site_type_symbol
_atom_site_label
_atom_site_fract_x
_atom_site_fract_y
_atom_site_fract_z
Si Si1 0.076080 0.686470 0.801010
Si Si2 0.301762 0.193076 0.080140
Si Si3 0.642153 0.308339 0.406269
Si Si4 0.826211 0.313700 0.560127
Si Si5 0.410645 0.686403 0.126303
Si Si6 0.312613 0.691974 0.822388
Si Si7 0.157864 0.311229 0.889396
Si Si8 0.645251 0.309950 0.151028
O O1 0.102491 0.500000 0.760082
O O2 0.224379 0.771768 0.629276
O O3 0.965429 0.744391 0.887025
O O4 0.985112 0.714838 0.977708
O O5 0.206808 0.240022 0.258398
O O6 0.230115 0.245855 0.106234
O O7 0.304389 0.000000 0.076996
O O8 0.649775 0.500000 0.400329
O O9 0.746041 0.235514 0.328368
O O10 0.478250 0.259412 0.615846
O O11 0.819027 0.500000 0.580192
O O12 0.759312 0.229033 0.704173
O O13 0.986721 0.259420 0.349166
O O14 0.425403 0.500000 0.095018
O O15 0.505420 0.729873 0.067172
O O16 0.309656 0.500000 0.828030
O O17 0.234897 0.740888 0.855975
O O18 0.230007 0.758780 0.984354
O O19 0.137303 0.500000 0.917081
O O20 0.635008 0.500000 0.166713
#
# Coordination Sequence:
#
# PCOD9131595 Si02
#       8
#     4   4   4   4   4   4   4   4
#     4   9  16  31  54  78 104 135 173 215 264 314
#     4   8  16  32  56  81 101 131 175 215 254 311
#     4   9  17  34  57  77 102 137 175 214 261 316
#     4  11  21  34  54  82 111 137 175 220 261 311
#     4  10  18  29  49  81 112 133 166 216 264 311
#     4  10  22  38  55  77 106 140 180 223 264 311
#     4  10  19  35  58  80 105 139 177 217 266 316
#     4  11  22  37  55  76 107 144 179 216 264 316
#
# _framework density 18.735119999999998
#
# number of rings (size 3 to 8) (size 9 to 14) (size 15 to 20)
#    0.000    2.250    0.000    6.375    0.000    3.500 
#    0.000   10.000    0.000    3.000    0.000    0.000 
#    0.000    0.000    0.000    0.000    0.000    0.000 
#
# Total GULP energy -89258.036578 kJ/mol
# GULP energy per Si atom -5578.627286 kJ/mol
# Density = 1.869248 g / cm^3
# Si number density = 18.735120 Si / 1000 Ang^3
#
#
#
# Elastic Constant Matrix: (Units=GPa)
#
#
# Indices 1 2 3 4 5 6 
#
# 1 93.6670 17.4626 104.4077 -0.0005 -38.0153 -0.0003
# 2 17.4626 20.3550 10.2960 0.0016 -5.8616 0.0003
# 3 104.4077 10.2960 94.0209 0.0013 -33.5408 0.0002
# 4 -0.0005 0.0016 0.0013 23.3279 0.0002 3.9220
# 5 -38.0153 -5.8616 -33.5408 0.0002 33.5872 0.0000
# 6 -0.0003 0.0003 0.0002 3.9220 0.0000 9.4332
#
#
#
# Elastic Compliance Matrix: (Units=1/GPa)
#
#
# Indices 1 2 3 4 5 6 
#
# 1 -0.041381 0.012958 0.044476 -0.000004 -0.000160 -0.000001
# 2 0.012958 0.048558 -0.017789 -0.000002 0.005376 0.000000
# 3 0.044476 -0.017789 -0.030998 0.000004 0.016280 0.000001
# 4 -0.000004 -0.000002 0.000004 0.046089 -0.000002 -0.019162
# 5 -0.000160 0.005376 0.016280 -0.000002 0.046788 0.000000
# 6 -0.000001 0.000000 0.000001 -0.019162 0.000000 0.113976
#
#
# Mechanical properties :
#
#
# Convention : Reuss Voigt Hill
#
# Bulk Modulus (GPa) = 18.02804 52.48616 35.25710
# Shear Modulus (GPa) = 40.90595 18.32810 29.61702
#
# Velocity S-wave (km/s) = 4.67774 3.13113 3.98028
# Velocity P-wave (km/s) = 6.23045 6.41464 6.32322
#
# Compressibility (1/GPa) = 0.05546914
#
# Stress axis : x y z
#
# Youngs Moduli (GPa) = -24.16590 20.59409 -32.26047
#
# Poissons Ratio (x) = -0.26685 1.43482
# Poissons Ratio (y) = 0.31313 -0.57387
# Poissons Ratio (z) = 1.07480 0.36634
#
# Static dielectric constant tensor:
#      x y z
#    x 1.661280 0.000000 -0.042460 
#    y 0.000000 1.633930 0.000000 
#    z -0.042460 0.000000 1.636900 
# 
# From -- ./inp_files/31636.got.cif
#   From: 2010.05.17/outbox.cif.g08.bks.cpg/sg8_16_cif.got.tgz:31636.got - 2010.06.03 19:46:02.
