data_PCOD9131384
_publ_section_title
;
Structure prediction by ZEFSAII (Michael W. Deem and Ramdas Pophale) SiO2 
 PCOD9131384
Probable space group: P C
;
_chemical_formula_sum "Si O2"
_cell_formula_units_Z 16
_cell_length_a 9.396398
_cell_length_b 19.684780
_cell_length_c 5.325793
_cell_angle_alpha 90.000000
_cell_angle_beta 136.024149
_cell_angle_gamma 90.000000
_cell_volume 684.002824
_symmetry_space_group_name_H-M "P C"
_symmetry_group_IT_number 7
_symmetry_cell_setting 'monoclinic'
loop_
_space_group_symop_operation_xyz
x,y,z
x,-y,1/2+z
loop_
_atom_site_type_symbol
_atom_site_label
_atom_site_fract_x
_atom_site_fract_y
_atom_site_fract_z
Si Si1 0.165860 0.532517 0.299690
Si Si2 0.592126 0.664364 0.314044
Si Si3 0.702636 0.520021 0.277951
Si Si4 0.754127 0.133068 0.387226
Si Si5 0.344397 0.170095 0.093332
Si Si6 0.082227 0.960270 0.401162
Si Si7 0.322235 0.320718 0.971055
Si Si8 0.746793 0.200198 0.876458
O O1 0.257842 0.509225 0.683102
O O2 0.176971 0.613222 0.268470
O O3 0.934689 0.504305 0.026348
O O4 0.688398 0.590818 0.405946
O O5 0.478722 0.674948 0.434373
O O6 0.759938 0.722765 0.481864
O O7 0.435115 0.670180 0.881749
O O8 0.619662 0.469779 0.389509
O O9 0.509098 0.142097 0.097959
O O10 0.842237 0.060305 0.574753
O O11 0.832234 0.183839 0.709128
O O12 0.821902 0.152265 0.193997
O O13 0.248558 0.241943 0.884138
O O14 0.503525 0.186358 0.522405
O O15 0.196944 0.109962 0.984845
O O16 0.130611 0.988083 0.737381
#
# Coordination Sequence:
#
# PCOD9131384 Si02
#       8
#     2   2   2   2   2   2   2   2
#     4  10  22  41  55  85 131 165 209 264 323 387
#     4  11  20  37  64  92 115 167 215 271 320 389
#     4  10  22  38  55  84 124 163 212 262 314 395
#     4  10  21  44  67  95 136 167 216 271 320 393
#     4   9  24  44  71  97 132 175 222 273 330 393
#     4  12  28  44  68 105 140 175 218 264 332 405
#     4  11  22  39  67  92 125 164 222 274 328 377
#     4   9  19  41  67  92 129 166 218 269 329 377
#
# _framework density 23.391717
#
# number of rings (size 3 to 8) (size 9 to 14) (size 15 to 20)
#    0.750    1.000    1.250    2.250    1.750    4.000 
#    9.000    0.000    0.000    0.000    0.000    0.000 
#    0.000    0.000    0.000    0.000    0.000    0.000 
#
# Total GULP energy -89245.048555 kJ/mol
# GULP energy per Si atom -5577.815535 kJ/mol
# Density = 2.333848 g / cm^3
# Si number density = 23.391717 Si / 1000 Ang^3
#
#
#
# Elastic Constant Matrix: (Units=GPa)
#
#
# Indices 1 2 3 4 5 6 
#
# 1 90.6613 26.4660 18.8834 0.0000 -26.3176 0.0000
# 2 26.4660 102.7380 -4.1717 0.0000 7.3044 0.0000
# 3 18.8834 -4.1717 48.4289 0.0000 -25.1981 0.0000
# 4 0.0000 0.0000 0.0000 35.2808 0.0000 5.8471
# 5 -26.3176 7.3044 -25.1981 0.0000 41.1692 0.0000
# 6 0.0000 0.0000 0.0000 5.8471 0.0000 43.9937
#
#
#
# Elastic Compliance Matrix: (Units=1/GPa)
#
#
# Indices 1 2 3 4 5 6 
#
# 1 0.015610 -0.004787 -0.001269 0.000000 0.010051 0.000000
# 2 -0.004787 0.011326 0.000300 0.000000 -0.004886 0.000000
# 3 -0.001269 0.000300 0.030401 0.000000 0.017743 0.000000
# 4 0.000000 0.000000 0.000000 0.028982 0.000000 -0.003852
# 5 0.010051 -0.004886 0.017743 0.000000 0.042442 0.000000
# 6 0.000000 0.000000 0.000000 -0.003852 0.000000 0.023242
#
#
# Mechanical properties :
#
#
# Convention : Reuss Voigt Hill
#
# Bulk Modulus (GPa) = 21.82255 36.02040 28.92147
# Shear Modulus (GPa) = 27.96548 37.46545 32.71547
#
# Velocity S-wave (km/s) = 3.46139 4.00641 3.74383
# Velocity P-wave (km/s) = 5.03234 6.06910 5.57487
#
# Compressibility (1/GPa) = 0.04582417
#
# Stress axis : x y z
#
# Youngs Moduli (GPa) = 64.06311 88.29000 32.89326
#
# Poissons Ratio (x) = 0.42267 0.04175
# Poissons Ratio (y) = 0.30669 -0.00987
# Poissons Ratio (z) = 0.08131 -0.02648
#
# Static dielectric constant tensor:
#      x y z
#    x 1.931920 0.000000 0.102900 
#    y 0.000000 1.888960 0.000000 
#    z 0.102900 0.000000 2.231250 
# 
# From -- ./inp_files/944.got.cif
#   From: 2010.05.17/outbox.cif.g08.bks.cpg/sg7_cif.got.tgz:944.got - 2010.06.03 19:44:50.
