data_PCOD9131965
_publ_section_title
;
Structure prediction by ZEFSAII (Michael W. Deem and Ramdas Pophale) SiO2 
 PCOD9131965
Probable space group: C M
;
_chemical_formula_sum "Si O2"
_cell_formula_units_Z 32
_cell_length_a 25.936538
_cell_length_b 7.860495
_cell_length_c 17.155377
_cell_angle_alpha 90.000000
_cell_angle_beta 153.755868
_cell_angle_gamma 90.000000
_cell_volume 1546.599256
_symmetry_space_group_name_H-M "C M"
_symmetry_group_IT_number 8
_symmetry_cell_setting 'monoclinic'
loop_
_space_group_symop_operation_xyz
x,y,z
x,-y,z
1/2+x,1/2+y,z
1/2+x,1/2-y,z
loop_
_atom_site_type_symbol
_atom_site_label
_atom_site_fract_x
_atom_site_fract_y
_atom_site_fract_z
Si Si1 0.099050 0.705197 0.730840
Si Si2 0.521979 0.705885 0.107419
Si Si3 0.509197 0.200638 0.328542
Si Si4 0.825337 0.803166 0.956011
Si Si5 0.916479 0.797290 0.365011
Si Si6 0.155082 0.295081 0.980187
Si Si7 0.210567 0.704039 0.489800
Si Si8 0.473202 0.705229 0.867321
O O1 0.110268 0.500000 0.747535
O O2 0.201890 0.773034 0.813657
O O3 0.975943 0.749666 0.526635
O O4 0.118216 0.767722 0.844562
O O5 0.516720 0.500000 0.101053
O O6 0.636303 0.753207 0.311955
O O7 0.408160 0.770463 0.000888
O O8 0.516698 0.765087 0.011291
O O9 0.494272 0.227439 0.399543
O O10 0.630285 0.259857 0.454094
O O11 0.496833 0.000000 0.294793
O O12 0.405233 0.294628 0.141958
O O13 0.804248 0.000000 0.905720
O O14 0.784710 0.732314 0.176755
O O15 0.914758 0.000000 0.355373
O O16 0.160880 0.500000 0.984098
O O17 0.062140 0.250354 0.919859
O O18 0.217905 0.500000 0.504059
O O19 0.342232 0.769917 0.672304
O O20 0.467709 0.500000 0.863899
#
# Coordination Sequence:
#
# PCOD9131965 Si02
#       8
#     4   4   4   4   4   4   4   4
#     4  10  21  38  60  85 113 152 193 235 289 344
#     4   9  19  35  58  85 114 150 190 231 281 340
#     4  10  19  33  58  87 119 153 188 232 286 344
#     4   9  17  34  59  83 118 155 185 232 291 340
#     4  11  23  39  58  85 117 151 192 239 290 341
#     4  10  23  43  60  79 115 155 192 237 287 338
#     4   9  20  37  57  84 118 150 186 234 285 336
#     4  10  22  39  60  84 112 152 196 234 277 339
#
# _framework density 20.690557999999999
#
# number of rings (size 3 to 8) (size 9 to 14) (size 15 to 20)
#    0.000    2.250    1.250    0.750    1.750    4.500 
#    0.000    5.000    0.000    0.000    0.000    0.000 
#    0.000    0.000    0.000    0.000    0.000    0.000 
#
# Total GULP energy -89324.947631 kJ/mol
# GULP energy per Si atom -5582.809227 kJ/mol
# Density = 2.064347 g / cm^3
# Si number density = 20.690558 Si / 1000 Ang^3
#
#
#
# Elastic Constant Matrix: (Units=GPa)
#
#
# Indices 1 2 3 4 5 6 
#
# 1 134.7417 1.3710 105.5164 0.0000 4.7202 0.0000
# 2 1.3710 23.1263 2.8204 0.0000 6.6541 0.0000
# 3 105.5164 2.8204 166.4520 0.0000 3.6653 0.0000
# 4 0.0000 0.0000 0.0000 23.4192 0.0000 -2.6817
# 5 4.7202 6.6541 3.6653 0.0000 16.3836 0.0000
# 6 0.0000 0.0000 0.0000 -2.6817 0.0000 24.7625
#
#
#
# Elastic Compliance Matrix: (Units=1/GPa)
#
#
# Indices 1 2 3 4 5 6 
#
# 1 0.014835 0.001007 -0.009364 0.000000 -0.002588 0.000000
# 2 0.001007 0.049057 -0.001030 0.000000 -0.019984 0.000000
# 3 -0.009364 -0.001030 0.011952 0.000000 0.000442 0.000000
# 4 0.000000 0.000000 0.000000 0.043236 0.000000 0.004682
# 5 -0.002588 -0.019984 0.000442 0.000000 0.069800 0.000000
# 6 0.000000 0.000000 0.000000 0.004682 0.000000 0.040891
#
#
# Mechanical properties :
#
#
# Convention : Reuss Voigt Hill
#
# Bulk Modulus (GPa) = 17.52236 60.41506 38.96871
# Shear Modulus (GPa) = 18.68690 27.22054 22.95372
#
# Velocity S-wave (km/s) = 3.00852 3.63106 3.33435
# Velocity P-wave (km/s) = 4.53381 6.84413 5.80507
#
# Compressibility (1/GPa) = 0.05706993
#
# Stress axis : x y z
#
# Youngs Moduli (GPa) = 67.40692 20.38461 83.67039
#
# Poissons Ratio (x) = -0.02053 0.78352
# Poissons Ratio (y) = -0.06790 0.08616
# Poissons Ratio (z) = 0.63122 0.02099
#
# Static dielectric constant tensor:
#      x y z
#    x 1.722280 0.000000 0.004780 
#    y 0.000000 1.770920 0.000000 
#    z 0.004780 0.000000 1.736900 
# 
# From -- ./inp_files/21506.got.cif
#   From: 2010.05.17/outbox.cif.g08.bks.cpg/sg8_11_cif.got.tgz:21506.got - 2010.06.03 19:46:02.
