data_PCOD9131978
_publ_section_title
;
Structure prediction by ZEFSAII (Michael W. Deem and Ramdas Pophale) SiO2 
 PCOD9131978
Probable space group: C M
;
_chemical_formula_sum "Si O2"
_cell_formula_units_Z 28
_cell_length_a 15.624836
_cell_length_b 16.110539
_cell_length_c 8.762257
_cell_angle_alpha 90.000000
_cell_angle_beta 33.427600
_cell_angle_gamma 90.000000
_cell_volume 1215.068502
_symmetry_space_group_name_H-M "C M"
_symmetry_group_IT_number 8
_symmetry_cell_setting 'monoclinic'
loop_
_space_group_symop_operation_xyz
x,y,z
x,-y,z
1/2+x,1/2+y,z
1/2+x,1/2-y,z
loop_
_atom_site_type_symbol
_atom_site_label
_atom_site_fract_x
_atom_site_fract_y
_atom_site_fract_z
Si Si1 0.165420 0.090284 0.441800
Si Si2 0.490154 0.682533 0.238891
Si Si3 0.774891 0.093620 0.794809
Si Si4 0.744434 0.406766 0.976413
Si Si5 0.247803 0.736978 0.048731
Si Si6 0.208295 0.263848 0.465069
Si Si7 0.538231 0.092513 0.904341
O O1 0.124740 0.173376 0.595341
O O2 0.146931 0.093476 0.283461
O O3 0.108283 0.000000 0.579975
O O4 0.353407 0.091770 0.174245
O O5 0.634776 0.618868 0.996208
O O6 0.580843 0.745729 0.215608
O O7 0.381574 0.729407 0.280900
O O8 0.372755 0.624660 0.505708
O O9 0.810932 0.155479 0.876566
O O10 0.806560 0.000000 0.789949
O O11 0.601629 0.099757 0.982694
O O12 0.809005 0.500000 0.865872
O O13 0.840205 0.321692 0.862973
O O14 0.230514 0.725129 0.252174
O O15 0.108924 0.334275 0.697087
O O16 0.590630 0.000000 0.772577
#
# Coordination Sequence:
#
# PCOD9131978 Si02
#       7
#     4   4   4   4   4   4   4
#     4   9  17  33  55  78 104 142 182 217 259 322
#     4   9  19  34  54  79 107 142 180 217 266 318
#     4  10  19  34  54  79 109 144 182 220 264 323
#     4   8  16  32  52  74 103 141 179 210 259 321
#     4   9  20  32  52  84 107 139 174 227 272 305
#     4  10  19  34  55  81 111 137 181 229 266 312
#     4   9  19  33  55  79 105 145 185 216 263 325
#
# _framework density 23.043966999999999
#
# number of rings (size 3 to 8) (size 9 to 14) (size 15 to 20)
#    0.857    2.000    0.000    1.286    0.000    3.429 
#    0.000    0.000    0.000    5.143    0.000    0.000 
#    0.000    0.000    0.000    0.000    0.000    0.000 
#
# Total GULP energy -77944.490907 kJ/mol
# GULP energy per Si atom -5567.463636 kJ/mol
# Density = 2.299152 g / cm^3
# Si number density = 23.043967 Si / 1000 Ang^3
#
#
#
# Elastic Constant Matrix: (Units=GPa)
#
#
# Indices 1 2 3 4 5 6 
#
# 1 132.5620 32.4362 4.6143 0.0000 -8.1577 0.0000
# 2 32.4362 226.1575 30.2191 0.0000 31.5784 0.0000
# 3 4.6143 30.2191 13.8826 0.0000 -0.2513 0.0000
# 4 0.0000 0.0000 0.0000 27.9649 0.0000 12.2284
# 5 -8.1577 31.5784 -0.2513 0.0000 18.3432 0.0000
# 6 0.0000 0.0000 0.0000 12.2284 0.0000 23.1862
#
#
#
# Elastic Compliance Matrix: (Units=1/GPa)
#
#
# Indices 1 2 3 4 5 6 
#
# 1 0.008722 -0.003061 0.003931 0.000000 0.009203 0.000000
# 2 -0.003061 0.010680 -0.022595 0.000000 -0.020058 0.000000
# 3 0.003931 -0.022595 0.120674 0.000000 0.042299 0.000000
# 4 0.000000 0.000000 0.000000 0.046478 0.000000 -0.024512
# 5 0.009203 -0.020058 0.042299 0.000000 0.093718 0.000000
# 6 0.000000 0.000000 0.000000 -0.024512 0.000000 0.056057
#
#
# Mechanical properties :
#
#
# Convention : Reuss Voigt Hill
#
# Bulk Modulus (GPa) = 10.34899 56.34904 33.34901
# Shear Modulus (GPa) = 12.13625 34.25437 23.19531
#
# Velocity S-wave (km/s) = 2.29739 3.85967 3.17609
# Velocity P-wave (km/s) = 3.39677 6.66098 5.28709
#
# Compressibility (1/GPa) = 0.09662780
#
# Stress axis : x y z
#
# Youngs Moduli (GPa) = 114.65033 93.62859 8.28676
#
# Poissons Ratio (x) = 0.28662 -0.03258
# Poissons Ratio (y) = 0.35097 0.18724
# Poissons Ratio (z) = -0.45070 2.11549
#
# Static dielectric constant tensor:
#      x y z
#    x 1.958380 0.000000 -0.058290 
#    y 0.000000 1.953500 0.000000 
#    z -0.058290 0.000000 1.848680 
# 
# From -- ./inp_files/15163.got.cif
#   From: 2010.05.17/outbox.cif.g08.bks.cpg/sg8_8_cif.got.tgz:15163.got - 2010.06.03 19:46:02.
