data_PCOD9131243
_publ_section_title
;
Structure prediction by ZEFSAII (Michael W. Deem and Ramdas Pophale) SiO2 
 PCOD9131243
Probable space group: P C
;
_chemical_formula_sum "Si O2"
_cell_formula_units_Z 16
_cell_length_a 11.869441
_cell_length_b 16.673508
_cell_length_c 5.236236
_cell_angle_alpha 90.000000
_cell_angle_beta 128.018820
_cell_angle_gamma 90.000000
_cell_volume 816.388943
_symmetry_space_group_name_H-M "P C"
_symmetry_group_IT_number 7
_symmetry_cell_setting 'monoclinic'
loop_
_space_group_symop_operation_xyz
x,y,z
x,-y,1/2+z
loop_
_atom_site_type_symbol
_atom_site_label
_atom_site_fract_x
_atom_site_fract_y
_atom_site_fract_z
Si Si1 0.441300 0.269147 0.114180
Si Si2 0.114758 0.544483 0.145346
Si Si3 0.463103 0.452412 0.118376
Si Si4 0.837201 0.952766 0.287808
Si Si5 0.520695 0.107162 0.400633
Si Si6 0.360835 0.870920 0.184078
Si Si7 0.113541 0.721990 0.316496
Si Si8 0.050425 0.817045 0.724568
O O1 0.499767 0.358225 0.167001
O O2 0.540612 0.203917 0.392013
O O3 0.402725 0.223143 0.795576
O O4 0.287170 0.272663 0.040954
O O5 0.068959 0.481397 0.298881
O O6 0.288808 0.545443 0.378040
O O7 0.071507 0.632331 0.178729
O O8 0.511721 0.499158 0.438005
O O9 0.916158 0.871530 0.474418
O O10 0.875451 0.017791 0.558248
O O11 0.667785 0.937689 0.066836
O O12 0.451333 0.095965 0.578084
O O13 0.408220 0.910702 0.516600
O O14 0.193227 0.871638 0.900478
O O15 0.066305 0.748775 0.530719
O O16 0.053939 0.780735 0.013382
#
# Coordination Sequence:
#
# PCOD9131243 Si02
#       8
#     2   2   2   2   2   2   2   2
#     4   8  18  29  55  77 111 144 188 231 264 312
#     4   9  16  26  41  75 119 153 181 224 283 323
#     4   9  17  23  38  71 114 146 174 216 278 317
#     4  12  27  45  61  84 118 145 177 239 298 350
#     4  10  20  38  60  82 109 145 189 230 275 336
#     4   9  18  34  61  83 107 140 190 231 267 323
#     4  10  18  31  57  83 115 153 192 237 272 325
#     4  11  20  38  59  85 113 148 191 232 283 344
#
# _framework density 19.598503000000001
#
# number of rings (size 3 to 8) (size 9 to 14) (size 15 to 20)
#    0.750    1.500    1.250    2.250    1.750    3.000 
#    0.000    3.750    0.000    0.000    0.000    5.250 
#    0.000    0.000    0.000    0.000    0.000    0.000 
#
# Total GULP energy -89220.718544 kJ/mol
# GULP energy per Si atom -5576.294909 kJ/mol
# Density = 1.955390 g / cm^3
# Si number density = 19.598503 Si / 1000 Ang^3
#
#
#
# Elastic Constant Matrix: (Units=GPa)
#
#
# Indices 1 2 3 4 5 6 
#
# 1 27.8365 -4.8817 11.9561 0.0000 -14.7990 0.0000
# 2 -4.8817 72.7000 7.7062 0.0000 -0.8556 0.0000
# 3 11.9561 7.7062 43.9622 0.0000 -13.9153 0.0000
# 4 0.0000 0.0000 0.0000 16.8642 0.0000 -3.0402
# 5 -14.7990 -0.8556 -13.9153 0.0000 25.7526 0.0000
# 6 0.0000 0.0000 0.0000 -3.0402 0.0000 16.1260
#
#
#
# Elastic Compliance Matrix: (Units=1/GPa)
#
#
# Indices 1 2 3 4 5 6 
#
# 1 0.054439 0.004708 -0.006851 0.000000 0.027739 0.000000
# 2 0.004708 0.014446 -0.003383 0.000000 0.001358 0.000000
# 3 -0.006851 -0.003383 0.028857 0.000000 0.011543 0.000000
# 4 0.000000 0.000000 0.000000 0.061383 0.000000 0.011572
# 5 0.027739 0.001358 0.011543 0.000000 0.061054 0.000000
# 6 0.000000 0.000000 0.000000 0.011572 0.000000 0.064193
#
#
# Mechanical properties :
#
#
# Convention : Reuss Voigt Hill
#
# Bulk Modulus (GPa) = 11.53524 19.33998 15.43761
# Shear Modulus (GPa) = 15.41685 20.39644 17.90664
#
# Velocity S-wave (km/s) = 2.80774 3.22951 3.02598
# Velocity P-wave (km/s) = 4.05090 4.87810 4.48361
#
# Compressibility (1/GPa) = 0.08669086
#
# Stress axis : x y z
#
# Youngs Moduli (GPa) = 18.36908 69.22391 34.65389
#
# Poissons Ratio (x) = -0.32591 0.23740
# Poissons Ratio (y) = -0.08648 0.11723
# Poissons Ratio (z) = 0.12584 0.23418
#
# Static dielectric constant tensor:
#      x y z
#    x 1.662330 0.000000 -0.015220 
#    y 0.000000 1.728290 0.000000 
#    z -0.015220 0.000000 1.670470 
# 
# From -- ./inp_files/668.got.cif
#   From: 2010.05.17/outbox.cif.g08.bks.cpg/sg7_cif.got.tgz:668.got - 2010.06.03 19:44:50.
