data_PCOD9131068
_publ_section_title
;
Structure prediction by ZEFSAII (Michael W. Deem and Ramdas Pophale) SiO2 
 PCOD9131068
Probable space group: P M
;
_chemical_formula_sum "Si O2"
_cell_formula_units_Z 16
_cell_length_a 11.352030
_cell_length_b 8.761162
_cell_length_c 9.450619
_cell_angle_alpha 90.000000
_cell_angle_beta 65.199519
_cell_angle_gamma 90.000000
_cell_volume 853.243945
_symmetry_space_group_name_H-M "P M"
_symmetry_group_IT_number 6
_symmetry_cell_setting 'monoclinic'
loop_
_space_group_symop_operation_xyz
x,y,z
x,-y,z
loop_
_atom_site_type_symbol
_atom_site_label
_atom_site_fract_x
_atom_site_fract_y
_atom_site_fract_z
Si Si1 0.359360 0.681660 0.314250
Si Si2 0.830056 0.318212 0.087280
Si Si3 0.057791 0.682697 0.476866
Si Si4 0.594213 0.181583 0.028709
Si Si5 0.059930 0.818035 0.786927
Si Si6 0.577509 0.816639 0.707526
Si Si7 0.342290 0.681792 0.651997
Si Si8 0.833614 0.816958 0.398446
O O1 0.379546 0.500000 0.283349
O O2 0.207903 0.715847 0.362926
O O3 0.457657 0.773683 0.167765
O O4 0.382108 0.715743 0.469104
O O5 0.834954 0.500000 0.094623
O O6 0.707073 0.266727 0.056544
O O7 0.819520 0.247084 0.248243
O O8 0.957999 0.255469 0.945398
O O9 0.045748 0.500000 0.496718
O O10 0.031320 0.758195 0.642683
O O11 0.958456 0.746261 0.412461
O O12 0.615783 0.000000 0.028723
O O13 0.594548 0.223918 0.863249
O O14 0.206082 0.765048 0.747872
O O15 0.049588 0.000000 0.795701
O O16 0.454092 0.735992 0.700225
O O17 0.706446 0.777427 0.554575
O O18 0.559374 0.000000 0.708076
O O19 0.321650 0.500000 0.671477
O O20 0.845227 0.000000 0.388928
#
# Coordination Sequence:
#
# PCOD9131068 Si02
#       8
#     2   2   2   2   2   2   2   2
#     4   9  20  38  59  86 119 155 194 237 287 345
#     4  12  25  41  61  86 118 154 196 246 300 355
#     4  10  21  39  62  89 122 158 198 242 292 348
#     4  11  23  39  60  87 118 153 196 243 293 351
#     4  11  22  39  63  89 119 155 197 242 293 353
#     4  10  23  40  58  84 118 155 195 241 292 349
#     4  10  21  38  61  88 118 153 195 241 292 349
#     4  11  23  40  62  87 118 157 201 246 295 350
#
# _framework density 18.751964000000001
#
# number of rings (size 3 to 8) (size 9 to 14) (size 15 to 20)
#    0.000    1.500    0.000    6.000    0.000    9.000 
#    0.000    2.500    0.000    0.000    0.000    0.000 
#    0.000    0.000    0.000    0.000    0.000    0.000 
#
# Total GULP energy -89483.328209 kJ/mol
# GULP energy per Si atom -5592.708013 kJ/mol
# Density = 1.870928 g / cm^3
# Si number density = 18.751964 Si / 1000 Ang^3
#
#
#
# Elastic Constant Matrix: (Units=GPa)
#
#
# Indices 1 2 3 4 5 6 
#
# 1 122.7251 47.0215 67.8531 0.0000 21.8544 0.0000
# 2 47.0215 72.1309 49.9901 0.0000 2.2334 0.0000
# 3 67.8531 49.9901 135.0947 0.0000 -2.7605 0.0000
# 4 0.0000 0.0000 0.0000 26.2872 0.0000 -0.6564
# 5 21.8544 2.2334 -2.7605 0.0000 23.0116 0.0000
# 6 0.0000 0.0000 0.0000 -0.6564 0.0000 39.4577
#
#
#
# Elastic Compliance Matrix: (Units=1/GPa)
#
#
# Indices 1 2 3 4 5 6 
#
# 1 0.017066 -0.005976 -0.006696 0.000000 -0.016431 0.000000
# 2 -0.005976 0.020900 -0.004669 0.000000 0.003087 0.000000
# 3 -0.006696 -0.004669 0.012663 0.000000 0.008332 0.000000
# 4 0.000000 0.000000 0.000000 0.038057 0.000000 0.000633
# 5 -0.016431 0.003087 0.008332 0.000000 0.059761 0.000000
# 6 0.000000 0.000000 0.000000 0.000633 0.000000 0.025354
#
#
# Mechanical properties :
#
#
# Convention : Reuss Voigt Hill
#
# Bulk Modulus (GPa) = 62.70769 73.29780 68.00275
# Shear Modulus (GPa) = 23.38642 28.75704 26.07173
#
# Velocity S-wave (km/s) = 3.53533 3.92030 3.73278
# Velocity P-wave (km/s) = 7.08364 7.72429 7.41089
#
# Compressibility (1/GPa) = 0.01594701
#
# Stress axis : x y z
#
# Youngs Moduli (GPa) = 58.59573 47.84788 78.96722
#
# Poissons Ratio (x) = 0.28592 0.52878
# Poissons Ratio (y) = 0.35015 0.36871
# Poissons Ratio (z) = 0.39237 0.22341
#
# Static dielectric constant tensor:
#      x y z
#    x 1.620280 0.000000 -0.004340 
#    y 0.000000 1.629460 0.000000 
#    z -0.004340 0.000000 1.621530 
# 
# From -- ./inp_files/3743.got.cif
#   From: 2010.05.17/outbox.cif.g08.bks.cpg/sg6_2_cif.got.tgz:3743.got - 2010.06.03 19:42:10.
