data_PCOD9131477
_publ_section_title
;
Structure prediction by ZEFSAII (Michael W. Deem and Ramdas Pophale) SiO2 
 PCOD9131477
Probable space group: P C
;
_chemical_formula_sum "Si O2"
_cell_formula_units_Z 16
_cell_length_a 5.218193
_cell_length_b 20.850856
_cell_length_c 6.310964
_cell_angle_alpha 90.000000
_cell_angle_beta 104.592434
_cell_angle_gamma 90.000000
_cell_volume 664.506939
_symmetry_space_group_name_H-M "P C"
_symmetry_group_IT_number 7
_symmetry_cell_setting 'monoclinic'
loop_
_space_group_symop_operation_xyz
x,y,z
x,-y,1/2+z
loop_
_atom_site_type_symbol
_atom_site_label
_atom_site_fract_x
_atom_site_fract_y
_atom_site_fract_z
Si Si1 0.279730 0.275807 0.307050
Si Si2 0.690053 0.282141 0.011498
Si Si3 0.940524 0.529839 0.147347
Si Si4 0.729409 0.055801 0.670744
Si Si5 0.379468 0.820899 0.188102
Si Si6 0.100111 0.873708 0.499706
Si Si7 0.676193 0.909561 0.710515
Si Si8 0.448913 0.613168 0.163724
O O1 0.281542 0.212965 0.456269
O O2 0.999351 0.282480 0.130806
O O3 0.330747 0.335622 0.472620
O O4 0.517152 0.272237 0.187699
O O5 0.598087 0.227793 0.826171
O O6 0.596367 0.347995 0.881488
O O7 0.868215 0.135350 0.117950
O O8 0.943047 0.499212 0.397007
O O9 0.206180 0.572173 0.201867
O O10 0.668776 0.569810 0.096565
O O11 0.507529 0.107548 0.698802
O O12 0.809931 0.083264 0.462668
O O13 0.641096 0.983055 0.624654
O O14 0.988208 0.061116 0.869247
O O15 0.151168 0.825743 0.317866
O O16 0.382391 0.883678 0.661445
#
# Coordination Sequence:
#
# PCOD9131477 Si02
#       8
#     2   2   2   2   2   2   2   2
#     4  11  27  48  80 106 149 203 258 314 395 438
#     4  11  27  48  77 108 150 202 258 315 387 449
#     4  12  28  48  83 125 173 218 274 326 390 454
#     4  12  28  47  73 100 142 177 241 294 381 460
#     4  11  29  46  73 112 139 185 252 315 375 468
#     4  12  28  48  69 102 139 177 233 295 369 455
#     4  12  29  45  73  99 135 190 226 294 380 473
#     4  11  26  50  78 116 163 212 266 321 377 463
#
# _framework density 24.078005000000001
#
# number of rings (size 3 to 8) (size 9 to 14) (size 15 to 20)
#    0.000    0.500    2.500    2.250   15.750    2.000 
#    0.000    0.000    0.000    0.000    0.000    0.000 
#    0.000    0.000    0.000    0.000    0.000    0.000 
#
# Total GULP energy -89406.251788 kJ/mol
# GULP energy per Si atom -5587.890737 kJ/mol
# Density = 2.402320 g / cm^3
# Si number density = 24.078005 Si / 1000 Ang^3
#
#
#
# Elastic Constant Matrix: (Units=GPa)
#
#
# Indices 1 2 3 4 5 6 
#
# 1 -9.6170 -47.5556 -32.0776 0.0000 -23.9029 0.0000
# 2 -47.5556 49.9360 9.0118 0.0000 -19.0675 0.0000
# 3 -32.0776 9.0118 84.2652 0.0000 -3.2261 0.0000
# 4 0.0000 0.0000 0.0000 10.2309 0.0000 3.2685
# 5 -23.9029 -19.0675 -3.2261 0.0000 41.7443 0.0000
# 6 0.0000 0.0000 0.0000 3.2685 0.0000 41.2829
#
#
#
# Elastic Compliance Matrix: (Units=1/GPa)
#
#
# Indices 1 2 3 4 5 6 
#
# 1 -0.008867 -0.012121 -0.002493 0.000000 -0.010807 0.000000
# 2 -0.012121 0.008092 -0.005620 0.000000 -0.003679 0.000000
# 3 -0.002493 -0.005620 0.011400 0.000000 -0.003114 0.000000
# 4 0.000000 0.000000 0.000000 0.100279 0.000000 -0.007939
# 5 -0.010807 -0.003679 -0.003114 0.000000 0.015846 0.000000
# 6 0.000000 0.000000 0.000000 -0.007939 0.000000 0.024852
#
#
# Mechanical properties :
#
#
# Convention : Reuss Voigt Hill
#
# Bulk Modulus (GPa) = -33.50602 -1.85097 -17.67850
# Shear Modulus (GPa) = 27.45401 31.66535 29.55968
#
# Velocity S-wave (km/s) = 3.38036 3.63039 3.50760
# Velocity P-wave (km/s) = 1.13578 4.09909 3.00770
#
# Compressibility (1/GPa) = -0.02984538
#
# Stress axis : x y z
#
# Youngs Moduli (GPa) = -112.77184 123.58456 87.71829
#
# Poissons Ratio (x) = 1.49801 0.21868
# Poissons Ratio (y) = -1.36694 0.49302
# Poissons Ratio (z) = -0.28114 0.69461
#
# Static dielectric constant tensor:
#      x y z
#    x 1.902200 0.000000 -0.020120 
#    y 0.000000 1.958890 0.000000 
#    z -0.020120 0.000000 2.036940 
# 
# From -- ./inp_files/388.got.cif
#   From: 2010.05.17/outbox.cif.g08.bks.cpg/sg7_cif.got.tgz:388.got - 2010.06.03 19:44:50.
