data_PCOD9131330
_publ_section_title
;
Structure prediction by ZEFSAII (Michael W. Deem and Ramdas Pophale) SiO2 
 PCOD9131330
Probable space group: P C
;
_chemical_formula_sum "Si O2"
_cell_formula_units_Z 10
_cell_length_a 6.880089
_cell_length_b 10.554697
_cell_length_c 6.186284
_cell_angle_alpha 90.000000
_cell_angle_beta 109.081281
_cell_angle_gamma 90.000000
_cell_volume 424.548310
_symmetry_space_group_name_H-M "P C"
_symmetry_group_IT_number 7
_symmetry_cell_setting 'monoclinic'
loop_
_space_group_symop_operation_xyz
x,y,z
x,-y,1/2+z
loop_
_atom_site_type_symbol
_atom_site_label
_atom_site_fract_x
_atom_site_fract_y
_atom_site_fract_z
Si Si1 0.599690 0.108449 0.772010
Si Si2 0.415191 0.164146 0.099696
Si Si3 0.044183 0.483207 0.099324
Si Si4 0.755874 0.717001 0.948364
Si Si5 0.985245 0.806323 0.657734
O O1 0.659544 0.202889 0.604857
O O2 0.529683 0.969215 0.683012
O O3 0.410144 0.166962 0.839763
O O4 0.811332 0.108648 0.985235
O O5 0.561065 0.281640 0.216002
O O6 0.209651 0.157686 0.160828
O O7 0.140439 0.497649 0.385341
O O8 0.965469 0.339268 0.071361
O O9 0.857415 0.583687 0.036399
O O10 0.934585 0.797204 0.892239
#
# Coordination Sequence:
#
# PCOD9131330 Si02
#       5
#     2   2   2   2   2
#     4  11  22  44  64  99 141 174 233 297 355 421
#     4  11  24  42  65 107 137 181 239 289 361 433
#     4  10  20  43  74 100 137 186 241 292 358 421
#     4  10  22  44  69  95 138 181 233 295 352 420
#     4  10  24  43  70  99 137 190 232 293 360 425
#
# _framework density 23.554445000000001
#
# number of rings (size 3 to 8) (size 9 to 14) (size 15 to 20)
#    0.000    1.600    4.000    0.000    0.000    4.800 
#    0.000   12.000    0.000    0.000    0.000    0.000 
#    0.000    0.000    0.000    0.000    0.000    0.000 
#
# Total GULP energy -55705.810135 kJ/mol
# GULP energy per Si atom -5570.581013 kJ/mol
# Density = 2.350083 g / cm^3
# Si number density = 23.554445 Si / 1000 Ang^3
#
#
#
# Elastic Constant Matrix: (Units=GPa)
#
#
# Indices 1 2 3 4 5 6 
#
# 1 134.3567 33.5288 30.3082 0.0000 -29.1046 0.0000
# 2 33.5288 108.6269 22.4983 0.0000 -5.9639 0.0000
# 3 30.3082 22.4983 91.5003 0.0000 -27.7841 0.0000
# 4 0.0000 0.0000 0.0000 37.9377 0.0000 -3.2246
# 5 -29.1046 -5.9639 -27.7841 0.0000 28.2454 0.0000
# 6 0.0000 0.0000 0.0000 -3.2246 0.0000 9.4441
#
#
#
# Elastic Compliance Matrix: (Units=1/GPa)
#
#
# Indices 1 2 3 4 5 6 
#
# 1 0.010280 -0.002688 0.000428 0.000000 0.010446 0.000000
# 2 -0.002688 0.010406 -0.002627 0.000000 -0.003157 0.000000
# 3 0.000428 -0.002627 0.016253 0.000000 0.015874 0.000000
# 4 0.000000 0.000000 0.000000 0.027147 0.000000 0.009269
# 5 0.010446 -0.003157 0.015874 0.000000 0.061116 0.000000
# 6 0.000000 0.000000 0.000000 0.009269 0.000000 0.109051
#
#
# Mechanical properties :
#
#
# Convention : Reuss Voigt Hill
#
# Bulk Modulus (GPa) = 36.81188 56.35052 46.58120
# Shear Modulus (GPa) = 19.75638 31.66867 25.71253
#
# Velocity S-wave (km/s) = 2.89927 3.67070 3.30755
# Velocity P-wave (km/s) = 5.18363 6.47618 5.86562
#
# Compressibility (1/GPa) = 0.02716514
#
# Stress axis : x y z
#
# Youngs Moduli (GPa) = 97.27626 96.09576 61.52622
#
# Poissons Ratio (x) = 0.25832 -0.02632
# Poissons Ratio (y) = 0.26149 0.16162
# Poissons Ratio (z) = -0.04161 0.25243
#
# Static dielectric constant tensor:
#      x y z
#    x 1.897120 0.000000 -0.068150 
#    y 0.000000 1.832850 0.000000 
#    z -0.068150 0.000000 2.193370 
# 
# From -- ./inp_files/77.got.cif
#   From: 2010.05.17/outbox.cif.g08.bks.cpg/sg7_cif.got.tgz:77.got - 2010.06.03 19:44:50.
