data_PCOD9131353
_publ_section_title
;
Structure prediction by ZEFSAII (Michael W. Deem and Ramdas Pophale) SiO2 
 PCOD9131353
Probable space group: P C
;
_chemical_formula_sum "Si O2"
_cell_formula_units_Z 14
_cell_length_a 8.103005
_cell_length_b 17.576364
_cell_length_c 5.315973
_cell_angle_alpha 90.000000
_cell_angle_beta 60.724719
_cell_angle_gamma 90.000000
_cell_volume 660.410528
_symmetry_space_group_name_H-M "P C"
_symmetry_group_IT_number 7
_symmetry_cell_setting 'monoclinic'
loop_
_space_group_symop_operation_xyz
x,y,z
x,-y,1/2+z
loop_
_atom_site_type_symbol
_atom_site_label
_atom_site_fract_x
_atom_site_fract_y
_atom_site_fract_z
Si Si1 0.278470 0.822523 0.512310
Si Si2 0.551510 0.049410 0.648114
Si Si3 0.056117 0.526234 0.587559
Si Si4 0.189938 0.325343 0.823975
Si Si5 0.997415 0.950555 0.859524
Si Si6 0.410468 0.678860 0.647632
Si Si7 0.638177 0.460697 0.977171
O O1 0.421706 0.876443 0.256921
O O2 0.166067 0.763066 0.415425
O O3 0.401712 0.769973 0.611469
O O4 0.127929 0.876504 0.758561
O O5 0.774417 0.068904 0.504760
O O6 0.513171 0.002614 0.422349
O O7 0.155503 0.484911 0.281128
O O8 0.031922 0.614188 0.525902
O O9 0.859824 0.482007 0.783968
O O10 0.264305 0.334964 0.486290
O O11 0.348154 0.346600 0.913964
O O12 0.035743 0.000953 0.581911
O O13 0.594509 0.628013 0.556199
O O14 0.562044 0.493413 0.772175
#
# Coordination Sequence:
#
# PCOD9131353 Si02
#       7
#     2   2   2   2   2   2   2
#     4  10  24  40  64  88 130 158 196 248 310 352
#     4  10  22  40  65  93 120 160 205 241 291 363
#     4  10  21  39  60  82 113 155 204 245 294 354
#     4  10  23  38  58  89 119 153 199 249 304 352
#     4  10  22  40  65  93 120 160 205 241 291 363
#     4  10  23  38  58  89 119 153 199 249 304 352
#     4  10  21  39  60  82 113 155 204 245 294 354
#
# _framework density 21.198934999999999
#
# number of rings (size 3 to 8) (size 9 to 14) (size 15 to 20)
#    0.857    1.143    0.000    2.571    4.000    3.429 
#    5.143    0.000    0.000    0.000    0.000    0.000 
#    0.000    0.000    0.000    0.000    0.000    0.000 
#
# Total GULP energy -77960.805405 kJ/mol
# GULP energy per Si atom -5568.628957 kJ/mol
# Density = 2.115069 g / cm^3
# Si number density = 21.198935 Si / 1000 Ang^3
#
#
#
# Elastic Constant Matrix: (Units=GPa)
#
#
# Indices 1 2 3 4 5 6 
#
# 1 43.6165 41.8453 34.5764 0.0000 -2.3296 0.0000
# 2 41.8453 157.7774 56.2556 0.0000 -15.0155 0.0000
# 3 34.5764 56.2556 125.9777 0.0000 28.2030 0.0000
# 4 0.0000 0.0000 0.0000 18.0567 0.0000 -6.1131
# 5 -2.3296 -15.0155 28.2030 0.0000 32.6212 0.0000
# 6 0.0000 0.0000 0.0000 -6.1131 0.0000 30.4070
#
#
#
# Elastic Compliance Matrix: (Units=1/GPa)
#
#
# Indices 1 2 3 4 5 6 
#
# 1 0.035903 -0.005484 -0.009194 0.000000 0.007988 0.000000
# 2 -0.005484 0.010483 -0.005169 0.000000 0.008902 0.000000
# 3 -0.009194 -0.005169 0.016677 0.000000 -0.017454 0.000000
# 4 0.000000 0.000000 0.000000 0.059426 0.000000 0.011947
# 5 0.007988 0.008902 -0.017454 0.000000 0.050413 0.000000
# 6 0.000000 0.000000 0.000000 0.011947 0.000000 0.035289
#
#
# Mechanical properties :
#
#
# Convention : Reuss Voigt Hill
#
# Bulk Modulus (GPa) = 42.79032 65.85846 54.32439
# Shear Modulus (GPa) = 19.55619 29.19661 24.37640
#
# Velocity S-wave (km/s) = 3.04058 3.71518 3.39468
# Velocity P-wave (km/s) = 5.70577 7.03831 6.40677
#
# Compressibility (1/GPa) = 0.02336977
#
# Stress axis : x y z
#
# Youngs Moduli (GPa) = 27.85277 95.39547 59.96312
#
# Poissons Ratio (x) = 0.52314 0.55128
# Poissons Ratio (y) = 0.15274 0.30995
# Poissons Ratio (z) = 0.25607 0.49309
#
# Static dielectric constant tensor:
#      x y z
#    x 1.880470 0.000000 0.029050 
#    y 0.000000 1.795500 0.000000 
#    z 0.029050 0.000000 1.791920 
# 
# From -- ./inp_files/747.got.cif
#   From: 2010.05.17/outbox.cif.g08.bks.cpg/sg7_cif.got.tgz:747.got - 2010.06.03 19:44:50.
