data_PCOD9131607
_publ_section_title
;
Structure prediction by ZEFSAII (Michael W. Deem and Ramdas Pophale) SiO2 
 PCOD9131607
Probable space group: C M
;
_chemical_formula_sum "Si O2"
_cell_formula_units_Z 32
_cell_length_a 20.463283
_cell_length_b 7.419355
_cell_length_c 8.112049
_cell_angle_alpha 90.000000
_cell_angle_beta 71.912988
_cell_angle_gamma 90.000000
_cell_volume 1170.748208
_symmetry_space_group_name_H-M "C M"
_symmetry_group_IT_number 8
_symmetry_cell_setting 'monoclinic'
loop_
_space_group_symop_operation_xyz
x,y,z
x,-y,z
1/2+x,1/2+y,z
1/2+x,1/2-y,z
loop_
_atom_site_type_symbol
_atom_site_label
_atom_site_fract_x
_atom_site_fract_y
_atom_site_fract_z
Si Si1 0.754840 0.213303 0.377500
Si Si2 0.009743 0.715292 0.549813
Si Si3 0.044677 0.719732 0.051676
Si Si4 0.299744 0.294476 0.818544
Si Si5 0.675079 0.778909 0.121960
Si Si6 0.389611 0.798183 0.438103
Si Si7 0.418256 0.786696 0.954413
Si Si8 0.131260 0.720069 0.665468
O O1 0.716669 0.287282 0.247603
O O2 0.835083 0.240709 0.343863
O O3 0.708727 0.276998 0.568151
O O4 0.745948 0.000000 0.375733
O O5 0.016251 0.500000 0.514112
O O6 0.966611 0.735621 0.754000
O O7 0.084733 0.777270 0.545344
O O8 0.960674 0.790772 0.444206
O O9 0.041307 0.500000 0.055171
O O10 0.967091 0.778974 0.066564
O O11 0.091578 0.777320 0.859158
O O12 0.095431 0.773104 0.160785
O O13 0.292232 0.500000 0.765092
O O14 0.343607 0.200468 0.642159
O O15 0.346814 0.295995 0.948132
O O16 0.225234 0.227369 0.931309
O O17 0.675063 0.000000 0.122999
O O18 0.408369 0.000000 0.378319
O O19 0.405978 0.000000 0.983979
O O20 0.129828 0.500000 0.674043
#
# Coordination Sequence:
#
# PCOD9131607 Si02
#       8
#     4   4   4   4   4   4   4   4
#     4  10  19  31  48  70  96 125 158 195 233 275
#     4   7  12  24  43  67  90 113 145 188 233 272
#     4   8  13  25  46  69  91 118 155 197 235 270
#     4  10  18  30  50  72  95 124 158 193 229 275
#     4   9  18  30  45  69  98 127 160 195 228 268
#     4  10  19  32  50  71  96 123 154 194 237 281
#     4   8  14  26  46  70  94 118 149 194 240 276
#     4   8  13  24  46  70  88 112 151 194 231 269
#
# _framework density 27.332947999999998
#
# number of rings (size 3 to 8) (size 9 to 14) (size 15 to 20)
#    0.000    3.250    0.000    3.750    0.000    2.000 
#    0.000    2.500    0.000   17.250    0.000    0.000 
#    0.000    0.000    0.000    0.000    0.000    0.000 
#
# Total GULP energy -89389.044958 kJ/mol
# GULP energy per Si atom -5586.815310 kJ/mol
# Density = 2.727074 g / cm^3
# Si number density = 27.332948 Si / 1000 Ang^3
#
#
#
# Elastic Constant Matrix: (Units=GPa)
#
#
# Indices 1 2 3 4 5 6 
#
# 1 230.4948 -2.3263 48.3621 0.0000 15.7750 0.0000
# 2 -2.3263 72.1881 -2.5730 0.0000 -1.8138 0.0000
# 3 48.3621 -2.5730 109.8433 0.0000 22.4661 0.0000
# 4 0.0000 0.0000 0.0000 2.6484 0.0000 10.7524
# 5 15.7750 -1.8138 22.4661 0.0000 62.2567 0.0000
# 6 0.0000 0.0000 0.0000 10.7524 0.0000 7.5750
#
#
#
# Elastic Compliance Matrix: (Units=1/GPa)
#
#
# Indices 1 2 3 4 5 6 
#
# 1 0.004794 0.000071 -0.002009 0.000000 -0.000488 0.000000
# 2 0.000071 0.013871 0.000232 0.000000 0.000303 0.000000
# 3 -0.002009 0.000232 0.010676 0.000000 -0.003337 0.000000
# 4 0.000000 0.000000 0.000000 -0.079277 0.000000 0.112529
# 5 -0.000488 0.000303 -0.003337 0.000000 0.017399 0.000000
# 6 0.000000 0.000000 0.000000 0.112529 0.000000 -0.027716
#
#
# Mechanical properties :
#
#
# Convention : Reuss Voigt Hill
#
# Bulk Modulus (GPa) = 38.56860 55.49465 47.03162
# Shear Modulus (GPa) = -103.74175 39.10025 -32.32075
#
# Velocity S-wave (km/s) = -6.16743 3.78632 -3.44246
# Velocity P-wave (km/s) = 6.04773 6.28190 1.20151
#
# Compressibility (1/GPa) = 0.02592783
#
# Stress axis : x y z
#
# Youngs Moduli (GPa) = 208.58578 72.09372 93.66365
#
# Poissons Ratio (x) = -0.00509 0.18821
# Poissons Ratio (y) = -0.01473 -0.02172
# Poissons Ratio (z) = 0.41914 -0.01672
#
# Static dielectric constant tensor:
#      x y z
#    x 2.123860 0.000000 0.044440 
#    y 0.000000 2.059280 0.000000 
#    z 0.044440 0.000000 2.233900 
# 
# From -- ./inp_files/16777.got.cif
#   From: 2010.05.17/outbox.cif.g08.bks.cpg/sg8_9_cif.got.tgz:16777.got - 2010.06.03 19:46:02.
