data_PCOD9131997
_publ_section_title
;
Structure prediction by ZEFSAII (Michael W. Deem and Ramdas Pophale) SiO2 
 PCOD9131997
Probable space group: C M
;
_chemical_formula_sum "Si O2"
_cell_formula_units_Z 32
_cell_length_a 17.216782
_cell_length_b 8.489938
_cell_length_c 21.182017
_cell_angle_alpha 90.000000
_cell_angle_beta 150.352702
_cell_angle_gamma 90.000000
_cell_volume 1531.546335
_symmetry_space_group_name_H-M "C M"
_symmetry_group_IT_number 8
_symmetry_cell_setting 'monoclinic'
loop_
_space_group_symop_operation_xyz
x,y,z
x,-y,z
1/2+x,1/2+y,z
1/2+x,1/2-y,z
loop_
_atom_site_type_symbol
_atom_site_label
_atom_site_fract_x
_atom_site_fract_y
_atom_site_fract_z
Si Si1 0.062410 0.183079 0.031410
Si Si2 0.942532 0.322290 0.126417
Si Si3 0.656839 0.309993 0.472102
Si Si4 0.762117 0.685049 0.866789
Si Si5 0.341012 0.320214 0.174587
Si Si6 0.563122 0.179522 0.537451
Si Si7 0.257772 0.677463 0.283480
Si Si8 0.956115 0.312986 0.600248
O O1 0.184229 0.214442 0.061827
O O2 0.156019 0.281554 0.150579
O O3 0.053272 0.000000 0.041107
O O4 0.888081 0.251136 0.904724
O O5 0.903529 0.500000 0.120809
O O6 0.906338 0.190888 0.150786
O O7 0.128571 0.320162 0.246363
O O8 0.849318 0.295683 0.995502
O O9 0.662614 0.500000 0.476249
O O10 0.485710 0.265733 0.321678
O O11 0.663837 0.254688 0.550673
O O12 0.797109 0.254716 0.523597
O O13 0.734114 0.500000 0.837332
O O14 0.600946 0.778537 0.748954
O O15 0.302225 0.500000 0.162909
O O16 0.388397 0.193464 0.385634
O O17 0.524604 0.250100 0.580622
O O18 0.616679 0.000000 0.583661
O O19 0.325836 0.500000 0.327824
O O20 0.933181 0.500000 0.573875
#
# Coordination Sequence:
#
# PCOD9131997 Si02
#       8
#     4   4   4   4   4   4   4   4
#     4  11  21  35  59  86 117 154 192 244 301 358
#     4   9  20  36  56  84 117 153 196 247 304 365
#     4  10  22  40  62  89 127 164 200 254 310 369
#     4  10  22  42  63  85 115 157 206 253 302 361
#     4  11  21  35  58  90 124 156 195 245 305 371
#     4  11  22  37  61  92 123 161 208 256 309 367
#     4  10  19  34  56  84 119 155 193 242 299 362
#     4  10  23  43  63  88 122 166 214 257 306 367
#
# _framework density 20.893916000000001
#
# number of rings (size 3 to 8) (size 9 to 14) (size 15 to 20)
#    0.000    1.750    1.250    4.125    0.000    6.000 
#    2.250    0.000    0.000    0.000    0.000    0.000 
#    0.000    0.000    0.000    0.000    0.000    0.000 
#
# Total GULP energy -89103.840060 kJ/mol
# GULP energy per Si atom -5568.990004 kJ/mol
# Density = 2.084636 g / cm^3
# Si number density = 20.893916 Si / 1000 Ang^3
#
#
#
# Elastic Constant Matrix: (Units=GPa)
#
#
# Indices 1 2 3 4 5 6 
#
# 1 108.3460 28.1832 14.1665 0.0000 2.2279 0.0000
# 2 28.1832 32.2121 -3.0574 -0.0001 -1.7439 0.0000
# 3 14.1665 -3.0574 36.7806 -0.0001 14.8407 0.0000
# 4 0.0000 -0.0001 -0.0001 20.3035 0.0000 -1.2448
# 5 2.2279 -1.7439 14.8407 0.0000 26.4561 0.0000
# 6 0.0000 0.0000 0.0000 -1.2448 0.0000 30.9430
#
#
#
# Elastic Compliance Matrix: (Units=1/GPa)
#
#
# Indices 1 2 3 4 5 6 
#
# 1 0.013250 -0.012142 -0.006902 0.000000 0.001955 0.000000
# 2 -0.012142 0.042431 0.008612 0.000000 -0.001012 0.000000
# 3 -0.006902 0.008612 0.038905 0.000000 -0.020675 0.000000
# 4 0.000000 0.000000 0.000000 0.049374 0.000000 0.001986
# 5 0.001955 -0.001012 -0.020675 0.000000 0.049165 0.000000
# 6 0.000000 0.000000 0.000000 0.001986 0.000000 0.032397
#
#
# Mechanical properties :
#
#
# Convention : Reuss Voigt Hill
#
# Bulk Modulus (GPa) = 13.56463 28.43592 21.00027
# Shear Modulus (GPa) = 18.45288 24.74362 21.59825
#
# Velocity S-wave (km/s) = 2.97504 3.44503 3.21862
# Velocity P-wave (km/s) = 4.27872 5.42803 4.88727
#
# Compressibility (1/GPa) = 0.07372113
#
# Stress axis : x y z
#
# Youngs Moduli (GPa) = 75.46931 23.56794 25.70386
#
# Poissons Ratio (x) = 0.28617 0.17741
# Poissons Ratio (y) = 0.91638 -0.22136
# Poissons Ratio (z) = 0.52088 -0.20297
#
# Static dielectric constant tensor:
#      x y z
#    x 1.887250 0.000000 0.000200 
#    y 0.000000 1.745520 0.000000 
#    z 0.000200 0.000000 1.738770 
# 
# From -- ./inp_files/31076.got.cif
#   From: 2010.05.17/outbox.cif.g08.bks.cpg/sg8_16_cif.got.tgz:31076.got - 2010.06.03 19:46:02.
