data_PCOD9131560
_publ_section_title
;
Structure prediction by ZEFSAII (Michael W. Deem and Ramdas Pophale) SiO2 
 PCOD9131560
Probable space group: C M
;
_chemical_formula_sum "Si O2"
_cell_formula_units_Z 26
_cell_length_a 19.168978
_cell_length_b 8.009021
_cell_length_c 7.193604
_cell_angle_alpha 90.000000
_cell_angle_beta 65.929128
_cell_angle_gamma 90.000000
_cell_volume 1008.359758
_symmetry_space_group_name_H-M "C M"
_symmetry_group_IT_number 8
_symmetry_cell_setting 'monoclinic'
loop_
_space_group_symop_operation_xyz
x,y,z
x,-y,z
1/2+x,1/2+y,z
1/2+x,1/2-y,z
loop_
_atom_site_type_symbol
_atom_site_label
_atom_site_fract_x
_atom_site_fract_y
_atom_site_fract_z
Si Si1 0.846910 0.191291 0.671070
Si Si2 0.287240 0.805889 0.383105
Si Si3 0.121052 0.807655 0.705146
Si Si4 0.463467 0.825716 0.805331
Si Si5 0.570688 0.688873 0.190923
Si Si6 0.475185 0.000000 0.182279
Si Si7 0.727461 0.807942 0.090962
O O1 0.850672 0.287782 0.472875
O O2 0.916771 0.194258 0.738314
O O3 0.830895 0.000000 0.638000
O O4 0.775483 0.262134 0.866578
O O5 0.206620 0.756325 0.565546
O O6 0.286374 0.701082 0.197700
O O7 0.285563 0.000000 0.331950
O O8 0.104363 0.799825 0.943385
O O9 0.053646 0.701667 0.687994
O O10 0.111264 0.000000 0.660271
O O11 0.452199 0.856833 0.038944
O O12 0.437542 0.000000 0.744894
O O13 0.539204 0.500000 0.252685
O O14 0.515496 0.848192 0.262398
O O15 0.649410 0.712326 0.220730
O O16 0.707329 0.000000 0.073623
#
# Coordination Sequence:
#
# PCOD9131560 Si02
#       7
#     4   4   4   4   4   2   4
#     4  11  23  39  63  86 122 169 209 257 314 373
#     4  11  23  38  62  93 123 159 207 260 312 372
#     4   9  18  34  59  88 117 153 199 249 306 369
#     4   9  19  33  58  86 118 159 203 246 310 372
#     4  10  17  32  60  90 121 158 197 256 310 363
#     4   8  18  34  56  90 124 152 208 248 302 382
#     4  11  23  38  60  93 128 161 210 258 311 376
#
# _framework density 25.784445999999999
#
# number of rings (size 3 to 8) (size 9 to 14) (size 15 to 20)
#    0.462    1.538    2.308    1.846    0.000    3.692 
#    0.000    0.000    6.769    0.000    0.000    0.000 
#    0.000    0.000    0.000    0.000    0.000    0.000 
#
# Total GULP energy -72399.206704 kJ/mol
# GULP energy per Si atom -5569.169746 kJ/mol
# Density = 2.572576 g / cm^3
# Si number density = 25.784446 Si / 1000 Ang^3
#
#
#
# Elastic Constant Matrix: (Units=GPa)
#
#
# Indices 1 2 3 4 5 6 
#
# 1 118.3471 18.7880 21.1903 0.0000 16.4652 0.0000
# 2 18.7880 94.7203 3.4423 0.0000 6.7545 0.0000
# 3 21.1903 3.4423 94.3333 0.0000 9.6590 0.0000
# 4 0.0000 0.0000 0.0000 10.0636 0.0000 23.9333
# 5 16.4652 6.7545 9.6590 0.0000 42.7923 0.0000
# 6 0.0000 0.0000 0.0000 23.9333 0.0000 31.7060
#
#
#
# Elastic Compliance Matrix: (Units=1/GPa)
#
#
# Indices 1 2 3 4 5 6 
#
# 1 0.009432 -0.001594 -0.001755 0.000000 -0.002981 0.000000
# 2 -0.001594 0.010952 0.000074 0.000000 -0.001132 0.000000
# 3 -0.001755 0.000074 0.011183 0.000000 -0.001861 0.000000
# 4 0.000000 0.000000 0.000000 -0.124960 0.000000 0.094326
# 5 -0.002981 -0.001132 -0.001861 0.000000 0.025114 0.000000
# 6 0.000000 0.000000 0.000000 0.094326 0.000000 -0.039663
#
#
# Mechanical properties :
#
#
# Convention : Reuss Voigt Hill
#
# Bulk Modulus (GPa) = 39.97476 43.80465 41.88971
# Shear Modulus (GPa) = -53.73311 34.51105 -9.61103
#
# Velocity S-wave (km/s) = -4.56997 3.66244 -1.93276
# Velocity P-wave (km/s) = 3.50842 5.90850 3.36165
#
# Compressibility (1/GPa) = 0.02501578
#
# Stress axis : x y z
#
# Youngs Moduli (GPa) = 106.02310 91.31026 89.42310
#
# Poissons Ratio (x) = 0.14559 0.15696
# Poissons Ratio (y) = 0.16905 -0.00666
# Poissons Ratio (z) = 0.18610 -0.00680
#
# Static dielectric constant tensor:
#      x y z
#    x 2.080200 0.000000 -0.045490 
#    y 0.000000 1.924530 0.000000 
#    z -0.045490 0.000000 2.073610 
# 
# From -- ./inp_files/14459.got.cif
#   From: 2010.05.17/outbox.cif.g08.bks.cpg/sg8_8_cif.got.tgz:14459.got - 2010.06.03 19:46:02.
