data_PCOD9131729
_publ_section_title
;
Structure prediction by ZEFSAII (Michael W. Deem and Ramdas Pophale) SiO2 
 PCOD9131729
Probable space group: C M
;
_chemical_formula_sum "Si O2"
_cell_formula_units_Z 28
_cell_length_a 9.459691
_cell_length_b 17.407042
_cell_length_c 13.608689
_cell_angle_alpha 90.000000
_cell_angle_beta 30.837115
_cell_angle_gamma 90.000000
_cell_volume 1148.672221
_symmetry_space_group_name_H-M "C M"
_symmetry_group_IT_number 8
_symmetry_cell_setting 'monoclinic'
loop_
_space_group_symop_operation_xyz
x,y,z
x,-y,z
1/2+x,1/2+y,z
1/2+x,1/2-y,z
loop_
_atom_site_type_symbol
_atom_site_label
_atom_site_fract_x
_atom_site_fract_y
_atom_site_fract_z
Si Si1 0.272720 0.592165 0.653540
Si Si2 0.786842 0.588217 0.459482
Si Si3 0.924027 0.331896 0.691814
Si Si4 0.100949 0.279114 0.009724
Si Si5 0.957693 0.913681 0.865520
Si Si6 0.749248 0.648396 0.075625
Si Si7 0.197636 0.588889 0.359576
O O1 0.281023 0.500000 0.631792
O O2 0.573935 0.621917 0.507611
O O3 0.141764 0.635759 0.639564
O O4 0.041889 0.609643 0.874406
O O5 0.809145 0.500000 0.415264
O O6 0.622357 0.590873 0.662563
O O7 0.095369 0.609531 0.310279
O O8 0.074070 0.341937 0.498840
O O9 0.795928 0.251759 0.803189
O O10 0.663592 0.388520 0.829601
O O11 0.219941 0.352266 0.994867
O O12 0.142257 0.208973 0.058690
O O13 0.810808 0.303811 0.137087
O O14 0.861341 0.000000 0.936155
O O15 0.511285 0.586643 0.207263
O O16 0.094846 0.500000 0.439243
#
# Coordination Sequence:
#
# PCOD9131729 Si02
#       7
#     4   4   4   4   4   4   4
#     4  10  18  33  63  95 118 153 207 260 302 364
#     4   8  16  31  57  89 117 150 200 248 297 360
#     4  10  21  38  63  91 125 158 206 261 306 372
#     4  11  22  40  60  91 123 166 214 253 311 370
#     4  10  18  34  61  89 118 157 210 257 299 361
#     4  11  23  39  59  88 129 163 203 258 315 380
#     4  10  21  41  64  91 125 165 202 253 324 379
#
# _framework density 24.375969999999999
#
# number of rings (size 3 to 8) (size 9 to 14) (size 15 to 20)
#    0.000    2.000    2.857    2.571    0.000    0.571 
#    5.143    1.429    0.000    0.000    0.000    1.000 
#    0.000    0.000    0.000    0.000    0.000    0.000 
#
# Total GULP energy -78066.681851 kJ/mol
# GULP energy per Si atom -5576.191561 kJ/mol
# Density = 2.432049 g / cm^3
# Si number density = 24.375970 Si / 1000 Ang^3
#
#
#
# Elastic Constant Matrix: (Units=GPa)
#
#
# Indices 1 2 3 4 5 6 
#
# 1 157.7374 35.0320 34.5716 -0.0009 -51.2218 -0.0068
# 2 35.0320 102.5284 13.2490 -0.0056 -14.7665 -0.0026
# 3 34.5716 13.2490 54.1048 -0.0690 -26.4382 -0.0146
# 4 -0.0009 -0.0056 -0.0690 20.0572 0.0149 -17.4146
# 5 -51.2218 -14.7665 -26.4382 0.0149 37.8606 0.0129
# 6 -0.0068 -0.0026 -0.0146 -17.4146 0.0129 25.9715
#
#
#
# Elastic Compliance Matrix: (Units=1/GPa)
#
#
# Indices 1 2 3 4 5 6 
#
# 1 0.011625 -0.001825 0.000541 -0.000032 0.015394 -0.000026
# 2 -0.001825 0.010646 -0.000939 -0.000004 0.001028 -0.000003
# 3 0.000541 -0.000939 0.028152 0.000208 0.020024 0.000145
# 4 -0.000032 -0.000004 0.000208 0.119331 0.000026 0.080015
# 5 0.015394 0.001028 0.020024 0.000026 0.061622 0.000002
# 6 -0.000026 -0.000003 0.000145 0.080015 0.000002 0.092156
#
#
# Mechanical properties :
#
#
# Convention : Reuss Voigt Hill
#
# Bulk Modulus (GPa) = 21.74980 53.34174 37.54577
# Shear Modulus (GPa) = 14.56437 32.21241 23.38839
#
# Velocity S-wave (km/s) = 2.44701 3.63916 3.10092
# Velocity P-wave (km/s) = 4.11410 6.29193 5.31574
#
# Compressibility (1/GPa) = 0.04597743
#
# Stress axis : x y z
#
# Youngs Moduli (GPa) = 86.02035 93.92958 35.52154
#
# Poissons Ratio (x) = 0.17142 -0.01921
# Poissons Ratio (y) = 0.15698 0.03334
# Poissons Ratio (z) = -0.04651 0.08817
#
# Static dielectric constant tensor:
#      x y z
#    x 1.985680 -0.000010 0.035700 
#    y -0.000010 1.883110 0.000020 
#    z 0.035700 0.000020 2.088590 
# 
# From -- ./inp_files/25617.got.cif
#   From: 2010.05.17/outbox.cif.g08.bks.cpg/sg8_13_cif.got.tgz:25617.got - 2010.06.03 19:46:02.
