data_PCOD9131294
_publ_section_title
;
Structure prediction by ZEFSAII (Michael W. Deem and Ramdas Pophale) SiO2 
 PCOD9131294
Probable space group: P C
;
_chemical_formula_sum "Si O2"
_cell_formula_units_Z 10
_cell_length_a 8.718834
_cell_length_b 8.714826
_cell_length_c 5.517349
_cell_angle_alpha 90.000000
_cell_angle_beta 68.468590
_cell_angle_gamma 90.000000
_cell_volume 389.970386
_symmetry_space_group_name_H-M "P C"
_symmetry_group_IT_number 7
_symmetry_cell_setting 'monoclinic'
loop_
_space_group_symop_operation_xyz
x,y,z
x,-y,1/2+z
loop_
_atom_site_type_symbol
_atom_site_label
_atom_site_fract_x
_atom_site_fract_y
_atom_site_fract_z
Si Si1 0.254170 0.512827 0.250000
Si Si2 0.643937 0.589147 0.720709
Si Si3 0.456585 0.088760 0.231029
Si Si4 0.981073 0.758136 0.444436
Si Si5 0.080444 0.190003 0.389135
O O1 0.348547 0.504242 0.445816
O O2 0.156074 0.670427 0.310713
O O3 0.124536 0.372745 0.332708
O O4 0.629977 0.466491 0.508269
O O5 0.541508 0.745380 0.716123
O O6 0.834496 0.644029 0.584728
O O7 0.257922 0.112951 0.333257
O O8 0.498892 0.989368 0.447161
O O9 0.006568 0.856005 0.672414
O O10 0.960619 0.824833 0.187606
#
# Coordination Sequence:
#
# PCOD9131294 Si02
#       5
#     2   2   2   2   2
#     4   8  14  25  49  84 117 144 188 260 328 373
#     4  12  25  45  74 109 142 187 245 301 361 436
#     4  12  28  50  68  99 152 201 240 294 361 436
#     4  10  19  37  67 103 135 166 224 304 361 410
#     4  10  20  37  64  91 126 178 227 277 345 415
#
# _framework density 25.642973999999999
#
# number of rings (size 3 to 8) (size 9 to 14) (size 15 to 20)
#    0.000    1.600    0.000    7.200    0.000    4.800 
#    0.000    6.000    0.000    0.000    0.000    0.000 
#    0.000    0.000    0.000    0.000    0.000    0.000 
#
# Total GULP energy -55901.783926 kJ/mol
# GULP energy per Si atom -5590.178393 kJ/mol
# Density = 2.558461 g / cm^3
# Si number density = 25.642974 Si / 1000 Ang^3
#
#
#
# Elastic Constant Matrix: (Units=GPa)
#
#
# Indices 1 2 3 4 5 6 
#
# 1 72.2898 2.2253 49.8210 0.0000 19.9936 0.0000
# 2 2.2253 109.5195 49.7997 0.0000 19.2603 0.0000
# 3 49.8210 49.7997 298.6033 0.0000 50.3508 0.0000
# 4 0.0000 0.0000 0.0000 -8.8151 0.0000 -9.8255
# 5 19.9936 19.2603 50.3508 0.0000 35.7827 0.0000
# 6 0.0000 0.0000 0.0000 -9.8255 0.0000 33.2267
#
#
#
# Elastic Compliance Matrix: (Units=1/GPa)
#
#
# Indices 1 2 3 4 5 6 
#
# 1 0.017279 0.001908 -0.001836 0.000000 -0.008099 0.000000
# 2 0.001908 0.010532 -0.001231 0.000000 -0.005002 0.000000
# 3 -0.001836 -0.001231 0.004688 0.000000 -0.004909 0.000000
# 4 0.000000 0.000000 0.000000 -0.085320 0.000000 -0.025230
# 5 -0.008099 -0.005002 -0.004909 0.000000 0.042071 0.000000
# 6 0.000000 0.000000 0.000000 -0.025230 0.000000 0.022636
#
#
# Mechanical properties :
#
#
# Convention : Reuss Voigt Hill
#
# Bulk Modulus (GPa) = 33.13300 76.01162 54.57231
# Shear Modulus (GPa) = 206.06076 37.27663 121.66869
#
# Velocity S-wave (km/s) = 8.97396 3.81685 6.89566
# Velocity P-wave (km/s) = 10.96927 7.00936 9.20478
#
# Compressibility (1/GPa) = 0.03018139
#
# Stress axis : x y z
#
# Youngs Moduli (GPa) = 57.87205 94.95243 213.30102
#
# Poissons Ratio (x) = -0.18116 0.39152
# Poissons Ratio (y) = -0.11041 0.26263
# Poissons Ratio (z) = 0.10623 0.11691
#
# Static dielectric constant tensor:
#      x y z
#    x 2.021730 0.000000 0.041360 
#    y 0.000000 2.030930 0.000000 
#    z 0.041360 0.000000 2.068410 
# 
# From -- ./inp_files/511.got.cif
#   From: 2010.05.17/outbox.cif.g08.bks.cpg/sg7_cif.got.tgz:511.got - 2010.06.03 19:44:50.
