data_PCOD9131821
_publ_section_title
;
Structure prediction by ZEFSAII (Michael W. Deem and Ramdas Pophale) SiO2 
 PCOD9131821
Probable space group: C M
;
_chemical_formula_sum "Si O2"
_cell_formula_units_Z 32
_cell_length_a 16.091178
_cell_length_b 7.405711
_cell_length_c 12.613206
_cell_angle_alpha 90.000000
_cell_angle_beta 129.682526
_cell_angle_gamma 90.000000
_cell_volume 1156.756496
_symmetry_space_group_name_H-M "C M"
_symmetry_group_IT_number 8
_symmetry_cell_setting 'monoclinic'
loop_
_space_group_symop_operation_xyz
x,y,z
x,-y,z
1/2+x,1/2+y,z
1/2+x,1/2-y,z
loop_
_atom_site_type_symbol
_atom_site_label
_atom_site_fract_x
_atom_site_fract_y
_atom_site_fract_z
Si Si1 0.579810 0.779977 0.055320
Si Si2 0.804447 0.215361 0.308932
Si Si3 0.000634 0.719760 0.226251
Si Si4 0.277579 0.791224 0.979819
Si Si5 0.269210 0.717349 0.737245
Si Si6 0.022787 0.285119 0.562898
Si Si7 0.028606 0.706063 0.794850
Si Si8 0.731391 0.220158 0.481377
O O1 0.705674 0.720366 0.156334
O O2 0.537154 0.732043 0.135915
O O3 0.577030 0.000000 0.047092
O O4 0.515165 0.710478 0.900611
O O5 0.930339 0.257247 0.400744
O O6 0.776957 0.282543 0.405949
O O7 0.795724 0.000000 0.303133
O O8 0.995054 0.500000 0.228539
O O9 0.104721 0.775377 0.379203
O O10 0.876759 0.784958 0.130102
O O11 0.314545 0.785756 0.885573
O O12 0.160887 0.700279 0.891743
O O13 0.261149 0.000000 0.992205
O O14 0.275010 0.500000 0.746712
O O15 0.297322 0.773950 0.639950
O O16 0.143081 0.776836 0.638120
O O17 0.031484 0.500000 0.581650
O O18 0.992157 0.207684 0.654346
O O19 0.992010 0.500000 0.768017
O O20 0.730540 0.000000 0.479664
#
# Coordination Sequence:
#
# PCOD9131821 Si02
#       8
#     4   4   4   4   4   4   4   4
#     4   8  15  30  50  69  90 120 157 189 221 270
#     4   9  17  30  50  72  92 117 151 193 232 265
#     4   8  15  28  47  71  94 117 151 192 229 267
#     4  10  19  30  48  73  96 117 147 194 238 265
#     4   9  18  33  50  66  90 126 159 184 219 274
#     4   9  18  30  45  66  92 123 155 187 225 271
#     4   9  18  33  50  66  90 126 159 184 219 274
#     4   8  15  30  50  69  90 120 157 189 221 270
#
# _framework density 27.663557000000001
#
# number of rings (size 3 to 8) (size 9 to 14) (size 15 to 20)
#    0.000    3.250    0.000    2.625    0.000    4.000 
#    0.000    3.750    0.000    9.000    0.000    0.000 
#    0.000    0.000    0.000    0.000    0.000    0.000 
#
# Total GULP energy -89455.210890 kJ/mol
# GULP energy per Si atom -5590.950681 kJ/mol
# Density = 2.760059 g / cm^3
# Si number density = 27.663557 Si / 1000 Ang^3
#
#
#
# Elastic Constant Matrix: (Units=GPa)
#
#
# Indices 1 2 3 4 5 6 
#
# 1 57.8894 7.9849 5.3554 0.0000 3.7783 0.0000
# 2 7.9849 114.0612 6.0655 0.0000 0.3109 0.0000
# 3 5.3554 6.0655 196.7990 0.0000 6.0168 0.0000
# 4 0.0000 0.0000 0.0000 18.2529 0.0000 5.3531
# 5 3.7783 0.3109 6.0168 0.0000 63.3069 0.0000
# 6 0.0000 0.0000 0.0000 5.3531 0.0000 14.0215
#
#
#
# Elastic Compliance Matrix: (Units=1/GPa)
#
#
# Indices 1 2 3 4 5 6 
#
# 1 0.017544 -0.001204 -0.000410 0.000000 -0.001002 0.000000
# 2 -0.001204 0.008864 -0.000242 0.000000 0.000051 0.000000
# 3 -0.000410 -0.000242 0.005114 0.000000 -0.000460 0.000000
# 4 0.000000 0.000000 0.000000 0.061693 0.000000 -0.023553
# 5 -0.001002 0.000051 -0.000460 0.000000 0.015899 0.000000
# 6 0.000000 0.000000 0.000000 -0.023553 0.000000 0.080311
#
#
# Mechanical properties :
#
#
# Convention : Reuss Voigt Hill
#
# Bulk Modulus (GPa) = 35.95665 45.28455 40.62060
# Shear Modulus (GPa) = 24.70273 42.40586 33.55430
#
# Velocity S-wave (km/s) = 2.99150 3.91949 3.48651
# Velocity P-wave (km/s) = 4.99582 6.07359 5.56088
#
# Compressibility (1/GPa) = 0.02781126
#
# Stress axis : x y z
#
# Youngs Moduli (GPa) = 57.00064 112.81314 195.54128
#
# Poissons Ratio (x) = 0.13579 0.08011
# Poissons Ratio (y) = 0.06861 0.04732
# Poissons Ratio (z) = 0.02335 0.02730
#
# Static dielectric constant tensor:
#      x y z
#    x 2.315180 0.000000 -0.016180 
#    y 0.000000 2.014990 0.000000 
#    z -0.016180 0.000000 2.134780 
# 
# From -- ./inp_files/23137.got.cif
#   From: 2010.05.17/outbox.cif.g08.bks.cpg/sg8_12_cif.got.tgz:23137.got - 2010.06.03 19:46:02.
