data_PCOD9131945
_publ_section_title
;
Structure prediction by ZEFSAII (Michael W. Deem and Ramdas Pophale) SiO2 
 PCOD9131945
Probable space group: C M
;
_chemical_formula_sum "Si O2"
_cell_formula_units_Z 32
_cell_length_a 20.960723
_cell_length_b 8.657087
_cell_length_c 25.768749
_cell_angle_alpha 90.000000
_cell_angle_beta 157.334397
_cell_angle_gamma 90.000000
_cell_volume 1801.893614
_symmetry_space_group_name_H-M "C M"
_symmetry_group_IT_number 8
_symmetry_cell_setting 'monoclinic'
loop_
_space_group_symop_operation_xyz
x,y,z
x,-y,z
1/2+x,1/2+y,z
1/2+x,1/2-y,z
loop_
_atom_site_type_symbol
_atom_site_label
_atom_site_fract_x
_atom_site_fract_y
_atom_site_fract_z
Si Si1 0.671930 0.815289 0.275470
Si Si2 0.359358 0.814926 0.840678
Si Si3 0.499970 0.814661 0.564595
Si Si4 0.505063 0.685829 0.254096
Si Si5 0.095671 0.685207 0.830750
Si Si6 0.145681 0.816385 0.982839
Si Si7 0.896249 0.685718 0.988863
Si Si8 0.841008 0.312826 0.555130
O O1 0.564092 0.749340 0.242494
O O2 0.853857 0.743488 0.417488
O O3 0.683107 0.000000 0.289243
O O4 0.571534 0.779481 0.147747
O O5 0.179388 0.754366 0.688609
O O6 0.503556 0.746347 0.913664
O O7 0.386356 0.770378 0.921255
O O8 0.362743 0.000000 0.839926
O O9 0.844111 0.500000 0.557774
O O10 0.442373 0.765259 0.579587
O O11 0.500513 0.500000 0.247912
O O12 0.651144 0.733287 0.403443
O O13 0.325340 0.749040 0.132333
O O14 0.091383 0.500000 0.833765
O O15 0.109148 0.761825 0.896786
O O16 0.253530 0.731171 0.914509
O O17 0.935278 0.737995 0.677404
O O18 0.151823 0.000000 0.989281
O O19 0.870660 0.500000 0.973590
O O20 0.006497 0.500000 0.568440
#
# Coordination Sequence:
#
# PCOD9131945 Si02
#       8
#     4   4   4   4   4   4   4   4
#     4  10  19  33  55  86 118 149 185 234 286 338
#     4  11  23  40  60  84 114 154 194 235 289 346
#     4  10  19  35  56  84 117 151 189 234 282 337
#     4  10  19  35  57  84 114 149 189 235 286 341
#     4  11  20  35  60  87 114 149 191 235 285 341
#     4  12  25  40  56  82 118 155 193 238 286 343
#     4  10  21  36  57  87 118 145 188 242 286 333
#     4   8  17  32  55  86 115 142 183 233 282 333
#
# _framework density 17.759094999999999
#
# number of rings (size 3 to 8) (size 9 to 14) (size 15 to 20)
#    0.000    1.750    2.500    3.750    0.000    1.000 
#    0.000    3.125    0.000    3.000    0.000    0.000 
#    0.000    0.000    0.000    0.000    0.000    0.000 
#
# Total GULP energy -89337.241867 kJ/mol
# GULP energy per Si atom -5583.577617 kJ/mol
# Density = 1.771867 g / cm^3
# Si number density = 17.759095 Si / 1000 Ang^3
#
#
#
# Elastic Constant Matrix: (Units=GPa)
#
#
# Indices 1 2 3 4 5 6 
#
# 1 84.2436 35.5033 63.1551 0.0010 10.5755 0.0002
# 2 35.5033 67.3955 45.1251 0.0003 3.3989 0.0001
# 3 63.1551 45.1251 168.0416 0.0009 9.1300 -0.0001
# 4 0.0010 0.0003 0.0009 27.6261 -0.0004 6.1796
# 5 10.5755 3.3989 9.1300 -0.0004 27.0755 -0.0001
# 6 0.0002 0.0001 -0.0001 6.1796 -0.0001 24.7045
#
#
#
# Elastic Compliance Matrix: (Units=1/GPa)
#
#
# Indices 1 2 3 4 5 6 
#
# 1 0.019036 -0.006302 -0.005196 0.000000 -0.004892 0.000000
# 2 -0.006302 0.020188 -0.003106 0.000000 0.000974 0.000000
# 3 -0.005196 -0.003106 0.008767 0.000000 -0.000537 0.000000
# 4 0.000000 0.000000 0.000000 0.038343 0.000001 -0.009591
# 5 -0.004892 0.000974 -0.000537 0.000001 0.038903 0.000000
# 6 0.000000 0.000000 0.000000 -0.009591 0.000000 0.042878
#
#
# Mechanical properties :
#
#
# Convention : Reuss Voigt Hill
#
# Bulk Modulus (GPa) = 53.23959 67.47196 60.35577
# Shear Modulus (GPa) = 24.56001 27.60770 26.08385
#
# Velocity S-wave (km/s) = 3.72284 3.94708 3.83660
# Velocity P-wave (km/s) = 6.96586 7.67124 7.32705
#
# Compressibility (1/GPa) = 0.01878301
#
# Stress axis : x y z
#
# Youngs Moduli (GPa) = 52.53278 49.53468 114.06561
#
# Poissons Ratio (x) = 0.31217 0.59270
# Poissons Ratio (y) = 0.33106 0.35424
# Poissons Ratio (z) = 0.27297 0.15384
#
# Static dielectric constant tensor:
#      x y z
#    x 1.571850 0.000000 -0.020040 
#    y 0.000000 1.595120 0.000000 
#    z -0.020040 0.000000 1.619740 
# 
# From -- ./inp_files/29749.got.cif
#   From: 2010.05.17/outbox.cif.g08.bks.cpg/sg8_15_cif.got.tgz:29749.got - 2010.06.03 19:46:02.
