data_PCOD9131343
_publ_section_title
;
Structure prediction by ZEFSAII (Michael W. Deem and Ramdas Pophale) SiO2 
 PCOD9131343
Probable space group: P C
;
_chemical_formula_sum "Si O2"
_cell_formula_units_Z 16
_cell_length_a 7.739610
_cell_length_b 17.014389
_cell_length_c 5.519675
_cell_angle_alpha 90.000000
_cell_angle_beta 113.238336
_cell_angle_gamma 90.000000
_cell_volume 667.888165
_symmetry_space_group_name_H-M "P C"
_symmetry_group_IT_number 7
_symmetry_cell_setting 'monoclinic'
loop_
_space_group_symop_operation_xyz
x,y,z
x,-y,1/2+z
loop_
_atom_site_type_symbol
_atom_site_label
_atom_site_fract_x
_atom_site_fract_y
_atom_site_fract_z
Si Si1 0.424170 0.691574 0.877980
Si Si2 0.040935 0.699335 0.906396
Si Si3 0.571306 0.148252 0.210869
Si Si4 0.208298 0.046285 0.048335
Si Si5 0.941582 0.829220 0.176927
Si Si6 0.133940 0.539222 0.153770
Si Si7 0.700751 0.261674 0.908474
Si Si8 0.554957 0.522285 0.835100
O O1 0.201866 0.688154 0.794860
O O2 0.483601 0.772580 0.783524
O O3 0.497601 0.613588 0.789503
O O4 0.527033 0.693132 0.197039
O O5 0.075113 0.629443 0.112235
O O6 0.831125 0.698135 0.681855
O O7 0.064331 0.784669 0.042577
O O8 0.766874 0.127620 0.450928
O O9 0.417994 0.081142 0.141025
O O10 0.624442 0.179365 0.974060
O O11 0.063110 0.116481 0.915536
O O12 0.181080 0.988680 0.801678
O O13 0.843163 0.760135 0.273480
O O14 0.069905 0.501330 0.864600
O O15 0.359658 0.526351 0.259740
O O16 0.653013 0.493308 0.646308
#
# Coordination Sequence:
#
# PCOD9131343 Si02
#       8
#     2   2   2   2   2   2   2   2
#     4  11  22  40  72  95 134 184 240 290 344 416
#     4  11  22  40  72  95 134 184 240 290 344 416
#     4  10  25  46  73 101 142 184 234 286 342 410
#     4  12  30  48  76 114 144 180 230 274 352 430
#     4  10  25  46  73 101 142 184 234 286 342 410
#     4  10  21  37  60  97 135 180 230 289 360 406
#     4  10  24  42  68 102 132 180 248 280 342 404
#     4  10  21  37  60  97 135 180 230 289 360 406
#
# _framework density 23.956108
#
# number of rings (size 3 to 8) (size 9 to 14) (size 15 to 20)
#    0.000    1.500    2.500    1.500   12.250    3.000 
#    0.000    1.250    0.000    0.000    0.000    0.000 
#    0.000    0.000    0.000    0.000    0.000    0.000 
#
# Total GULP energy -89544.717016 kJ/mol
# GULP energy per Si atom -5596.544813 kJ/mol
# Density = 2.390158 g / cm^3
# Si number density = 23.956108 Si / 1000 Ang^3
#
#
#
# Elastic Constant Matrix: (Units=GPa)
#
#
# Indices 1 2 3 4 5 6 
#
# 1 61.5870 -4.7574 20.1531 0.0000 10.9184 0.0000
# 2 -4.7574 43.4200 22.8758 0.0000 9.1900 0.0000
# 3 20.1531 22.8758 94.4373 0.0000 -11.1990 0.0000
# 4 0.0000 0.0000 0.0000 39.0298 0.0000 -12.4092
# 5 10.9184 9.1900 -11.1990 0.0000 37.1599 0.0000
# 6 0.0000 0.0000 0.0000 -12.4092 0.0000 -12.9049
#
#
#
# Elastic Compliance Matrix: (Units=1/GPa)
#
#
# Indices 1 2 3 4 5 6 
#
# 1 0.021498 0.008910 -0.008044 0.000000 -0.010944 0.000000
# 2 0.008910 0.033170 -0.011635 0.000000 -0.014328 0.000000
# 3 -0.008044 -0.011635 0.016329 0.000000 0.010162 0.000000
# 4 0.000000 0.000000 0.000000 0.019622 0.000000 -0.018869
# 5 -0.010944 -0.014328 0.010162 0.000000 0.036732 0.000000
# 6 0.000000 0.000000 0.000000 -0.018869 0.000000 -0.059346
#
#
# Mechanical properties :
#
#
# Convention : Reuss Voigt Hill
#
# Bulk Modulus (GPa) = 20.21919 30.66527 25.44223
# Shear Modulus (GPa) = 47.15677 23.40182 35.27929
#
# Velocity S-wave (km/s) = 4.44155 3.12887 3.84169
# Velocity P-wave (km/s) = 5.89590 5.08739 5.50650
#
# Compressibility (1/GPa) = 0.04945797
#
# Stress axis : x y z
#
# Youngs Moduli (GPa) = 46.51644 30.14812 61.24039
#
# Poissons Ratio (x) = -0.26861 0.49260
# Poissons Ratio (y) = -0.41444 0.71254
# Poissons Ratio (z) = 0.37416 0.35078
#
# Static dielectric constant tensor:
#      x y z
#    x 1.868670 0.000000 -0.029130 
#    y 0.000000 1.889280 0.000000 
#    z -0.029130 0.000000 1.976830 
# 
# From -- ./inp_files/763.got.cif
#   From: 2010.05.17/outbox.cif.g08.bks.cpg/sg7_cif.got.tgz:763.got - 2010.06.03 19:44:50.
