data_PCOD9131026
_publ_section_title
;
Structure prediction by ZEFSAII (Michael W. Deem and Ramdas Pophale) SiO2 
 PCOD9131026
Probable space group: P M
;
_chemical_formula_sum "Si O2"
_cell_formula_units_Z 14
_cell_length_a 11.660375
_cell_length_b 10.023595
_cell_length_c 9.297848
_cell_angle_alpha 90.000000
_cell_angle_beta 142.073267
_cell_angle_gamma 90.000000
_cell_volume 667.957284
_symmetry_space_group_name_H-M "P M"
_symmetry_group_IT_number 6
_symmetry_cell_setting 'monoclinic'
loop_
_space_group_symop_operation_xyz
x,y,z
x,-y,z
loop_
_atom_site_type_symbol
_atom_site_label
_atom_site_fract_x
_atom_site_fract_y
_atom_site_fract_z
Si Si1 0.694780 0.151304 0.425900
Si Si2 0.028852 0.273176 0.933393
Si Si3 0.374961 0.646887 0.094074
Si Si4 0.188072 0.349824 0.620382
Si Si5 0.852892 0.842903 0.265331
Si Si6 0.317241 0.345255 0.421108
Si Si7 0.742597 0.650453 0.893956
O O1 0.524331 0.247533 0.295370
O O2 0.731907 0.166168 0.291391
O O3 0.886019 0.182312 0.702003
O O4 0.641097 0.000000 0.402697
O O5 0.889179 0.344666 0.907839
O O6 0.165037 0.340824 0.950160
O O7 0.194562 0.239035 0.211367
O O8 0.448266 0.500000 0.199810
O O9 0.348368 0.660802 0.897177
O O10 0.105207 0.500000 0.556030
O O11 0.263931 0.340307 0.534807
O O12 0.044180 0.230642 0.497010
O O13 0.874039 0.000000 0.251648
O O14 0.783370 0.758497 0.058479
O O15 0.275670 0.500000 0.332865
O O16 0.536882 0.325516 0.629298
O O17 0.747523 0.500000 0.960782
#
# Coordination Sequence:
#
# PCOD9131026 Si02
#       7
#     2   2   2   2   2   2   2
#     4  11  27  47  67  95 137 183 225 272 332 400
#     4  12  23  41  66  97 137 175 218 268 330 397
#     4  11  24  41  69 104 132 171 227 281 334 393
#     4  10  20  40  67  95 129 170 221 279 334 386
#     4  11  23  43  68  95 129 175 226 272 328 396
#     4  10  21  38  63  98 131 167 213 269 333 387
#     4  11  23  42  70 100 135 171 214 277 337 395
#
# _framework density 20.959423000000001
#
# number of rings (size 3 to 8) (size 9 to 14) (size 15 to 20)
#    0.000    1.143    2.857    3.429    0.000    6.857 
#    0.000    1.429    0.000    0.000    0.000    0.000 
#    0.000    0.000    0.000    0.000    0.000    0.000 
#
# Total GULP energy -78057.449831 kJ/mol
# GULP energy per Si atom -5575.532131 kJ/mol
# Density = 2.091172 g / cm^3
# Si number density = 20.959423 Si / 1000 Ang^3
#
#
#
# Elastic Constant Matrix: (Units=GPa)
#
#
# Indices 1 2 3 4 5 6 
#
# 1 62.0955 56.7325 48.2609 0.0000 0.6170 0.0000
# 2 56.7325 156.7719 78.5939 0.0000 9.9123 0.0000
# 3 48.2609 78.5939 105.4851 0.0000 1.0414 0.0000
# 4 0.0000 0.0000 0.0000 17.9659 0.0000 -3.8297
# 5 0.6170 9.9123 1.0414 0.0000 51.3556 0.0000
# 6 0.0000 0.0000 0.0000 -3.8297 0.0000 4.5770
#
#
#
# Elastic Compliance Matrix: (Units=1/GPa)
#
#
# Indices 1 2 3 4 5 6 
#
# 1 0.028123 -0.006042 -0.008375 0.000000 0.000998 0.000000
# 2 -0.006042 0.011651 -0.005896 0.000000 -0.002057 0.000000
# 3 -0.008375 -0.005896 0.017696 0.000000 0.000880 0.000000
# 4 0.000000 0.000000 0.000000 0.067744 0.000000 0.056682
# 5 0.000998 -0.002057 0.000880 0.000000 0.019839 0.000000
# 6 0.000000 0.000000 0.000000 0.056682 0.000000 0.265908
#
#
# Mechanical properties :
#
#
# Convention : Reuss Voigt Hill
#
# Bulk Modulus (GPa) = 59.36752 76.83633 68.10193
# Shear Modulus (GPa) = 10.93605 24.16405 17.55005
#
# Velocity S-wave (km/s) = 2.28671 3.39912 2.89681
# Velocity P-wave (km/s) = 5.94630 7.22111 6.61449
#
# Compressibility (1/GPa) = 0.01684423
#
# Stress axis : x y z
#
# Youngs Moduli (GPa) = 35.55749 85.82852 56.50870
#
# Poissons Ratio (x) = 0.51855 0.47327
# Poissons Ratio (y) = 0.21483 0.33320
# Poissons Ratio (z) = 0.29780 0.50608
#
# Static dielectric constant tensor:
#      x y z
#    x 1.790950 0.000000 -0.026050 
#    y 0.000000 1.745730 0.000000 
#    z -0.026050 0.000000 1.765130 
# 
# From -- ./inp_files/3835.got.cif
#   From: 2010.05.17/outbox.cif.g08.bks.cpg/sg6_2_cif.got.tgz:3835.got - 2010.06.03 19:42:10.
