data_PCOD9131258
_publ_section_title
;
Structure prediction by ZEFSAII (Michael W. Deem and Ramdas Pophale) SiO2 
 PCOD9131258
Probable space group: P C
;
_chemical_formula_sum "Si O2"
_cell_formula_units_Z 16
_cell_length_a 26.369421
_cell_length_b 6.896525
_cell_length_c 4.953475
_cell_angle_alpha 90.000000
_cell_angle_beta 124.401071
_cell_angle_gamma 90.000000
_cell_volume 743.274131
_symmetry_space_group_name_H-M "P C"
_symmetry_group_IT_number 7
_symmetry_cell_setting 'monoclinic'
loop_
_space_group_symop_operation_xyz
x,y,z
x,-y,1/2+z
loop_
_atom_site_type_symbol
_atom_site_label
_atom_site_fract_x
_atom_site_fract_y
_atom_site_fract_z
Si Si1 0.807330 0.627786 0.513420
Si Si2 0.427980 0.861564 0.399344
Si Si3 0.560549 0.139341 0.301732
Si Si4 0.062578 0.122081 0.949497
Si Si5 0.944649 0.634033 0.946603
Si Si6 0.689222 0.869288 0.321171
Si Si7 0.178329 0.622364 0.625751
Si Si8 0.298035 0.134955 0.634359
O O1 0.804054 0.562979 0.193209
O O2 0.875255 0.713611 0.769924
O O3 0.750302 0.756378 0.428354
O O4 0.427057 0.047655 0.598225
O O5 0.494154 0.761055 0.641147
O O6 0.363370 0.760708 0.270077
O O7 0.625257 0.241135 0.559637
O O8 0.561409 0.954957 0.508453
O O9 0.997773 0.219086 0.683473
O O10 0.067167 0.931613 0.776331
O O11 0.118177 0.258889 0.027624
O O12 0.950877 0.550351 0.664805
O O13 0.688747 0.941075 0.626509
O O14 0.177974 0.569213 0.310668
O O15 0.239499 0.737798 0.888274
O O16 0.296448 0.052103 0.931353
#
# Coordination Sequence:
#
# PCOD9131258 Si02
#       8
#     2   2   2   2   2   2   2   2
#     4  10  21  36  54  75 106 142 173 206 256 316
#     4   8  14  25  45  70  97 127 164 210 258 300
#     4   8  14  25  42  69  98 127 164 210 258 300
#     4  12  24  39  60  85 108 133 172 220 256 296
#     4  10  21  39  58  78 106 141 173 206 256 316
#     4  10  19  31  51  76 103 133 175 222 256 296
#     4  12  24  39  57  78 109 145 172 204 256 316
#     4  10  19  34  55  79 103 132 175 222 256 296
#
# _framework density 21.526378000000001
#
# number of rings (size 3 to 8) (size 9 to 14) (size 15 to 20)
#    0.000    2.000    0.000    4.500    0.000    1.000 
#    0.000    0.000    0.000    1.500    0.000    0.000 
#    0.000    0.000    0.000    0.000    0.000    0.000 
#
# Total GULP energy -89301.253509 kJ/mol
# GULP energy per Si atom -5581.328344 kJ/mol
# Density = 2.147738 g / cm^3
# Si number density = 21.526378 Si / 1000 Ang^3
#
#
#
# Elastic Constant Matrix: (Units=GPa)
#
#
# Indices 1 2 3 4 5 6 
#
# 1 103.2161 17.2717 34.7455 0.0000 38.5233 0.0000
# 2 17.2717 11.8866 12.7544 0.0000 19.7670 0.0000
# 3 34.7455 12.7544 83.0509 0.0000 25.4184 0.0000
# 4 0.0000 0.0000 0.0000 84.4041 0.0000 64.5475
# 5 38.5233 19.7670 25.4184 0.0000 67.7487 0.0000
# 6 0.0000 0.0000 0.0000 64.5475 0.0000 95.6179
#
#
#
# Elastic Compliance Matrix: (Units=1/GPa)
#
#
# Indices 1 2 3 4 5 6 
#
# 1 0.013873 -0.011033 -0.003028 0.000000 -0.003533 0.000000
# 2 -0.011033 0.183246 -0.010261 0.000000 -0.043342 0.000000
# 3 -0.003028 -0.010261 0.015184 0.000000 -0.000981 0.000000
# 4 0.000000 0.000000 0.000000 0.024491 0.000000 -0.016533
# 5 -0.003533 -0.043342 -0.000981 0.000000 0.029783 0.000000
# 6 0.000000 0.000000 0.000000 -0.016533 0.000000 0.021619
#
#
# Mechanical properties :
#
#
# Convention : Reuss Voigt Hill
#
# Bulk Modulus (GPa) = 6.11027 36.41075 21.26051
# Shear Modulus (GPa) = 12.77490 58.44627 35.61059
#
# Velocity S-wave (km/s) = 2.43873 5.21632 4.07169
# Velocity P-wave (km/s) = 3.28246 7.29597 5.65711
#
# Compressibility (1/GPa) = 0.16365899
#
# Stress axis : x y z
#
# Youngs Moduli (GPa) = 72.08449 5.45715 65.86006
#
# Poissons Ratio (x) = 0.06021 0.19943
# Poissons Ratio (y) = 0.79530 0.67576
# Poissons Ratio (z) = 0.21828 0.05599
#
# Static dielectric constant tensor:
#      x y z
#    x 1.795680 0.000000 0.049730 
#    y 0.000000 1.760910 0.000000 
#    z 0.049730 0.000000 1.785420 
# 
# From -- ./inp_files/1413.got.cif
#   From: 2010.05.17/outbox.cif.g08.bks.cpg/sg7_cif.got.tgz:1413.got - 2010.06.03 19:44:50.
