data_PCOD9131692
_publ_section_title
;
Structure prediction by ZEFSAII (Michael W. Deem and Ramdas Pophale) SiO2 
 PCOD9131692
Probable space group: C M
;
_chemical_formula_sum "Si O2"
_cell_formula_units_Z 32
_cell_length_a 19.955380
_cell_length_b 7.368239
_cell_length_c 19.983598
_cell_angle_alpha 90.000000
_cell_angle_beta 29.548222
_cell_angle_gamma 90.000000
_cell_volume 1449.044188
_symmetry_space_group_name_H-M "C M"
_symmetry_group_IT_number 8
_symmetry_cell_setting 'monoclinic'
loop_
_space_group_symop_operation_xyz
x,y,z
x,-y,z
1/2+x,1/2+y,z
1/2+x,1/2-y,z
loop_
_atom_site_type_symbol
_atom_site_label
_atom_site_fract_x
_atom_site_fract_y
_atom_site_fract_z
Si Si1 0.495510 0.221406 0.258040
Si Si2 0.200479 0.222106 0.561203
Si Si3 0.636368 0.778186 0.274557
Si Si4 0.432337 0.708070 0.723732
Si Si5 0.941213 0.215957 0.033089
Si Si6 0.623579 0.781986 0.005892
Si Si7 0.171039 0.779109 0.739018
Si Si8 0.447415 0.780741 0.561511
O O1 0.338469 0.278385 0.404019
O O2 0.579919 0.277468 0.250888
O O3 0.561105 0.281004 0.130949
O O4 0.496647 0.000000 0.256602
O O5 0.204380 0.276820 0.635174
O O6 0.057277 0.288292 0.656541
O O7 0.200253 0.000000 0.558728
O O8 0.787996 0.715518 0.160562
O O9 0.538598 0.721982 0.420092
O O10 0.633986 0.000000 0.275971
O O11 0.419165 0.500000 0.758457
O O12 0.482987 0.711007 0.603401
O O13 0.279155 0.785680 0.860736
O O14 0.023815 0.242247 0.030291
O O15 0.930569 0.000000 0.034073
O O16 0.032298 0.285050 0.892527
O O17 0.630499 0.000000 0.002491
O O18 0.293666 0.724366 0.680222
O O19 0.168584 0.000000 0.740213
O O20 0.452870 0.000000 0.559401
#
# Coordination Sequence:
#
# PCOD9131692 Si02
#       8
#     4   4   4   4   4   4   4   4
#     4   9  17  31  49  72 102 131 162 205 251 289
#     4   9  17  30  49  74 100 128 166 208 246 287
#     4   9  18  31  51  78 101 125 166 213 247 283
#     4  10  21  33  49  76 104 131 164 204 247 294
#     4  10  20  33  52  77 101 130 166 205 248 292
#     4  10  21  34  49  73 105 135 163 201 248 296
#     4   9  16  29  51  74  95 124 167 210 243 281
#     4  10  18  33  54  74  98 130 166 206 250 292
#
# _framework density 22.083521000000001
#
# number of rings (size 3 to 8) (size 9 to 14) (size 15 to 20)
#    0.000    2.500    2.500    0.000    3.500    0.000 
#    0.000    0.000    0.000    3.000    0.000    0.000 
#    0.000    0.000    0.000    0.000    0.000    0.000 
#
# Total GULP energy -89335.170274 kJ/mol
# GULP energy per Si atom -5583.448142 kJ/mol
# Density = 2.203326 g / cm^3
# Si number density = 22.083521 Si / 1000 Ang^3
#
#
#
# Elastic Constant Matrix: (Units=GPa)
#
#
# Indices 1 2 3 4 5 6 
#
# 1 79.0418 -9.1199 33.8741 0.0004 -10.8736 -0.0004
# 2 -9.1199 78.9943 1.6018 -0.0009 -4.6517 0.0007
# 3 33.8741 1.6018 143.8657 -0.0001 -5.8243 0.0002
# 4 0.0004 -0.0009 -0.0001 -8.0826 0.0004 0.8532
# 5 -10.8736 -4.6517 -5.8243 0.0004 43.7780 -0.0004
# 6 -0.0004 0.0007 0.0002 0.8532 -0.0004 13.4408
#
#
#
# Elastic Compliance Matrix: (Units=1/GPa)
#
#
# Indices 1 2 3 4 5 6 
#
# 1 0.014795 0.001979 -0.003367 0.000001 0.003437 0.000000
# 2 0.001979 0.013005 -0.000538 -0.000001 0.001802 0.000000
# 3 -0.003367 -0.000538 0.007755 0.000000 0.000138 0.000000
# 4 0.000001 -0.000001 0.000000 -0.122899 0.000001 0.007801
# 5 0.003437 0.001802 0.000138 0.000001 0.023906 0.000001
# 6 0.000000 0.000000 0.000000 0.007801 0.000001 0.073905
#
#
# Mechanical properties :
#
#
# Convention : Reuss Voigt Hill
#
# Bulk Modulus (GPa) = 31.54154 39.40153 35.47153
# Shear Modulus (GPa) = 200.91337 28.19696 114.55517
#
# Velocity S-wave (km/s) = 9.54863 3.57716 7.21015
# Velocity P-wave (km/s) = 11.65686 5.91119 9.24188
#
# Compressibility (1/GPa) = 0.03170422
#
# Stress axis : x y z
#
# Youngs Moduli (GPa) = 67.58825 76.89584 128.94585
#
# Poissons Ratio (x) = -0.15216 0.43410
# Poissons Ratio (y) = -0.13374 0.06934
# Poissons Ratio (z) = 0.22754 0.04135
#
# Static dielectric constant tensor:
#      x y z
#    x 1.750440 0.000000 -0.020730 
#    y 0.000000 1.880130 0.000000 
#    z -0.020730 0.000000 1.780940 
# 
# From -- ./inp_files/14827.got.cif
#   From: 2010.05.17/outbox.cif.g08.bks.cpg/sg8_8_cif.got.tgz:14827.got - 2010.06.03 19:46:02.
