data_PCOD9131208
_publ_section_title
;
Structure prediction by ZEFSAII (Michael W. Deem and Ramdas Pophale) SiO2 
 PCOD9131208
Probable space group: P C
;
_chemical_formula_sum "Si O2"
_cell_formula_units_Z 16
_cell_length_a 20.701402
_cell_length_b 6.733962
_cell_length_c 5.141333
_cell_angle_alpha 90.000000
_cell_angle_beta 83.047396
_cell_angle_gamma 90.000000
_cell_volume 711.444169
_symmetry_space_group_name_H-M "P C"
_symmetry_group_IT_number 7
_symmetry_cell_setting 'monoclinic'
loop_
_space_group_symop_operation_xyz
x,y,z
x,-y,1/2+z
loop_
_atom_site_type_symbol
_atom_site_label
_atom_site_fract_x
_atom_site_fract_y
_atom_site_fract_z
Si Si1 0.263370 0.231904 0.690960
Si Si2 0.806457 0.636880 0.737017
Si Si3 0.538409 0.869139 0.989778
Si Si4 0.211147 0.777173 0.716138
Si Si5 0.943768 0.369164 0.288463
Si Si6 0.401332 0.865742 0.935617
Si Si7 0.669910 0.368630 0.424085
Si Si8 0.071330 0.876337 0.591544
O O1 0.212461 0.308646 0.503661
O O2 0.334747 0.243730 0.535518
O O3 0.238925 0.002338 0.747647
O O4 0.260258 0.312854 0.982519
O O5 0.806341 0.545768 0.447364
O O6 0.875258 0.740777 0.760915
O O7 0.737988 0.743119 0.829019
O O8 0.469993 0.760175 0.961401
O O9 0.604049 0.749938 0.911148
O O10 0.537958 0.949425 0.283936
O O11 0.139696 0.775444 0.630655
O O12 0.943788 0.447937 0.582999
O O13 0.007902 0.246909 0.195109
O O14 0.400576 0.049265 0.144048
O O15 0.670450 0.549555 0.217055
O O16 0.070577 0.936563 0.290349
#
# Coordination Sequence:
#
# PCOD9131208 Si02
#       8
#     2   2   2   2   2   2   2   2
#     4  10  14  25  41  64  97 123 162 205 249 281
#     4   8  16  32  55  75  94 130 183 213 228 292
#     4  10  21  33  48  79 114 133 159 217 267 304
#     4  10  16  25  42  67  99 119 160 213 253 276
#     4  10  21  38  55  75 104 141 173 206 255 313
#     4  10  16  25  42  64  98 124 161 199 253 285
#     4  10  19  35  58  78  99 138 180 209 244 305
#     4  12  21  33  51  80 109 130 166 222 265 298
#
# _framework density 22.489466
#
# number of rings (size 3 to 8) (size 9 to 14) (size 15 to 20)
#    0.000    2.000    5.000    1.500    0.000    0.000 
#    0.000    1.250    0.000    0.000    0.000    5.250 
#    0.000    0.000    0.000    0.000    0.000    0.000 
#
# Total GULP energy -89222.927695 kJ/mol
# GULP energy per Si atom -5576.432981 kJ/mol
# Density = 2.243828 g / cm^3
# Si number density = 22.489466 Si / 1000 Ang^3
#
#
#
# Elastic Constant Matrix: (Units=GPa)
#
#
# Indices 1 2 3 4 5 6 
#
# 1 182.0893 8.1370 -3.8314 0.0000 -23.4226 0.0000
# 2 8.1370 21.1157 -10.5596 0.0000 -0.1584 0.0000
# 3 -3.8314 -10.5596 115.3948 0.0000 3.0872 0.0000
# 4 0.0000 0.0000 0.0000 -7.8073 0.0000 -5.5411
# 5 -23.4226 -0.1584 3.0872 0.0000 39.4981 0.0000
# 6 0.0000 0.0000 0.0000 -5.5411 0.0000 26.4339
#
#
#
# Elastic Compliance Matrix: (Units=1/GPa)
#
#
# Indices 1 2 3 4 5 6 
#
# 1 0.006057 -0.002363 -0.000111 0.000000 0.003591 0.000000
# 2 -0.002363 0.050552 0.004589 0.000000 -0.001557 0.000000
# 3 -0.000111 0.004589 0.009102 0.000000 -0.000759 0.000000
# 4 0.000000 0.000000 0.000000 -0.111498 0.000000 -0.023372
# 5 0.003591 -0.001557 -0.000759 0.000000 0.027500 0.000000
# 6 0.000000 0.000000 0.000000 -0.023372 0.000000 0.032931
#
#
# Mechanical properties :
#
#
# Convention : Reuss Voigt Hill
#
# Bulk Modulus (GPa) = 14.29761 34.01019 24.15390
# Shear Modulus (GPa) = 148.24420 33.28188 90.76304
#
# Velocity S-wave (km/s) = 8.12775 3.85110 6.35969
# Velocity P-wave (km/s) = 9.71862 5.91018 8.04307
#
# Compressibility (1/GPa) = 0.06994176
#
# Stress axis : x y z
#
# Youngs Moduli (GPa) = 165.09884 19.78168 109.86034
#
# Poissons Ratio (x) = 0.04674 0.01221
# Poissons Ratio (y) = 0.39008 -0.50416
# Poissons Ratio (z) = 0.01836 -0.09078
#
# Static dielectric constant tensor:
#      x y z
#    x 1.894810 0.000000 -0.008090 
#    y 0.000000 2.011990 0.000000 
#    z -0.008090 0.000000 1.847170 
# 
# From -- ./inp_files/1358.got.cif
#   From: 2010.05.17/outbox.cif.g08.bks.cpg/sg7_cif.got.tgz:1358.got - 2010.06.03 19:44:50.
