data_PCOD9131936
_publ_section_title
;
Structure prediction by ZEFSAII (Michael W. Deem and Ramdas Pophale) SiO2 
 PCOD9131936
Probable space group: C M
;
_chemical_formula_sum "Si O2"
_cell_formula_units_Z 32
_cell_length_a 29.187932
_cell_length_b 9.002687
_cell_length_c 12.506642
_cell_angle_alpha 90.000000
_cell_angle_beta 149.978129
_cell_angle_gamma 90.000000
_cell_volume 1644.270296
_symmetry_space_group_name_H-M "C M"
_symmetry_group_IT_number 8
_symmetry_cell_setting 'monoclinic'
loop_
_space_group_symop_operation_xyz
x,y,z
x,-y,z
1/2+x,1/2+y,z
1/2+x,1/2-y,z
loop_
_atom_site_type_symbol
_atom_site_label
_atom_site_fract_x
_atom_site_fract_y
_atom_site_fract_z
Si Si1 0.217310 0.679356 0.478110
Si Si2 0.583264 0.677310 0.686103
Si Si3 0.266786 0.330307 0.808837
Si Si4 0.022030 0.821796 0.129004
Si Si5 0.545002 0.170324 0.393917
Si Si6 0.877545 0.819439 0.656769
Si Si7 0.795238 0.323340 0.081470
Si Si8 0.428208 0.678937 0.522738
O O1 0.202216 0.500000 0.449405
O O2 0.276797 0.712861 0.705294
O O3 0.121645 0.762697 0.294703
O O4 0.276967 0.721390 0.495879
O O5 0.577887 0.500000 0.659408
O O6 0.533554 0.754182 0.485457
O O7 0.530222 0.715761 0.687452
O O8 0.690140 0.716959 0.899744
O O9 0.298240 0.500000 0.886865
O O10 0.155839 0.327932 0.599695
O O11 0.308223 0.230078 0.985502
O O12 0.003537 0.756385 0.209439
O O13 0.022122 0.000000 0.135987
O O14 0.950176 0.773403 0.893658
O O15 0.514943 0.000000 0.334442
O O16 0.903857 0.766520 0.592022
O O17 0.879895 0.000000 0.659800
O O18 0.805804 0.500000 0.108875
O O19 0.860700 0.244373 0.297710
O O20 0.419971 0.500000 0.505936
#
# Coordination Sequence:
#
# PCOD9131936 Si02
#       8
#     4   4   4   4   4   4   4   4
#     4   9  18  35  56  78 106 139 174 213 259 311
#     4   9  19  35  55  78 106 139 173 213 262 313
#     4   8  15  29  51  77 104 135 168 203 252 317
#     4  10  19  33  55  82 109 137 172 215 262 310
#     4   9  17  31  53  81 110 137 169 211 260 314
#     4   9  20  37  55  75 102 140 183 218 253 310
#     4  10  20  34  53  79 108 134 167 218 268 307
#     4  10  21  38  56  74 101 141 184 217 254 312
#
# _framework density 19.46152
#
# number of rings (size 3 to 8) (size 9 to 14) (size 15 to 20)
#    0.000    2.750    0.000    1.875    0.000    6.000 
#    0.000    6.875    0.000    0.000    0.000    0.000 
#    0.000    0.000    0.000    0.000    0.000    0.000 
#
# Total GULP energy -89290.633917 kJ/mol
# GULP energy per Si atom -5580.664620 kJ/mol
# Density = 1.941722 g / cm^3
# Si number density = 19.461520 Si / 1000 Ang^3
#
#
#
# Elastic Constant Matrix: (Units=GPa)
#
#
# Indices 1 2 3 4 5 6 
#
# 1 105.7763 11.1457 3.3459 0.0000 -5.8018 0.0000
# 2 11.1457 16.2436 9.2659 0.0000 2.7049 0.0000
# 3 3.3459 9.2659 44.0394 0.0000 -1.0067 0.0000
# 4 0.0000 0.0000 0.0000 22.5199 0.0000 -2.4545
# 5 -5.8018 2.7049 -1.0067 0.0000 20.8591 0.0000
# 6 0.0000 0.0000 0.0000 -2.4545 0.0000 18.0905
#
#
#
# Elastic Compliance Matrix: (Units=1/GPa)
#
#
# Indices 1 2 3 4 5 6 
#
# 1 0.010543 -0.008537 0.001089 0.000000 0.004092 0.000000
# 2 -0.008537 0.078929 -0.016264 0.000000 -0.013394 0.000000
# 3 0.001089 -0.016264 0.026130 0.000000 0.003673 0.000000
# 4 0.000000 0.000000 0.000000 0.045072 0.000000 0.006115
# 5 0.004092 -0.013394 0.003673 0.000000 0.050993 0.000000
# 6 0.000000 0.000000 0.000000 0.006115 0.000000 0.056107
#
#
# Mechanical properties :
#
#
# Convention : Reuss Voigt Hill
#
# Bulk Modulus (GPa) = 14.66760 23.73046 19.19903
# Shear Modulus (GPa) = 14.79619 21.78068 18.28843
#
# Velocity S-wave (km/s) = 2.76031 3.34902 3.06882
# Velocity P-wave (km/s) = 4.20858 5.21293 4.73744
#
# Compressibility (1/GPa) = 0.06817747
#
# Stress axis : x y z
#
# Youngs Moduli (GPa) = 94.84548 12.66968 38.26998
#
# Poissons Ratio (x) = 0.10816 -0.04166
# Poissons Ratio (y) = 0.80969 0.62243
# Poissons Ratio (z) = -0.10325 0.20606
#
# Static dielectric constant tensor:
#      x y z
#    x 1.721840 0.000000 0.033730 
#    y 0.000000 1.647500 0.000000 
#    z 0.033730 0.000000 1.668910 
# 
# From -- ./inp_files/22776.got.cif
#   From: 2010.05.17/outbox.cif.g08.bks.cpg/sg8_12_cif.got.tgz:22776.got - 2010.06.03 19:46:02.
