data_PCOD9131616
_publ_section_title
;
Structure prediction by ZEFSAII (Michael W. Deem and Ramdas Pophale) SiO2 
 PCOD9131616
Probable space group: C M
;
_chemical_formula_sum "Si O2"
_cell_formula_units_Z 32
_cell_length_a 14.649718
_cell_length_b 14.752100
_cell_length_c 11.507967
_cell_angle_alpha 90.000000
_cell_angle_beta 151.659112
_cell_angle_gamma 90.000000
_cell_volume 1180.635880
_symmetry_space_group_name_H-M "C M"
_symmetry_group_IT_number 8
_symmetry_cell_setting 'monoclinic'
loop_
_space_group_symop_operation_xyz
x,y,z
x,-y,z
1/2+x,1/2+y,z
1/2+x,1/2-y,z
loop_
_atom_site_type_symbol
_atom_site_label
_atom_site_fract_x
_atom_site_fract_y
_atom_site_fract_z
Si Si1 0.539160 0.394047 0.015010
Si Si2 0.933089 0.338126 0.406317
Si Si3 0.863947 0.108802 0.596453
Si Si4 0.606052 0.356489 0.581230
Si Si5 0.802682 0.349083 0.021177
Si Si6 0.666829 0.105628 0.163078
Si Si7 0.947682 0.142513 0.175045
Si Si8 0.533674 0.902378 0.778478
O O1 0.600711 0.500000 0.061763
O O2 0.704710 0.322946 0.167563
O O3 0.494208 0.384701 0.098052
O O4 0.359112 0.376673 0.728850
O O5 0.069716 0.251643 0.549567
O O6 0.970059 0.373379 0.578260
O O7 0.917988 0.389070 0.262605
O O8 0.693244 0.145209 0.323768
O O9 0.073787 0.147406 0.796857
O O10 0.869653 0.000000 0.586120
O O11 0.776425 0.385313 0.859104
O O12 0.396009 0.392968 0.385745
O O13 0.615844 0.376053 0.455687
O O14 0.880771 0.247174 0.104818
O O15 0.611387 0.000000 0.108540
O O16 0.543108 0.144988 0.916742
O O17 0.760843 0.091228 0.009122
O O18 0.441557 0.000000 0.691805
#
# Coordination Sequence:
#
# PCOD9131616 Si02
#       8
#     4   4   4   4   4   4   4   4
#     4  10  20  34  52  79 112 141 174 220 269 319
#     4  10  19  32  53  78 105 137 178 221 265 312
#     4   8  15  30  53  81 106 137 179 221 262 311
#     4   9  17  32  53  74 105 139 180 221 252 313
#     4   9  17  32  54  75 106 138 179 223 254 313
#     4   8  15  28  51  80 102 130 178 224 260 301
#     4  10  19  32  52  78 107 139 177 217 267 317
#     4  10  18  30  52  79 105 137 179 225 263 308
#
# _framework density 27.104037999999999
#
# number of rings (size 3 to 8) (size 9 to 14) (size 15 to 20)
#    0.000    2.750    1.250    0.750    0.000    1.000 
#    0.000    3.750    0.000    0.000    0.000    0.875 
#    0.000    0.000    0.000    0.000    0.000    0.000 
#
# Total GULP energy -89126.018786 kJ/mol
# GULP energy per Si atom -5570.376174 kJ/mol
# Density = 2.704235 g / cm^3
# Si number density = 27.104038 Si / 1000 Ang^3
#
#
#
# Elastic Constant Matrix: (Units=GPa)
#
#
# Indices 1 2 3 4 5 6 
#
# 1 67.9627 16.3485 77.8045 0.0000 -33.4850 0.0000
# 2 16.3485 90.3684 19.9374 0.0000 -6.4141 0.0000
# 3 77.8045 19.9374 273.1989 0.0000 -83.8980 0.0000
# 4 0.0000 0.0000 0.0000 19.7214 0.0000 -6.2899
# 5 -33.4850 -6.4141 -83.8980 0.0000 95.9587 0.0000
# 6 0.0000 0.0000 0.0000 -6.2899 0.0000 31.8001
#
#
#
# Elastic Compliance Matrix: (Units=1/GPa)
#
#
# Indices 1 2 3 4 5 6 
#
# 1 0.023136 -0.002766 -0.005420 0.000000 0.003150 0.000000
# 2 -0.002766 0.011578 -0.000158 0.000000 -0.000330 0.000000
# 3 -0.005420 -0.000158 0.006331 0.000000 0.003634 0.000000
# 4 0.000000 0.000000 0.000000 0.054121 0.000000 0.010705
# 5 0.003150 -0.000330 0.003634 0.000000 0.014675 0.000000
# 6 0.000000 0.000000 0.000000 0.010705 0.000000 0.033564
#
#
# Mechanical properties :
#
#
# Convention : Reuss Voigt Hill
#
# Bulk Modulus (GPa) = 41.05726 73.30120 57.17923
# Shear Modulus (GPa) = 29.72442 50.65868 40.19155
#
# Velocity S-wave (km/s) = 3.31521 4.32794 3.85497
# Velocity P-wave (km/s) = 5.46215 7.21650 6.39972
#
# Compressibility (1/GPa) = 0.02435623
#
# Stress axis : x y z
#
# Youngs Moduli (GPa) = 43.22301 86.37228 157.94628
#
# Poissons Ratio (x) = 0.23892 0.85602
# Poissons Ratio (y) = 0.11956 0.02503
# Poissons Ratio (z) = 0.23425 0.01369
#
# Static dielectric constant tensor:
#      x y z
#    x 2.254990 0.000000 -0.127110 
#    y 0.000000 2.109750 0.000000 
#    z -0.127110 0.000000 2.208060 
# 
# From -- ./inp_files/23402.got.cif
#   From: 2010.05.17/outbox.cif.g08.bks.cpg/sg8_12_cif.got.tgz:23402.got - 2010.06.03 19:46:02.
