data_PCOD9131884
_publ_section_title
;
Structure prediction by ZEFSAII (Michael W. Deem and Ramdas Pophale) SiO2 
 PCOD9131884
Probable space group: C M
;
_chemical_formula_sum "Si O2"
_cell_formula_units_Z 32
_cell_length_a 15.382737
_cell_length_b 7.482374
_cell_length_c 23.370648
_cell_angle_alpha 90.000000
_cell_angle_beta 147.856564
_cell_angle_gamma 90.000000
_cell_volume 1431.161291
_symmetry_space_group_name_H-M "C M"
_symmetry_group_IT_number 8
_symmetry_cell_setting 'monoclinic'
loop_
_space_group_symop_operation_xyz
x,y,z
x,-y,z
1/2+x,1/2+y,z
1/2+x,1/2-y,z
loop_
_atom_site_type_symbol
_atom_site_label
_atom_site_fract_x
_atom_site_fract_y
_atom_site_fract_z
Si Si1 0.687790 0.292292 0.877620
Si Si2 0.936965 0.704061 0.837074
Si Si3 0.204572 0.213545 0.072348
Si Si4 0.956141 0.283843 0.109812
Si Si5 0.451018 0.209500 0.298480
Si Si6 0.817623 0.784432 0.340900
Si Si7 0.605314 0.719635 0.705540
Si Si8 0.806367 0.218848 0.462656
O O1 0.723805 0.500000 0.887115
O O2 0.548528 0.286454 0.849305
O O3 0.630374 0.218729 0.784819
O O4 0.852337 0.214303 0.997985
O O5 0.915178 0.500000 0.806970
O O6 0.759601 0.778969 0.753189
O O7 0.040741 0.708415 0.954014
O O8 0.345455 0.251075 0.103843
O O9 0.285751 0.281030 0.176298
O O10 0.176569 0.000000 0.059096
O O11 0.964569 0.500000 0.109907
O O12 0.138134 0.217874 0.221844
O O13 0.441001 0.228384 0.360546
O O14 0.621973 0.282505 0.371115
O O15 0.450951 0.000000 0.283001
O O16 0.856501 0.726712 0.426707
O O17 0.811904 0.000000 0.338242
O O18 0.606227 0.500000 0.705948
O O19 0.436534 0.776086 0.582431
O O20 0.802820 0.000000 0.462016
#
# Coordination Sequence:
#
# PCOD9131884 Si02
#       8
#     4   4   4   4   4   4   4   4
#     4   9  18  34  54  75 104 140 176 210 252 310
#     4  10  20  33  52  81 109 133 169 220 265 299
#     4   9  17  33  54  75 105 142 174 206 255 316
#     4   8  14  28  51  73  97 133 172 204 242 304
#     4  10  20  34  54  79 105 136 174 217 260 306
#     4  10  19  32  54  79 103 136 174 215 260 306
#     4   9  19  34  55  78 101 139 183 214 246 307
#     4   9  18  36  56  74 102 141 182 212 248 310
#
# _framework density 22.359463999999999
#
# number of rings (size 3 to 8) (size 9 to 14) (size 15 to 20)
#    0.000    2.750    1.250    1.125    1.750    1.500 
#    0.000    4.375    0.000    3.000    0.000    0.000 
#    0.000    0.000    0.000    0.000    0.000    0.000 
#
# Total GULP energy -89312.828979 kJ/mol
# GULP energy per Si atom -5582.051811 kJ/mol
# Density = 2.230857 g / cm^3
# Si number density = 22.359464 Si / 1000 Ang^3
#
#
#
# Elastic Constant Matrix: (Units=GPa)
#
#
# Indices 1 2 3 4 5 6 
#
# 1 51.7363 -9.6140 18.7330 0.0000 -22.5021 0.0000
# 2 -9.6140 58.7353 0.0448 0.0000 -1.3037 0.0000
# 3 18.7330 0.0448 94.3280 0.0001 -23.7413 0.0000
# 4 0.0000 0.0000 0.0001 3.3447 0.0000 1.4912
# 5 -22.5021 -1.3037 -23.7413 0.0000 35.3431 0.0000
# 6 0.0000 0.0000 0.0000 1.4912 0.0000 13.3323
#
#
#
# Elastic Compliance Matrix: (Units=1/GPa)
#
#
# Indices 1 2 3 4 5 6 
#
# 1 0.028251 0.005010 -0.001251 0.000000 0.017331 0.000000
# 2 0.005010 0.017930 -0.000041 0.000000 0.003823 0.000000
# 3 -0.001251 -0.000041 0.012816 0.000000 0.007811 0.000000
# 4 0.000000 0.000000 0.000000 0.314676 -0.000001 -0.035196
# 5 0.017331 0.003823 0.007811 -0.000001 0.044716 0.000000
# 6 0.000000 0.000000 0.000000 -0.035196 0.000000 0.078942
#
#
# Mechanical properties :
#
#
# Convention : Reuss Voigt Hill
#
# Bulk Modulus (GPa) = 15.05283 24.79191 19.92237
# Shear Modulus (GPa) = 9.76487 23.44638 16.60563
#
# Velocity S-wave (km/s) = 2.09206 3.24174 2.72815
# Velocity P-wave (km/s) = 3.54717 5.01236 4.34202
#
# Compressibility (1/GPa) = 0.06643271
#
# Stress axis : x y z
#
# Youngs Moduli (GPa) = 35.39742 55.77100 78.02964
#
# Poissons Ratio (x) = -0.27940 0.09759
# Poissons Ratio (y) = -0.17733 0.00321
# Poissons Ratio (z) = 0.04427 0.00229
#
# Static dielectric constant tensor:
#      x y z
#    x 1.803120 0.000000 -0.010570 
#    y 0.000000 1.855240 0.000000 
#    z -0.010570 0.000000 1.812200 
# 
# From -- ./inp_files/30706.got.cif
#   From: 2010.05.17/outbox.cif.g08.bks.cpg/sg8_16_cif.got.tgz:30706.got - 2010.06.03 19:46:02.
