data_PCOD9131036
_publ_section_title
;
Structure prediction by ZEFSAII (Michael W. Deem and Ramdas Pophale) SiO2 
 PCOD9131036
Probable space group: P M
;
_chemical_formula_sum "Si O2"
_cell_formula_units_Z 16
_cell_length_a 10.344068
_cell_length_b 8.629855
_cell_length_c 12.602672
_cell_angle_alpha 90.000000
_cell_angle_beta 126.239913
_cell_angle_gamma 90.000000
_cell_volume 907.377677
_symmetry_space_group_name_H-M "P M"
_symmetry_group_IT_number 6
_symmetry_cell_setting 'monoclinic'
loop_
_space_group_symop_operation_xyz
x,y,z
x,-y,z
loop_
_atom_site_type_symbol
_atom_site_label
_atom_site_fract_x
_atom_site_fract_y
_atom_site_fract_z
Si Si1 0.954030 0.185370 0.352050
Si Si2 0.060573 0.313662 0.184540
Si Si3 0.291919 0.313079 0.112653
Si Si4 0.004607 0.688369 0.816969
Si Si5 0.588685 0.813374 0.140614
Si Si6 0.111977 0.314134 0.640918
Si Si7 0.769971 0.313133 0.883758
Si Si8 0.466148 0.185531 0.848371
O O1 0.769839 0.240107 0.248938
O O2 0.048747 0.238762 0.293401
O O3 0.031146 0.250738 0.495944
O O4 0.953769 0.000000 0.356470
O O5 0.063511 0.500000 0.196268
O O6 0.212227 0.267214 0.185792
O O7 0.901824 0.274440 0.038457
O O8 0.300064 0.500000 0.114557
O O9 0.463139 0.245249 0.166609
O O10 0.163592 0.264709 0.959711
O O11 0.003881 0.500000 0.817570
O O12 0.851189 0.736271 0.812021
O O13 0.020233 0.739606 0.703521
O O14 0.589105 0.000000 0.140574
O O15 0.526369 0.761965 0.994393
O O16 0.109193 0.500000 0.637675
O O17 0.294948 0.258545 0.739691
O O18 0.752592 0.500000 0.874673
O O19 0.602822 0.236562 0.832263
O O20 0.451972 0.000000 0.842360
#
# Coordination Sequence:
#
# PCOD9131036 Si02
#       8
#     2   2   2   2   2   2   2   2
#     4  11  23  39  55  78 115 152 184 223 273 331
#     4   9  18  33  55  83 111 142 184 229 274 323
#     4   9  17  32  56  84 110 137 180 232 274 318
#     4   8  16  32  54  81 110 138 176 227 277 320
#     4  10  21  35  53  80 113 146 184 225 270 326
#     4  11  22  38  59  82 109 146 187 227 276 329
#     4   9  17  32  56  83 109 140 181 231 276 319
#     4  11  21  35  54  83 115 145 184 226 272 328
#
# _framework density 17.633230999999999
#
# number of rings (size 3 to 8) (size 9 to 14) (size 15 to 20)
#    0.000    2.250    2.500    2.625    0.000    2.000 
#    0.000    4.375    0.000    4.500    0.000    0.000 
#    0.000    0.000    0.000    0.000    0.000    0.000 
#
# Total GULP energy -89270.069097 kJ/mol
# GULP energy per Si atom -5579.379319 kJ/mol
# Density = 1.759310 g / cm^3
# Si number density = 17.633231 Si / 1000 Ang^3
#
#
#
# Elastic Constant Matrix: (Units=GPa)
#
#
# Indices 1 2 3 4 5 6 
#
# 1 157.9821 27.7353 85.1841 0.0000 -19.8446 0.0000
# 2 27.7353 21.6927 33.5088 0.0000 -6.0280 0.0000
# 3 85.1841 33.5088 130.8698 0.0000 -15.1146 0.0000
# 4 0.0000 0.0000 0.0000 12.9733 0.0000 9.5409
# 5 -19.8446 -6.0280 -15.1146 0.0000 26.7857 0.0000
# 6 0.0000 0.0000 0.0000 9.5409 0.0000 -4.8197
#
#
#
# Elastic Compliance Matrix: (Units=1/GPa)
#
#
# Indices 1 2 3 4 5 6 
#
# 1 0.010357 -0.004056 -0.005265 0.000000 0.003789 0.000000
# 2 -0.004056 0.078946 -0.016976 0.000000 0.005183 0.000000
# 3 -0.005265 -0.016976 0.015536 0.000000 0.001045 0.000000
# 4 0.000000 0.000000 0.000000 0.031387 0.000000 0.062133
# 5 0.003789 0.005183 0.001045 0.000000 0.041897 0.000000
# 6 0.000000 0.000000 0.000000 0.062133 0.000000 -0.084486
#
#
# Mechanical properties :
#
#
# Convention : Reuss Voigt Hill
#
# Bulk Modulus (GPa) = 19.14023 67.04456 43.09240
# Shear Modulus (GPa) = 30.55391 17.92896 24.24144
#
# Velocity S-wave (km/s) = 4.16714 3.19214 3.71180
# Velocity P-wave (km/s) = 5.83366 7.18962 6.54684
#
# Compressibility (1/GPa) = 0.05224596
#
# Stress axis : x y z
#
# Youngs Moduli (GPa) = 96.55446 12.66684 64.36799
#
# Poissons Ratio (x) = 0.05137 0.33892
# Poissons Ratio (y) = 0.39158 1.09268
# Poissons Ratio (z) = 0.50839 0.21503
#
# Static dielectric constant tensor:
#      x y z
#    x 1.602350 0.000000 -0.013330 
#    y 0.000000 1.594540 0.000000 
#    z -0.013330 0.000000 1.579080 
# 
# From -- ./inp_files/3455.got.cif
#   From: 2010.05.17/outbox.cif.g08.bks.cpg/sg6_2_cif.got.tgz:3455.got - 2010.06.03 19:42:10.
