data_PCOD9131040
_publ_section_title
;
Structure prediction by ZEFSAII (Michael W. Deem and Ramdas Pophale) SiO2 
 PCOD9131040
Probable space group: P M
;
_chemical_formula_sum "Si O2"
_cell_formula_units_Z 12
_cell_length_a 5.483325
_cell_length_b 19.897379
_cell_length_c 5.283613
_cell_angle_alpha 90.000000
_cell_angle_beta 119.562262
_cell_angle_gamma 90.000000
_cell_volume 501.418424
_symmetry_space_group_name_H-M "P M"
_symmetry_group_IT_number 6
_symmetry_cell_setting 'monoclinic'
loop_
_space_group_symop_operation_xyz
x,y,z
x,-y,z
loop_
_atom_site_type_symbol
_atom_site_label
_atom_site_fract_x
_atom_site_fract_y
_atom_site_fract_z
Si Si1 0.590200 0.919653 0.129650
Si Si2 0.959579 0.258314 0.531630
Si Si3 0.542343 0.711852 0.929741
Si Si4 0.811550 0.385506 0.695628
Si Si5 0.376092 0.428212 0.114907
Si Si6 0.933233 0.873387 0.805029
O O1 0.770172 0.903773 0.476595
O O2 0.571027 0.000000 0.094410
O O3 0.764669 0.893586 0.972354
O O4 0.264840 0.893732 0.981267
O O5 0.715016 0.241808 0.208509
O O6 0.927693 0.340226 0.523847
O O7 0.925580 0.206675 0.745537
O O8 0.291432 0.252370 0.650303
O O9 0.424244 0.645629 0.018532
O O10 0.744647 0.675098 0.843649
O O11 0.535270 0.422552 0.461898
O O12 0.042876 0.430308 0.942136
O O13 0.474430 0.500000 0.048707
#
# Coordination Sequence:
#
# PCOD9131040 Si02
#       6
#     2   2   2   2   2   2
#     4  12  26  49  73 107 149 189 239 293 353 417
#     4  10  23  38  62  92 124 160 218 270 330 402
#     4  10  21  40  59  85 121 164 201 276 329 386
#     4  10  21  38  59  82 121 160 198 272 325 382
#     4  10  21  36  55  86 115 155 211 254 322 403
#     4  12  27  45  76 108 141 196 239 293 353 426
#
# _framework density 23.932110000000002
#
# number of rings (size 3 to 8) (size 9 to 14) (size 15 to 20)
#    0.000    1.333    0.000    5.000    4.667    1.333 
#    0.000    0.000    0.000    0.000    0.000    0.000 
#    0.000    0.000    0.000    0.000    0.000    0.000 
#
# Total GULP energy -66827.914939 kJ/mol
# GULP energy per Si atom -5568.992912 kJ/mol
# Density = 2.387764 g / cm^3
# Si number density = 23.932110 Si / 1000 Ang^3
#
#
#
# Elastic Constant Matrix: (Units=GPa)
#
#
# Indices 1 2 3 4 5 6 
#
# 1 109.7665 44.3469 80.2718 0.0000 21.6248 0.0000
# 2 44.3469 112.8571 29.4117 0.0000 8.3314 0.0000
# 3 80.2718 29.4117 151.2427 0.0000 35.7048 0.0000
# 4 0.0000 0.0000 0.0000 23.2133 0.0000 34.5709
# 5 21.6248 8.3314 35.7048 0.0000 36.0409 0.0000
# 6 0.0000 0.0000 0.0000 34.5709 0.0000 -0.8309
#
#
#
# Elastic Compliance Matrix: (Units=1/GPa)
#
#
# Indices 1 2 3 4 5 6 
#
# 1 0.016874 -0.004508 -0.007747 0.000000 -0.001408 0.000000
# 2 -0.004508 0.010544 0.000364 0.000000 -0.000093 0.000000
# 3 -0.007747 0.000364 0.012498 0.000000 -0.007818 0.000000
# 4 0.000000 0.000000 0.000000 0.000684 0.000000 0.028467
# 5 -0.001408 -0.000093 -0.007818 0.000000 0.036357 0.000000
# 6 0.000000 0.000000 0.000000 0.028467 0.000000 -0.019114
#
#
# Mechanical properties :
#
#
# Convention : Reuss Voigt Hill
#
# Bulk Modulus (GPa) = 61.97604 75.76968 68.87286
# Shear Modulus (GPa) = 57.46897 26.34036 41.90467
#
# Velocity S-wave (km/s) = 4.90566 3.32117 4.18901
# Velocity P-wave (km/s) = 7.61841 6.81439 7.22759
#
# Compressibility (1/GPa) = 0.01613527
#
# Stress axis : x y z
#
# Youngs Moduli (GPa) = 59.26242 94.83976 80.01048
#
# Poissons Ratio (x) = 0.42752 0.61984
# Poissons Ratio (y) = 0.26714 -0.02913
# Poissons Ratio (z) = 0.45910 -0.03453
#
# Static dielectric constant tensor:
#      x y z
#    x 2.079650 0.000000 -0.040350 
#    y 0.000000 2.020220 0.000000 
#    z -0.040350 0.000000 1.994180 
# 
# From -- ./inp_files/526.got.cif
#   From: 2010.05.17/outbox.cif.g08.bks.cpg/sg6_1_cif.got.tgz:526.got - 2010.06.03 19:42:10.
