data_PCOD9131973
_publ_section_title
;
Structure prediction by ZEFSAII (Michael W. Deem and Ramdas Pophale) SiO2 
 PCOD9131973
Probable space group: C M
;
_chemical_formula_sum "Si O2"
_cell_formula_units_Z 32
_cell_length_a 11.852210
_cell_length_b 17.296754
_cell_length_c 16.107051
_cell_angle_alpha 90.000000
_cell_angle_beta 151.485696
_cell_angle_gamma 90.000000
_cell_volume 1576.313198
_symmetry_space_group_name_H-M "C M"
_symmetry_group_IT_number 8
_symmetry_cell_setting 'monoclinic'
loop_
_space_group_symop_operation_xyz
x,y,z
x,-y,z
1/2+x,1/2+y,z
1/2+x,1/2-y,z
loop_
_atom_site_type_symbol
_atom_site_label
_atom_site_fract_x
_atom_site_fract_y
_atom_site_fract_z
Si Si1 0.525340 0.173530 0.761830
Si Si2 0.149525 0.693904 0.022892
Si Si3 0.674695 0.666355 0.394080
Si Si4 0.520008 0.092534 0.487469
Si Si5 0.344812 0.415465 0.853114
Si Si6 0.189435 0.841534 0.829020
Si Si7 0.803884 0.372066 0.081237
Si Si8 0.232292 0.651322 0.454086
O O1 0.307469 0.142622 0.565517
O O2 0.756521 0.141886 0.865331
O O3 0.542902 0.265903 0.763943
O O4 0.547356 0.156584 0.872492
O O5 0.393698 0.655929 0.211579
O O6 0.230259 0.782104 0.053380
O O7 0.934020 0.686642 0.947183
O O8 0.794338 0.625077 0.392023
O O9 0.732493 0.758250 0.427831
O O10 0.730836 0.106773 0.690691
O O11 0.586379 0.136010 0.445459
O O12 0.502575 0.000000 0.462277
O O13 0.250043 0.500000 0.812362
O O14 0.622536 0.416665 0.022005
O O15 0.998447 0.877765 0.642506
O O16 0.250332 0.888574 0.950795
O O17 0.071953 0.387035 0.279784
#
# Coordination Sequence:
#
# PCOD9131973 Si02
#       8
#     4   4   4   4   4   4   4   4
#     4   9  19  33  52  79 111 148 188 235 291 335
#     4  10  20  33  55  81 115 151 189 238 284 349
#     4   9  21  34  54  86 115 151 198 246 289 341
#     4  10  21  39  61  87 122 154 193 248 302 348
#     4  10  19  35  58  82 114 147 189 241 291 346
#     4  10  19  34  53  79 116 147 185 242 290 338
#     4  10  20  33  52  83 112 148 194 234 287 337
#     4  10  21  33  57  85 114 156 198 242 289 348
#
# _framework density 20.300533999999999
#
# number of rings (size 3 to 8) (size 9 to 14) (size 15 to 20)
#    0.000    2.250    2.500    0.000    1.750    4.500 
#    0.000    0.000    0.000    3.000    0.000    7.875 
#    0.000    0.000    0.000    0.000    0.000    0.000 
#
# Total GULP energy -89140.006817 kJ/mol
# GULP energy per Si atom -5571.250426 kJ/mol
# Density = 2.025433 g / cm^3
# Si number density = 20.300534 Si / 1000 Ang^3
#
#
#
# Elastic Constant Matrix: (Units=GPa)
#
#
# Indices 1 2 3 4 5 6 
#
# 1 57.9052 17.8096 33.0751 0.0035 7.8175 0.0010
# 2 17.8096 35.1109 -3.0191 -0.0010 -4.0106 -0.0045
# 3 33.0751 -3.0191 109.9368 0.0064 30.1804 0.0045
# 4 0.0035 -0.0010 0.0064 -3.2065 -0.0001 -9.9816
# 5 7.8175 -4.0106 30.1804 -0.0001 26.8682 -0.0039
# 6 0.0010 -0.0045 0.0045 -9.9816 -0.0039 -13.7757
#
#
#
# Elastic Compliance Matrix: (Units=1/GPa)
#
#
# Indices 1 2 3 4 5 6 
#
# 1 0.026356 -0.014141 -0.008145 -0.000003 -0.000631 0.000006
# 2 -0.014141 0.036587 0.003803 -0.000017 0.005304 -0.000001
# 3 -0.008145 0.003803 0.015680 0.000001 -0.014675 0.000007
# 4 -0.000003 -0.000017 0.000001 0.248388 -0.000028 -0.179977
# 5 -0.000631 0.005304 -0.014675 -0.000028 0.054678 -0.000002
# 6 0.000006 -0.000001 0.000007 -0.179977 -0.000002 0.057816
#
#
# Mechanical properties :
#
#
# Convention : Reuss Voigt Hill
#
# Bulk Modulus (GPa) = 24.00524 33.18712 28.59618
# Shear Modulus (GPa) = 10.19666 12.31635 11.25650
#
# Velocity S-wave (km/s) = 2.24360 2.46580 2.35732
# Velocity P-wave (km/s) = 4.30840 4.94877 4.63964
#
# Compressibility (1/GPa) = 0.04165757
#
# Stress axis : x y z
#
# Youngs Moduli (GPa) = 37.94161 27.33213 63.77688
#
# Poissons Ratio (x) = 0.38651 0.51944
# Poissons Ratio (y) = 0.53654 -0.24256
# Poissons Ratio (z) = 0.30902 -0.10395
#
# Static dielectric constant tensor:
#      x y z
#    x 1.690350 0.000000 -0.010060 
#    y 0.000000 1.738580 0.000000 
#    z -0.010060 0.000000 1.798980 
# 
# From -- ./inp_files/20777.got.cif
#   From: 2010.05.17/outbox.cif.g08.bks.cpg/sg8_11_cif.got.tgz:20777.got - 2010.06.03 19:46:02.
