data_PCOD9131347
_publ_section_title
;
Structure prediction by ZEFSAII (Michael W. Deem and Ramdas Pophale) SiO2 
 PCOD9131347
Probable space group: P C
;
_chemical_formula_sum "Si O2"
_cell_formula_units_Z 16
_cell_length_a 6.865151
_cell_length_b 21.035459
_cell_length_c 5.394403
_cell_angle_alpha 90.000000
_cell_angle_beta 112.040709
_cell_angle_gamma 90.000000
_cell_volume 722.082032
_symmetry_space_group_name_H-M "P C"
_symmetry_group_IT_number 7
_symmetry_cell_setting 'monoclinic'
loop_
_space_group_symop_operation_xyz
x,y,z
x,-y,1/2+z
loop_
_atom_site_type_symbol
_atom_site_label
_atom_site_fract_x
_atom_site_fract_y
_atom_site_fract_z
Si Si1 0.426020 0.851682 0.337210
Si Si2 0.147685 0.144974 0.204226
Si Si3 0.170817 0.499276 0.580807
Si Si4 0.784149 0.749851 0.570742
Si Si5 0.854821 0.322967 0.603073
Si Si6 0.785668 0.041507 0.028220
Si Si7 0.320415 0.641656 0.180377
Si Si8 0.474760 0.378865 0.256933
O O1 0.281257 0.851491 0.514018
O O2 0.574351 0.789584 0.411198
O O3 0.587247 0.910769 0.427150
O O4 0.291830 0.854393 0.019664
O O5 0.999732 0.082647 0.129599
O O6 0.984084 0.203118 0.139857
O O7 0.041661 0.499422 0.269221
O O8 0.303377 0.434654 0.642076
O O9 0.332054 0.558373 0.660579
O O10 0.786244 0.727124 0.858228
O O11 0.821725 0.698878 0.368104
O O12 0.711393 0.384172 0.467967
O O13 0.095987 0.335609 0.664059
O O14 0.778531 0.001181 0.277775
O O15 0.471153 0.652438 0.484484
O O16 0.374449 0.663940 0.929838
#
# Coordination Sequence:
#
# PCOD9131347 Si02
#       8
#     2   2   2   2   2   2   2   2
#     4  11  24  43  66  91 126 174 211 249 317 366
#     4  11  24  43  66  91 126 174 211 249 317 366
#     4   8  16  34  54  76 112 146 180 234 290 354
#     4  11  26  42  60  92 124 156 212 265 300 366
#     4  12  24  39  62  90 118 157 204 254 316 366
#     4  11  24  41  64 100 136 163 212 267 294 358
#     4  10  21  38  58  85 117 150 193 244 299 369
#     4  10  21  38  58  85 117 150 193 244 299 369
#
# _framework density 22.158148000000001
#
# number of rings (size 3 to 8) (size 9 to 14) (size 15 to 20)
#    0.000    1.500    0.000    4.500    0.000   13.000 
#    0.000   11.250    0.000    0.000    0.000    0.000 
#    0.000    0.000    0.000    0.000    0.000    0.000 
#
# Total GULP energy -89335.308162 kJ/mol
# GULP energy per Si atom -5583.456760 kJ/mol
# Density = 2.210772 g / cm^3
# Si number density = 22.158148 Si / 1000 Ang^3
#
#
#
# Elastic Constant Matrix: (Units=GPa)
#
#
# Indices 1 2 3 4 5 6 
#
# 1 91.9825 26.0912 52.4996 0.0000 -24.7391 0.0000
# 2 26.0912 56.9370 34.7620 0.0000 1.8519 0.0000
# 3 52.4996 34.7620 183.2298 0.0000 -31.8927 0.0000
# 4 0.0000 0.0000 0.0000 28.9108 0.0000 -3.0722
# 5 -24.7391 1.8519 -31.8927 0.0000 51.8296 0.0000
# 6 0.0000 0.0000 0.0000 -3.0722 0.0000 22.9365
#
#
#
# Elastic Compliance Matrix: (Units=1/GPa)
#
#
# Indices 1 2 3 4 5 6 
#
# 1 0.015511 -0.005951 -0.002228 0.000000 0.006245 0.000000
# 2 -0.005951 0.022694 -0.003624 0.000000 -0.005881 0.000000
# 3 -0.002228 -0.003624 0.007415 0.000000 0.003629 0.000000
# 4 0.000000 0.000000 0.000000 0.035089 0.000000 0.004700
# 5 0.006245 -0.005881 0.003629 0.000000 0.024718 0.000000
# 6 0.000000 0.000000 0.000000 0.004700 0.000000 0.044228
#
#
# Mechanical properties :
#
#
# Convention : Reuss Voigt Hill
#
# Bulk Modulus (GPa) = 45.42506 62.09498 53.76002
# Shear Modulus (GPa) = 27.68561 35.32181 31.50371
#
# Velocity S-wave (km/s) = 3.53860 3.99692 3.77472
# Velocity P-wave (km/s) = 6.10250 7.02744 6.58124
#
# Compressibility (1/GPa) = 0.02201428
#
# Stress axis : x y z
#
# Youngs Moduli (GPa) = 64.47036 44.06442 134.85648
#
# Poissons Ratio (x) = 0.26221 0.30050
# Poissons Ratio (y) = 0.38363 0.48875
# Poissons Ratio (z) = 0.14366 0.15970
#
# Static dielectric constant tensor:
#      x y z
#    x 1.817560 0.000000 -0.030230 
#    y 0.000000 1.837560 0.000000 
#    z -0.030230 0.000000 1.833870 
# 
# From -- ./inp_files/320.got.cif
#   From: 2010.05.17/outbox.cif.g08.bks.cpg/sg7_cif.got.tgz:320.got - 2010.06.03 19:44:50.
