data_PCOD9131596
_publ_section_title
;
Structure prediction by ZEFSAII (Michael W. Deem and Ramdas Pophale) SiO2 
 PCOD9131596
Probable space group: C M
;
_chemical_formula_sum "Si O2"
_cell_formula_units_Z 32
_cell_length_a 20.442542
_cell_length_b 7.570412
_cell_length_c 14.976725
_cell_angle_alpha 90.000000
_cell_angle_beta 30.457398
_cell_angle_gamma 90.000000
_cell_volume 1174.874486
_symmetry_space_group_name_H-M "C M"
_symmetry_group_IT_number 8
_symmetry_cell_setting 'monoclinic'
loop_
_space_group_symop_operation_xyz
x,y,z
x,-y,z
1/2+x,1/2+y,z
1/2+x,1/2-y,z
loop_
_atom_site_type_symbol
_atom_site_label
_atom_site_fract_x
_atom_site_fract_y
_atom_site_fract_z
Si Si1 0.485830 0.205911 0.703910
Si Si2 0.885284 0.206547 0.640380
Si Si3 0.672266 0.717638 0.245270
Si Si4 0.111241 0.205033 0.129452
Si Si5 0.836708 0.714611 0.421116
Si Si6 0.271091 0.202947 0.308375
Si Si7 0.110718 0.203402 0.934679
Si Si8 0.550052 0.287198 0.818559
O O1 0.383390 0.266552 0.750494
O O2 0.620920 0.298251 0.518946
O O3 0.464428 0.229845 0.834967
O O4 0.504897 0.000000 0.666659
O O5 0.026883 0.268948 0.445295
O O6 0.764899 0.297006 0.734813
O O7 0.876466 0.000000 0.632190
O O8 0.677990 0.500000 0.238699
O O9 0.683773 0.779164 0.130086
O O10 0.763785 0.783175 0.217761
O O11 0.957766 0.209547 0.331461
O O12 0.152970 0.000000 0.071086
O O13 0.109753 0.291624 0.033315
O O14 0.841802 0.500000 0.416760
O O15 0.843918 0.777833 0.308723
O O16 0.696114 0.768697 0.620506
O O17 0.308653 0.000000 0.255848
O O18 0.036104 0.278142 0.936817
O O19 0.071560 0.000000 0.989527
O O20 0.547150 0.500000 0.824067
#
# Coordination Sequence:
#
# PCOD9131596 Si02
#       8
#     4   4   4   4   4   4   4   4
#     4  10  18  29  50  79 104 125 160 210 254 295
#     4  10  19  33  54  76 101 133 166 203 248 299
#     4   8  15  30  52  74  95 125 163 198 239 291
#     4  10  20  33  49  71 101 132 162 202 247 290
#     4   9  17  30  50  72  94 125 165 205 243 290
#     4   8  15  30  50  72  98 128 162 201 247 294
#     4  10  21  35  50  71 102 137 170 207 249 292
#     4   9  18  34  53  73 101 135 168 204 249 297
#
# _framework density 27.236951000000001
#
# number of rings (size 3 to 8) (size 9 to 14) (size 15 to 20)
#    0.000    2.750    0.000    3.750    0.000    3.000 
#    0.000    3.750    0.000    1.500    0.000    0.000 
#    0.000    0.000    0.000    0.000    0.000    0.000 
#
# Total GULP energy -89503.270227 kJ/mol
# GULP energy per Si atom -5593.954389 kJ/mol
# Density = 2.717496 g / cm^3
# Si number density = 27.236951 Si / 1000 Ang^3
#
#
#
# Elastic Constant Matrix: (Units=GPa)
#
#
# Indices 1 2 3 4 5 6 
#
# 1 252.0937 3.2643 51.6469 0.0000 27.3860 -0.0002
# 2 3.2643 100.3706 14.4660 -0.0005 -2.3424 -0.0002
# 3 51.6469 14.4660 80.2502 -0.0002 18.6035 0.0001
# 4 0.0000 -0.0005 -0.0002 18.9970 0.0001 -8.4606
# 5 27.3860 -2.3424 18.6035 0.0001 69.3171 0.0001
# 6 -0.0002 -0.0002 0.0001 -8.4606 0.0001 17.2757
#
#
#
# Elastic Compliance Matrix: (Units=1/GPa)
#
#
# Indices 1 2 3 4 5 6 
#
# 1 0.004652 0.000225 -0.002783 0.000000 -0.001083 0.000000
# 2 0.000225 0.010292 -0.002196 0.000000 0.000849 0.000000
# 3 -0.002783 -0.002196 0.015366 0.000000 -0.003099 0.000000
# 4 0.000000 0.000000 0.000000 0.067324 0.000000 0.032971
# 5 -0.001083 0.000849 -0.003099 0.000000 0.015715 0.000000
# 6 0.000000 0.000000 0.000000 0.032971 0.000000 0.074032
#
#
# Mechanical properties :
#
#
# Convention : Reuss Voigt Hill
#
# Bulk Modulus (GPa) = 48.07633 63.49654 55.78644
# Shear Modulus (GPa) = 24.53087 45.34046 34.93567
#
# Velocity S-wave (km/s) = 3.00433 4.08446 3.58531
# Velocity P-wave (km/s) = 5.45199 6.75330 6.13723
#
# Compressibility (1/GPa) = 0.02080026
#
# Stress axis : x y z
#
# Youngs Moduli (GPa) = 214.97385 97.16146 65.07688
#
# Poissons Ratio (x) = -0.02182 0.18111
# Poissons Ratio (y) = -0.04827 0.14294
# Poissons Ratio (z) = 0.59829 0.21342
#
# Static dielectric constant tensor:
#      x y z
#    x 2.107950 0.000000 0.046010 
#    y 0.000000 1.953650 0.000000 
#    z 0.046010 0.000000 2.274170 
# 
# From -- ./inp_files/27747.got.cif
#   From: 2010.05.17/outbox.cif.g08.bks.cpg/sg8_14_cif.got.tgz:27747.got - 2010.06.03 19:46:02.
