data_PCOD9131735
_publ_section_title
;
Structure prediction by ZEFSAII (Michael W. Deem and Ramdas Pophale) SiO2 
 PCOD9131735
Probable space group: C M
;
_chemical_formula_sum "Si O2"
_cell_formula_units_Z 28
_cell_length_a 12.751952
_cell_length_b 13.402747
_cell_length_c 10.125656
_cell_angle_alpha 90.000000
_cell_angle_beta 115.977595
_cell_angle_gamma 90.000000
_cell_volume 1555.738624
_symmetry_space_group_name_H-M "C M"
_symmetry_group_IT_number 8
_symmetry_cell_setting 'monoclinic'
loop_
_space_group_symop_operation_xyz
x,y,z
x,-y,z
1/2+x,1/2+y,z
1/2+x,1/2-y,z
loop_
_atom_site_type_symbol
_atom_site_label
_atom_site_fract_x
_atom_site_fract_y
_atom_site_fract_z
Si Si1 0.780260 0.616440 0.489400
Si Si2 0.706228 0.390470 0.950703
Si Si3 0.845333 0.116510 0.979576
Si Si4 0.910108 0.612960 0.284367
Si Si5 0.857807 0.691040 0.806682
Si Si6 0.061738 0.218357 0.244449
Si Si7 0.617459 0.804902 0.999556
O O1 0.778416 0.500000 0.526124
O O2 0.860046 0.625680 0.403150
O O3 0.826210 0.680093 0.637244
O O4 0.653501 0.653160 0.374327
O O5 0.654398 0.500000 0.934563
O O6 0.771264 0.374595 0.848744
O O7 0.617608 0.301289 0.923889
O O8 0.804585 0.378738 0.119541
O O9 0.959002 0.150298 0.125797
O O10 0.851081 0.000000 0.946708
O O11 0.844226 0.197139 0.859477
O O12 0.728115 0.136553 0.002234
O O13 0.956535 0.500000 0.296732
O O14 0.001778 0.697314 0.299689
O O15 0.989192 0.651771 0.904807
O O16 0.124426 0.275965 0.157365
#
# Coordination Sequence:
#
# PCOD9131735 Si02
#       7
#     4   4   4   4   4   4   4
#     4  11  23  38  59  85 114 155 190 231 285 341
#     4  10  18  34  57  84 111 144 193 232 271 337
#     4  10  21  36  58  87 112 147 191 236 287 337
#     4  10  20  35  58  87 115 147 191 229 278 339
#     4  10  22  38  55  83 117 149 188 234 284 332
#     4  11  19  38  59  85 118 147 190 237 282 333
#     4  10  19  35  56  83 113 147 185 237 277 331
#
# _framework density 17.997883000000002
#
# number of rings (size 3 to 8) (size 9 to 14) (size 15 to 20)
#    0.000    1.714    5.714    0.857    0.000    6.286 
#    0.000    2.143    0.000    1.714    0.000    0.000 
#    0.000    0.000    0.000    0.000    0.000    0.000 
#
# Total GULP energy -78106.049936 kJ/mol
# GULP energy per Si atom -5579.003567 kJ/mol
# Density = 1.795692 g / cm^3
# Si number density = 17.997883 Si / 1000 Ang^3
#
#
#
# Elastic Constant Matrix: (Units=GPa)
#
#
# Indices 1 2 3 4 5 6 
#
# 1 42.3846 10.8982 -3.7429 0.0000 -5.0397 0.0000
# 2 10.8982 89.6779 6.3394 0.0000 -3.0961 0.0000
# 3 -3.7429 6.3394 45.5974 0.0000 -8.5973 0.0000
# 4 0.0000 0.0000 0.0000 6.4462 0.0000 -10.8212
# 5 -5.0397 -3.0961 -8.5973 0.0000 18.8019 0.0000
# 6 0.0000 0.0000 0.0000 -10.8212 0.0000 0.2483
#
#
#
# Elastic Compliance Matrix: (Units=1/GPa)
#
#
# Indices 1 2 3 4 5 6 
#
# 1 0.025744 -0.003134 0.004107 0.000000 0.008262 0.000000
# 2 -0.003134 0.011670 -0.001834 0.000000 0.000243 0.000000
# 3 0.004107 -0.001834 0.024813 0.000000 0.012145 0.000000
# 4 0.000000 0.000000 0.000000 -0.002150 0.000000 -0.093692
# 5 0.008262 0.000243 0.012145 0.000000 0.060994 0.000000
# 6 0.000000 0.000000 0.000000 -0.093692 0.000000 -0.055813
#
#
# Mechanical properties :
#
#
# Convention : Reuss Voigt Hill
#
# Bulk Modulus (GPa) = 16.52736 22.73881 19.63308
# Shear Modulus (GPa) = 57.37355 16.04364 36.70859
#
# Velocity S-wave (km/s) = 5.65218 2.98890 4.52110
# Velocity P-wave (km/s) = 7.19716 4.95711 6.17948
#
# Compressibility (1/GPa) = 0.06050574
#
# Stress axis : x y z
#
# Youngs Moduli (GPa) = 38.84356 85.69071 40.30141
#
# Poissons Ratio (x) = 0.26853 -0.16551
# Poissons Ratio (y) = 0.12172 0.07391
# Poissons Ratio (z) = -0.15952 0.15714
#
# Static dielectric constant tensor:
#      x y z
#    x 1.622100 0.000000 -0.008650 
#    y 0.000000 1.621400 0.000000 
#    z -0.008650 0.000000 1.594400 
# 
# From -- ./inp_files/10597.got.cif
#   From: 2010.05.17/outbox.cif.g08.bks.cpg/sg8_6_cif.got.tgz:10597.got - 2010.06.03 19:46:02.
