data_PCOD9131247
_publ_section_title
;
Structure prediction by ZEFSAII (Michael W. Deem and Ramdas Pophale) SiO2 
 PCOD9131247
Probable space group: P C
;
_chemical_formula_sum "Si O2"
_cell_formula_units_Z 14
_cell_length_a 9.566361
_cell_length_b 15.301843
_cell_length_c 5.430671
_cell_angle_alpha 90.000000
_cell_angle_beta 44.521938
_cell_angle_gamma 90.000000
_cell_volume 557.410251
_symmetry_space_group_name_H-M "P C"
_symmetry_group_IT_number 7
_symmetry_cell_setting 'monoclinic'
loop_
_space_group_symop_operation_xyz
x,y,z
x,-y,1/2+z
loop_
_atom_site_type_symbol
_atom_site_label
_atom_site_fract_x
_atom_site_fract_y
_atom_site_fract_z
Si Si1 0.924000 0.154632 0.341220
Si Si2 0.207251 0.446005 0.166253
Si Si3 0.596210 0.805319 0.622740
Si Si4 0.632343 0.050531 0.433506
Si Si5 0.880405 0.695717 0.525422
Si Si6 0.773641 0.496429 0.231616
Si Si7 0.243092 0.750320 0.722260
O O1 0.862937 0.080022 0.218793
O O2 0.141294 0.178376 0.169511
O O3 0.779352 0.143633 0.759025
O O4 0.860210 0.244707 0.290713
O O5 0.251593 0.496883 0.366731
O O6 0.286725 0.345854 0.052231
O O7 0.961686 0.438255 0.489457
O O8 0.545229 0.859023 0.933317
O O9 0.690223 0.714696 0.593120
O O10 0.425629 0.790227 0.642025
O O11 0.575037 0.010302 0.770244
O O12 0.883074 0.596306 0.589450
O O13 0.075123 0.728007 0.138639
O O14 0.654437 0.497800 0.631232
#
# Coordination Sequence:
#
# PCOD9131247 Si02
#       7
#     2   2   2   2   2   2   2
#     4  10  22  41  70  99 127 172 217 261 335 393
#     4  10  19  35  58  88 125 176 221 272 329 363
#     4  10  24  42  66 103 130 174 215 268 336 392
#     4  11  22  46  74  95 135 173 206 270 332 399
#     4  10  21  38  63  90 133 174 224 269 326 389
#     4  10  18  32  58  85 118 173 224 267 324 369
#     4  11  22  40  67  96 136 174 227 277 320 397
#
# _framework density 25.116150000000001
#
# number of rings (size 3 to 8) (size 9 to 14) (size 15 to 20)
#    0.000    1.714    4.286    1.714    2.000    2.286 
#    0.000    2.857    0.000    0.000    0.000    0.000 
#    0.000    0.000    0.000    0.000    0.000    0.000 
#
# Total GULP energy -78102.455655 kJ/mol
# GULP energy per Si atom -5578.746832 kJ/mol
# Density = 2.505898 g / cm^3
# Si number density = 25.116150 Si / 1000 Ang^3
#
#
#
# Elastic Constant Matrix: (Units=GPa)
#
#
# Indices 1 2 3 4 5 6 
#
# 1 212.3498 26.8949 51.1632 0.0000 16.7698 0.0000
# 2 26.8949 45.5751 13.0742 0.0000 -4.6652 0.0000
# 3 51.1632 13.0742 101.1788 0.0000 27.4260 0.0000
# 4 0.0000 0.0000 0.0000 15.9515 0.0000 17.6898
# 5 16.7698 -4.6652 27.4260 0.0000 49.9041 0.0000
# 6 0.0000 0.0000 0.0000 17.6898 0.0000 46.3069
#
#
#
# Elastic Compliance Matrix: (Units=1/GPa)
#
#
# Indices 1 2 3 4 5 6 
#
# 1 0.005682 -0.002800 -0.002259 0.000000 -0.000929 0.000000
# 2 -0.002800 0.025021 -0.003180 0.000000 0.005028 0.000000
# 3 -0.002259 -0.003180 0.013292 0.000000 -0.006843 0.000000
# 4 0.000000 0.000000 0.000000 0.108769 0.000000 -0.041551
# 5 -0.000929 0.005028 -0.006843 0.000000 0.024581 0.000000
# 6 0.000000 0.000000 0.000000 -0.041551 0.000000 0.037468
#
#
# Mechanical properties :
#
#
# Convention : Reuss Voigt Hill
#
# Bulk Modulus (GPa) = 36.34297 60.15204 48.24750
# Shear Modulus (GPa) = 20.79322 40.29728 30.54525
#
# Velocity S-wave (km/s) = 2.88042 4.00989 3.49113
# Velocity P-wave (km/s) = 5.05606 6.74095 5.95837
#
# Compressibility (1/GPa) = 0.02751564
#
# Stress axis : x y z
#
# Youngs Moduli (GPa) = 176.00791 39.96645 75.23455
#
# Poissons Ratio (x) = 0.11190 0.16998
# Poissons Ratio (y) = 0.49279 0.23926
# Poissons Ratio (z) = 0.39766 0.12710
#
# Static dielectric constant tensor:
#      x y z
#    x 2.020320 0.000000 0.037320 
#    y 0.000000 2.112630 0.000000 
#    z 0.037320 0.000000 2.054790 
# 
# From -- ./inp_files/903.got.cif
#   From: 2010.05.17/outbox.cif.g08.bks.cpg/sg7_cif.got.tgz:903.got - 2010.06.03 19:44:50.
