data_PCOD9131375
_publ_section_title
;
Structure prediction by ZEFSAII (Michael W. Deem and Ramdas Pophale) SiO2 
 PCOD9131375
Probable space group: P C
;
_chemical_formula_sum "Si O2"
_cell_formula_units_Z 16
_cell_length_a 21.805603
_cell_length_b 7.714018
_cell_length_c 5.363986
_cell_angle_alpha 90.000000
_cell_angle_beta 51.205838
_cell_angle_gamma 90.000000
_cell_volume 703.230653
_symmetry_space_group_name_H-M "P C"
_symmetry_group_IT_number 7
_symmetry_cell_setting 'monoclinic'
loop_
_space_group_symop_operation_xyz
x,y,z
x,-y,1/2+z
loop_
_atom_site_type_symbol
_atom_site_label
_atom_site_fract_x
_atom_site_fract_y
_atom_site_fract_z
Si Si1 0.673980 0.581101 0.306140
Si Si2 0.498018 0.442598 0.799843
Si Si3 0.062892 0.444295 0.101337
Si Si4 0.776974 0.893419 0.902070
Si Si5 0.887753 0.587213 0.585749
Si Si6 0.132854 0.886547 0.333185
Si Si7 0.279533 0.618624 0.953158
Si Si8 0.425991 0.886615 0.577744
O O1 0.702190 0.547669 0.515086
O O2 0.580665 0.542991 0.556464
O O3 0.703489 0.765261 0.136996
O O4 0.457744 0.462919 0.634603
O O5 0.501438 0.240373 0.856149
O O6 0.103559 0.464357 0.264426
O O7 0.981168 0.549159 0.340426
O O8 0.057674 0.241617 0.053591
O O9 0.855865 0.776874 0.722226
O O10 0.775151 0.971345 0.631617
O O11 0.858951 0.530594 0.387488
O O12 0.134557 0.010948 0.568867
O O13 0.205267 0.751072 0.150942
O O14 0.279623 0.500807 0.702134
O O15 0.353822 0.750647 0.757477
O O16 0.423999 0.011655 0.343406
#
# Coordination Sequence:
#
# PCOD9131375 Si02
#       8
#     2   2   2   2   2   2   2   2
#     4  10  21  41  65  87 121 168 207 246 305 386
#     4  10  21  41  63  88 123 170 211 243 305 386
#     4  10  21  41  63  88 123 170 211 243 305 386
#     4  12  24  40  64  98 126 156 204 268 320 358
#     4  10  21  41  65  87 121 168 207 246 305 386
#     4  12  24  41  64  97 130 160 207 272 317 354
#     4  12  24  42  68  94 126 172 214 250 310 390
#     4  12  24  41  64  97 130 160 207 272 317 354
#
# _framework density 22.752137000000001
#
# number of rings (size 3 to 8) (size 9 to 14) (size 15 to 20)
#    0.000    1.000    0.000    7.500    0.000    0.000 
#    0.000   30.000    0.000    0.000    0.000    0.000 
#    0.000    0.000    0.000    0.000    0.000    0.000 
#
# Total GULP energy -89338.769963 kJ/mol
# GULP energy per Si atom -5583.673123 kJ/mol
# Density = 2.270035 g / cm^3
# Si number density = 22.752137 Si / 1000 Ang^3
#
#
#
# Elastic Constant Matrix: (Units=GPa)
#
#
# Indices 1 2 3 4 5 6 
#
# 1 68.8107 34.4945 55.7144 0.0000 5.5624 0.0000
# 2 34.4945 117.8028 51.7784 0.0000 3.1965 0.0000
# 3 55.7144 51.7784 142.8927 0.0000 40.2168 0.0000
# 4 0.0000 0.0000 0.0000-3109.1721 0.0000 3043.1519
# 5 5.5624 3.1965 40.2168 0.0000 64.4619 0.0000
# 6 0.0000 0.0000 0.0000 3043.1519 0.0000-2839.4855
#
#
#
# Elastic Compliance Matrix: (Units=1/GPa)
#
#
# Indices 1 2 3 4 5 6 
#
# 1 0.022917 -0.002880 -0.008946 0.000000 0.003747 0.000000
# 2 -0.002880 0.010713 -0.003250 0.000000 0.001745 0.000000
# 3 -0.008946 -0.003250 0.013830 0.000000 -0.007695 0.000000
# 4 0.000000 0.000000 0.000000 0.006568 0.000000 0.007039
# 5 0.003747 0.001745 -0.007695 0.000000 0.019904 0.000000
# 6 0.000000 0.000000 0.000000 0.007039 0.000000 0.007192
#
#
# Mechanical properties :
#
#
# Convention : Reuss Voigt Hill
#
# Bulk Modulus (GPa) = 57.77944 68.16453 62.97198
# Shear Modulus (GPa) = 42.71791 -1164.33788 -560.80998
#
# Velocity S-wave (km/s) = 4.33775 -22.64641 -15.71693
# Velocity P-wave (km/s) = 7.10904 25.56929 17.36735
#
# Compressibility (1/GPa) = 0.01730720
#
# Stress axis : x y z
#
# Youngs Moduli (GPa) = 43.63539 93.34166 72.30603
#
# Poissons Ratio (x) = 0.26881 0.64688
# Poissons Ratio (y) = 0.12567 0.23502
# Poissons Ratio (z) = 0.39038 0.30339
#
# Static dielectric constant tensor:
#      x y z
#    x 2.041730 0.000000 -0.074940 
#    y 0.000000 1.831250 0.000000 
#    z -0.074940 0.000000 1.962160 
# 
# From -- ./inp_files/1429.got.cif
#   From: 2010.05.17/outbox.cif.g08.bks.cpg/sg7_cif.got.tgz:1429.got - 2010.06.03 19:44:50.
