data_PCOD9131851
_publ_section_title
;
Structure prediction by ZEFSAII (Michael W. Deem and Ramdas Pophale) SiO2 
 PCOD9131851
Probable space group: C M
;
_chemical_formula_sum "Si O2"
_cell_formula_units_Z 32
_cell_length_a 15.503009
_cell_length_b 7.802290
_cell_length_c 22.678965
_cell_angle_alpha 90.000000
_cell_angle_beta 32.874514
_cell_angle_gamma 90.000000
_cell_volume 1489.024674
_symmetry_space_group_name_H-M "C M"
_symmetry_group_IT_number 8
_symmetry_cell_setting 'monoclinic'
loop_
_space_group_symop_operation_xyz
x,y,z
x,-y,z
1/2+x,1/2+y,z
1/2+x,1/2-y,z
loop_
_atom_site_type_symbol
_atom_site_label
_atom_site_fract_x
_atom_site_fract_y
_atom_site_fract_z
Si Si1 0.018240 0.796074 0.379680
Si Si2 0.364634 0.803594 0.346280
Si Si3 0.848638 0.792694 0.145070
Si Si4 0.300567 0.706641 0.614702
Si Si5 0.476584 0.700087 0.743850
Si Si6 0.032834 0.789590 0.579676
Si Si7 0.187196 0.296858 0.117944
Si Si8 0.191226 0.199547 0.987658
O O1 0.205632 0.757986 0.270861
O O2 0.940795 0.701314 0.368229
O O3 0.924982 0.744833 0.491835
O O4 0.996613 0.000000 0.383678
O O5 0.506547 0.724343 0.226120
O O6 0.190507 0.726471 0.455203
O O7 0.340216 0.000000 0.340251
O O8 0.793129 0.731046 0.111599
O O9 0.856262 0.000000 0.138717
O O10 0.020712 0.726500 0.065711
O O11 0.288580 0.500000 0.621121
O O12 0.377467 0.758759 0.632289
O O13 0.129133 0.778198 0.697786
O O14 0.441734 0.500000 0.756549
O O15 0.523360 0.769728 0.652462
O O16 0.322636 0.780074 0.862032
O O17 0.044016 0.000000 0.573889
O O18 0.171441 0.500000 0.137558
O O19 0.249279 0.273496 0.016637
O O20 0.167354 0.000000 0.012605
#
# Coordination Sequence:
#
# PCOD9131851 Si02
#       8
#     4   4   4   4   4   4   4   4
#     4  10  19  31  56  89 122 151 187 238 287 339
#     4   9  17  34  59  83 119 157 188 231 286 345
#     4   9  21  40  59  82 117 158 192 233 289 345
#     4  10  21  37  58  87 119 152 190 237 292 340
#     4  11  23  41  62  83 113 154 200 241 282 344
#     4   9  19  36  59  85 114 152 192 232 286 344
#     4   9  19  36  60  87 116 152 193 233 282 345
#     4  11  24  41  61  84 116 154 194 243 292 340
#
# _framework density 21.490576999999998
#
# number of rings (size 3 to 8) (size 9 to 14) (size 15 to 20)
#    0.000    2.250    1.250    1.875    1.750    4.500 
#    0.000    4.375    0.000    0.000    0.000    0.000 
#    0.000    0.000    0.000    0.000    0.000    0.000 
#
# Total GULP energy -89324.661442 kJ/mol
# GULP energy per Si atom -5582.791340 kJ/mol
# Density = 2.144166 g / cm^3
# Si number density = 21.490577 Si / 1000 Ang^3
#
#
#
# Elastic Constant Matrix: (Units=GPa)
#
#
# Indices 1 2 3 4 5 6 
#
# 1 49.5146 2.0693 16.8589 0.0000 -13.4092 0.0000
# 2 2.0693 27.9193 -2.3656 0.0000 1.0055 0.0001
# 3 16.8589 -2.3656 75.9287 -0.0001 -14.2947 0.0000
# 4 0.0000 0.0000 -0.0001 21.6804 0.0000 -1.1615
# 5 -13.4092 1.0055 -14.2947 0.0000 27.5322 0.0000
# 6 0.0000 0.0001 0.0000 -1.1615 0.0000 13.7322
#
#
#
# Elastic Compliance Matrix: (Units=1/GPa)
#
#
# Indices 1 2 3 4 5 6 
#
# 1 0.024232 -0.002460 -0.003567 0.000000 0.010040 0.000000
# 2 -0.002460 0.036178 0.001329 0.000000 -0.001829 0.000000
# 3 -0.003567 0.001329 0.015148 0.000000 0.006079 0.000000
# 4 0.000000 0.000000 0.000000 0.046335 0.000000 0.003919
# 5 0.010040 -0.001829 0.006079 0.000000 0.044434 0.000000
# 6 0.000000 0.000000 0.000000 0.003919 0.000000 0.073153
#
#
# Mechanical properties :
#
#
# Convention : Reuss Voigt Hill
#
# Bulk Modulus (GPa) = 15.11419 20.72087 17.91753
# Shear Modulus (GPa) = 18.45491 21.70896 20.08193
#
# Velocity S-wave (km/s) = 2.93361 3.18175 3.06020
# Velocity P-wave (km/s) = 4.30383 4.81257 4.56529
#
# Compressibility (1/GPa) = 0.06616299
#
# Stress axis : x y z
#
# Youngs Moduli (GPa) = 41.26726 27.64087 66.01477
#
# Poissons Ratio (x) = 0.06799 0.23547
# Poissons Ratio (y) = 0.10151 -0.08773
# Poissons Ratio (z) = 0.14720 -0.03673
#
# Static dielectric constant tensor:
#      x y z
#    x 1.782410 0.000000 -0.007590 
#    y 0.000000 1.800280 0.000000 
#    z -0.007590 0.000000 1.762040 
# 
# From -- ./inp_files/24833.got.cif
#   From: 2010.05.17/outbox.cif.g08.bks.cpg/sg8_13_cif.got.tgz:24833.got - 2010.06.03 19:46:02.
