data_PCOD9131055
_publ_section_title
;
Structure prediction by ZEFSAII (Michael W. Deem and Ramdas Pophale) SiO2 
 PCOD9131055
Probable space group: P M
;
_chemical_formula_sum "Si O2"
_cell_formula_units_Z 16
_cell_length_a 4.856147
_cell_length_b 23.648781
_cell_length_c 5.618059
_cell_angle_alpha 90.000000
_cell_angle_beta 96.217837
_cell_angle_gamma 90.000000
_cell_volume 641.393433
_symmetry_space_group_name_H-M "P M"
_symmetry_group_IT_number 6
_symmetry_cell_setting 'monoclinic'
loop_
_space_group_symop_operation_xyz
x,y,z
x,-y,z
loop_
_atom_site_type_symbol
_atom_site_label
_atom_site_fract_x
_atom_site_fract_y
_atom_site_fract_z
Si Si1 0.448510 0.628019 0.215370
Si Si2 0.422516 0.284206 0.828490
Si Si3 0.349233 0.093931 0.335563
Si Si4 0.588172 0.939075 0.858567
Si Si5 0.916255 0.654684 0.642778
Si Si6 0.940067 0.566747 0.034324
Si Si7 0.777025 0.811865 0.857904
Si Si8 0.859334 0.828908 0.358731
O O1 0.683847 0.642779 0.426382
O O2 0.626972 0.585384 0.064910
O O3 0.164959 0.594233 0.237730
O O4 0.359912 0.685153 0.071097
O O5 0.733323 0.306597 0.803934
O O6 0.475428 0.217618 0.833576
O O7 0.199114 0.310852 0.626817
O O8 0.437958 0.062539 0.586525
O O9 0.039968 0.114552 0.352301
O O10 0.540934 0.150433 0.340122
O O11 0.402835 0.065730 0.083086
O O12 0.756246 0.880180 0.868228
O O13 0.736293 0.000000 0.888406
O O14 0.998878 0.597567 0.788901
O O15 0.966947 0.500000 0.030974
O O16 0.908195 0.799810 0.614611
O O17 0.909687 0.794763 0.121951
#
# Coordination Sequence:
#
# PCOD9131055 Si02
#       8
#     2   2   2   2   2   2   2   2
#     4  10  21  40  60  90 127 171 216 267 328 386
#     4  10  23  39  62  91 124 169 219 275 325 399
#     4  10  21  40  62  88 122 165 203 258 326 396
#     4  10  21  41  65  94 130 169 216 273 338 407
#     4  10  22  41  62  89 129 170 217 267 331 386
#     4  10  21  37  60  93 128 165 217 268 320 392
#     4  10  23  42  65  99 128 173 222 277 337 405
#     4  10  22  40  63  90 127 156 213 265 322 391
#
# _framework density 24.945689000000002
#
# number of rings (size 3 to 8) (size 9 to 14) (size 15 to 20)
#    0.000    2.000    0.000    2.250    1.750    5.000 
#    0.000   15.000    0.000    0.000    0.000    0.000 
#    0.000    0.000    0.000    0.000    0.000    0.000 
#
# Total GULP energy -89281.710957 kJ/mol
# GULP energy per Si atom -5580.106935 kJ/mol
# Density = 2.488891 g / cm^3
# Si number density = 24.945689 Si / 1000 Ang^3
#
#
#
# Elastic Constant Matrix: (Units=GPa)
#
#
# Indices 1 2 3 4 5 6 
#
# 1 105.8853 25.2635 24.8801 0.0000 12.7889 0.0000
# 2 25.2635 116.9951 26.5415 0.0000 12.5785 0.0000
# 3 24.8801 26.5415 188.5750 0.0000 -0.5382 0.0000
# 4 0.0000 0.0000 0.0000 13.3391 0.0000 10.2754
# 5 12.7889 12.5785 -0.5382 0.0000 36.6553 0.0000
# 6 0.0000 0.0000 0.0000 10.2754 0.0000 21.8635
#
#
#
# Elastic Compliance Matrix: (Units=1/GPa)
#
#
# Indices 1 2 3 4 5 6 
#
# 1 0.010489 -0.001669 -0.001158 0.000000 -0.003104 0.000000
# 2 -0.001669 0.009449 -0.001117 0.000000 -0.002677 0.000000
# 3 -0.001158 -0.001117 0.005615 0.000000 0.000870 0.000000
# 4 0.000000 0.000000 0.000000 0.117509 0.000000 -0.055227
# 5 -0.003104 -0.002677 0.000870 0.000000 0.029296 0.000000
# 6 0.000000 0.000000 0.000000 -0.055227 0.000000 0.071693
#
#
# Mechanical properties :
#
#
# Convention : Reuss Voigt Hill
#
# Bulk Modulus (GPa) = 56.60652 62.75842 59.68247
# Shear Modulus (GPa) = 19.39275 36.68961 28.04118
#
# Velocity S-wave (km/s) = 2.79121 3.83923 3.35638
# Velocity P-wave (km/s) = 5.75578 6.69818 6.24478
#
# Compressibility (1/GPa) = 0.01766581
#
# Stress axis : x y z
#
# Youngs Moduli (GPa) = 95.33530 105.83179 178.07980
#
# Poissons Ratio (x) = 0.17659 0.20621
# Poissons Ratio (y) = 0.15908 0.19899
# Poissons Ratio (z) = 0.11039 0.11826
#
# Static dielectric constant tensor:
#      x y z
#    x 1.951980 0.000000 -0.024890 
#    y 0.000000 1.979630 0.000000 
#    z -0.024890 0.000000 2.080840 
# 
# From -- ./inp_files/670.got.cif
#   From: 2010.05.17/outbox.cif.g08.bks.cpg/sg6_1_cif.got.tgz:670.got - 2010.06.03 19:42:10.
