data_PCOD9131334
_publ_section_title
;
Structure prediction by ZEFSAII (Michael W. Deem and Ramdas Pophale) SiO2 
 PCOD9131334
Probable space group: P C
;
_chemical_formula_sum "Si O2"
_cell_formula_units_Z 16
_cell_length_a 10.401179
_cell_length_b 13.457507
_cell_length_c 5.101961
_cell_angle_alpha 90.000000
_cell_angle_beta 72.283920
_cell_angle_gamma 90.000000
_cell_volume 680.274212
_symmetry_space_group_name_H-M "P C"
_symmetry_group_IT_number 7
_symmetry_cell_setting 'monoclinic'
loop_
_space_group_symop_operation_xyz
x,y,z
x,-y,1/2+z
loop_
_atom_site_type_symbol
_atom_site_label
_atom_site_fract_x
_atom_site_fract_y
_atom_site_fract_z
Si Si1 0.942310 0.940864 0.734300
Si Si2 0.132632 0.350271 0.358958
Si Si3 0.620067 0.940360 0.944332
Si Si4 0.834896 0.609639 0.947432
Si Si5 0.418580 0.351726 0.305642
Si Si6 0.716551 0.608488 0.515401
Si Si7 0.423340 0.220010 0.795349
Si Si8 0.135405 0.781890 0.364040
O O1 0.018953 0.849185 0.556978
O O2 0.977646 0.030887 0.510920
O O3 0.781324 0.926154 0.839348
O O4 0.274131 0.402816 0.341028
O O5 0.143755 0.311562 0.056102
O O6 0.987494 0.401556 0.449675
O O7 0.122428 0.260295 0.578333
O O8 0.543470 0.847585 0.116012
O O9 0.584834 0.029918 0.168695
O O10 0.746933 0.662715 0.224439
O O11 0.776770 0.500410 0.928288
O O12 0.802446 0.660144 0.690652
O O13 0.559732 0.404880 0.169644
O O14 0.420947 0.314458 0.601544
O O15 0.424313 0.259273 0.093186
O O16 0.280764 0.166391 0.818420
#
# Coordination Sequence:
#
# PCOD9131334 Si02
#       8
#     2   2   2   2   2   2   2   2
#     4  10  21  36  53  78 113 150 189 233 284 338
#     4  10  21  38  58  83 116 150 190 239 288 338
#     4  10  21  36  53  78 113 150 189 233 284 338
#     4  10  21  38  58  85 115 145 186 233 282 344
#     4  10  21  38  58  83 116 150 190 239 288 338
#     4  10  21  38  58  85 115 145 186 233 282 344
#     4  10  21  36  57  84 111 148 195 237 283 338
#     4  10  21  36  57  84 111 148 195 237 283 338
#
# _framework density 23.519926000000002
#
# number of rings (size 3 to 8) (size 9 to 14) (size 15 to 20)
#    0.000    2.000    0.000    3.000    0.000    4.000 
#    0.000    5.000    0.000    0.000    0.000    0.000 
#    0.000    0.000    0.000    0.000    0.000    0.000 
#
# Total GULP energy -89297.713260 kJ/mol
# GULP energy per Si atom -5581.107079 kJ/mol
# Density = 2.346639 g / cm^3
# Si number density = 23.519926 Si / 1000 Ang^3
#
#
#
# Elastic Constant Matrix: (Units=GPa)
#
#
# Indices 1 2 3 4 5 6 
#
# 1 84.4108 22.7495 18.4725 0.0000 -21.8948 0.0000
# 2 22.7495 26.8343 6.7445 0.0000 -12.9758 0.0000
# 3 18.4725 6.7445 128.1008 0.0000 3.8149 0.0000
# 4 0.0000 0.0000 0.0000 7.9107 0.0000 -19.1300
# 5 -21.8948 -12.9758 3.8149 0.0000 53.5294 0.0000
# 6 0.0000 0.0000 0.0000 -19.1300 0.0000 44.5024
#
#
#
# Elastic Compliance Matrix: (Units=1/GPa)
#
#
# Indices 1 2 3 4 5 6 
#
# 1 0.016404 -0.011468 -0.001883 0.000000 0.004064 0.000000
# 2 -0.011468 0.051068 -0.001267 0.000000 0.007779 0.000000
# 3 -0.001883 -0.001267 0.008194 0.000000 -0.001661 0.000000
# 4 0.000000 0.000000 0.000000 -3.199408 0.000000 -1.375312
# 5 0.004064 0.007779 -0.001661 0.000000 0.022347 0.000000
# 6 0.000000 0.000000 0.000000 -1.375312 0.000000 -0.568727
#
#
# Mechanical properties :
#
#
# Convention : Reuss Voigt Hill
#
# Bulk Modulus (GPa) = 21.53765 37.25321 29.39543
# Shear Modulus (GPa) = -1.37915 33.94713 16.28399
#
# Velocity S-wave (km/s) = -0.76658 3.80325 2.63411
# Velocity P-wave (km/s) = 2.89716 5.92956 4.66654
#
# Compressibility (1/GPa) = 0.04643031
#
# Stress axis : x y z
#
# Youngs Moduli (GPa) = 60.96169 19.58170 122.04068
#
# Poissons Ratio (x) = 0.22457 0.22976
# Poissons Ratio (y) = 0.69914 0.15458
# Poissons Ratio (z) = 0.11477 0.02480
#
# Static dielectric constant tensor:
#      x y z
#    x 1.952790 0.000000 0.021540 
#    y 0.000000 2.439880 0.000000 
#    z 0.021540 0.000000 1.996530 
# 
# From -- ./inp_files/759.got.cif
#   From: 2010.05.17/outbox.cif.g08.bks.cpg/sg7_cif.got.tgz:759.got - 2010.06.03 19:44:50.
