data_PCOD9131761
_publ_section_title
;
Structure prediction by ZEFSAII (Michael W. Deem and Ramdas Pophale) SiO2 
 PCOD9131761
Probable space group: C M
;
_chemical_formula_sum "Si O2"
_cell_formula_units_Z 32
_cell_length_a 21.119350
_cell_length_b 8.569756
_cell_length_c 25.925972
_cell_angle_alpha 90.000000
_cell_angle_beta 22.440376
_cell_angle_gamma 90.000000
_cell_volume 1791.146132
_symmetry_space_group_name_H-M "C M"
_symmetry_group_IT_number 8
_symmetry_cell_setting 'monoclinic'
loop_
_space_group_symop_operation_xyz
x,y,z
x,-y,z
1/2+x,1/2+y,z
1/2+x,1/2-y,z
loop_
_atom_site_type_symbol
_atom_site_label
_atom_site_fract_x
_atom_site_fract_y
_atom_site_fract_z
Si Si1 0.322560 0.810055 0.358280
Si Si2 0.347130 0.814164 0.065536
Si Si3 0.538593 0.687758 0.492725
Si Si4 0.767219 0.311576 0.517630
Si Si5 0.198321 0.687422 0.071261
Si Si6 0.097439 0.312796 0.333651
Si Si7 0.025618 0.684994 0.782093
Si Si8 0.176557 0.814106 0.774318
O O1 0.183663 0.760452 0.422355
O O2 0.282041 0.760833 0.447213
O O3 0.509748 0.762057 0.203366
O O4 0.323503 0.000000 0.357993
O O5 0.536201 0.757620 0.917008
O O6 0.340266 0.000000 0.065817
O O7 0.249873 0.737881 0.090317
O O8 0.256431 0.758659 0.185413
O O9 0.534745 0.500000 0.494145
O O10 0.573472 0.751042 0.409270
O O11 0.359759 0.749212 0.645315
O O12 0.752678 0.500000 0.529956
O O13 0.613828 0.238322 0.663534
O O14 0.935148 0.269818 0.422032
O O15 0.209128 0.500000 0.060043
O O16 0.335522 0.761736 0.930779
O O17 0.109544 0.500000 0.324791
O O18 0.037613 0.500000 0.779636
O O19 0.121525 0.765415 0.757787
O O20 0.174416 0.000000 0.779608
#
# Coordination Sequence:
#
# PCOD9131761 Si02
#       8
#     4   4   4   4   4   4   4   4
#     4   9  20  38  60  83 111 150 190 229 276 340
#     4  11  21  34  56  87 116 144 186 241 287 324
#     4  11  22  38  59  85 116 149 191 235 281 333
#     4  10  19  36  59  83 111 147 192 231 275 335
#     4  10  18  35  58  82 112 150 190 227 279 341
#     4  11  21  36  59  85 115 149 190 233 280 337
#     4  11  21  33  53  86 117 144 185 238 286 325
#     4  11  21  36  56  81 114 153 190 228 284 343
#
# _framework density 17.865656000000001
#
# number of rings (size 3 to 8) (size 9 to 14) (size 15 to 20)
#    0.000    1.500    2.500    6.000    0.000    0.500 
#    0.000    5.000    0.000    3.000    0.000    0.000 
#    0.000    0.000    0.000    0.000    0.000    0.000 
#
# Total GULP energy -89386.349107 kJ/mol
# GULP energy per Si atom -5586.646819 kJ/mol
# Density = 1.782499 g / cm^3
# Si number density = 17.865656 Si / 1000 Ang^3
#
#
#
# Elastic Constant Matrix: (Units=GPa)
#
#
# Indices 1 2 3 4 5 6 
#
# 1 95.5299 17.8978 64.7611 -0.0040 -5.7432 -0.0021
# 2 17.8978 55.2423 20.7505 -0.0060 0.2144 -0.0029
# 3 64.7611 20.7505 161.1456 -0.0120 -2.5195 -0.0063
# 4 -0.0040 -0.0060 -0.0120 5.8409 -0.0008 -17.9850
# 5 -5.7432 0.2144 -2.5195 -0.0008 27.1192 0.0001
# 6 -0.0021 -0.0029 -0.0063 -17.9850 0.0001 2.0971
#
#
#
# Elastic Compliance Matrix: (Units=1/GPa)
#
#
# Indices 1 2 3 4 5 6 
#
# 1 0.014947 -0.002745 -0.005612 0.000001 0.002666 0.000001
# 2 -0.002745 0.019530 -0.001425 -0.000003 -0.000868 -0.000006
# 3 -0.005612 -0.001425 0.008638 -0.000003 -0.000375 -0.000005
# 4 0.000001 -0.000003 -0.000003 -0.006738 0.000000 -0.057790
# 5 0.002666 -0.000868 -0.000375 0.000000 0.037411 -0.000002
# 6 0.000001 -0.000006 -0.000005 -0.057790 -0.000002 -0.018768
#
#
# Mechanical properties :
#
#
# Convention : Reuss Voigt Hill
#
# Bulk Modulus (GPa) = 42.46021 57.63740 50.04881
# Shear Modulus (GPa) = 60.65492 20.91200 40.78346
#
# Velocity S-wave (km/s) = 5.83303 3.42499 4.78303
# Velocity P-wave (km/s) = 8.31767 6.92621 7.65363
#
# Compressibility (1/GPa) = 0.02355146
#
# Stress axis : x y z
#
# Youngs Moduli (GPa) = 66.90460 51.20285 115.76174
#
# Poissons Ratio (x) = 0.14055 0.64961
# Poissons Ratio (y) = 0.18365 0.16499
# Poissons Ratio (z) = 0.37544 0.07298
#
# Static dielectric constant tensor:
#      x y z
#    x 1.584510 0.000000 -0.001940 
#    y 0.000000 1.608100 0.000000 
#    z -0.001940 0.000000 1.615790 
# 
# From -- ./inp_files/31641.got.cif
#   From: 2010.05.17/outbox.cif.g08.bks.cpg/sg8_16_cif.got.tgz:31641.got - 2010.06.03 19:46:02.
