data_PCOD9131559
_publ_section_title
;
Structure prediction by ZEFSAII (Michael W. Deem and Ramdas Pophale) SiO2 
 PCOD9131559
Probable space group: C M
;
_chemical_formula_sum "Si O2"
_cell_formula_units_Z 32
_cell_length_a 21.054738
_cell_length_b 7.814766
_cell_length_c 20.738917
_cell_angle_alpha 90.000000
_cell_angle_beta 29.309545
_cell_angle_gamma 90.000000
_cell_volume 1670.433483
_symmetry_space_group_name_H-M "C M"
_symmetry_group_IT_number 8
_symmetry_cell_setting 'monoclinic'
loop_
_space_group_symop_operation_xyz
x,y,z
x,-y,z
1/2+x,1/2+y,z
1/2+x,1/2-y,z
loop_
_atom_site_type_symbol
_atom_site_label
_atom_site_fract_x
_atom_site_fract_y
_atom_site_fract_z
Si Si1 0.985890 0.796698 0.856820
Si Si2 0.533322 0.709127 0.095367
Si Si3 0.465715 0.298840 0.017808
Si Si4 0.497730 0.709205 0.356811
Si Si5 0.676520 0.297857 0.311790
Si Si6 0.718328 0.204239 0.557321
Si Si7 0.241224 0.293524 0.393503
Si Si8 0.198162 0.206439 0.067736
O O1 0.097982 0.734940 0.710311
O O2 0.997961 0.000000 0.850576
O O3 0.995212 0.723951 0.921477
O O4 0.843506 0.757983 0.955481
O O5 0.535940 0.500000 0.091458
O O6 0.536407 0.772302 0.018953
O O7 0.391995 0.755800 0.248952
O O8 0.643611 0.766603 0.047078
O O9 0.497373 0.500000 0.987381
O O10 0.311889 0.284022 0.168502
O O11 0.494163 0.500000 0.359729
O O12 0.558583 0.762771 0.371324
O O13 0.353501 0.770385 0.467659
O O14 0.598621 0.762508 0.211787
O O15 0.691837 0.500000 0.287445
O O16 0.663676 0.267132 0.399325
O O17 0.698665 0.268950 0.501568
O O18 0.734550 0.000000 0.536575
O O19 0.236179 0.500000 0.396603
O O20 0.193978 0.000000 0.071021
#
# Coordination Sequence:
#
# PCOD9131559 Si02
#       8
#     4   4   4   4   4   4   4   4
#     4  11  23  36  50  76 113 143 169 214 268 313
#     4   8  14  28  54  79  97 125 171 221 254 292
#     4   9  18  33  51  73 104 140 174 210 256 306
#     4   9  17  31  54  82 104 129 176 223 255 298
#     4  10  18  29  51  81 109 132 163 214 265 309
#     4  10  20  37  58  76 100 141 184 216 251 308
#     4   9  17  32  53  77 104 134 171 213 257 307
#     4  10  17  32  57  80 101 132 178 221 254 305
#
# _framework density 19.156706
#
# number of rings (size 3 to 8) (size 9 to 14) (size 15 to 20)
#    0.000    2.500    2.500    1.500    0.000    1.000 
#    0.000    5.625    0.000    4.500    0.000    0.000 
#    0.000    0.000    0.000    0.000    0.000    0.000 
#
# Total GULP energy -89224.983118 kJ/mol
# GULP energy per Si atom -5576.561445 kJ/mol
# Density = 1.911310 g / cm^3
# Si number density = 19.156706 Si / 1000 Ang^3
#
#
#
# Elastic Constant Matrix: (Units=GPa)
#
#
# Indices 1 2 3 4 5 6 
#
# 1 188.4929 5.7014 76.9172 -0.0002 25.6722 0.0002
# 2 5.7014 20.5942 -4.8032 -0.0002 0.8351 0.0002
# 3 76.9172 -4.8032 103.6587 -0.0002 13.7884 0.0002
# 4 -0.0002 -0.0002 -0.0002 6.6127 0.0001 2.9400
# 5 25.6722 0.8351 13.7884 0.0001 27.1117 -0.0001
# 6 0.0002 0.0002 0.0002 2.9400 -0.0001 19.0389
#
#
#
# Elastic Compliance Matrix: (Units=1/GPa)
#
#
# Indices 1 2 3 4 5 6 
#
# 1 0.008436 -0.003479 -0.005763 0.000000 -0.004950 0.000000
# 2 -0.003479 0.050730 0.005043 0.000002 -0.000833 -0.000001
# 3 -0.005763 0.005043 0.014428 0.000001 -0.002036 0.000000
# 4 0.000000 0.000002 0.000001 0.162371 -0.000001 -0.025073
# 5 -0.004950 -0.000833 -0.002036 -0.000001 0.042633 0.000000
# 6 0.000000 -0.000001 0.000000 -0.025073 0.000000 0.056396
#
#
# Mechanical properties :
#
#
# Convention : Reuss Voigt Hill
#
# Bulk Modulus (GPa) = 15.33810 52.04184 33.68997
# Shear Modulus (GPa) = 13.69399 26.21471 19.95435
#
# Velocity S-wave (km/s) = 2.67655 3.70325 3.23094
# Velocity P-wave (km/s) = 4.19237 6.74617 5.61635
#
# Compressibility (1/GPa) = 0.06519711
#
# Stress axis : x y z
#
# Youngs Moduli (GPa) = 118.53693 19.71206 69.31199
#
# Poissons Ratio (x) = 0.06857 0.39941
# Poissons Ratio (y) = 0.41236 -0.34953
# Poissons Ratio (z) = 0.68308 -0.09941
#
# Static dielectric constant tensor:
#      x y z
#    x 1.711130 0.000000 0.027270 
#    y 0.000000 1.710210 0.000000 
#    z 0.027270 0.000000 1.634850 
# 
# From -- ./inp_files/29540.got.cif
#   From: 2010.05.17/outbox.cif.g08.bks.cpg/sg8_15_cif.got.tgz:29540.got - 2010.06.03 19:46:02.
