data_PCOD9131397
_publ_section_title
;
Structure prediction by ZEFSAII (Michael W. Deem and Ramdas Pophale) SiO2 
 PCOD9131397
Probable space group: P C
;
_chemical_formula_sum "Si O2"
_cell_formula_units_Z 16
_cell_length_a 5.171641
_cell_length_b 21.757391
_cell_length_c 4.990357
_cell_angle_alpha 90.000000
_cell_angle_beta 89.179894
_cell_angle_gamma 90.000000
_cell_volume 561.464512
_symmetry_space_group_name_H-M "P C"
_symmetry_group_IT_number 7
_symmetry_cell_setting 'monoclinic'
loop_
_space_group_symop_operation_xyz
x,y,z
x,-y,1/2+z
loop_
_atom_site_type_symbol
_atom_site_label
_atom_site_fract_x
_atom_site_fract_y
_atom_site_fract_z
Si Si1 0.568290 0.861251 0.572280
Si Si2 0.884607 0.603293 0.593137
Si Si3 0.073370 0.246033 0.484485
Si Si4 0.096714 0.115619 0.722843
Si Si5 0.727496 0.042332 0.453416
Si Si6 0.235768 0.369718 0.586773
Si Si7 0.474589 0.529088 0.342666
Si Si8 0.728473 0.269154 0.994712
O O1 0.835292 0.874960 0.405681
O O2 0.607923 0.892450 0.861284
O O3 0.536420 0.787149 0.561953
O O4 0.330314 0.891472 0.422284
O O5 0.100746 0.620812 0.374479
O O6 0.749383 0.540874 0.493430
O O7 0.673852 0.659716 0.568409
O O8 0.022975 0.609794 0.874544
O O9 0.144827 0.177421 0.555100
O O10 0.285155 0.298193 0.538898
O O11 0.967003 0.252866 0.189061
O O12 0.839599 0.263069 0.693594
O O13 0.024651 0.061159 0.519695
O O14 0.663287 0.001929 0.710053
O O15 0.476558 0.414421 0.627135
O O16 0.338764 0.517589 0.632985
#
# Coordination Sequence:
#
# PCOD9131397 Si02
#       8
#     2   2   2   2   2   2   2   2
#     4  11  25  47  74 107 144 189 241 299 363 425
#     4  10  22  41  65  92 128 172 221 276 341 401
#     4   9  19  40  66  98 131 169 224 285 349 415
#     4  11  25  47  74 107 144 189 241 299 363 425
#     4  12  26  50  74 106 150 194 244 294 354 436
#     4  10  22  41  65  92 128 172 221 276 341 401
#     4  12  26  40  62  94 132 172 226 270 334 412
#     4   9  19  40  66  98 131 169 224 285 349 415
#
# _framework density 28.496904000000001
#
# number of rings (size 3 to 8) (size 9 to 14) (size 15 to 20)
#    0.000    1.500    2.500    1.500    1.750    5.000 
#    0.000    0.000    0.000    0.000    0.000    0.000 
#    0.000    0.000    0.000    0.000    0.000    0.000 
#
# Total GULP energy -89471.888367 kJ/mol
# GULP energy per Si atom -5591.993023 kJ/mol
# Density = 2.843204 g / cm^3
# Si number density = 28.496904 Si / 1000 Ang^3
#
#
#
# Elastic Constant Matrix: (Units=GPa)
#
#
# Indices 1 2 3 4 5 6 
#
# 1 73.2830 21.6799 48.5704 0.0000 17.1012 0.0000
# 2 21.6799 119.3793 53.0324 0.0000 9.5164 0.0000
# 3 48.5704 53.0324 230.9272 0.0000 15.4646 0.0000
# 4 0.0000 0.0000 0.0000 63.4003 0.0000 12.8985
# 5 17.1012 9.5164 15.4646 0.0000 42.2761 0.0000
# 6 0.0000 0.0000 0.0000 12.8985 0.0000 26.0825
#
#
#
# Elastic Compliance Matrix: (Units=1/GPa)
#
#
# Indices 1 2 3 4 5 6 
#
# 1 0.017321 -0.001388 -0.002948 0.000000 -0.005616 0.000000
# 2 -0.001388 0.009515 -0.001832 0.000000 -0.000910 0.000000
# 3 -0.002948 -0.001832 0.005396 0.000000 -0.000369 0.000000
# 4 0.000000 0.000000 0.000000 0.017537 0.000000 -0.008673
# 5 -0.005616 -0.000910 -0.000369 0.000000 0.026265 0.000000
# 6 0.000000 0.000000 0.000000 -0.008673 0.000000 0.042629
#
#
# Mechanical properties :
#
#
# Convention : Reuss Voigt Hill
#
# Bulk Modulus (GPa) = 50.26456 74.46167 62.36312
# Shear Modulus (GPa) = 36.32869 46.37222 41.35045
#
# Velocity S-wave (km/s) = 3.57435 4.03832 3.81340
# Velocity P-wave (km/s) = 5.89165 6.92319 6.42814
#
# Compressibility (1/GPa) = 0.01989473
#
# Stress axis : x y z
#
# Youngs Moduli (GPa) = 57.73386 105.09420 185.32480
#
# Poissons Ratio (x) = 0.14589 0.54637
# Poissons Ratio (y) = 0.08015 0.33956
# Poissons Ratio (z) = 0.17021 0.19256
#
# Static dielectric constant tensor:
#      x y z
#    x 2.392760 0.000000 -0.080300 
#    y 0.000000 2.765860 0.000000 
#    z -0.080300 0.000000 2.109760 
# 
# From -- ./inp_files/431.got.cif
#   From: 2010.05.17/outbox.cif.g08.bks.cpg/sg7_cif.got.tgz:431.got - 2010.06.03 19:44:50.
