data_PCOD9131095
_publ_section_title
;
Structure prediction by ZEFSAII (Michael W. Deem and Ramdas Pophale) SiO2 
 PCOD9131095
Probable space group: P M
;
_chemical_formula_sum "Si O2"
_cell_formula_units_Z 13
_cell_length_a 7.470146
_cell_length_b 12.411286
_cell_length_c 6.541504
_cell_angle_alpha 90.000000
_cell_angle_beta 114.738537
_cell_angle_gamma 90.000000
_cell_volume 550.830339
_symmetry_space_group_name_H-M "P M"
_symmetry_group_IT_number 6
_symmetry_cell_setting 'monoclinic'
loop_
_space_group_symop_operation_xyz
x,y,z
x,-y,z
loop_
_atom_site_type_symbol
_atom_site_label
_atom_site_fract_x
_atom_site_fract_y
_atom_site_fract_z
Si Si1 0.068580 0.375193 0.226860
Si Si2 0.397989 0.380097 0.080831
Si Si3 0.833622 0.000000 0.619753
Si Si4 0.813616 0.214254 0.837044
Si Si5 0.411459 0.000000 0.223210
Si Si6 0.400385 0.829044 0.859706
Si Si7 0.814698 0.378125 0.472687
Si Si8 0.165122 0.000000 0.485951
O O1 0.004515 0.500000 0.149454
O O2 0.290712 0.368642 0.249544
O O3 0.010854 0.359874 0.434027
O O4 0.955120 0.282132 0.050965
O O5 0.352054 0.500000 0.981742
O O6 0.631034 0.371169 0.228310
O O7 0.328258 0.287550 0.896849
O O8 0.894154 0.895636 0.777754
O O9 0.600505 0.000000 0.463442
O O10 0.940319 0.000000 0.450810
O O11 0.613042 0.184977 0.857565
O O12 0.777940 0.292718 0.629311
O O13 0.220808 0.000000 0.276665
O O14 0.418901 0.898226 0.076398
O O15 0.264741 0.895858 0.640190
O O16 0.817536 0.500000 0.556982
#
# Coordination Sequence:
#
# PCOD9131095 Si02
#       8
#     2   2   1   2   1   2   2   1
#     4  10  22  41  64  93 128 165 208 256 305 365
#     4  10  21  40  64  93 129 167 207 252 307 367
#     4  12  25  42  65  93 124 164 213 253 314 367
#     4  12  23  42  66  92 127 165 206 259 310 368
#     4  11  24  47  63  89 126 161 206 266 306 369
#     4  11  23  43  67  91 128 165 205 256 313 368
#     4  10  22  41  64  92 126 165 206 255 311 365
#     4  11  25  45  64  92 124 163 209 261 308 368
#
# _framework density 23.600733999999999
#
# number of rings (size 3 to 8) (size 9 to 14) (size 15 to 20)
#    0.000    1.231    3.077    2.769    0.000    1.846 
#    8.308    0.000    0.000    0.000    0.000    0.000 
#    0.000    0.000    0.000    0.000    0.000    0.000 
#
# Total GULP energy -72798.688771 kJ/mol
# GULP energy per Si atom -5599.899136 kJ/mol
# Density = 2.354702 g / cm^3
# Si number density = 23.600734 Si / 1000 Ang^3
#
#
#
# Elastic Constant Matrix: (Units=GPa)
#
#
# Indices 1 2 3 4 5 6 
#
# 1 109.3574 28.2099 24.2943 0.0000 -40.5956 0.0000
# 2 28.2099 169.2439 65.8266 0.0000 -17.2202 0.0000
# 3 24.2943 65.8266 78.5223 0.0000 -19.6073 0.0000
# 4 0.0000 0.0000 0.0000 24.9613 0.0000 -15.1929
# 5 -40.5956 -17.2202 -19.6073 0.0000 47.0110 0.0000
# 6 0.0000 0.0000 0.0000 -15.1929 0.0000 32.3932
#
#
#
# Elastic Compliance Matrix: (Units=1/GPa)
#
#
# Indices 1 2 3 4 5 6 
#
# 1 0.013684 -0.000864 -0.000712 0.000000 0.011203 0.000000
# 2 -0.000864 0.008823 -0.007265 0.000000 -0.000544 0.000000
# 3 -0.000712 -0.007265 0.020347 0.000000 0.005210 0.000000
# 4 0.000000 0.000000 0.000000 0.056067 0.000000 0.026296
# 5 0.011203 -0.000544 0.005210 0.000000 0.032920 0.000000
# 6 0.000000 0.000000 0.000000 0.026296 0.000000 0.043204
#
#
# Mechanical properties :
#
#
# Convention : Reuss Voigt Hill
#
# Bulk Modulus (GPa) = 39.72646 65.97612 52.85129
# Shear Modulus (GPa) = 24.86099 36.79263 30.82681
#
# Velocity S-wave (km/s) = 3.24913 3.95265 3.61803
# Velocity P-wave (km/s) = 5.56283 6.98907 6.31633
#
# Compressibility (1/GPa) = 0.02517214
#
# Stress axis : x y z
#
# Youngs Moduli (GPa) = 73.07641 113.34044 49.14740
#
# Poissons Ratio (x) = 0.09794 0.03499
# Poissons Ratio (y) = 0.06315 0.35706
# Poissons Ratio (z) = 0.05202 0.82342
#
# Static dielectric constant tensor:
#      x y z
#    x 1.877560 0.000000 -0.012500 
#    y 0.000000 1.879760 0.000000 
#    z -0.012500 0.000000 1.864880 
# 
# From -- ./inp_files/1013.got.cif
#   From: 2010.05.17/outbox.cif.g08.bks.cpg/sg6_1_cif.got.tgz:1013.got - 2010.06.03 19:42:10.
