data_PCOD9131638
_publ_section_title
;
Structure prediction by ZEFSAII (Michael W. Deem and Ramdas Pophale) SiO2 
 PCOD9131638
Probable space group: C M
;
_chemical_formula_sum "Si O2"
_cell_formula_units_Z 32
_cell_length_a 28.178750
_cell_length_b 11.150208
_cell_length_c 5.036739
_cell_angle_alpha 90.000000
_cell_angle_beta 94.127756
_cell_angle_gamma 90.000000
_cell_volume 1578.432917
_symmetry_space_group_name_H-M "C M"
_symmetry_group_IT_number 8
_symmetry_cell_setting 'monoclinic'
loop_
_space_group_symop_operation_xyz
x,y,z
x,-y,z
1/2+x,1/2+y,z
1/2+x,1/2-y,z
loop_
_atom_site_type_symbol
_atom_site_label
_atom_site_fract_x
_atom_site_fract_y
_atom_site_fract_z
Si Si1 0.563530 0.643578 0.263510
Si Si2 0.900875 0.137192 0.511936
Si Si3 0.759269 0.866384 0.306686
Si Si4 0.787968 0.630364 0.650293
Si Si5 0.662830 0.751917 0.357325
Si Si6 0.186684 0.125970 0.872654
Si Si7 0.341421 0.296812 0.986739
Si Si8 0.500657 0.640712 0.752389
O O1 0.575670 0.500000 0.219946
O O2 0.607746 0.735140 0.260007
O O3 0.540960 0.649604 0.545164
O O4 0.523294 0.681311 0.036738
O O5 0.874188 0.201412 0.259737
O O6 0.951292 0.192025 0.621786
O O7 0.908158 0.000000 0.420781
O O8 0.868005 0.136449 0.759222
O O9 0.777867 0.747898 0.467842
O O10 0.701530 0.852138 0.286461
O O11 0.790286 0.854420 0.049185
O O12 0.770163 0.000000 0.416466
O O13 0.794334 0.500000 0.521565
O O14 0.741108 0.622162 0.811449
O O15 0.830573 0.666436 0.861673
O O16 0.665690 0.728135 0.673151
O O17 0.683660 0.644125 0.184134
O O18 0.162852 0.000000 0.788782
O O19 0.489657 0.500000 0.791332
#
# Coordination Sequence:
#
# PCOD9131638 Si02
#       8
#     4   4   4   4   4   4   4   4
#     4  10  18  31  53  79 114 153 197 251 312 369
#     4  11  22  36  58  87 122 161 205 258 316 372
#     4  11  24  41  61  91 132 172 212 253 298 362
#     4  10  23  41  61  87 124 169 212 255 303 356
#     4  11  21  34  51  84 112 161 198 246 294 360
#     4  10  19  33  51  75 112 152 197 238 284 347
#     4  12  22  38  58  90 119 169 207 250 301 375
#     4   9  19  34  52  81 116 151 195 255 315 365
#
# _framework density 20.273271999999999
#
# number of rings (size 3 to 8) (size 9 to 14) (size 15 to 20)
#    0.000    1.500    2.500    3.750    0.000    5.500 
#    0.000    0.000    0.000    0.000    0.000    5.250 
#    0.000    0.000    0.000    0.000    0.000    0.000 
#
# Total GULP energy -89087.389173 kJ/mol
# GULP energy per Si atom -5567.961823 kJ/mol
# Density = 2.022713 g / cm^3
# Si number density = 20.273272 Si / 1000 Ang^3
#
#
#
# Elastic Constant Matrix: (Units=GPa)
#
#
# Indices 1 2 3 4 5 6 
#
# 1 73.2509 20.7004 1.0912 0.0000 12.7518 0.0000
# 2 20.7004 84.4523 18.1203 0.0000 4.1849 0.0000
# 3 1.0912 18.1203 70.5271 0.0000 9.2647 0.0000
# 4 0.0000 0.0000 0.0000 17.3180 0.0000 6.7198
# 5 12.7518 4.1849 9.2647 0.0000 32.2559 0.0000
# 6 0.0000 0.0000 0.0000 6.7198 0.0000 19.8860
#
#
#
# Elastic Compliance Matrix: (Units=1/GPa)
#
#
# Indices 1 2 3 4 5 6 
#
# 1 0.015811 -0.003906 0.001573 0.000000 -0.006195 0.000000
# 2 -0.003906 0.013513 -0.003517 0.000000 0.000801 0.000000
# 3 0.001573 -0.003517 0.015671 0.000000 -0.004667 0.000000
# 4 0.000000 0.000000 0.000000 0.066457 0.000000 -0.022457
# 5 -0.006195 0.000801 -0.004667 0.000000 0.034688 0.000000
# 6 0.000000 0.000000 0.000000 -0.022457 0.000000 0.057875
#
#
# Mechanical properties :
#
#
# Convention : Reuss Voigt Hill
#
# Bulk Modulus (GPa) = 30.03417 34.22822 32.13120
# Shear Modulus (GPa) = 22.04458 26.44655 24.24556
#
# Velocity S-wave (km/s) = 3.30111 3.61571 3.46198
# Velocity P-wave (km/s) = 5.42002 5.86099 5.64481
#
# Compressibility (1/GPa) = 0.03329541
#
# Stress axis : x y z
#
# Youngs Moduli (GPa) = 63.24875 74.00150 63.81148
#
# Poissons Ratio (x) = 0.28904 -0.10036
# Poissons Ratio (y) = 0.24704 0.22441
# Poissons Ratio (z) = -0.09947 0.26024
#
# Static dielectric constant tensor:
#      x y z
#    x 1.796080 0.000000 0.023160 
#    y 0.000000 1.772070 0.000000 
#    z 0.023160 0.000000 1.748300 
# 
# From -- ./inp_files/6246.got.cif
#   From: 2010.05.17/outbox.cif.g08.bks.cpg/sg8_4_cif.got.tgz:6246.got - 2010.06.03 19:46:02.
