data_PCOD9131280
_publ_section_title
;
Structure prediction by ZEFSAII (Michael W. Deem and Ramdas Pophale) SiO2 
 PCOD9131280
Probable space group: P C
;
_chemical_formula_sum "Si O2"
_cell_formula_units_Z 16
_cell_length_a 20.033337
_cell_length_b 7.987626
_cell_length_c 5.297170
_cell_angle_alpha 90.000000
_cell_angle_beta 125.304474
_cell_angle_gamma 90.000000
_cell_volume 691.758171
_symmetry_space_group_name_H-M "P C"
_symmetry_group_IT_number 7
_symmetry_cell_setting 'monoclinic'
loop_
_space_group_symop_operation_xyz
x,y,z
x,-y,1/2+z
loop_
_atom_site_type_symbol
_atom_site_label
_atom_site_fract_x
_atom_site_fract_y
_atom_site_fract_z
Si Si1 0.493910 0.111079 0.254080
Si Si2 0.169309 0.607092 0.984752
Si Si3 0.893752 0.085775 0.808637
Si Si4 0.761637 0.430853 0.016383
Si Si5 0.714962 0.950466 0.385500
Si Si6 0.573335 0.433693 0.587975
Si Si7 0.993004 0.607194 0.700232
Si Si8 0.349606 0.383723 0.942412
O O1 0.566314 0.246525 0.468088
O O2 0.493021 0.979256 0.481769
O O3 0.415620 0.236155 0.094515
O O4 0.168213 0.457273 0.192928
O O5 0.256946 0.689640 0.227388
O O6 0.082529 0.307571 0.352094
O O7 0.925017 0.258087 0.986150
O O8 0.921007 0.952113 0.082758
O O9 0.795187 0.070312 0.583451
O O10 0.800889 0.524658 0.867564
O O11 0.667012 0.492522 0.831689
O O12 0.750801 0.234937 0.950264
O O13 0.668986 0.021912 0.045291
O O14 0.536119 0.452273 0.785040
O O15 0.988623 0.535970 0.973978
O O16 0.357218 0.500238 0.708985
#
# Coordination Sequence:
#
# PCOD9131280 Si02
#       8
#     2   2   2   2   2   2   2   2
#     4  12  24  36  53  84 118 145 180 225 272 319
#     4   8  16  30  53  80 102 134 184 230 266 309
#     4  10  21  38  53  77 111 144 175 214 274 335
#     4  10  21  38  61  85 106 137 186 233 265 311
#     4  10  21  38  56  78 112 144 172 214 274 335
#     4  10  21  39  60  81 107 144 187 224 268 323
#     4  10  19  35  58  82 106 138 186 233 265 311
#     4  10  19  36  58  77 106 150 188 221 268 323
#
# _framework density 23.129472
#
# number of rings (size 3 to 8) (size 9 to 14) (size 15 to 20)
#    0.000    2.000    0.000    3.750    0.000    1.000 
#    0.000   16.250    0.000    0.000    0.000    0.000 
#    0.000    0.000    0.000    0.000    0.000    0.000 
#
# Total GULP energy -89401.355959 kJ/mol
# GULP energy per Si atom -5587.584747 kJ/mol
# Density = 2.307683 g / cm^3
# Si number density = 23.129472 Si / 1000 Ang^3
#
#
#
# Elastic Constant Matrix: (Units=GPa)
#
#
# Indices 1 2 3 4 5 6 
#
# 1 55.2397 11.5829 35.0797 0.0000 -3.3409 0.0000
# 2 11.5829 60.2055 22.2336 0.0000 -9.1832 0.0000
# 3 35.0797 22.2336 128.3736 0.0000 -26.5977 0.0000
# 4 0.0000 0.0000 0.0000 39.0302 0.0000 -9.0769
# 5 -3.3409 -9.1832 -26.5977 0.0000 60.7078 0.0000
# 6 0.0000 0.0000 0.0000 -9.0769 0.0000 26.6754
#
#
#
# Elastic Compliance Matrix: (Units=1/GPa)
#
#
# Indices 1 2 3 4 5 6 
#
# 1 0.022338 -0.002328 -0.006070 0.000000 -0.001782 0.000000
# 2 -0.002328 0.018108 -0.002155 0.000000 0.001667 0.000000
# 3 -0.006070 -0.002155 0.010652 0.000000 0.004007 0.000000
# 4 0.000000 0.000000 0.000000 0.027823 0.000000 0.009467
# 5 -0.001782 0.001667 0.004007 0.000000 0.018382 0.000000
# 6 0.000000 0.000000 0.000000 0.009467 0.000000 0.040709
#
#
# Mechanical properties :
#
#
# Convention : Reuss Voigt Hill
#
# Bulk Modulus (GPa) = 33.34202 42.40125 37.87163
# Shear Modulus (GPa) = 29.56574 36.94419 33.25497
#
# Velocity S-wave (km/s) = 3.57917 4.00093 3.79591
# Velocity P-wave (km/s) = 5.61492 6.30200 5.96835
#
# Compressibility (1/GPa) = 0.02999219
#
# Stress axis : x y z
#
# Youngs Moduli (GPa) = 44.76649 55.22547 93.87982
#
# Poissons Ratio (x) = 0.12855 0.56988
# Poissons Ratio (y) = 0.10421 0.20228
# Poissons Ratio (z) = 0.27175 0.11899
#
# Static dielectric constant tensor:
#      x y z
#    x 1.974760 0.000000 -0.002020 
#    y 0.000000 1.832370 0.000000 
#    z -0.002020 0.000000 1.949190 
# 
# From -- ./inp_files/1437.got.cif
#   From: 2010.05.17/outbox.cif.g08.bks.cpg/sg7_cif.got.tgz:1437.got - 2010.06.03 19:44:50.
