data_PCOD9131146
_publ_section_title
;
Structure prediction by ZEFSAII (Michael W. Deem and Ramdas Pophale) SiO2 
 PCOD9131146
Probable space group: P M
;
_chemical_formula_sum "Si O2"
_cell_formula_units_Z 13
_cell_length_a 14.865209
_cell_length_b 7.241359
_cell_length_c 13.759632
_cell_angle_alpha 90.000000
_cell_angle_beta 19.921203
_cell_angle_gamma 90.000000
_cell_volume 504.667217
_symmetry_space_group_name_H-M "P M"
_symmetry_group_IT_number 6
_symmetry_cell_setting 'monoclinic'
loop_
_space_group_symop_operation_xyz
x,y,z
x,-y,z
loop_
_atom_site_type_symbol
_atom_site_label
_atom_site_fract_x
_atom_site_fract_y
_atom_site_fract_z
Si Si1 0.742550 0.223979 0.856600
Si Si2 0.426303 0.789271 0.989103
Si Si3 0.777164 0.210729 0.437086
Si Si4 0.460917 0.776021 0.569588
Si Si5 0.974879 0.224668 0.943082
Si Si6 0.228588 0.224668 0.483106
Si Si7 0.101733 0.500000 0.213095
O O1 0.612715 0.279212 0.886687
O O2 0.031642 0.282441 0.596452
O O3 0.751278 0.000000 0.844435
O O4 0.526890 0.278862 0.156893
O O5 0.601733 0.784902 0.713095
O O6 0.186230 0.659821 0.206423
O O7 0.342588 0.000000 0.094547
O O8 0.590751 0.279212 0.539503
O O9 0.860879 0.000000 0.331641
O O10 0.017236 0.340179 0.219767
O O11 0.171826 0.717559 0.829735
O O12 0.452189 0.000000 0.581753
O O13 0.676578 0.721138 0.269294
O O14 0.101734 0.285343 0.713094
O O15 0.972910 0.000000 0.942812
O O16 0.230557 0.000000 0.483376
#
# Coordination Sequence:
#
# PCOD9131146 Si02
#       7
#     2   2   2   2   2   2   1
#     4   9  18  31  52  82 118 160 201 249 312 370
#     4  10  23  41  62  90 129 168 208 262 319 379
#     4  10  23  41  62  90 129 168 208 262 319 379
#     4   9  18  31  52  82 118 160 201 249 312 370
#     4   9  16  28  49  81 119 155 199 254 307 366
#     4   9  16  28  49  81 119 155 199 254 307 366
#     4  12  24  40  64  92 122 166 220 264 310 382
#
# _framework density 25.759550000000001
#
# number of rings (size 3 to 8) (size 9 to 14) (size 15 to 20)
#    0.000    2.462    0.000    1.846    4.308    3.692 
#    0.000    0.000    0.000    0.000    0.000    6.462 
#    0.000    0.000    0.000    0.000    0.000    0.308 
#
# Total GULP energy -72527.937768 kJ/mol
# GULP energy per Si atom -5579.072136 kJ/mol
# Density = 2.570092 g / cm^3
# Si number density = 25.759550 Si / 1000 Ang^3
#
#
#
# Elastic Constant Matrix: (Units=GPa)
#
#
# Indices 1 2 3 4 5 6 
#
# 1 96.7909 8.4179 -8.7129 0.0000 -7.9966 0.0000
# 2 8.4179 129.5512 0.1901 0.0000 -9.2331 0.0000
# 3 -8.7129 0.1901 79.9935 0.0000 -9.3403 0.0000
# 4 0.0000 0.0000 0.0000 57.6211 0.0000 -89.2776
# 5 -7.9966 -9.2331 -9.3403 0.0000 41.5174 0.0000
# 6 0.0000 0.0000 0.0000 -89.2776 0.0000 56.1016
#
#
#
# Elastic Compliance Matrix: (Units=1/GPa)
#
#
# Indices 1 2 3 4 5 6 
#
# 1 0.010694 -0.000536 0.001430 0.000000 0.002262 0.000000
# 2 -0.000536 0.007873 0.000118 0.000000 0.001674 0.000000
# 3 0.001430 0.000118 0.013034 0.000000 0.003234 0.000000
# 4 0.000000 0.000000 0.000000 -0.011841 0.000000 -0.018843
# 5 0.002262 0.001674 0.003234 0.000000 0.025622 0.000000
# 6 0.000000 0.000000 0.000000 -0.018843 0.000000 -0.012162
#
#
# Mechanical properties :
#
#
# Convention : Reuss Voigt Hill
#
# Bulk Modulus (GPa) = 29.73827 34.01397 31.87612
# Shear Modulus (GPa) = 117.91640 51.47736 84.69688
#
# Velocity S-wave (km/s) = 6.77312 4.47517 5.74031
# Velocity P-wave (km/s) = 8.52857 6.31949 7.50575
#
# Compressibility (1/GPa) = 0.03362670
#
# Stress axis : x y z
#
# Youngs Moduli (GPa) = 93.51216 127.01765 76.72156
#
# Poissons Ratio (x) = 0.06805 -0.10973
# Poissons Ratio (y) = 0.05010 -0.00909
# Poissons Ratio (z) = -0.13374 -0.01504
#
# Static dielectric constant tensor:
#      x y z
#    x 1.985520 0.000000 0.050030 
#    y 0.000000 2.013920 0.000000 
#    z 0.050030 0.000000 2.020830 
# 
# From -- ./inp_files/5376.got.cif
#   From: 2010.05.17/outbox.cif.g08.bks.cpg/sg6_3_cif.got.tgz:5376.got - 2010.06.03 19:42:10.
