data_PCOD9131642
_publ_section_title
;
Structure prediction by ZEFSAII (Michael W. Deem and Ramdas Pophale) SiO2 
 PCOD9131642
Probable space group: C M
;
_chemical_formula_sum "Si O2"
_cell_formula_units_Z 32
_cell_length_a 21.221586
_cell_length_b 8.254535
_cell_length_c 20.820493
_cell_angle_alpha 90.000000
_cell_angle_beta 28.596191
_cell_angle_gamma 90.000000
_cell_volume 1745.679621
_symmetry_space_group_name_H-M "C M"
_symmetry_group_IT_number 8
_symmetry_cell_setting 'monoclinic'
loop_
_space_group_symop_operation_xyz
x,y,z
x,-y,z
1/2+x,1/2+y,z
1/2+x,1/2-y,z
loop_
_atom_site_type_symbol
_atom_site_label
_atom_site_fract_x
_atom_site_fract_y
_atom_site_fract_z
Si Si1 0.351710 0.304836 0.788370
Si Si2 0.922346 0.308923 0.477685
Si Si3 0.872206 0.196378 0.916229
Si Si4 0.095998 0.196053 0.940719
Si Si5 0.631726 0.302197 0.760961
Si Si6 0.036438 0.808087 0.509208
Si Si7 0.687914 0.311059 0.190701
Si Si8 0.302352 0.309133 0.221100
O O1 0.355208 0.500000 0.787480
O O2 0.365646 0.246118 0.848766
O O3 0.215099 0.253055 0.878241
O O4 0.469246 0.253390 0.635373
O O5 0.926901 0.500000 0.459988
O O6 0.967112 0.280674 0.511400
O O7 0.032824 0.223496 0.336029
O O8 0.772487 0.249860 0.606971
O O9 0.006582 0.249034 0.831345
O O10 0.870458 0.000000 0.918259
O O11 0.751388 0.256849 0.067391
O O12 0.117465 0.250654 0.847790
O O13 0.094589 0.000000 0.941123
O O14 0.951891 0.250485 0.093251
O O15 0.633265 0.500000 0.760264
O O16 0.191466 0.775397 0.363334
O O17 0.013376 0.000000 0.521766
O O18 0.711870 0.500000 0.180188
O O19 0.758158 0.216762 0.186521
O O20 0.298428 0.500000 0.238222
#
# Coordination Sequence:
#
# PCOD9131642 Si02
#       8
#     4   4   4   4   4   4   4   4
#     4  10  22  36  55  80 110 146 176 219 271 318
#     4  10  18  31  54  80 103 137 180 221 266 317
#     4  10  20  39  58  76 107 145 185 217 261 326
#     4  10  19  34  56  81 107 139 181 226 263 310
#     4   9  17  32  56  81 102 135 183 226 257 306
#     4  10  19  32  49  78 112 139 172 220 273 315
#     4  11  21  33  51  80 112 141 173 222 275 313
#     4  10  19  33  55  80 105 142 182 219 264 315
#
# _framework density 18.330969
#
# number of rings (size 3 to 8) (size 9 to 14) (size 15 to 20)
#    0.000    2.000    2.500    3.750    0.000    2.000 
#    0.000    2.500    0.000    3.000    0.000    0.000 
#    0.000    0.000    0.000    0.000    0.000    0.000 
#
# Total GULP energy -89297.402772 kJ/mol
# GULP energy per Si atom -5581.087673 kJ/mol
# Density = 1.828925 g / cm^3
# Si number density = 18.330969 Si / 1000 Ang^3
#
#
#
# Elastic Constant Matrix: (Units=GPa)
#
#
# Indices 1 2 3 4 5 6 
#
# 1 109.6719 -0.5653 76.0873 0.0000 3.9042 0.0000
# 2 -0.5653 9.9303 1.4784 0.0002 0.0480 -0.0002
# 3 76.0873 1.4784 169.5153 0.0002 2.7448 -0.0001
# 4 0.0000 0.0002 0.0002 19.4004 -0.0001 4.8450
# 5 3.9042 0.0480 2.7448 -0.0001 23.8857 0.0001
# 6 0.0000 -0.0002 -0.0001 4.8450 0.0001 14.4350
#
#
#
# Elastic Compliance Matrix: (Units=1/GPa)
#
#
# Indices 1 2 3 4 5 6 
#
# 1 0.013321 0.001654 -0.005970 0.000000 -0.001495 0.000000
# 2 0.001654 0.101038 -0.001619 -0.000002 -0.000288 0.000002
# 3 -0.005970 -0.001619 0.008593 0.000000 -0.000008 0.000000
# 4 0.000000 -0.000002 0.000000 0.056261 0.000000 -0.018884
# 5 -0.001495 -0.000288 -0.000008 0.000000 0.042112 0.000000
# 6 0.000000 0.000002 0.000000 -0.018884 0.000000 0.075614
#
#
# Mechanical properties :
#
#
# Convention : Reuss Voigt Hill
#
# Bulk Modulus (GPa) = 9.00220 49.23539 29.11879
# Shear Modulus (GPa) = 14.45769 25.68535 20.07152
#
# Velocity S-wave (km/s) = 2.81143 3.74732 3.31260
# Velocity P-wave (km/s) = 3.93198 6.75579 5.52726
#
# Compressibility (1/GPa) = 0.11108393
#
# Stress axis : x y z
#
# Youngs Moduli (GPa) = 75.06747 9.89723 116.37547
#
# Poissons Ratio (x) = -0.01637 0.69471
# Poissons Ratio (y) = -0.12418 0.18842
# Poissons Ratio (z) = 0.44812 0.01602
#
# Static dielectric constant tensor:
#      x y z
#    x 1.599760 0.000000 -0.004370 
#    y 0.000000 1.633180 0.000000 
#    z -0.004370 0.000000 1.648770 
# 
# From -- ./inp_files/31322.got.cif
#   From: 2010.05.17/outbox.cif.g08.bks.cpg/sg8_16_cif.got.tgz:31322.got - 2010.06.03 19:46:02.
