data_PCOD9131929
_publ_section_title
;
Structure prediction by ZEFSAII (Michael W. Deem and Ramdas Pophale) SiO2 
 PCOD9131929
Probable space group: C M
;
_chemical_formula_sum "Si O2"
_cell_formula_units_Z 24
_cell_length_a 19.657136
_cell_length_b 7.743180
_cell_length_c 12.501738
_cell_angle_alpha 90.000000
_cell_angle_beta 38.924579
_cell_angle_gamma 90.000000
_cell_volume 1195.569634
_symmetry_space_group_name_H-M "C M"
_symmetry_group_IT_number 8
_symmetry_cell_setting 'monoclinic'
loop_
_space_group_symop_operation_xyz
x,y,z
x,-y,z
1/2+x,1/2+y,z
1/2+x,1/2-y,z
loop_
_atom_site_type_symbol
_atom_site_label
_atom_site_fract_x
_atom_site_fract_y
_atom_site_fract_z
Si Si1 0.198850 0.291094 0.286820
Si Si2 0.158398 0.793967 0.673071
Si Si3 0.003866 0.706026 0.669415
Si Si4 0.100195 0.212256 0.981863
Si Si5 0.854576 0.793445 0.282499
Si Si6 0.260029 0.206801 0.972031
O O1 0.198545 0.500000 0.292160
O O2 0.087177 0.228102 0.477362
O O3 0.295813 0.229133 0.246090
O O4 0.215716 0.240141 0.144652
O O5 0.062635 0.735370 0.710942
O O6 0.271687 0.742134 0.480245
O O7 0.154681 0.000000 0.679892
O O8 0.141088 0.731841 0.814871
O O9 0.996927 0.500000 0.663197
O O10 0.882557 0.776806 0.813729
O O11 0.976227 0.270977 0.148830
O O12 0.100294 0.000000 0.983086
O O13 0.179407 0.272045 0.979057
O O14 0.862229 0.000000 0.262470
O O15 0.266057 0.000000 0.951252
#
# Coordination Sequence:
#
# PCOD9131929 Si02
#       6
#     4   4   4   4   4   4
#     4   9  18  33  52  73  98 131 167 205 251 294
#     4  10  19  33  55  78  98 126 169 212 244 287
#     4   9  19  35  53  73 101 134 164 201 251 298
#     4   9  19  34  51  73 103 136 164 198 250 300
#     4   9  18  35  55  73  99 133 165 202 251 298
#     4  10  20  34  52  74 101 134 169 202 241 295
#
# _framework density 20.074113000000001
#
# number of rings (size 3 to 8) (size 9 to 14) (size 15 to 20)
#    0.000    2.667    0.000    2.500    0.000    6.000 
#    0.000    5.833    0.000    0.000    0.000    0.000 
#    0.000    0.000    0.000    0.000    0.000    0.000 
#
# Total GULP energy -66970.991619 kJ/mol
# GULP energy per Si atom -5580.915968 kJ/mol
# Density = 2.002842 g / cm^3
# Si number density = 20.074113 Si / 1000 Ang^3
#
#
#
# Elastic Constant Matrix: (Units=GPa)
#
#
# Indices 1 2 3 4 5 6 
#
# 1 203.7286 3.4390 160.3914 0.0000 4.7064 0.0000
# 2 3.4390 24.9142 2.2080 0.0000 -4.7504 0.0001
# 3 160.3914 2.2080 173.1475 0.0000 -10.0666 0.0000
# 4 0.0000 0.0000 0.0000 10.4884 0.0000 17.9240
# 5 4.7064 -4.7504 -10.0666 0.0000 31.2314 0.0000
# 6 0.0000 0.0001 0.0000 17.9240 0.0000 7.0009
#
#
#
# Elastic Compliance Matrix: (Units=1/GPa)
#
#
# Indices 1 2 3 4 5 6 
#
# 1 0.020738 -0.003009 -0.019751 0.000000 -0.009949 0.000000
# 2 -0.003009 0.041778 0.002701 0.000000 0.007679 0.000000
# 3 -0.019751 0.002701 0.024696 0.000000 0.011347 0.000000
# 4 0.000000 0.000000 0.000000 -0.028248 0.000000 0.072321
# 5 -0.009949 0.007679 0.011347 0.000000 0.038344 0.000000
# 6 0.000000 0.000000 0.000000 0.072321 0.000000 -0.042319
#
#
# Mechanical properties :
#
#
# Convention : Reuss Voigt Hill
#
# Bulk Modulus (GPa) = 21.23355 81.54080 51.38717
# Shear Modulus (GPa) = 45.12436 25.46093 35.29264
#
# Velocity S-wave (km/s) = 4.74633 3.56525 4.19754
# Velocity P-wave (km/s) = 6.37475 7.59316 7.01047
#
# Compressibility (1/GPa) = 0.04709529
#
# Stress axis : x y z
#
# Youngs Moduli (GPa) = 48.21991 23.93609 40.49211
#
# Poissons Ratio (x) = 0.07203 0.79974
# Poissons Ratio (y) = 0.14510 -0.10938
# Poissons Ratio (z) = 0.95237 -0.06466
#
# Static dielectric constant tensor:
#      x y z
#    x 1.685440 0.000000 -0.016200 
#    y 0.000000 1.737640 0.000000 
#    z -0.016200 0.000000 1.690010 
# 
# From -- ./inp_files/21663.got.cif
#   From: 2010.05.17/outbox.cif.g08.bks.cpg/sg8_11_cif.got.tgz:21663.got - 2010.06.03 19:46:02.
