data_PCOD9131470
_publ_section_title
;
Structure prediction by ZEFSAII (Michael W. Deem and Ramdas Pophale) SiO2 
 PCOD9131470
Probable space group: P C
;
_chemical_formula_sum "Si O2"
_cell_formula_units_Z 14
_cell_length_a 5.261689
_cell_length_b 21.391710
_cell_length_c 4.840540
_cell_angle_alpha 90.000000
_cell_angle_beta 93.986583
_cell_angle_gamma 90.000000
_cell_volume 543.516058
_symmetry_space_group_name_H-M "P C"
_symmetry_group_IT_number 7
_symmetry_cell_setting 'monoclinic'
loop_
_space_group_symop_operation_xyz
x,y,z
x,-y,1/2+z
loop_
_atom_site_type_symbol
_atom_site_label
_atom_site_fract_x
_atom_site_fract_y
_atom_site_fract_z
Si Si1 0.735220 0.647167 0.688290
Si Si2 0.249974 0.658155 0.067831
Si Si3 0.019103 0.041972 0.933874
Si Si4 0.623283 0.859761 0.312817
Si Si5 0.471002 0.545610 0.357288
Si Si6 0.295535 0.156174 0.266756
Si Si7 0.981984 0.755940 0.398683
O O1 0.495568 0.656979 0.880879
O O2 0.704561 0.584420 0.505180
O O3 0.779241 0.704279 0.480583
O O4 0.993788 0.644144 0.881200
O O5 0.281835 0.603937 0.300283
O O6 0.194123 0.721563 0.230854
O O7 0.736410 0.071832 0.882707
O O8 0.063651 0.018198 0.628590
O O9 0.173795 0.096440 0.099822
O O10 0.545816 0.832569 0.601934
O O11 0.844590 0.812896 0.229818
O O12 0.393616 0.857618 0.079105
O O13 0.451810 0.487522 0.561164
O O14 0.115347 0.213731 0.176769
#
# Coordination Sequence:
#
# PCOD9131470 Si02
#       7
#     2   2   2   2   2   2   2
#     4  12  29  53  84 120 162 216 274 340 413 495
#     4  12  29  53  84 120 162 216 274 340 413 495
#     4  11  24  46  74 110 154 205 272 330 398 481
#     4  11  27  47  74 112 157 208 263 338 404 478
#     4  12  28  56  84 122 164 214 274 342 416 496
#     4  11  27  47  74 112 157 208 263 338 404 478
#     4  11  30  46  78 114 162 205 278 330 416 489
#
# _framework density 25.758209999999998
#
# number of rings (size 3 to 8) (size 9 to 14) (size 15 to 20)
#    0.000    0.571    1.429    3.429   10.000    6.857 
#    0.000    0.000    0.000    0.000    0.000    0.000 
#    0.000    0.000    0.000    0.000    0.000    0.000 
#
# Total GULP energy -78332.074233 kJ/mol
# GULP energy per Si atom -5595.148159 kJ/mol
# Density = 2.569958 g / cm^3
# Si number density = 25.758210 Si / 1000 Ang^3
#
#
#
# Elastic Constant Matrix: (Units=GPa)
#
#
# Indices 1 2 3 4 5 6 
#
# 1 108.4624 18.6624 44.6787 0.0000 -2.1753 0.0000
# 2 18.6624 115.7494 26.4484 0.0000 5.9808 0.0000
# 3 44.6787 26.4484 141.1556 0.0000 21.1110 0.0000
# 4 0.0000 0.0000 0.0000 36.6978 0.0000 14.1886
# 5 -2.1753 5.9808 21.1110 0.0000 50.0986 0.0000
# 6 0.0000 0.0000 0.0000 14.1886 0.0000 30.4817
#
#
#
# Elastic Compliance Matrix: (Units=1/GPa)
#
#
# Indices 1 2 3 4 5 6 
#
# 1 0.010915 -0.001052 -0.003572 0.000000 0.002105 0.000000
# 2 -0.001052 0.009134 -0.001290 0.000000 -0.000593 0.000000
# 3 -0.003572 -0.001290 0.009026 0.000000 -0.003805 0.000000
# 4 0.000000 0.000000 0.000000 0.033230 0.000000 -0.015468
# 5 0.002105 -0.000593 -0.003805 0.000000 0.021726 0.000000
# 6 0.000000 0.000000 0.000000 -0.015468 0.000000 0.040006
#
#
# Mechanical properties :
#
#
# Convention : Reuss Voigt Hill
#
# Bulk Modulus (GPa) = 57.98484 60.54963 59.26723
# Shear Modulus (GPa) = 35.30709 41.82748 38.56729
#
# Velocity S-wave (km/s) = 3.70633 4.03407 3.87367
# Velocity P-wave (km/s) = 6.39343 6.72728 6.56248
#
# Compressibility (1/GPa) = 0.01724589
#
# Stress axis : x y z
#
# Youngs Moduli (GPa) = 91.62038 109.47686 110.79382
#
# Poissons Ratio (x) = 0.11520 0.39579
# Poissons Ratio (y) = 0.09641 0.14290
# Poissons Ratio (z) = 0.32730 0.14120
#
# Static dielectric constant tensor:
#      x y z
#    x 2.110660 0.000000 -0.032200 
#    y 0.000000 2.039230 0.000000 
#    z -0.032200 0.000000 1.995740 
# 
# From -- ./inp_files/360.got.cif
#   From: 2010.05.17/outbox.cif.g08.bks.cpg/sg7_cif.got.tgz:360.got - 2010.06.03 19:44:50.
