data_PCOD9131815
_publ_section_title
;
Structure prediction by ZEFSAII (Michael W. Deem and Ramdas Pophale) SiO2 
 PCOD9131815
Probable space group: C M
;
_chemical_formula_sum "Si O2"
_cell_formula_units_Z 32
_cell_length_a 23.684769
_cell_length_b 7.493583
_cell_length_c 7.407113
_cell_angle_alpha 90.000000
_cell_angle_beta 106.470391
_cell_angle_gamma 90.000000
_cell_volume 1260.697892
_symmetry_space_group_name_H-M "C M"
_symmetry_group_IT_number 8
_symmetry_cell_setting 'monoclinic'
loop_
_space_group_symop_operation_xyz
x,y,z
x,-y,z
1/2+x,1/2+y,z
1/2+x,1/2-y,z
loop_
_atom_site_type_symbol
_atom_site_label
_atom_site_fract_x
_atom_site_fract_y
_atom_site_fract_z
Si Si1 0.188740 0.711764 0.366890
Si Si2 0.059836 0.295776 0.680956
Si Si3 0.437494 0.218145 0.492448
Si Si4 0.810961 0.199536 0.926488
Si Si5 0.685891 0.779933 0.783565
Si Si6 0.939512 0.201464 0.081094
Si Si7 0.311477 0.208174 0.527707
Si Si8 0.061519 0.788299 0.258086
O O1 0.190269 0.500000 0.367736
O O2 0.186212 0.777834 0.573274
O O3 0.252536 0.772291 0.356035
O O4 0.125565 0.761649 0.229324
O O5 0.059642 0.500000 0.742222
O O6 0.122446 0.217438 0.797986
O O7 0.063079 0.294995 0.461746
O O8 0.994620 0.221423 0.657782
O O9 0.443527 0.299160 0.300947
O O10 0.373225 0.267325 0.502690
O O11 0.439713 0.000000 0.482457
O O12 0.747796 0.278416 0.927119
O O13 0.802275 0.187056 0.703745
O O14 0.816180 0.000000 0.012143
O O15 0.875319 0.289137 0.996191
O O16 0.686234 0.000000 0.788770
O O17 0.004174 0.279453 0.096117
O O18 0.935307 0.000000 0.001916
O O19 0.317348 0.000000 0.578201
O O20 0.053191 0.000000 0.272707
#
# Coordination Sequence:
#
# PCOD9131815 Si02
#       8
#     4   4   4   4   4   4   4   4
#     4   9  16  27  43  63  86 115 148 186 231 276
#     4   8  13  24  41  61  84 113 147 183 222 266
#     4   9  18  30  45  66  93 121 151 188 232 273
#     4   9  17  30  46  67  93 122 154 188 226 271
#     4   7  11  21  40  61  80 105 141 180 217 255
#     4   9  18  30  46  68  94 123 156 188 223 268
#     4  10  19  30  45  68  93 120 154 192 230 270
#     4   9  15  24  40  64  89 113 145 189 229 263
#
# _framework density 25.382769
#
# number of rings (size 3 to 8) (size 9 to 14) (size 15 to 20)
#    0.000    3.250    0.000    2.625    0.000    2.000 
#    0.000    0.000    0.000    1.500    0.000    1.750 
#    0.000    0.000    0.000    0.000    0.000    0.000 
#
# Total GULP energy -89136.122045 kJ/mol
# GULP energy per Si atom -5571.007628 kJ/mol
# Density = 2.532500 g / cm^3
# Si number density = 25.382769 Si / 1000 Ang^3
#
#
#
# Elastic Constant Matrix: (Units=GPa)
#
#
# Indices 1 2 3 4 5 6 
#
# 1 189.1251 10.7786 76.1571 0.0000 97.3687 0.0000
# 2 10.7786 88.6043 -0.2678 0.0000 4.7399 0.0000
# 3 76.1571 -0.2678 91.3270 0.0000 42.7095 0.0000
# 4 0.0000 0.0000 0.0000 15.5840 0.0000 22.4983
# 5 97.3687 4.7399 42.7095 0.0000 83.5427 0.0000
# 6 0.0000 0.0000 0.0000 22.4983 0.0000 41.8641
#
#
#
# Elastic Compliance Matrix: (Units=1/GPa)
#
#
# Indices 1 2 3 4 5 6 
#
# 1 0.015342 -0.001091 -0.005866 0.000000 -0.014820 0.000000
# 2 -0.001091 0.011411 0.000856 0.000000 0.000187 0.000000
# 3 -0.005866 0.000856 0.016650 0.000000 -0.001724 0.000000
# 4 0.000000 0.000000 0.000000 0.286274 0.000000 -0.153847
# 5 -0.014820 0.000187 -0.001724 0.000000 0.030113 0.000000
# 6 0.000000 0.000000 0.000000 -0.153847 0.000000 0.106566
#
#
# Mechanical properties :
#
#
# Convention : Reuss Voigt Hill
#
# Bulk Modulus (GPa) = 32.05040 60.26581 46.15810
# Shear Modulus (GPa) = 10.22583 47.02407 28.62495
#
# Velocity S-wave (km/s) = 2.00933 4.30885 3.36181
# Velocity P-wave (km/s) = 4.24705 6.96773 5.77004
#
# Compressibility (1/GPa) = 0.03120086
#
# Stress axis : x y z
#
# Youngs Moduli (GPa) = 65.18237 87.63108 60.06058
#
# Poissons Ratio (x) = 0.09562 0.35231
# Poissons Ratio (y) = 0.07113 -0.05142
# Poissons Ratio (z) = 0.38235 -0.07502
#
# Static dielectric constant tensor:
#      x y z
#    x 2.177760 0.000000 0.080400 
#    y 0.000000 1.952860 0.000000 
#    z 0.080400 0.000000 2.057390 
# 
# From -- ./inp_files/23748.got.cif
#   From: 2010.05.17/outbox.cif.g08.bks.cpg/sg8_12_cif.got.tgz:23748.got - 2010.06.03 19:46:02.
