data_PCOD9131191
_publ_section_title
;
Structure prediction by ZEFSAII (Michael W. Deem and Ramdas Pophale) SiO2 
 PCOD9131191
Probable space group: P M
;
_chemical_formula_sum "Si O2"
_cell_formula_units_Z 16
_cell_length_a 12.000000
_cell_length_b 9.000000
_cell_length_c 12.000000
_cell_angle_alpha 90.000000
_cell_angle_beta 40.000000
_cell_angle_gamma 90.000000
_cell_volume 833.052742
_symmetry_space_group_name_H-M "P M"
_symmetry_group_IT_number 6
_symmetry_cell_setting 'monoclinic'
loop_
_space_group_symop_operation_xyz
x,y,z
x,-y,z
loop_
_atom_site_type_symbol
_atom_site_label
_atom_site_fract_x
_atom_site_fract_y
_atom_site_fract_z
Si Si1 0.648200 0.678292 0.461350
Si Si2 0.309937 0.821273 0.785763
Si Si3 0.397191 0.820712 0.207295
Si Si4 0.902141 0.821709 0.431483
Si Si5 0.046027 0.320785 0.546465
Si Si6 0.274864 0.821779 0.058066
Si Si7 0.765468 0.328897 0.948925
Si Si8 0.938664 0.328557 0.057383
O O1 0.637210 0.500000 0.475081
O O2 0.456600 0.747070 0.596743
O O3 0.735432 0.747858 0.504659
O O4 0.786487 0.718921 0.258970
O O5 0.320626 0.000000 0.770093
O O6 0.347182 0.770001 0.885068
O O7 0.112906 0.768297 0.918537
O O8 0.240308 0.748425 0.399078
O O9 0.360833 0.770701 0.106883
O O10 0.382551 0.000000 0.224962
O O11 0.590848 0.767626 0.084891
O O12 0.954313 0.748761 0.508092
O O13 0.069760 0.790617 0.224885
O O14 0.883036 0.000000 0.456568
O O15 0.059680 0.500000 0.528552
O O16 0.916613 0.282801 0.746899
O O17 0.292279 0.000000 0.044544
O O18 0.716828 0.500000 0.958372
O O19 0.851646 0.327561 0.003513
O O20 0.986739 0.500000 0.049237
#
# Coordination Sequence:
#
# PCOD9131191 Si02
#       8
#     2   2   2   2   2   2   2   2
#     4  11  23  38  59  89 120 156 200 243 296 357
#     4  11  22  38  61  89 120 156 199 245 298 353
#     4  10  21  38  60  89 122 157 198 243 296 352
#     4  10  19  36  60  87 123 157 192 242 300 354
#     4  10  21  38  60  89 121 155 198 244 296 355
#     4   8  17  34  56  84 118 153 187 234 293 347
#     4  10  23  42  63  86 117 161 204 245 294 350
#     4  10  23  44  63  83 119 161 202 248 295 348
#
# _framework density 19.206467
#
# number of rings (size 3 to 8) (size 9 to 14) (size 15 to 20)
#    0.000    2.000    1.250    2.625    1.750    3.000 
#    0.000    6.250    0.000    0.000    0.000    0.000 
#    0.000    0.000    0.000    0.000    0.000    0.000 
#
# Total GULP energy -89264.926356 kJ/mol
# GULP energy per Si atom -5579.057897 kJ/mol
# Density = 1.916275 g / cm^3
# Si number density = 19.206467 Si / 1000 Ang^3
#
#
#
# Elastic Constant Matrix: (Units=GPa)
#
#
# Indices 1 2 3 4 5 6 
#
# 1 57.0065 30.5045 58.2217 0.0000 -15.6269 0.0000
# 2 30.5045 82.5372 62.9575 0.0000 -17.3008 0.0000
# 3 58.2217 62.9575 153.1390 0.0000 -20.8101 0.0000
# 4 0.0000 0.0000 0.0000 26.8374 0.0000 -6.2350
# 5 -15.6269 -17.3008 -20.8101 0.0000 27.6379 0.0000
# 6 0.0000 0.0000 0.0000 -6.2350 0.0000 22.4125
#
#
#
# Elastic Compliance Matrix: (Units=1/GPa)
#
#
# Indices 1 2 3 4 5 6 
#
# 1 0.031060 -0.002232 -0.009686 0.000000 0.008872 0.000000
# 2 -0.002232 0.018827 -0.006084 0.000000 0.005942 0.000000
# 3 -0.009686 -0.006084 0.012757 0.000000 0.000321 0.000000
# 4 0.000000 0.000000 0.000000 0.039836 0.000000 0.011082
# 5 0.008872 0.005942 0.000321 0.000000 0.045160 0.000000
# 6 0.000000 0.000000 0.000000 0.011082 0.000000 0.047701
#
#
# Mechanical properties :
#
#
# Convention : Reuss Voigt Hill
#
# Bulk Modulus (GPa) = 37.53523 66.22778 51.88150
# Shear Modulus (GPa) = 20.81388 24.77752 22.79570
#
# Velocity S-wave (km/s) = 3.29552 3.59564 3.44884
# Velocity P-wave (km/s) = 5.83661 7.19688 6.55214
#
# Compressibility (1/GPa) = 0.02664164
#
# Stress axis : x y z
#
# Youngs Moduli (GPa) = 32.19550 53.11553 78.38723
#
# Poissons Ratio (x) = 0.11854 0.75923
# Poissons Ratio (y) = 0.07185 0.47691
# Poissons Ratio (z) = 0.31183 0.32315
#
# Static dielectric constant tensor:
#      x y z
#    x 1.673720 0.000000 0.017710 
#    y 0.000000 1.650900 0.000000 
#    z 0.017710 0.000000 1.685710 
# 
# From -- ./inp_files/5029.got.cif
#   From: 2010.05.17/outbox.ucp.g08.bks.cvg/sg6_3_cif.got.tgz:5029.got - 2010.06.11 12:59:37.
