data_PCOD9131748
_publ_section_title
;
Structure prediction by ZEFSAII (Michael W. Deem and Ramdas Pophale) SiO2 
 PCOD9131748
Probable space group: C M
;
_chemical_formula_sum "Si O2"
_cell_formula_units_Z 26
_cell_length_a 13.927893
_cell_length_b 7.762069
_cell_length_c 9.402545
_cell_angle_alpha 90.000000
_cell_angle_beta 107.756708
_cell_angle_gamma 90.000000
_cell_volume 968.076179
_symmetry_space_group_name_H-M "C M"
_symmetry_group_IT_number 8
_symmetry_cell_setting 'monoclinic'
loop_
_space_group_symop_operation_xyz
x,y,z
x,-y,z
1/2+x,1/2+y,z
1/2+x,1/2-y,z
loop_
_atom_site_type_symbol
_atom_site_label
_atom_site_fract_x
_atom_site_fract_y
_atom_site_fract_z
Si Si1 0.073220 0.803253 0.260860
Si Si2 0.782567 0.308217 0.057419
Si Si3 0.576282 0.186034 0.950538
Si Si4 0.651907 0.702071 0.585897
Si Si5 0.486913 0.000000 0.571914
Si Si6 0.861596 0.804846 0.807871
Si Si7 0.374671 0.696225 0.373032
O O1 0.062659 0.695946 0.114147
O O2 0.154155 0.755615 0.417749
O O3 0.971030 0.796485 0.307613
O O4 0.090556 0.000000 0.222509
O O5 0.825347 0.500000 0.076488
O O6 0.842453 0.198847 0.969225
O O7 0.666311 0.312982 0.955693
O O8 0.787042 0.237544 0.219287
O O9 0.616478 0.000000 0.929590
O O10 0.467235 0.209581 0.832610
O O11 0.618680 0.500000 0.584405
O O12 0.576194 0.845219 0.615078
O O13 0.763064 0.719760 0.698533
O O14 0.401534 0.846798 0.494792
O O15 0.871959 0.000000 0.764827
O O16 0.366017 0.500000 0.422532
#
# Coordination Sequence:
#
# PCOD9131748 Si02
#       7
#     4   4   4   4   2   4   4
#     4   9  19  36  61  92 124 162 207 261 319 377
#     4  12  24  41  64  96 134 169 220 273 330 386
#     4  12  25  39  65  97 129 172 218 271 328 389
#     4  10  21  37  62  95 128 171 219 264 322 392
#     4  10  18  34  60  92 120 168 210 264 314 384
#     4  12  24  42  66  94 131 174 220 269 329 393
#     4  10  19  34  60  94 127 160 208 266 319 379
#
# _framework density 26.857391
#
# number of rings (size 3 to 8) (size 9 to 14) (size 15 to 20)
#    0.000    1.231    3.077    5.538    4.308    0.000 
#    0.000    0.000    6.769    0.000    0.000    0.000 
#    0.000    0.000    0.000    0.000    0.000    0.000 
#
# Total GULP energy -72597.925510 kJ/mol
# GULP energy per Si atom -5584.455808 kJ/mol
# Density = 2.679626 g / cm^3
# Si number density = 26.857391 Si / 1000 Ang^3
#
#
#
# Elastic Constant Matrix: (Units=GPa)
#
#
# Indices 1 2 3 4 5 6 
#
# 1 79.5140 9.6060 37.4217 0.0000 13.1850 0.0000
# 2 9.6060 186.8395 26.4734 0.0000 6.7604 0.0000
# 3 37.4217 26.4734 151.2029 0.0000 18.3422 0.0000
# 4 0.0000 0.0000 0.0000 27.4199 0.0000 21.4601
# 5 13.1850 6.7604 18.3422 0.0000 59.8671 0.0000
# 6 0.0000 0.0000 0.0000 21.4601 0.0000 13.4324
#
#
#
# Elastic Compliance Matrix: (Units=1/GPa)
#
#
# Indices 1 2 3 4 5 6 
#
# 1 0.014509 -0.000201 -0.003293 0.000000 -0.002164 0.000000
# 2 -0.000201 0.005498 -0.000875 0.000000 -0.000308 0.000000
# 3 -0.003293 -0.000875 0.007771 0.000000 -0.001557 0.000000
# 4 0.000000 0.000000 0.000000 -0.145655 0.000000 0.232705
# 5 -0.002164 -0.000308 -0.001557 0.000000 0.017692 0.000000
# 6 0.000000 0.000000 0.000000 0.232705 0.000000 -0.297331
#
#
# Mechanical properties :
#
#
# Convention : Reuss Voigt Hill
#
# Bulk Modulus (GPa) = 52.52531 62.72872 57.62702
# Shear Modulus (GPa) = -13.07427 43.08090 15.00332
#
# Velocity S-wave (km/s) = -2.20876 4.00942 2.36610
# Velocity P-wave (km/s) = 3.61867 6.69633 5.38217
#
# Compressibility (1/GPa) = 0.01903844
#
# Stress axis : x y z
#
# Youngs Moduli (GPa) = 68.92073 181.89366 128.68676
#
# Poissons Ratio (x) = 0.03657 0.42380
# Poissons Ratio (y) = 0.01386 0.11265
# Poissons Ratio (z) = 0.22698 0.15923
#
# Static dielectric constant tensor:
#      x y z
#    x 2.149110 0.000000 0.003800 
#    y 0.000000 1.966700 0.000000 
#    z 0.003800 0.000000 2.211120 
# 
# From -- ./inp_files/21442.got.cif
#   From: 2010.05.17/outbox.cif.g08.bks.cpg/sg8_11_cif.got.tgz:21442.got - 2010.06.03 19:46:02.
