data_PCOD9131199
_publ_section_title
;
Structure prediction by ZEFSAII (Michael W. Deem and Ramdas Pophale) SiO2 
 PCOD9131199
Probable space group: P M
;
_chemical_formula_sum "Si O2"
_cell_formula_units_Z 16
_cell_length_a 9.000000
_cell_length_b 9.000000
_cell_length_c 12.000000
_cell_angle_alpha 90.000000
_cell_angle_beta 60.000000
_cell_angle_gamma 90.000000
_cell_volume 841.776692
_symmetry_space_group_name_H-M "P M"
_symmetry_group_IT_number 6
_symmetry_cell_setting 'monoclinic'
loop_
_space_group_symop_operation_xyz
x,y,z
x,-y,z
loop_
_atom_site_type_symbol
_atom_site_label
_atom_site_fract_x
_atom_site_fract_y
_atom_site_fract_z
Si Si1 0.860930 0.672827 0.661040
Si Si2 0.890309 0.322412 0.904566
Si Si3 0.251911 0.171576 0.150818
Si Si4 0.599112 0.172258 0.160939
Si Si5 0.488770 0.331372 0.682206
Si Si6 0.625038 0.323875 0.387400
Si Si7 0.962810 0.677760 0.390391
Si Si8 0.203356 0.827873 0.909424
O O1 0.914329 0.500000 0.652432
O O2 0.875027 0.734137 0.781302
O O3 0.669680 0.673764 0.680233
O O4 0.963959 0.738945 0.516749
O O5 0.877542 0.500000 0.906548
O O6 0.062951 0.271039 0.900310
O O7 0.743783 0.258938 0.039170
O O8 0.435206 0.178912 0.141346
O O9 0.132976 0.281072 0.263723
O O10 0.191564 0.000000 0.183792
O O11 0.241605 0.210055 0.024035
O O12 0.573231 0.241109 0.293911
O O13 0.647897 0.000000 0.156734
O O14 0.420845 0.500000 0.725566
O O15 0.508265 0.310819 0.541967
O O16 0.374583 0.204544 0.777129
O O17 0.638119 0.500000 0.356832
O O18 0.807343 0.269063 0.369338
O O19 0.937885 0.500000 0.408899
O O20 0.151926 0.000000 0.924028
#
# Coordination Sequence:
#
# PCOD9131199 Si02
#       8
#     2   2   2   2   2   2   2   2
#     4   8  17  35  58  83 109 138 175 222 270 315
#     4  11  22  37  58  82 108 140 181 225 271 322
#     4  10  23  39  53  75 109 146 181 220 267 320
#     4  11  23  38  55  78 110 144 181 225 271 320
#     4   9  18  36  60  83 109 141 180 223 266 317
#     4   9  19  36  58  84 111 141 179 222 268 319
#     4   9  18  35  59  83 107 138 178 221 265 317
#     4  11  23  38  55  78 111 146 181 222 270 322
#
# _framework density 19.007415999999999
#
# number of rings (size 3 to 8) (size 9 to 14) (size 15 to 20)
#    0.000    2.250    0.000    4.125    0.000    6.000 
#    0.000    7.500    0.000    0.000    0.000    0.000 
#    0.000    0.000    0.000    0.000    0.000    0.000 
#
# Total GULP energy -89143.515995 kJ/mol
# GULP energy per Si atom -5571.469750 kJ/mol
# Density = 1.896415 g / cm^3
# Si number density = 19.007416 Si / 1000 Ang^3
#
#
#
# Elastic Constant Matrix: (Units=GPa)
#
#
# Indices 1 2 3 4 5 6 
#
# 1 56.5700 30.7582 51.2909 0.0000 33.6688 0.0000
# 2 30.7582 40.6359 40.6680 0.0000 13.2620 0.0000
# 3 51.2909 40.6680 103.2981 0.0000 36.0421 0.0000
# 4 0.0000 0.0000 0.0000 41.9458 0.0000 -4.0344
# 5 33.6688 13.2620 36.0421 0.0000 39.9636 0.0000
# 6 0.0000 0.0000 0.0000 -4.0344 0.0000 29.8777
#
#
#
# Elastic Compliance Matrix: (Units=1/GPa)
#
#
# Indices 1 2 3 4 5 6 
#
# 1 0.058790 -0.026533 -0.006619 0.000000 -0.034756 0.000000
# 2 -0.026533 0.052635 -0.013501 0.000000 0.017063 0.000000
# 3 -0.006619 -0.013501 0.021557 0.000000 -0.009385 0.000000
# 4 0.000000 0.000000 0.000000 0.024154 0.000000 0.003262
# 5 -0.034756 0.017063 -0.009385 0.000000 0.057106 0.000000
# 6 0.000000 0.000000 0.000000 0.003262 0.000000 0.033910
#
#
# Mechanical properties :
#
#
# Convention : Reuss Voigt Hill
#
# Bulk Modulus (GPa) = 25.20341 49.54870 37.37605
# Shear Modulus (GPa) = 14.09704 27.54323 20.82014
#
# Velocity S-wave (km/s) = 2.72630 3.81081 3.31323
# Velocity P-wave (km/s) = 4.81652 6.74445 5.86031
#
# Compressibility (1/GPa) = 0.03967718
#
# Stress axis : x y z
#
# Youngs Moduli (GPa) = 17.00961 18.99861 46.38824
#
# Poissons Ratio (x) = 0.50408 0.30703
# Poissons Ratio (y) = 0.45131 0.62631
# Poissons Ratio (z) = 0.11258 0.25651
#
# Static dielectric constant tensor:
#      x y z
#    x 1.694900 0.000000 -0.034700 
#    y 0.000000 1.643200 0.000000 
#    z -0.034700 0.000000 1.669180 
# 
# From -- ./inp_files/3661.got.cif
#   From: 2010.05.17/outbox.ucp.g08.bks.cvg/sg6_2_cif.got.tgz:3661.got - 2010.06.11 12:59:37.
