data_PCOD9131774
_publ_section_title
;
Structure prediction by ZEFSAII (Michael W. Deem and Ramdas Pophale) SiO2 
 PCOD9131774
Probable space group: C M
;
_chemical_formula_sum "Si O2"
_cell_formula_units_Z 28
_cell_length_a 13.604209
_cell_length_b 13.471932
_cell_length_c 9.534337
_cell_angle_alpha 90.000000
_cell_angle_beta 139.379167
_cell_angle_gamma 90.000000
_cell_volume 1137.648726
_symmetry_space_group_name_H-M "C M"
_symmetry_group_IT_number 8
_symmetry_cell_setting 'monoclinic'
loop_
_space_group_symop_operation_xyz
x,y,z
x,-y,z
1/2+x,1/2+y,z
1/2+x,1/2-y,z
loop_
_atom_site_type_symbol
_atom_site_label
_atom_site_fract_x
_atom_site_fract_y
_atom_site_fract_z
Si Si1 0.533760 0.685176 0.655940
Si Si2 0.217082 0.385248 0.801219
Si Si3 0.995279 0.609733 0.908578
Si Si4 0.392128 0.307398 0.236183
Si Si5 0.679782 0.386773 0.408026
Si Si6 0.520645 0.327310 0.959917
Si Si7 0.835442 0.605048 0.026903
O O1 0.588211 0.800139 0.681339
O O2 0.397604 0.668368 0.404217
O O3 0.503109 0.644668 0.778748
O O4 0.679334 0.620156 0.775199
O O5 0.176292 0.500000 0.720843
O O6 0.354321 0.343868 0.850384
O O7 0.296781 0.382177 0.039048
O O8 0.051987 0.500000 0.933216
O O9 0.849467 0.627735 0.648203
O O10 0.076671 0.714505 0.994997
O O11 0.952373 0.606449 0.026928
O O12 0.563974 0.316245 0.363651
O O13 0.346513 0.196478 0.143124
O O14 0.641048 0.500000 0.401662
O O15 0.638638 0.373713 0.198365
O O16 0.841374 0.500000 0.108063
#
# Coordination Sequence:
#
# PCOD9131774 Si02
#       7
#     4   4   4   4   4   4   4
#     4  11  23  37  61  87 117 154 195 243 291 343
#     4  10  22  42  60  83 120 157 194 239 293 353
#     4  10  19  35  59  84 111 148 192 238 284 339
#     4  10  18  36  58  85 112 156 193 235 290 346
#     4  10  19  35  60  84 113 155 194 233 288 349
#     4  11  21  38  60  87 118 153 196 241 290 346
#     4  10  20  35  56  86 115 143 190 243 284 336
#
# _framework density 24.612168
#
# number of rings (size 3 to 8) (size 9 to 14) (size 15 to 20)
#    0.000    1.714    5.714    1.714    0.000    5.143 
#    0.000    1.429    0.000    0.857    0.000    0.000 
#    0.000    0.000    0.000    0.000    0.000    0.000 
#
# Total GULP energy -78100.825771 kJ/mol
# GULP energy per Si atom -5578.630412 kJ/mol
# Density = 2.455615 g / cm^3
# Si number density = 24.612168 Si / 1000 Ang^3
#
#
#
# Elastic Constant Matrix: (Units=GPa)
#
#
# Indices 1 2 3 4 5 6 
#
# 1 77.0504 13.6772 12.3558 0.0000 -17.4274 0.0000
# 2 13.6772 124.5577 5.6093 0.0000 0.5667 0.0000
# 3 12.3558 5.6093 105.0171 0.0000 -30.8566 0.0000
# 4 0.0000 0.0000 0.0000 19.1208 0.0000 -6.0161
# 5 -17.4274 0.5667 -30.8566 0.0000 30.8364 0.0000
# 6 0.0000 0.0000 0.0000 -6.0161 0.0000 15.7632
#
#
#
# Elastic Compliance Matrix: (Units=1/GPa)
#
#
# Indices 1 2 3 4 5 6 
#
# 1 0.015343 -0.001784 0.001201 0.000000 0.009905 0.000000
# 2 -0.001784 0.008270 -0.000811 0.000000 -0.001972 0.000000
# 3 0.001201 -0.000811 0.013638 0.000000 0.014340 0.000000
# 4 0.000000 0.000000 0.000000 0.059437 0.000000 0.022684
# 5 0.009905 -0.001972 0.014340 0.000000 0.052413 0.000000
# 6 0.000000 0.000000 0.000000 0.022684 0.000000 0.072097
#
#
# Mechanical properties :
#
#
# Convention : Reuss Voigt Hill
#
# Bulk Modulus (GPa) = 29.01790 41.10107 35.05948
# Shear Modulus (GPa) = 21.23384 31.47628 26.35506
#
# Velocity S-wave (km/s) = 2.94043 3.58004 3.27588
# Velocity P-wave (km/s) = 4.83154 5.81590 5.34642
#
# Compressibility (1/GPa) = 0.03446149
#
# Stress axis : x y z
#
# Youngs Moduli (GPa) = 65.17611 120.92204 73.32545
#
# Poissons Ratio (x) = 0.21571 -0.08803
# Poissons Ratio (y) = 0.11627 0.05948
# Poissons Ratio (z) = -0.07825 0.09809
#
# Static dielectric constant tensor:
#      x y z
#    x 2.094520 0.000000 0.031290 
#    y 0.000000 1.963810 0.000000 
#    z 0.031290 0.000000 1.981580 
# 
# From -- ./inp_files/13314.got.cif
#   From: 2010.05.17/outbox.cif.g08.bks.cpg/sg8_7_cif.got.tgz:13314.got - 2010.06.03 19:46:02.
