data_PCOD9131979
_publ_section_title
;
Structure prediction by ZEFSAII (Michael W. Deem and Ramdas Pophale) SiO2 
 PCOD9131979
Probable space group: C M
;
_chemical_formula_sum "Si O2"
_cell_formula_units_Z 32
_cell_length_a 14.641165
_cell_length_b 8.654047
_cell_length_c 29.395250
_cell_angle_alpha 90.000000
_cell_angle_beta 152.412177
_cell_angle_gamma 90.000000
_cell_volume 1724.860698
_symmetry_space_group_name_H-M "C M"
_symmetry_group_IT_number 8
_symmetry_cell_setting 'monoclinic'
loop_
_space_group_symop_operation_xyz
x,y,z
x,-y,z
1/2+x,1/2+y,z
1/2+x,1/2-y,z
loop_
_atom_site_type_symbol
_atom_site_label
_atom_site_fract_x
_atom_site_fract_y
_atom_site_fract_z
Si Si1 0.016700 0.179988 0.855040
Si Si2 0.565757 0.819883 0.782204
Si Si3 0.255589 0.187334 0.277975
Si Si4 0.802155 0.814619 0.588083
Si Si5 0.362394 0.186923 0.424579
Si Si6 0.840989 0.816315 0.052771
Si Si7 0.436608 0.821338 0.911046
Si Si8 0.179251 0.186070 0.438843
O O1 0.980005 0.230089 0.787660
O O2 0.901560 0.278516 0.842313
O O3 0.978877 0.000000 0.845201
O O4 0.243978 0.221347 0.968718
O O5 0.467239 0.758395 0.692725
O O6 0.797945 0.783529 0.880106
O O7 0.531684 0.000000 0.772981
O O8 0.250384 0.234315 0.328904
O O9 0.453718 0.257630 0.344351
O O10 0.055705 0.230983 0.163863
O O11 0.271554 0.000000 0.283657
O O12 0.590465 0.771469 0.517036
O O13 0.794898 0.752516 0.533501
O O14 0.818722 0.000000 0.594998
O O15 0.271860 0.241382 0.432030
O O16 0.355082 0.000000 0.422749
O O17 0.840742 0.000000 0.041576
O O18 0.673018 0.797219 0.017968
O O19 0.390184 0.000000 0.899110
O O20 0.185278 0.000000 0.443188
#
# Coordination Sequence:
#
# PCOD9131979 Si02
#       8
#     4   4   4   4   4   4   4   4
#     4  10  20  36  56  79 110 147 186 229 276 329
#     4  12  23  37  57  83 112 146 185 232 283 337
#     4   9  17  35  57  78 109 148 181 218 272 329
#     4  10  21  38  57  77 105 144 184 224 277 338
#     4   8  17  34  56  78 105 140 177 216 267 327
#     4   8  17  35  57  78 111 148 185 230 276 325
#     4   9  19  37  56  79 109 146 187 231 275 326
#     4  10  19  34  54  82 111 137 179 232 274 325
#
# _framework density 18.552223999999999
#
# number of rings (size 3 to 8) (size 9 to 14) (size 15 to 20)
#    0.750    1.750    0.000    3.750    0.000    1.500 
#    2.250   10.000    0.000    0.000    0.000    0.000 
#    0.000    0.000    0.000    0.000    0.000    0.000 
#
# Total GULP energy -89131.495586 kJ/mol
# GULP energy per Si atom -5570.718474 kJ/mol
# Density = 1.851000 g / cm^3
# Si number density = 18.552224 Si / 1000 Ang^3
#
#
#
# Elastic Constant Matrix: (Units=GPa)
#
#
# Indices 1 2 3 4 5 6 
#
# 1 77.3799 -2.9161 3.0237 0.0001 -14.7057 0.0000
# 2 -2.9161 43.0645 13.4246 0.0001 -0.2626 0.0000
# 3 3.0237 13.4246 50.2832 0.0002 -4.7288 0.0001
# 4 0.0001 0.0001 0.0002 24.8108 0.0001 0.8061
# 5 -14.7057 -0.2626 -4.7288 0.0001 12.6157 0.0001
# 6 0.0000 0.0000 0.0001 0.8061 0.0001 27.2977
#
#
#
# Elastic Compliance Matrix: (Units=1/GPa)
#
#
# Indices 1 2 3 4 5 6 
#
# 1 0.016681 0.001075 0.000560 0.000000 0.019677 0.000000
# 2 0.001075 0.025451 -0.006936 0.000000 -0.000817 0.000000
# 3 0.000560 -0.006936 0.022548 0.000000 0.008961 0.000000
# 4 0.000000 0.000000 0.000000 0.040344 0.000000 -0.001191
# 5 0.019677 -0.000817 0.008961 0.000000 0.105545 0.000000
# 6 0.000000 0.000000 0.000000 -0.001191 0.000000 0.036668
#
#
# Mechanical properties :
#
#
# Convention : Reuss Voigt Hill
#
# Bulk Modulus (GPa) = 18.49161 21.97688 20.23425
# Shear Modulus (GPa) = 18.12471 23.42453 20.77462
#
# Velocity S-wave (km/s) = 3.12902 3.55720 3.34996
# Velocity P-wave (km/s) = 4.80035 5.36127 5.08854
#
# Compressibility (1/GPa) = 0.05407859
#
# Stress axis : x y z
#
# Youngs Moduli (GPa) = 59.94673 39.29105 44.34936
#
# Poissons Ratio (x) = -0.04223 -0.02486
# Poissons Ratio (y) = -0.06444 0.30763
# Poissons Ratio (z) = -0.03360 0.27254
#
# Static dielectric constant tensor:
#      x y z
#    x 1.642480 0.000000 0.011050 
#    y 0.000000 1.623990 0.000000 
#    z 0.011050 0.000000 1.651150 
# 
# From -- ./inp_files/24829.got.cif
#   From: 2010.05.17/outbox.cif.g08.bks.cpg/sg8_13_cif.got.tgz:24829.got - 2010.06.03 19:46:02.
