data_PCOD9131877
_publ_section_title
;
Structure prediction by ZEFSAII (Michael W. Deem and Ramdas Pophale) SiO2 
 PCOD9131877
Probable space group: C M
;
_chemical_formula_sum "Si O2"
_cell_formula_units_Z 32
_cell_length_a 16.242504
_cell_length_b 8.126233
_cell_length_c 10.900881
_cell_angle_alpha 90.000000
_cell_angle_beta 62.664146
_cell_angle_gamma 90.000000
_cell_volume 1278.139347
_symmetry_space_group_name_H-M "C M"
_symmetry_group_IT_number 8
_symmetry_cell_setting 'monoclinic'
loop_
_space_group_symop_operation_xyz
x,y,z
x,-y,z
1/2+x,1/2+y,z
1/2+x,1/2-y,z
loop_
_atom_site_type_symbol
_atom_site_label
_atom_site_fract_x
_atom_site_fract_y
_atom_site_fract_z
Si Si1 0.982280 0.800515 0.781920
Si Si2 0.856122 0.808836 0.365190
Si Si3 0.211340 0.799118 0.875351
Si Si4 0.691740 0.696272 0.622499
Si Si5 0.962170 0.311213 0.528147
Si Si6 0.316706 0.692370 0.045051
Si Si7 0.139933 0.813147 0.295990
Si Si8 0.527874 0.691845 0.113379
O O1 0.087486 0.738788 0.700583
O O2 0.940783 0.746936 0.679523
O O3 0.982686 0.000000 0.787291
O O4 0.919511 0.743908 0.939943
O O5 0.755629 0.738893 0.464086
O O6 0.927637 0.734836 0.216025
O O7 0.912589 0.789987 0.454556
O O8 0.844859 0.000000 0.345618
O O9 0.266482 0.717075 0.947649
O O10 0.103296 0.747778 0.965418
O O11 0.216921 0.000000 0.886540
O O12 0.239147 0.754447 0.718780
O O13 0.684339 0.500000 0.630893
O O14 0.933573 0.500000 0.532088
O O15 0.072949 0.293868 0.427314
O O16 0.322136 0.500000 0.069535
O O17 0.245882 0.768453 0.191953
O O18 0.087561 0.805036 0.199331
O O19 0.134517 0.000000 0.345296
O O20 0.511908 0.500000 0.093526
#
# Coordination Sequence:
#
# PCOD9131877 Si02
#       8
#     4   4   4   4   4   4   4   4
#     4  10  22  38  52  72 109 150 183 222 270 313
#     4  10  19  33  54  79 107 138 171 213 268 322
#     4   9  17  32  54  76  98 131 174 216 262 315
#     4  10  21  36  53  74 104 143 183 222 264 313
#     4  11  21  34  56  83 107 136 180 226 265 317
#     4  10  19  32  53  80 107 137 176 220 264 316
#     4   9  17  32  54  79 108 137 167 214 273 323
#     4   7  13  27  48  73  98 126 162 203 252 309
#
# _framework density 25.036394000000001
#
# number of rings (size 3 to 8) (size 9 to 14) (size 15 to 20)
#    0.000    2.500    0.000    4.500    0.000    4.000 
#    0.000    1.875    0.000    3.000    0.000    0.000 
#    0.000    0.000    0.000    0.000    0.000    0.000 
#
# Total GULP energy -89426.925806 kJ/mol
# GULP energy per Si atom -5589.182863 kJ/mol
# Density = 2.497941 g / cm^3
# Si number density = 25.036394 Si / 1000 Ang^3
#
#
#
# Elastic Constant Matrix: (Units=GPa)
#
#
# Indices 1 2 3 4 5 6 
#
# 1 93.0368 -0.0586 35.3062 0.0000 -13.0704 0.0000
# 2 -0.0586 31.3652 11.6995 0.0000 0.4217 0.0000
# 3 35.3062 11.6995 188.7530 0.0000 -13.3029 0.0000
# 4 0.0000 0.0000 0.0000 29.2904 0.0000 -10.9366
# 5 -13.0704 0.4217 -13.3029 0.0000 57.0056 0.0000
# 6 0.0000 0.0000 0.0000 -10.9366 0.0000 8.7633
#
#
#
# Elastic Compliance Matrix: (Units=1/GPa)
#
#
# Indices 1 2 3 4 5 6 
#
# 1 0.011862 0.000780 -0.002111 0.000000 0.002221 0.000000
# 2 0.000780 0.032718 -0.002215 0.000000 -0.000580 0.000000
# 3 -0.002111 -0.002215 0.005894 0.000000 0.000908 0.000000
# 4 0.000000 0.000000 0.000000 0.063932 0.000000 0.079787
# 5 0.002221 -0.000580 0.000908 0.000000 0.018268 0.000000
# 6 0.000000 0.000000 0.000000 0.079787 0.000000 0.213686
#
#
# Mechanical properties :
#
#
# Convention : Reuss Voigt Hill
#
# Bulk Modulus (GPa) = 23.05083 45.22768 34.13925
# Shear Modulus (GPa) = 13.59023 36.75906 25.17465
#
# Velocity S-wave (km/s) = 2.33238 3.83590 3.17444
# Velocity P-wave (km/s) = 4.05958 6.14189 5.20591
#
# Compressibility (1/GPa) = 0.04338239
#
# Stress axis : x y z
#
# Youngs Moduli (GPa) = 84.30341 30.56441 169.66527
#
# Poissons Ratio (x) = -0.02383 0.35808
# Poissons Ratio (y) = -0.06572 0.37575
# Poissons Ratio (z) = 0.17792 0.06769
#
# Static dielectric constant tensor:
#      x y z
#    x 2.089510 0.000000 -0.049610 
#    y 0.000000 1.867050 0.000000 
#    z -0.049610 0.000000 1.999390 
# 
# From -- ./inp_files/27748.got.cif
#   From: 2010.05.17/outbox.cif.g08.bks.cpg/sg8_14_cif.got.tgz:27748.got - 2010.06.03 19:46:02.
