data_PCOD9131147
_publ_section_title
;
Structure prediction by ZEFSAII (Michael W. Deem and Ramdas Pophale) SiO2 
 PCOD9131147
Probable space group: P M
;
_chemical_formula_sum "Si O2"
_cell_formula_units_Z 16
_cell_length_a 19.693873
_cell_length_b 8.751299
_cell_length_c 7.881605
_cell_angle_alpha 90.000000
_cell_angle_beta 142.255749
_cell_angle_gamma 90.000000
_cell_volume 831.510272
_symmetry_space_group_name_H-M "P M"
_symmetry_group_IT_number 6
_symmetry_cell_setting 'monoclinic'
loop_
_space_group_symop_operation_xyz
x,y,z
x,-y,z
loop_
_atom_site_type_symbol
_atom_site_label
_atom_site_fract_x
_atom_site_fract_y
_atom_site_fract_z
Si Si1 0.650610 0.683218 0.160710
Si Si2 0.255787 0.817284 0.672396
Si Si3 0.780832 0.317448 0.760199
Si Si4 0.018163 0.317496 0.709998
Si Si5 0.006569 0.182910 0.066331
Si Si6 0.792027 0.181211 0.134579
Si Si7 0.249713 0.182953 0.044236
Si Si8 0.390528 0.318122 0.626577
O O1 0.664903 0.500000 0.165813
O O2 0.704260 0.722793 0.448069
O O3 0.715910 0.767409 0.140557
O O4 0.520489 0.718396 0.898188
O O5 0.125432 0.784018 0.385694
O O6 0.326625 0.733580 0.669539
O O7 0.269781 0.000000 0.677790
O O8 0.286083 0.776559 0.925108
O O9 0.780169 0.500000 0.779096
O O10 0.744010 0.239071 0.861398
O O11 0.904439 0.260512 0.960069
O O12 0.016919 0.500000 0.719679
O O13 0.911657 0.259485 0.396980
O O14 0.010040 0.245653 0.881761
O O15 0.131837 0.260029 0.851736
O O16 0.990787 0.000000 0.033355
O O17 0.805726 0.000000 0.160253
O O18 0.335013 0.236346 0.356076
O O19 0.235535 0.000000 0.024071
O O20 0.378294 0.500000 0.581627
#
# Coordination Sequence:
#
# PCOD9131147 Si02
#       8
#     2   2   2   2   2   2   2   2
#     4  10  24  45  65  89 123 165 214 263 312 371
#     4  10  23  41  63  90 126 165 203 254 312 371
#     4  11  23  41  66  93 127 167 209 260 312 374
#     4  12  23  38  63  95 129 166 206 253 313 381
#     4  11  21  37  63  95 129 164 203 253 314 378
#     4  12  25  41  65  95 128 165 207 260 316 377
#     4  11  23  41  64  94 129 165 208 257 311 373
#     4  11  24  42  65  91 123 165 212 262 314 371
#
# _framework density 19.242094999999999
#
# number of rings (size 3 to 8) (size 9 to 14) (size 15 to 20)
#    0.000    1.000    2.500    4.500    0.000    5.000 
#    0.000    3.750    0.000    0.000    0.000    0.000 
#    0.000    0.000    0.000    0.000    0.000    0.000 
#
# Total GULP energy -89524.577565 kJ/mol
# GULP energy per Si atom -5595.286098 kJ/mol
# Density = 1.919830 g / cm^3
# Si number density = 19.242095 Si / 1000 Ang^3
#
#
#
# Elastic Constant Matrix: (Units=GPa)
#
#
# Indices 1 2 3 4 5 6 
#
# 1 55.8960 15.8447 65.4205 0.0000 -34.5212 0.0000
# 2 15.8447 37.1130 39.0749 0.0000 -4.3253 0.0000
# 3 65.4205 39.0749 93.6438 0.0000 -1.8068 0.0000
# 4 0.0000 0.0000 0.0000 22.0689 0.0000 -1.5618
# 5 -34.5212 -4.3253 -1.8068 0.0000 30.3881 0.0000
# 6 0.0000 0.0000 0.0000 -1.5618 0.0000 28.9784
#
#
#
# Elastic Compliance Matrix: (Units=1/GPa)
#
#
# Indices 1 2 3 4 5 6 
#
# 1 -0.026433 -0.019922 0.026175 0.000000 -0.031307 0.000000
# 2 -0.019922 0.034033 -0.000627 0.000000 -0.017825 0.000000
# 3 0.026175 -0.000627 -0.006782 0.000000 0.029243 0.000000
# 4 0.000000 0.000000 0.000000 0.045486 0.000000 0.002452
# 5 -0.031307 -0.017825 0.029243 0.000000 -0.003456 0.000000
# 6 0.000000 0.000000 0.000000 0.002452 0.000000 0.034641
#
#
# Mechanical properties :
#
#
# Convention : Reuss Voigt Hill
#
# Bulk Modulus (GPa) = 82.84857 47.48144 65.16500
# Shear Modulus (GPa) = 71.16301 20.70794 45.93548
#
# Velocity S-wave (km/s) = 6.08796 3.28408 4.89124
# Velocity P-wave (km/s) = 9.62118 6.25377 8.11408
#
# Compressibility (1/GPa) = 0.01207021
#
# Stress axis : x y z
#
# Youngs Moduli (GPa) = -37.83205 29.38336 -147.45773
#
# Poissons Ratio (x) = 0.58539 3.85972
# Poissons Ratio (y) = -0.75371 -0.09244
# Poissons Ratio (z) = 0.99026 0.01842
#
# Static dielectric constant tensor:
#      x y z
#    x 1.648070 0.000000 -0.015560 
#    y 0.000000 1.641400 0.000000 
#    z -0.015560 0.000000 1.659250 
# 
# From -- ./inp_files/4293.got.cif
#   From: 2010.05.17/outbox.cif.g08.bks.cpg/sg6_3_cif.got.tgz:4293.got - 2010.06.03 19:42:10.
