data_PCOD9131520
_publ_section_title
;
Structure prediction by ZEFSAII (Michael W. Deem and Ramdas Pophale) SiO2 
 PCOD9131520
Probable space group: C M
;
_chemical_formula_sum "Si O2"
_cell_formula_units_Z 32
_cell_length_a 23.731627
_cell_length_b 8.671476
_cell_length_c 11.568930
_cell_angle_alpha 90.000000
_cell_angle_beta 143.432318
_cell_angle_gamma 90.000000
_cell_volume 1418.383867
_symmetry_space_group_name_H-M "C M"
_symmetry_group_IT_number 8
_symmetry_cell_setting 'monoclinic'
loop_
_space_group_symop_operation_xyz
x,y,z
x,-y,z
1/2+x,1/2+y,z
1/2+x,1/2-y,z
loop_
_atom_site_type_symbol
_atom_site_label
_atom_site_fract_x
_atom_site_fract_y
_atom_site_fract_z
Si Si1 0.269180 0.182241 0.861340
Si Si2 0.410619 0.327858 0.416601
Si Si3 0.546891 0.185173 0.185875
Si Si4 0.971174 0.813899 0.279488
Si Si5 0.388572 0.171596 0.621974
Si Si6 0.345631 0.680455 0.774326
Si Si7 0.109424 0.676716 0.051315
Si Si8 0.199831 0.674835 0.970461
O O1 0.265241 0.263850 0.730061
O O2 0.199773 0.238900 0.848342
O O3 0.262447 0.000000 0.836482
O O4 0.374166 0.230691 0.079620
O O5 0.438755 0.500000 0.501668
O O6 0.481198 0.274242 0.431533
O O7 0.393389 0.223933 0.498397
O O8 0.309511 0.338643 0.187106
O O9 0.440666 0.228253 0.967892
O O10 0.613179 0.240528 0.188389
O O11 0.556149 0.000000 0.209379
O O12 0.549658 0.261107 0.316869
O O13 0.960129 0.000000 0.254809
O O14 0.333817 0.282315 0.619986
O O15 0.498300 0.169190 0.840369
O O16 0.349484 0.000000 0.569242
O O17 0.361525 0.500000 0.817233
O O18 0.147477 0.500000 0.118531
O O19 0.153482 0.750266 0.008522
O O20 0.161412 0.500000 0.892942
#
# Coordination Sequence:
#
# PCOD9131520 Si02
#       8
#     4   4   4   4   4   4   4   4
#     4  10  17  26  42  67  94 116 148 192 234 269
#     4   9  18  30  46  68  92 121 155 190 229 273
#     4   9  15  25  43  68  93 116 149 192 233 266
#     4   9  16  27  43  64  90 121 155 188 225 269
#     4  10  19  31  48  70  95 121 152 191 231 270
#     4  10  17  27  44  65  90 120 153 187 227 272
#     4   8  16  30  48  69  92 121 154 189 227 269
#     4   9  17  32  50  67  92 124 158 189 222 272
#
# _framework density 22.560887999999998
#
# number of rings (size 3 to 8) (size 9 to 14) (size 15 to 20)
#    0.000    2.750    0.000    6.375    0.000    2.500 
#    0.000    3.750    0.000    1.500    0.000    7.000 
#    0.000    0.000    0.000    0.000    0.000    0.000 
#
# Total GULP energy -89171.310745 kJ/mol
# GULP energy per Si atom -5573.206922 kJ/mol
# Density = 2.250954 g / cm^3
# Si number density = 22.560888 Si / 1000 Ang^3
#
#
#
# Elastic Constant Matrix: (Units=GPa)
#
#
# Indices 1 2 3 4 5 6 
#
# 1 191.1512 23.7232 23.6849 0.0000 -55.4506 0.0000
# 2 23.7232 43.2968 -3.7502 0.0000 -18.5374 0.0000
# 3 23.6849 -3.7502 28.2894 0.0000 -0.0130 0.0000
# 4 0.0000 0.0000 0.0000 -1.6688 0.0000 2.9493
# 5 -55.4506 -18.5374 -0.0130 0.0000 40.7584 0.0000
# 6 0.0000 0.0000 0.0000 2.9493 0.0000 -2.1466
#
#
#
# Elastic Compliance Matrix: (Units=1/GPa)
#
#
# Indices 1 2 3 4 5 6 
#
# 1 0.010435 -0.000500 -0.008796 0.000000 0.013966 0.000000
# 2 -0.000500 0.029122 0.004285 0.000000 0.012566 0.000000
# 3 -0.008796 0.004285 0.043277 0.000000 -0.010004 0.000000
# 4 0.000000 0.000000 0.000000 0.419540 0.000000 0.576439
# 5 0.013966 0.012566 -0.010004 0.000000 0.049247 0.000000
# 6 0.000000 0.000000 0.000000 0.576439 0.000000 0.326154
#
#
# Mechanical properties :
#
#
# Convention : Reuss Voigt Hill
#
# Bulk Modulus (GPa) = 13.73424 38.89480 26.31452
# Shear Modulus (GPa) = 5.48205 21.99392 13.73799
#
# Velocity S-wave (km/s) = 1.56050 3.12568 2.47033
# Velocity P-wave (km/s) = 3.05741 5.50489 4.45262
#
# Compressibility (1/GPa) = 0.07281072
#
# Stress axis : x y z
#
# Youngs Moduli (GPa) = 95.83317 34.33884 23.10703
#
# Poissons Ratio (x) = 0.01716 0.20325
# Poissons Ratio (y) = 0.04790 -0.09901
# Poissons Ratio (z) = 0.84297 -0.14713
#
# Static dielectric constant tensor:
#      x y z
#    x 1.932030 0.000000 -0.019610 
#    y 0.000000 1.811220 0.000000 
#    z -0.019610 0.000000 1.925080 
# 
# From -- ./inp_files/24261.got.cif
#   From: 2010.05.17/outbox.cif.g08.bks.cpg/sg8_13_cif.got.tgz:24261.got - 2010.06.03 19:46:02.
