data_PCOD9131184
_publ_section_title
;
Structure prediction by ZEFSAII (Michael W. Deem and Ramdas Pophale) SiO2 
 PCOD9131184
Probable space group: P M
;
_chemical_formula_sum "Si O2"
_cell_formula_units_Z 11
_cell_length_a 4.897084
_cell_length_b 15.002610
_cell_length_c 5.954053
_cell_angle_alpha 90.000000
_cell_angle_beta 92.488019
_cell_angle_gamma 90.000000
_cell_volume 437.026202
_symmetry_space_group_name_H-M "P M"
_symmetry_group_IT_number 6
_symmetry_cell_setting 'monoclinic'
loop_
_space_group_symop_operation_xyz
x,y,z
x,-y,z
loop_
_atom_site_type_symbol
_atom_site_label
_atom_site_fract_x
_atom_site_fract_y
_atom_site_fract_z
Si Si1 0.665120 0.810100 0.628330
Si Si2 0.153994 0.190265 0.344914
Si Si3 0.142354 0.000000 0.132971
Si Si4 0.464265 0.500000 0.509298
Si Si5 0.630330 0.000000 0.845039
Si Si6 0.796069 0.629075 0.847880
Si Si7 0.305482 0.369669 0.135884
O O1 0.347167 0.795416 0.567221
O O2 0.772480 0.733743 0.795314
O O3 0.840959 0.800572 0.407265
O O4 0.701207 0.909825 0.718212
O O5 0.240823 0.266617 0.176514
O O6 0.211437 0.090987 0.261579
O O7 0.315742 0.000000 0.909164
O O8 0.820745 0.000000 0.071464
O O9 0.656490 0.576882 0.639587
O O10 0.285645 0.422861 0.366312
O O11 0.608198 0.611133 0.058443
O O12 0.099402 0.601432 0.930151
#
# Coordination Sequence:
#
# PCOD9131184 Si02
#       7
#     2   2   1   1   1   2   2
#     4  12  24  45  71 103 144 190 238 290 357 427
#     4  12  24  45  71 103 144 190 238 290 357 427
#     4  12  24  42  68 106 144 186 240 287 349 430
#     4  12  28  50  76 106 146 184 254 294 378 412
#     4  12  24  42  68 106 144 186 240 287 349 430
#     4  12  27  48  74 107 144 191 241 300 364 429
#     4  12  27  48  74 107 144 191 241 300 364 429
#
# _framework density 25.170116
#
# number of rings (size 3 to 8) (size 9 to 14) (size 15 to 20)
#    0.000    0.000    1.818    8.727    0.000    1.455 
#    0.000    0.000    0.000    0.000    0.000    0.000 
#    0.000    0.000    0.000    0.000    0.000    0.000 
#
# Total GULP energy -61430.279312 kJ/mol
# GULP energy per Si atom -5584.570847 kJ/mol
# Density = 2.511283 g / cm^3
# Si number density = 25.170116 Si / 1000 Ang^3
#
#
#
# Elastic Constant Matrix: (Units=GPa)
#
#
# Indices 1 2 3 4 5 6 
#
# 1 72.8500 11.2069 7.2486 0.0000 2.9933 0.0000
# 2 11.2069 171.9768 27.5624 0.0000 15.7292 0.0000
# 3 7.2486 27.5624 66.5277 0.0000 32.5155 0.0000
# 4 0.0000 0.0000 0.0000 -32.9294 0.0000 182.2219
# 5 2.9933 15.7292 32.5155 0.0000 56.7555 0.0000
# 6 0.0000 0.0000 0.0000 182.2219 0.0000 -258.0151
#
#
#
# Elastic Compliance Matrix: (Units=1/GPa)
#
#
# Indices 1 2 3 4 5 6 
#
# 1 0.013961 -0.000717 -0.001335 0.000000 0.000227 0.000000
# 2 -0.000717 0.006270 -0.002346 0.000000 -0.000356 0.000000
# 3 -0.001335 -0.002346 0.021940 0.000000 -0.011849 0.000000
# 4 0.000000 0.000000 0.000000 0.010442 0.000000 0.007375
# 5 0.000227 -0.000356 -0.011849 0.000000 0.024494 0.000000
# 6 0.000000 0.000000 0.000000 0.007375 0.000000 0.001333
#
#
# Mechanical properties :
#
#
# Convention : Reuss Voigt Hill
#
# Bulk Modulus (GPa) = 29.96208 44.82115 37.39162
# Shear Modulus (GPa) = 50.83383 -29.14869 10.84257
#
# Velocity S-wave (km/s) = 4.49888 -3.40673 2.07776
# Velocity P-wave (km/s) = 6.23829 1.53998 4.54356
#
# Compressibility (1/GPa) = 0.03337552
#
# Stress axis : x y z
#
# Youngs Moduli (GPa) = 71.63022 159.49189 45.57934
#
# Poissons Ratio (x) = 0.11428 0.06086
# Poissons Ratio (y) = 0.05132 0.10691
# Poissons Ratio (z) = 0.09565 0.37409
#
# Static dielectric constant tensor:
#      x y z
#    x 1.925720 0.000000 -0.044660 
#    y 0.000000 1.965080 0.000000 
#    z -0.044660 0.000000 2.000460 
# 
# From -- ./inp_files/271.got.cif
#   From: 2010.05.17/outbox.cif.g08.bks.cpg/sg6_1_cif.got.tgz:271.got - 2010.06.03 19:42:10.
