data_PCOD9131783
_publ_section_title
;
Structure prediction by ZEFSAII (Michael W. Deem and Ramdas Pophale) SiO2 
 PCOD9131783
Probable space group: C M
;
_chemical_formula_sum "Si O2"
_cell_formula_units_Z 26
_cell_length_a 17.157774
_cell_length_b 14.406579
_cell_length_c 7.827040
_cell_angle_alpha 90.000000
_cell_angle_beta 36.052757
_cell_angle_gamma 90.000000
_cell_volume 1138.643883
_symmetry_space_group_name_H-M "C M"
_symmetry_group_IT_number 8
_symmetry_cell_setting 'monoclinic'
loop_
_space_group_symop_operation_xyz
x,y,z
x,-y,z
1/2+x,1/2+y,z
1/2+x,1/2-y,z
loop_
_atom_site_type_symbol
_atom_site_label
_atom_site_fract_x
_atom_site_fract_y
_atom_site_fract_z
Si Si1 0.831360 0.000000 0.729041
Si Si2 0.268987 0.834080 0.039501
Si Si3 0.166535 0.366591 0.811448
Si Si4 0.676096 0.357455 0.840743
Si Si5 0.906771 0.857998 0.152851
Si Si6 0.970721 0.837103 0.660360
Si Si7 0.380208 0.133940 0.189449
O O1 0.719009 0.079993 0.882085
O O2 0.937107 0.082655 0.587947
O O3 0.337119 0.889810 0.073766
O O4 0.123342 0.804879 0.370692
O O5 0.236037 0.881608 0.917831
O O6 0.369864 0.749270 0.822447
O O7 0.170913 0.255963 0.838666
O O8 0.271989 0.391596 0.476012
O O9 0.023218 0.395467 0.000323
O O10 0.769448 0.391018 0.522814
O O11 0.527194 0.386765 0.061020
O O12 0.891611 0.746505 0.172459
O O13 0.941939 0.882292 0.897103
#
# Coordination Sequence:
#
# PCOD9131783 Si02
#       7
#     2   4   4   4   4   4   4
#     4  12  24  42  62 100 134 178 212 268 338 404
#     4  11  22  38  65 101 124 174 218 277 309 394
#     4  10  21  38  60  88 132 171 211 260 328 386
#     4  10  18  36  64  94 125 161 217 269 322 365
#     4   9  19  37  62  92 124 169 215 273 315 380
#     4  11  24  40  66  99 137 166 225 269 330 390
#     4   9  20  36  59  97 126 158 219 274 312 374
#
# _framework density 22.834181999999998
#
# number of rings (size 3 to 8) (size 9 to 14) (size 15 to 20)
#    0.000    1.846    3.077    0.923   10.769    0.615 
#    0.000    0.769    0.000    5.538    0.000    0.000 
#    0.000    0.000    0.000    0.000    0.000    0.000 
#
# Total GULP energy -72378.142254 kJ/mol
# GULP energy per Si atom -5567.549404 kJ/mol
# Density = 2.278221 g / cm^3
# Si number density = 22.834182 Si / 1000 Ang^3
#
#
#
# Elastic Constant Matrix: (Units=GPa)
#
#
# Indices 1 2 3 4 5 6 
#
# 1 123.7677 -5.6891 11.2019 0.0000 0.7359 0.0000
# 2 -5.6891 95.1995 7.0947 0.0000 -12.9351 0.0000
# 3 11.2019 7.0947 94.3735 0.0000 -12.3246 0.0000
# 4 0.0000 0.0000 0.0000 -15.7376 0.0000 -12.7540
# 5 0.7359 -12.9351 -12.3246 0.0000 42.3704 0.0000
# 6 0.0000 0.0000 0.0000 -12.7540 0.0000 -29.7875
#
#
#
# Elastic Compliance Matrix: (Units=1/GPa)
#
#
# Indices 1 2 3 4 5 6 
#
# 1 0.008201 0.000529 -0.001051 0.000000 -0.000286 0.000000
# 2 0.000529 0.011008 -0.000471 0.000000 0.003214 0.000000
# 3 -0.001051 -0.000471 0.011164 0.000000 0.003122 0.000000
# 4 0.000000 0.000000 0.000000 -0.097307 0.000000 0.041664
# 5 -0.000286 0.003214 0.003122 0.000000 0.025496 0.000000
# 6 0.000000 0.000000 0.000000 0.041664 0.000000 -0.051410
#
#
# Mechanical properties :
#
#
# Convention : Reuss Voigt Hill
#
# Bulk Modulus (GPa) = 35.22490 37.61729 36.42110
# Shear Modulus (GPa) = -61.42335 19.41794 -21.00270
#
# Velocity S-wave (km/s) = -5.19212 2.91931 -3.03610
# Velocity P-wave (km/s) = 4.52596 5.27949 1.92207
#
# Compressibility (1/GPa) = 0.02838901
#
# Stress axis : x y z
#
# Youngs Moduli (GPa) = 121.93956 90.84527 89.57382
#
# Poissons Ratio (x) = -0.04810 0.09411
# Poissons Ratio (y) = -0.06456 0.04215
# Poissons Ratio (z) = 0.12811 0.04275
#
# Static dielectric constant tensor:
#      x y z
#    x 1.873350 0.000000 0.044210 
#    y 0.000000 1.878520 0.000000 
#    z 0.044210 0.000000 1.826020 
# 
# From -- ./inp_files/15277.got.cif
#   From: 2010.05.17/outbox.cif.g08.bks.cpg/sg8_8_cif.got.tgz:15277.got - 2010.06.03 19:46:02.
