data_PCOD9131409
_publ_section_title
;
Structure prediction by ZEFSAII (Michael W. Deem and Ramdas Pophale) SiO2 
 PCOD9131409
Probable space group: P C
;
_chemical_formula_sum "Si O2"
_cell_formula_units_Z 16
_cell_length_a 5.916237
_cell_length_b 24.361098
_cell_length_c 5.310366
_cell_angle_alpha 90.000000
_cell_angle_beta 131.409346
_cell_angle_gamma 90.000000
_cell_volume 574.023914
_symmetry_space_group_name_H-M "P C"
_symmetry_group_IT_number 7
_symmetry_cell_setting 'monoclinic'
loop_
_space_group_symop_operation_xyz
x,y,z
x,-y,1/2+z
loop_
_atom_site_type_symbol
_atom_site_label
_atom_site_fract_x
_atom_site_fract_y
_atom_site_fract_z
Si Si1 0.336520 0.035165 0.578160
Si Si2 0.663606 0.403606 0.697579
Si Si3 0.497643 0.743291 0.408456
Si Si4 0.046877 0.535107 0.798773
Si Si5 0.221711 0.656252 0.503354
Si Si6 0.148730 0.846488 0.379368
Si Si7 0.093166 0.238181 0.197948
Si Si8 0.716247 0.904093 0.678736
O O1 0.986125 0.051328 0.345234
O O2 0.402858 0.002938 0.371542
O O3 0.555748 0.087650 0.785240
O O4 0.826827 0.412592 0.090715
O O5 0.985761 0.392448 0.788907
O O6 0.397454 0.448980 0.530029
O O7 0.462849 0.360393 0.392205
O O8 0.384629 0.682230 0.383175
O O9 0.336139 0.792223 0.438475
O O10 0.846718 0.747513 0.726692
O O11 0.419352 0.758654 0.063877
O O12 0.981439 0.503112 0.006531
O O13 0.051778 0.709720 0.486404
O O14 0.020548 0.822578 0.544207
O O15 0.389942 0.895171 0.581531
O O16 0.909385 0.861802 0.992212
#
# Coordination Sequence:
#
# PCOD9131409 Si02
#       8
#     2   2   2   2   2   2   2   2
#     4  11  24  47  70  99 136 177 222 281 352 405
#     4  10  22  43  66  96 128 176 220 279 334 408
#     4  11  22  39  64  92 134 178 219 268 336 389
#     4  11  24  47  70  99 136 177 222 281 352 405
#     4  10  22  43  60  96 138 170 224 275 324 398
#     4  10  22  43  60  96 138 170 224 275 324 398
#     4  11  22  39  64  92 134 178 219 268 336 389
#     4  10  22  43  66  96 128 176 220 279 334 408
#
# _framework density 27.873401000000001
#
# number of rings (size 3 to 8) (size 9 to 14) (size 15 to 20)
#    0.000    1.500    0.000    4.500    0.000    4.000 
#   45.000    0.000    0.000    0.000    0.000    0.000 
#    0.000    0.000    0.000    0.000    0.000    0.000 
#
# Total GULP energy -89139.610857 kJ/mol
# GULP energy per Si atom -5571.225679 kJ/mol
# Density = 2.780996 g / cm^3
# Si number density = 27.873401 Si / 1000 Ang^3
#
#
#
# Elastic Constant Matrix: (Units=GPa)
#
#
# Indices 1 2 3 4 5 6 
#
# 1 45.4283 29.7006 55.2738 0.0000 -1.6086 0.0000
# 2 29.7006 84.1855 36.5892 0.0000 1.7359 0.0000
# 3 55.2738 36.5892 173.8723 0.0000 26.6730 0.0000
# 4 0.0000 0.0000 0.0000 65.4378 0.0000 9.0738
# 5 -1.6086 1.7359 26.6730 0.0000 59.1028 0.0000
# 6 0.0000 0.0000 0.0000 9.0738 0.0000 48.1054
#
#
#
# Elastic Compliance Matrix: (Units=1/GPa)
#
#
# Indices 1 2 3 4 5 6 
#
# 1 0.045344 -0.010327 -0.013406 0.000000 0.007587 0.000000
# 2 -0.010327 0.015473 0.000150 0.000000 -0.000803 0.000000
# 3 -0.013406 0.000150 0.010785 0.000000 -0.005236 0.000000
# 4 0.000000 0.000000 0.000000 0.015692 0.000000 -0.002960
# 5 0.007587 -0.000803 -0.005236 0.000000 0.019513 0.000000
# 6 0.000000 0.000000 0.000000 -0.002960 0.000000 0.021346
#
#
# Mechanical properties :
#
#
# Convention : Reuss Voigt Hill
#
# Bulk Modulus (GPa) = 40.92232 60.73481 50.82856
# Shear Modulus (GPa) = 27.25321 46.65737 36.95529
#
# Velocity S-wave (km/s) = 3.13029 4.09577 3.64514
# Velocity P-wave (km/s) = 5.27052 6.64861 5.99926
#
# Compressibility (1/GPa) = 0.02443654
#
# Stress axis : x y z
#
# Youngs Moduli (GPa) = 22.05348 64.62722 92.72440
#
# Poissons Ratio (x) = 0.66744 1.24302
# Poissons Ratio (y) = 0.22776 -0.01392
# Poissons Ratio (z) = 0.29564 -0.00970
#
# Static dielectric constant tensor:
#      x y z
#    x 2.455370 0.000000 -0.098980 
#    y 0.000000 2.438370 0.000000 
#    z -0.098980 0.000000 2.043330 
# 
# From -- ./inp_files/449.got.cif
#   From: 2010.05.17/outbox.cif.g08.bks.cpg/sg7_cif.got.tgz:449.got - 2010.06.03 19:44:50.
