data_PCOD9131924
_publ_section_title
;
Structure prediction by ZEFSAII (Michael W. Deem and Ramdas Pophale) SiO2 
 PCOD9131924
Probable space group: C M
;
_chemical_formula_sum "Si O2"
_cell_formula_units_Z 32
_cell_length_a 26.111098
_cell_length_b 7.493367
_cell_length_c 24.767311
_cell_angle_alpha 90.000000
_cell_angle_beta 162.885445
_cell_angle_gamma 90.000000
_cell_volume 1426.088065
_symmetry_space_group_name_H-M "C M"
_symmetry_group_IT_number 8
_symmetry_cell_setting 'monoclinic'
loop_
_space_group_symop_operation_xyz
x,y,z
x,-y,z
1/2+x,1/2+y,z
1/2+x,1/2-y,z
loop_
_atom_site_type_symbol
_atom_site_label
_atom_site_fract_x
_atom_site_fract_y
_atom_site_fract_z
Si Si1 0.802100 0.795195 0.068750
Si Si2 0.412206 0.217979 0.657001
Si Si3 0.369584 0.205098 0.018276
Si Si4 0.465985 0.783545 0.593313
Si Si5 0.813796 0.286553 0.326206
Si Si6 0.151484 0.209229 0.603012
Si Si7 0.437395 0.209615 0.972117
Si Si8 0.630803 0.280233 0.461410
O O1 0.941943 0.717681 0.250692
O O2 0.776064 0.000000 0.058911
O O3 0.608221 0.718260 0.868261
O O4 0.885574 0.794129 0.092757
O O5 0.373946 0.270410 0.556529
O O6 0.273931 0.275345 0.561894
O O7 0.414569 0.000000 0.659474
O O8 0.164142 0.216978 0.796684
O O9 0.421628 0.000000 0.078634
O O10 0.458443 0.284664 0.054132
O O11 0.377536 0.721100 0.449317
O O12 0.473674 0.000000 0.599899
O O13 0.816472 0.500000 0.329391
O O14 0.616045 0.227569 0.119818
O O15 0.953765 0.225106 0.423663
O O16 0.171369 0.280989 0.562757
O O17 0.196542 0.000000 0.645151
O O18 0.278568 0.286351 0.777151
O O19 0.400902 0.000000 0.944542
O O20 0.628338 0.500000 0.458866
#
# Coordination Sequence:
#
# PCOD9131924 Si02
#       8
#     4   4   4   4   4   4   4   4
#     4   9  18  32  53  81 110 141 179 230 278 323
#     4   8  15  29  48  77 108 130 169 225 271 318
#     4  10  19  33  54  81 115 151 181 221 280 339
#     4   9  18  33  54  80 112 146 182 231 283 329
#     4  11  23  36  57  86 113 150 191 235 288 337
#     4  10  21  40  60  82 114 152 192 237 282 332
#     4  10  22  37  55  81 115 153 190 232 282 340
#     4   9  18  32  57  82 103 141 190 231 272 322
#
# _framework density 22.439008000000001
#
# number of rings (size 3 to 8) (size 9 to 14) (size 15 to 20)
#    0.000    2.500    1.250    1.500    1.750    3.000 
#    0.000    4.375    0.000    3.000    0.000    0.000 
#    0.000    0.000    0.000    0.000    0.000    0.000 
#
# Total GULP energy -89348.474185 kJ/mol
# GULP energy per Si atom -5584.279637 kJ/mol
# Density = 2.238794 g / cm^3
# Si number density = 22.439008 Si / 1000 Ang^3
#
#
#
# Elastic Constant Matrix: (Units=GPa)
#
#
# Indices 1 2 3 4 5 6 
#
# 1 104.5063 -4.6805 11.6719 0.0008 10.6670 -0.0018
# 2 -4.6805 65.1677 -9.5184 0.0141 -8.2121 0.0036
# 3 11.6719 -9.5184 40.3215 0.0196 5.8277 0.0067
# 4 0.0008 0.0141 0.0196 6.0247 0.0036 2.7657
# 5 10.6670 -8.2121 5.8277 0.0036 29.0866 -0.0014
# 6 -0.0018 0.0036 0.0067 2.7657 -0.0014 4.2055
#
#
#
# Elastic Compliance Matrix: (Units=1/GPa)
#
#
# Indices 1 2 3 4 5 6 
#
# 1 0.010176 -0.000041 -0.002486 0.000008 -0.003245 0.000002
# 2 -0.000041 0.016322 0.003292 -0.000061 0.003964 0.000022
# 3 -0.002486 0.003292 0.026808 -0.000101 -0.003530 0.000019
# 4 0.000008 -0.000061 -0.000101 0.237766 -0.000037 -0.156364
# 5 -0.003245 0.003964 -0.003530 -0.000037 0.037397 0.000038
# 6 0.000002 0.000022 0.000019 -0.156364 0.000038 0.340613
#
#
# Mechanical properties :
#
#
# Convention : Reuss Voigt Hill
#
# Bulk Modulus (GPa) = 18.23643 22.77129 20.50386
# Shear Modulus (GPa) = 7.29043 22.03153 14.66098
#
# Velocity S-wave (km/s) = 1.80445 3.13683 2.55888
# Velocity P-wave (km/s) = 3.53358 4.82594 4.22941
#
# Compressibility (1/GPa) = 0.05483528
#
# Stress axis : x y z
#
# Youngs Moduli (GPa) = 98.27145 61.26536 37.30263
#
# Poissons Ratio (x) = 0.00253 0.09275
# Poissons Ratio (y) = 0.00405 -0.12281
# Poissons Ratio (z) = 0.24434 -0.20170
#
# Static dielectric constant tensor:
#      x y z
#    x 1.815940 0.000000 -0.008480 
#    y 0.000000 1.868690 0.000000 
#    z -0.008480 0.000000 1.818270 
# 
# From -- ./inp_files/32400.got.cif
#   From: 2010.05.17/outbox.cif.g08.bks.cpg/sg8_17_cif.got.tgz:32400.got - 2010.06.03 19:46:02.
