data_PCOD9131256
_publ_section_title
;
Structure prediction by ZEFSAII (Michael W. Deem and Ramdas Pophale) SiO2 
 PCOD9131256
Probable space group: P C
;
_chemical_formula_sum "Si O2"
_cell_formula_units_Z 16
_cell_length_a 11.595280
_cell_length_b 15.373026
_cell_length_c 5.236836
_cell_angle_alpha 90.000000
_cell_angle_beta 120.196168
_cell_angle_gamma 90.000000
_cell_volume 806.823113
_symmetry_space_group_name_H-M "P C"
_symmetry_group_IT_number 7
_symmetry_cell_setting 'monoclinic'
loop_
_space_group_symop_operation_xyz
x,y,z
x,-y,1/2+z
loop_
_atom_site_type_symbol
_atom_site_label
_atom_site_fract_x
_atom_site_fract_y
_atom_site_fract_z
Si Si1 0.697950 0.439895 0.657990
Si Si2 0.446416 0.319230 0.462875
Si Si3 0.371380 0.032603 0.676754
Si Si4 0.067683 0.962778 0.239901
Si Si5 0.962095 0.669115 0.458498
Si Si6 0.377899 0.771093 0.382641
Si Si7 0.209742 0.447216 0.298297
Si Si8 0.066350 0.762421 0.067911
O O1 0.708767 0.495515 0.411234
O O2 0.558215 0.389258 0.519808
O O3 0.813624 0.367663 0.796437
O O4 0.462584 0.278302 0.761051
O O5 0.306362 0.369400 0.326164
O O6 0.434259 0.248083 0.225692
O O7 0.371639 0.129021 0.788258
O O8 0.434900 0.026411 0.468206
O O9 0.220908 0.995987 0.456154
O O10 0.006730 0.976791 0.451254
O O11 0.062387 0.864547 0.135107
O O12 0.059544 0.586906 0.610251
O O13 0.994550 0.735849 0.724915
O O14 0.002216 0.710799 0.232498
O O15 0.223289 0.740381 0.211787
O O16 0.234533 0.478977 0.613392
#
# Coordination Sequence:
#
# PCOD9131256 Si02
#       8
#     2   2   2   2   2   2   2   2
#     4  12  26  50  70  86 120 168 224 260 308 388
#     4  12  25  40  63  91 122 163 203 263 319 367
#     4  10  19  30  53  86 133 164 200 235 305 361
#     4  10  19  30  53  86 133 164 200 235 305 361
#     4  12  25  40  63  91 122 163 203 263 319 367
#     4  12  21  37  59  95 134 157 198 261 312 365
#     4  12  22  36  56  86 116 144 188 246 318 374
#     4  12  21  37  59  95 134 157 198 261 312 365
#
# _framework density 19.830864999999999
#
# number of rings (size 3 to 8) (size 9 to 14) (size 15 to 20)
#    0.000    0.500    5.000    6.000    3.500    0.000 
#    0.000    0.000    0.000    0.000    0.000   17.500 
#    0.000    0.000    0.000    0.000    0.000    0.000 
#
# Total GULP energy -89371.442045 kJ/mol
# GULP energy per Si atom -5585.715128 kJ/mol
# Density = 1.978573 g / cm^3
# Si number density = 19.830865 Si / 1000 Ang^3
#
#
#
# Elastic Constant Matrix: (Units=GPa)
#
#
# Indices 1 2 3 4 5 6 
#
# 1 51.3890 13.0888 32.0213 0.0000 -23.7202 0.0000
# 2 13.0888 76.6708 18.4326 0.0000 -18.3750 0.0000
# 3 32.0213 18.4326 78.8402 0.0000 -34.0842 0.0000
# 4 0.0000 0.0000 0.0000 41.5627 0.0000 -11.7497
# 5 -23.7202 -18.3750 -34.0842 0.0000 37.1653 0.0000
# 6 0.0000 0.0000 0.0000 -11.7497 0.0000 24.2991
#
#
#
# Elastic Compliance Matrix: (Units=1/GPa)
#
#
# Indices 1 2 3 4 5 6 
#
# 1 0.029395 -0.000444 -0.006328 0.000000 0.012738 0.000000
# 2 -0.000444 0.014814 -0.000396 0.000000 0.006677 0.000000
# 3 -0.006328 -0.000396 0.022395 0.000000 0.016304 0.000000
# 4 0.000000 0.000000 0.000000 0.027870 0.000000 0.013476
# 5 0.012738 0.006677 0.016304 0.000000 0.053290 0.000000
# 6 0.000000 0.000000 0.000000 0.013476 0.000000 0.047670
#
#
# Mechanical properties :
#
#
# Convention : Reuss Voigt Hill
#
# Bulk Modulus (GPa) = 19.13250 37.10949 28.12100
# Shear Modulus (GPa) = 22.00756 30.16258 26.08507
#
# Velocity S-wave (km/s) = 3.33492 3.90422 3.63075
# Velocity P-wave (km/s) = 4.94952 6.25120 5.63805
#
# Compressibility (1/GPa) = 0.05226708
#
# Stress axis : x y z
#
# Youngs Moduli (GPa) = 34.01893 67.50284 44.65229
#
# Poissons Ratio (x) = 0.02997 0.28258
# Poissons Ratio (y) = 0.01510 0.01770
# Poissons Ratio (z) = 0.21529 0.02676
#
# Static dielectric constant tensor:
#      x y z
#    x 1.801810 0.000000 -0.055400 
#    y 0.000000 1.719590 0.000000 
#    z -0.055400 0.000000 1.700670 
# 
# From -- ./inp_files/1152.got.cif
#   From: 2010.05.17/outbox.cif.g08.bks.cpg/sg7_cif.got.tgz:1152.got - 2010.06.03 19:44:50.
