data_PCOD9131964
_publ_section_title
;
Structure prediction by ZEFSAII (Michael W. Deem and Ramdas Pophale) SiO2 
 PCOD9131964
Probable space group: C M
;
_chemical_formula_sum "Si O2"
_cell_formula_units_Z 26
_cell_length_a 33.940764
_cell_length_b 7.814946
_cell_length_c 13.737879
_cell_angle_alpha 90.000000
_cell_angle_beta 155.859057
_cell_angle_gamma 90.000000
_cell_volume 1490.294765
_symmetry_space_group_name_H-M "C M"
_symmetry_group_IT_number 8
_symmetry_cell_setting 'monoclinic'
loop_
_space_group_symop_operation_xyz
x,y,z
x,-y,z
1/2+x,1/2+y,z
1/2+x,1/2-y,z
loop_
_atom_site_type_symbol
_atom_site_label
_atom_site_fract_x
_atom_site_fract_y
_atom_site_fract_z
Si Si1 0.853690 0.315241 0.001020
Si Si2 0.912105 0.208238 0.717892
Si Si3 0.228000 0.801529 0.185608
Si Si4 0.754380 0.000000 0.883584
Si Si5 0.541290 0.000000 0.456072
Si Si6 0.315358 0.699290 0.699320
Si Si7 0.192344 0.500000 0.955201
Si Si8 0.629845 0.293948 0.168237
O O1 0.812889 0.500000 0.940765
O O2 0.968897 0.340542 0.276272
O O3 0.804499 0.163882 0.948915
O O4 0.834344 0.291728 0.843094
O O5 0.836888 0.281400 0.470708
O O6 0.878288 0.262300 0.749482
O O7 0.904885 0.000000 0.697578
O O8 0.021002 0.259277 0.942378
O O9 0.208441 0.667708 0.056284
O O10 0.163969 0.752641 0.135832
O O11 0.209592 0.000000 0.118740
O O12 0.637440 0.000000 0.606223
O O13 0.762400 0.000000 0.018940
O O14 0.587162 0.000000 0.667170
O O15 0.337690 0.500000 0.765301
O O16 0.205983 0.717716 0.415543
O O17 0.635597 0.500000 0.190456
#
# Coordination Sequence:
#
# PCOD9131964 Si02
#       8
#     4   4   4   2   2   4   2   4
#     4  10  21  43  64  90 125 164 210 267 314 379
#     4   9  18  35  56  87 127 159 196 243 296 371
#     4  10  20  38  60  85 120 163 197 248 315 356
#     4  10  22  46  64  90 124 158 212 276 316 367
#     4   8  24  44  63  94 121 162 215 270 315 376
#     4  10  19  33  58  86 126 162 195 249 308 358
#     4  10  22  46  59  84 127 152 207 280 301 369
#     4   9  19  34  54  89 124 158 202 239 292 381
#
# _framework density 17.446213
#
# number of rings (size 3 to 8) (size 9 to 14) (size 15 to 20)
#    0.923    1.538    1.538    0.462    1.077    3.077 
#    5.538    1.538    0.000    0.000    0.000    0.000 
#    0.000    0.000    0.000    0.000    0.000    0.000 
#
# Total GULP energy -72408.206965 kJ/mol
# GULP energy per Si atom -5569.862074 kJ/mol
# Density = 1.740650 g / cm^3
# Si number density = 17.446213 Si / 1000 Ang^3
#
#
#
# Elastic Constant Matrix: (Units=GPa)
#
#
# Indices 1 2 3 4 5 6 
#
# 1 83.2212 50.2879 81.7849 0.0000 0.8813 0.0000
# 2 50.2879 97.7018 48.1556 0.0000 -6.9122 0.0000
# 3 81.7849 48.1556 116.6916 0.0000 7.5835 0.0000
# 4 0.0000 0.0000 0.0000 22.3741 0.0000 4.1257
# 5 0.8813 -6.9122 7.5835 0.0000 37.6958 0.0000
# 6 0.0000 0.0000 0.0000 4.1257 0.0000 16.9595
#
#
#
# Elastic Compliance Matrix: (Units=1/GPa)
#
#
# Indices 1 2 3 4 5 6 
#
# 1 0.044964 -0.009183 -0.027912 0.000000 0.002880 0.000000
# 2 -0.009183 0.015187 -0.000027 0.000000 0.003005 0.000000
# 3 -0.027912 -0.000027 0.028473 0.000000 -0.005081 0.000000
# 4 0.000000 0.000000 0.000000 0.046794 0.000000 -0.011383
# 5 0.002880 0.003005 -0.005081 0.000000 0.028034 0.000000
# 6 0.000000 0.000000 0.000000 -0.011383 0.000000 0.061733
#
#
# Mechanical properties :
#
#
# Convention : Reuss Voigt Hill
#
# Bulk Modulus (GPa) = 69.52886 73.11905 71.32395
# Shear Modulus (GPa) = 16.43533 23.23161 19.83347
#
# Velocity S-wave (km/s) = 3.07263 3.65309 3.37536
# Velocity P-wave (km/s) = 7.24761 7.73276 7.49411
#
# Compressibility (1/GPa) = 0.01438252
#
# Stress axis : x y z
#
# Youngs Moduli (GPa) = 22.23986 65.84370 35.12068
#
# Poissons Ratio (x) = 0.60461 0.98028
# Poissons Ratio (y) = 0.20422 0.00095
# Poissons Ratio (z) = 0.62075 0.00178
#
# Static dielectric constant tensor:
#      x y z
#    x 1.577430 0.000000 0.011180 
#    y 0.000000 1.612330 0.000000 
#    z 0.011180 0.000000 1.575370 
# 
# From -- ./inp_files/24726.got.cif
#   From: 2010.05.17/outbox.cif.g08.bks.cpg/sg8_13_cif.got.tgz:24726.got - 2010.06.03 19:46:02.
