data_PCOD9131142
_publ_section_title
;
Structure prediction by ZEFSAII (Michael W. Deem and Ramdas Pophale) SiO2 
 PCOD9131142
Probable space group: P M
;
_chemical_formula_sum "Si O2"
_cell_formula_units_Z 9
_cell_length_a 4.420856
_cell_length_b 11.661371
_cell_length_c 7.076787
_cell_angle_alpha 90.000000
_cell_angle_beta 54.422953
_cell_angle_gamma 90.000000
_cell_volume 296.729673
_symmetry_space_group_name_H-M "P M"
_symmetry_group_IT_number 6
_symmetry_cell_setting 'monoclinic'
loop_
_space_group_symop_operation_xyz
x,y,z
x,-y,z
loop_
_atom_site_type_symbol
_atom_site_label
_atom_site_fract_x
_atom_site_fract_y
_atom_site_fract_z
Si Si1 0.156710 0.376287 0.712630
Si Si2 0.815164 0.870181 0.284434
Si Si3 0.967218 0.625042 0.381638
Si Si4 0.452280 0.000000 0.051180
Si Si5 0.085227 0.871709 0.821672
O O1 0.985584 0.500000 0.818931
O O2 0.575121 0.375300 0.640656
O O3 0.960127 0.259814 0.838799
O O4 0.248824 0.371806 0.454289
O O5 0.972300 0.743556 0.270196
O O6 0.640538 0.896661 0.136719
O O7 0.447235 0.870012 0.551143
O O8 0.994152 0.000000 0.297623
O O9 0.004639 0.500000 0.273099
O O10 0.273390 0.897086 0.961799
O O11 0.909573 0.000000 0.805276
#
# Coordination Sequence:
#
# PCOD9131142 Si02
#       5
#     2   2   2   1   2
#     4  10  23  39  56  82 115 147 185 228 273 327
#     4   9  20  35  58  80 113 141 186 229 276 324
#     4  10  23  39  56  82 115 147 185 228 273 327
#     4   8  18  36  54  84 112 140 178 244 260 338
#     4   9  20  35  58  80 113 141 186 229 276 324
#
# _framework density 30.330639000000001
#
# number of rings (size 3 to 8) (size 9 to 14) (size 15 to 20)
#    1.333    1.333    0.000    0.000    6.222    2.667 
#    0.000    1.111    0.000    0.000    0.000    0.000 
#    0.000    0.000    0.000    0.000    0.000    0.000 
#
# Total GULP energy -50203.039677 kJ/mol
# GULP energy per Si atom -5578.115520 kJ/mol
# Density = 3.026161 g / cm^3
# Si number density = 30.330639 Si / 1000 Ang^3
#
#
#
# Elastic Constant Matrix: (Units=GPa)
#
#
# Indices 1 2 3 4 5 6 
#
# 1 191.6593 95.3116 51.2853 0.0000 15.8477 0.0000
# 2 95.3116 450.6577 115.0868 0.0000 0.3832 0.0000
# 3 51.2853 115.0868 146.2532 0.0000 27.1625 0.0000
# 4 0.0000 0.0000 0.0000 70.4659 0.0000 -11.7708
# 5 15.8477 0.3832 27.1625 0.0000 55.9370 0.0000
# 6 0.0000 0.0000 0.0000 -11.7708 0.0000 70.6543
#
#
#
# Elastic Compliance Matrix: (Units=1/GPa)
#
#
# Indices 1 2 3 4 5 6 
#
# 1 0.006118 -0.001002 -0.001139 0.000000 -0.001173 0.000000
# 2 -0.001002 0.003010 -0.002271 0.000000 0.001366 0.000000
# 3 -0.001139 -0.002271 0.009849 0.000000 -0.004444 0.000000
# 4 0.000000 0.000000 0.000000 0.014597 0.000000 0.002432
# 5 -0.001173 0.001366 -0.004444 0.000000 0.020358 0.000000
# 6 0.000000 0.000000 0.000000 0.002432 0.000000 0.014559
#
#
# Mechanical properties :
#
#
# Convention : Reuss Voigt Hill
#
# Bulk Modulus (GPa) = 98.48934 145.77084 122.13009
# Shear Modulus (GPa) = 61.95953 74.53719 68.24836
#
# Velocity S-wave (km/s) = 4.52464 4.96268 4.74872
# Velocity P-wave (km/s) = 7.73556 9.00014 8.39171
#
# Compressibility (1/GPa) = 0.01015338
#
# Stress axis : x y z
#
# Youngs Moduli (GPa) = 163.46162 332.27238 101.53429
#
# Poissons Ratio (x) = 0.33295 0.11563
# Poissons Ratio (y) = 0.16379 0.23054
# Poissons Ratio (z) = 0.18615 0.75444
#
# Static dielectric constant tensor:
#      x y z
#    x 2.669730 0.000000 -0.326280 
#    y 0.000000 2.225070 0.000000 
#    z -0.326280 0.000000 2.518760 
# 
# From -- ./inp_files/861.got.cif
#   From: 2010.05.17/outbox.cif.g08.bks.cpg/sg6_1_cif.got.tgz:861.got - 2010.06.03 19:42:10.
