data_PCOD9131383
_publ_section_title
;
Structure prediction by ZEFSAII (Michael W. Deem and Ramdas Pophale) SiO2 
 PCOD9131383
Probable space group: P C
;
_chemical_formula_sum "Si O2"
_cell_formula_units_Z 14
_cell_length_a 5.742766
_cell_length_b 18.638437
_cell_length_c 5.405464
_cell_angle_alpha 90.000000
_cell_angle_beta 105.173207
_cell_angle_gamma 90.000000
_cell_volume 558.410342
_symmetry_space_group_name_H-M "P C"
_symmetry_group_IT_number 7
_symmetry_cell_setting 'monoclinic'
loop_
_space_group_symop_operation_xyz
x,y,z
x,-y,1/2+z
loop_
_atom_site_type_symbol
_atom_site_label
_atom_site_fract_x
_atom_site_fract_y
_atom_site_fract_z
Si Si1 0.271030 0.454099 0.551310
Si Si2 0.023226 0.757777 0.157204
Si Si3 0.321845 0.823650 0.867975
Si Si4 0.466337 0.291978 0.057838
Si Si5 0.473094 0.954022 0.596710
Si Si6 0.724303 0.841492 0.411975
Si Si7 0.740426 0.380353 0.456836
O O1 0.273222 0.507388 0.316808
O O2 0.529756 0.413088 0.573036
O O3 0.000253 0.417459 0.477020
O O4 0.077868 0.811225 0.948547
O O5 0.255289 0.710811 0.299576
O O6 0.962866 0.814567 0.350539
O O7 0.816565 0.699168 0.070216
O O8 0.526180 0.846029 0.129696
O O9 0.353973 0.742943 0.772977
O O10 0.338771 0.883058 0.660161
O O11 0.645896 0.229160 0.035123
O O12 0.600167 0.364572 0.160281
O O13 0.720684 0.912885 0.577323
O O14 0.430601 0.995145 0.324421
#
# Coordination Sequence:
#
# PCOD9131383 Si02
#       7
#     2   2   2   2   2   2   2
#     4  12  31  57  82 118 171 224 269 326 387 475
#     4  11  25  43  74 117 154 195 263 344 422 464
#     4  10  21  44  65 107 149 199 249 344 399 474
#     4  10  24  42  71 113 152 196 253 333 413 469
#     4  11  22  42  72  99 147 216 270 318 394 501
#     4  10  22  40  71 102 156 189 255 337 410 458
#     4  12  27  50  85 118 161 213 279 324 405 491
#
# _framework density 25.071171
#
# number of rings (size 3 to 8) (size 9 to 14) (size 15 to 20)
#    0.000    1.143    2.857    1.714    8.000    0.000 
#    0.000    1.429    0.000    0.000    0.000    0.000 
#    0.000    0.000    0.000    0.000    0.000    0.000 
#
# Total GULP energy -77980.574999 kJ/mol
# GULP energy per Si atom -5570.041071 kJ/mol
# Density = 2.501411 g / cm^3
# Si number density = 25.071171 Si / 1000 Ang^3
#
#
#
# Elastic Constant Matrix: (Units=GPa)
#
#
# Indices 1 2 3 4 5 6 
#
# 1 143.8962 60.2182 45.4969 0.0000 0.6153 0.0000
# 2 60.2182 91.4941 50.3899 0.0000 0.2889 0.0000
# 3 45.4969 50.3899 124.8513 0.0000 -9.5446 0.0000
# 4 0.0000 0.0000 0.0000 54.4422 0.0000 -7.9710
# 5 0.6153 0.2889 -9.5446 0.0000 47.7451 0.0000
# 6 0.0000 0.0000 0.0000 -7.9710 0.0000 37.0978
#
#
#
# Elastic Compliance Matrix: (Units=1/GPa)
#
#
# Indices 1 2 3 4 5 6 
#
# 1 0.009743 -0.005711 -0.001272 0.000000 -0.000345 0.000000
# 2 -0.005711 0.017473 -0.005051 0.000000 -0.001042 0.000000
# 3 -0.001272 -0.005051 0.010678 0.000000 0.002182 0.000000
# 4 0.000000 0.000000 0.000000 0.018965 0.000000 0.004075
# 5 -0.000345 -0.001042 0.002182 0.000000 0.021391 0.000000
# 6 0.000000 0.000000 0.000000 0.004075 0.000000 0.027831
#
#
# Mechanical properties :
#
#
# Convention : Reuss Voigt Hill
#
# Bulk Modulus (GPa) = 72.31983 74.71682 73.51833
# Shear Modulus (GPa) = 37.10343 41.46613 39.28478
#
# Velocity S-wave (km/s) = 3.85115 4.07127 3.96274
# Velocity P-wave (km/s) = 6.97736 7.20881 7.09403
#
# Compressibility (1/GPa) = 0.01382747
#
# Stress axis : x y z
#
# Youngs Moduli (GPa) = 102.63778 57.23004 93.64792
#
# Poissons Ratio (x) = 0.32684 0.11911
# Poissons Ratio (y) = 0.58615 0.47299
# Poissons Ratio (z) = 0.13055 0.28906
#
# Static dielectric constant tensor:
#      x y z
#    x 2.114560 0.000000 0.006110 
#    y 0.000000 1.998830 0.000000 
#    z 0.006110 0.000000 2.161840 
# 
# From -- ./inp_files/283.got.cif
#   From: 2010.05.17/outbox.cif.g08.bks.cpg/sg7_cif.got.tgz:283.got - 2010.06.03 19:44:50.
