data_PCOD9131461
_publ_section_title
;
Structure prediction by ZEFSAII (Michael W. Deem and Ramdas Pophale) SiO2 
 PCOD9131461
Probable space group: P C
;
_chemical_formula_sum "Si O2"
_cell_formula_units_Z 16
_cell_length_a 6.373781
_cell_length_b 26.793553
_cell_length_c 5.266626
_cell_angle_alpha 90.000000
_cell_angle_beta 48.619615
_cell_angle_gamma 90.000000
_cell_volume 674.864419
_symmetry_space_group_name_H-M "P C"
_symmetry_group_IT_number 7
_symmetry_cell_setting 'monoclinic'
loop_
_space_group_symop_operation_xyz
x,y,z
x,-y,1/2+z
loop_
_atom_site_type_symbol
_atom_site_label
_atom_site_fract_x
_atom_site_fract_y
_atom_site_fract_z
Si Si1 0.244270 0.902829 0.890720
Si Si2 0.319159 0.160675 0.822010
Si Si3 0.753299 0.969387 0.440575
Si Si4 0.839885 0.227654 0.336150
Si Si5 0.378833 0.532726 0.429760
Si Si6 0.173073 0.692200 0.852304
Si Si7 0.742518 0.680314 0.579191
Si Si8 0.849076 0.399962 0.357247
O O1 0.250898 0.870761 0.629226
O O2 0.434323 0.951322 0.689027
O O3 0.363836 0.872852 0.036815
O O4 0.940643 0.921953 0.216608
O O5 0.597373 0.193302 0.641730
O O6 0.047255 0.195261 0.995750
O O7 0.809636 0.989769 0.677381
O O8 0.697314 0.273225 0.301244
O O9 0.047726 0.255339 0.364393
O O10 0.412235 0.506534 0.674090
O O11 0.075819 0.557320 0.630706
O O12 0.609636 0.575715 0.216997
O O13 0.503580 0.688116 0.560625
O O14 0.019690 0.646523 0.836381
O O15 0.060021 0.684808 0.228256
O O16 0.707067 0.626029 0.728542
#
# Coordination Sequence:
#
# PCOD9131461 Si02
#       8
#     2   2   2   2   2   2   2   2
#     4  12  26  45  68 107 138 189 232 283 362 414
#     4  12  26  44  70  98 152 184 232 284 344 432
#     4  12  24  45  74 101 138 179 238 299 348 412
#     4  11  26  43  66 106 132 194 234 285 344 411
#     4  12  28  47  74 103 142 183 230 283 360 434
#     4  11  24  43  73  98 137 178 241 288 344 409
#     4  11  24  43  73  98 137 178 241 288 344 409
#     4  11  26  46  70 105 136 181 232 296 346 411
#
# _framework density 23.708465
#
# number of rings (size 3 to 8) (size 9 to 14) (size 15 to 20)
#    0.000    0.500    0.000    7.500   10.500    4.000 
#    0.000    0.000    0.000    0.000    0.000    0.000 
#    0.000    0.000    0.000    0.000    0.000    0.000 
#
# Total GULP energy -89604.169233 kJ/mol
# GULP energy per Si atom -5600.260577 kJ/mol
# Density = 2.365450 g / cm^3
# Si number density = 23.708465 Si / 1000 Ang^3
#
#
#
# Elastic Constant Matrix: (Units=GPa)
#
#
# Indices 1 2 3 4 5 6 
#
# 1 60.1295 11.0836 15.5630 0.0000 -6.5363 0.0000
# 2 11.0836 63.4532 19.8899 0.0000 6.3554 0.0000
# 3 15.5630 19.8899 93.7172 0.0000 -3.1403 0.0000
# 4 0.0000 0.0000 0.0000 45.6008 0.0000 -5.8014
# 5 -6.5363 6.3554 -3.1403 0.0000 46.2168 0.0000
# 6 0.0000 0.0000 0.0000 -5.8014 0.0000 27.1735
#
#
#
# Elastic Compliance Matrix: (Units=1/GPa)
#
#
# Indices 1 2 3 4 5 6 
#
# 1 0.018031 -0.002696 -0.002330 0.000000 0.002763 0.000000
# 2 -0.002696 0.017596 -0.003388 0.000000 -0.003031 0.000000
# 3 -0.002330 -0.003388 0.011808 0.000000 0.000939 0.000000
# 4 0.000000 0.000000 0.000000 0.022542 0.000000 0.004813
# 5 0.002763 -0.003031 0.000939 0.000000 0.022508 0.000000
# 6 0.000000 0.000000 0.000000 0.004813 0.000000 0.037828
#
#
# Mechanical properties :
#
#
# Convention : Reuss Voigt Hill
#
# Bulk Modulus (GPa) = 32.67203 34.48589 33.57896
# Shear Modulus (GPa) = 31.77761 35.18245 33.48003
#
# Velocity S-wave (km/s) = 3.66505 3.85640 3.76194
# Velocity P-wave (km/s) = 5.63212 5.86571 5.75010
#
# Compressibility (1/GPa) = 0.03060722
#
# Stress axis : x y z
#
# Youngs Moduli (GPa) = 55.46019 56.83017 84.68950
#
# Poissons Ratio (x) = 0.15321 0.19729
# Poissons Ratio (y) = 0.14952 0.28696
# Poissons Ratio (z) = 0.12920 0.19256
#
# Static dielectric constant tensor:
#      x y z
#    x 1.911500 0.000000 0.057710 
#    y 0.000000 1.879430 0.000000 
#    z 0.057710 0.000000 1.878470 
# 
# From -- ./inp_files/410.got.cif
#   From: 2010.05.17/outbox.cif.g08.bks.cpg/sg7_cif.got.tgz:410.got - 2010.06.03 19:44:50.
