data_PCOD9131568
_publ_section_title
;
Structure prediction by ZEFSAII (Michael W. Deem and Ramdas Pophale) SiO2 
 PCOD9131568
Probable space group: C M
;
_chemical_formula_sum "Si O2"
_cell_formula_units_Z 32
_cell_length_a 18.988728
_cell_length_b 13.904446
_cell_length_c 12.106016
_cell_angle_alpha 90.000000
_cell_angle_beta 152.999481
_cell_angle_gamma 90.000000
_cell_volume 1451.126565
_symmetry_space_group_name_H-M "C M"
_symmetry_group_IT_number 8
_symmetry_cell_setting 'monoclinic'
loop_
_space_group_symop_operation_xyz
x,y,z
x,-y,z
1/2+x,1/2+y,z
1/2+x,1/2-y,z
loop_
_atom_site_type_symbol
_atom_site_label
_atom_site_fract_x
_atom_site_fract_y
_atom_site_fract_z
Si Si1 0.899420 0.637347 0.120900
Si Si2 0.515596 0.845346 0.515824
Si Si3 0.848882 0.866617 0.049465
Si Si4 0.870777 0.318042 0.751133
Si Si5 0.459869 0.392444 0.955583
Si Si6 0.796686 0.304804 0.412786
Si Si7 0.120415 0.860194 0.571609
Si Si8 0.646797 0.107523 0.279051
O O1 0.868177 0.751219 0.082313
O O2 0.935263 0.605997 0.296581
O O3 0.057364 0.620037 0.271606
O O4 0.747326 0.601406 0.838908
O O5 0.389308 0.818476 0.430668
O O6 0.584129 0.746342 0.563398
O O7 0.666683 0.891748 0.785360
O O8 0.918076 0.893366 0.026532
O O9 0.953500 0.900774 0.299358
O O10 0.889413 0.338183 0.649301
O O11 0.712028 0.353278 0.583748
O O12 0.881349 0.203451 0.794157
O O13 0.002276 0.376407 0.996428
O O14 0.423506 0.500000 0.861393
O O15 0.639713 0.366558 0.190376
O O16 0.755494 0.194707 0.390266
O O17 0.710901 0.000000 0.359964
#
# Coordination Sequence:
#
# PCOD9131568 Si02
#       8
#     4   4   4   4   4   4   4   4
#     4   9  17  36  61  92 121 163 216 270 322 385
#     4  10  20  33  64  91 127 172 213 263 333 393
#     4  10  17  35  58  90 120 162 212 263 322 394
#     4  10  19  39  61  91 126 166 220 268 335 392
#     4  11  22  37  61  93 128 167 219 280 328 394
#     4  11  22  40  62  93 129 177 211 273 337 395
#     4   9  16  33  63  86 116 162 213 263 312 392
#     4  10  21  37  64  96 125 167 226 276 321 391
#
# _framework density 22.051832000000001
#
# number of rings (size 3 to 8) (size 9 to 14) (size 15 to 20)
#    0.000    2.000    6.250    0.750    0.000    7.000 
#    0.000    1.250    0.000   12.750    0.000    0.000 
#    0.000    0.000    0.000    0.000    0.000    0.000 
#
# Total GULP energy -89135.841264 kJ/mol
# GULP energy per Si atom -5570.990079 kJ/mol
# Density = 2.200164 g / cm^3
# Si number density = 22.051832 Si / 1000 Ang^3
#
#
#
# Elastic Constant Matrix: (Units=GPa)
#
#
# Indices 1 2 3 4 5 6 
#
# 1 119.6518 2.3680 50.6061 0.0000 -17.6635 0.0000
# 2 2.3680 114.3216 26.9986 0.0000 -5.8308 0.0000
# 3 50.6061 26.9986 144.5012 0.0000 -23.3210 0.0000
# 4 0.0000 0.0000 0.0000 -50.1582 0.0000 3.8546
# 5 -17.6635 -5.8308 -23.3210 0.0000 26.5996 0.0000
# 6 0.0000 0.0000 0.0000 3.8546 0.0000 -13.5453
#
#
#
# Elastic Compliance Matrix: (Units=1/GPa)
#
#
# Indices 1 2 3 4 5 6 
#
# 1 0.010263 0.000724 -0.003033 0.000000 0.004315 0.000000
# 2 0.000724 0.009210 -0.001830 0.000000 0.000895 0.000000
# 3 -0.003033 -0.001830 0.009242 0.000000 0.005688 0.000000
# 4 0.000000 0.000000 0.000000 -0.020383 0.000000 -0.005800
# 5 0.004315 0.000895 0.005688 0.000000 0.045643 0.000000
# 6 0.000000 0.000000 0.000000 -0.005800 0.000000 -0.075477
#
#
# Mechanical properties :
#
#
# Convention : Reuss Voigt Hill
#
# Bulk Modulus (GPa) = 48.93023 59.82444 54.37733
# Shear Modulus (GPa) = -779.96947 12.47934 -383.74507
#
# Velocity S-wave (km/s) = -18.82727 2.38147 -13.20596
# Velocity P-wave (km/s) = 21.22227 5.89489 14.41587
#
# Compressibility (1/GPa) = 0.02043726
#
# Stress axis : x y z
#
# Youngs Moduli (GPa) = 97.43692 108.57700 108.19623
#
# Poissons Ratio (x) = -0.07859 0.32818
# Poissons Ratio (y) = -0.07052 0.19798
# Poissons Ratio (z) = 0.29554 0.19867
#
# Static dielectric constant tensor:
#      x y z
#    x 1.733690 0.000000 -0.035920 
#    y 0.000000 1.846650 0.000000 
#    z -0.035920 0.000000 1.909540 
# 
# From -- ./inp_files/23344.got.cif
#   From: 2010.05.17/outbox.cif.g08.bks.cpg/sg8_12_cif.got.tgz:23344.got - 2010.06.03 19:46:02.
