data_PCOD9131574
_publ_section_title
;
Structure prediction by ZEFSAII (Michael W. Deem and Ramdas Pophale) SiO2 
 PCOD9131574
Probable space group: C M
;
_chemical_formula_sum "Si O2"
_cell_formula_units_Z 28
_cell_length_a 7.443916
_cell_length_b 29.297965
_cell_length_c 5.946317
_cell_angle_alpha 90.000000
_cell_angle_beta 66.458345
_cell_angle_gamma 90.000000
_cell_volume 1188.905510
_symmetry_space_group_name_H-M "C M"
_symmetry_group_IT_number 8
_symmetry_cell_setting 'monoclinic'
loop_
_space_group_symop_operation_xyz
x,y,z
x,-y,z
1/2+x,1/2+y,z
1/2+x,1/2-y,z
loop_
_atom_site_type_symbol
_atom_site_label
_atom_site_fract_x
_atom_site_fract_y
_atom_site_fract_z
Si Si1 0.954980 0.680707 0.324680
Si Si2 0.990990 0.903274 0.143782
Si Si3 0.892018 0.000000 0.303762
Si Si4 0.606639 0.100547 0.020514
Si Si5 0.347941 0.336854 0.605825
Si Si6 0.667096 0.000000 0.914017
Si Si7 0.670624 0.673821 0.827830
Si Si8 0.846367 0.229238 0.231439
O O1 0.875539 0.686040 0.616343
O O2 0.835214 0.716382 0.233416
O O3 0.956940 0.627987 0.254153
O O4 0.173218 0.701254 0.200599
O O5 0.814245 0.904508 0.050246
O O6 0.910616 0.871426 0.379776
O O7 0.017257 0.953943 0.220795
O O8 0.170963 0.874896 0.953308
O O9 0.787050 0.000000 0.608211
O O10 0.766086 0.000000 0.124298
O O11 0.661170 0.138255 0.806730
O O12 0.559118 0.049317 0.966262
O O13 0.526593 0.333691 0.687567
O O14 0.326123 0.287930 0.499071
O O15 0.548888 0.711105 0.027350
#
# Coordination Sequence:
#
# PCOD9131574 Si02
#       8
#     4   4   2   4   4   2   4   4
#     4  12  24  43  63  92 133 177 219 282 338 404
#     4   9  18  37  62  95 127 168 220 267 336 402
#     4  10  18  32  67 105 130 181 223 285 342 413
#     4  10  20  38  63  95 132 171 220 277 333 403
#     4  10  17  40  63  86 128 166 214 274 325 402
#     4  10  20  34  67 105 136 177 237 275 348 419
#     4  10  23  41  60  91 128 169 222 274 334 408
#     4  11  25  41  61  91 127 172 224 271 337 408
#
# _framework density 23.551068999999998
#
# number of rings (size 3 to 8) (size 9 to 14) (size 15 to 20)
#    0.000    1.714    5.714    0.857    2.000    1.143 
#    5.143    0.714    0.000    0.000    0.000    0.000 
#    0.000    0.000    0.000    0.000    0.000    0.000 
#
# Total GULP energy -78081.246099 kJ/mol
# GULP energy per Si atom -5577.231864 kJ/mol
# Density = 2.349747 g / cm^3
# Si number density = 23.551069 Si / 1000 Ang^3
#
#
#
# Elastic Constant Matrix: (Units=GPa)
#
#
# Indices 1 2 3 4 5 6 
#
# 1 53.9152 7.8416 15.4421 0.0000 1.9908 0.0000
# 2 7.8416 185.1338 49.2609 0.0000 -22.0327 0.0000
# 3 15.4421 49.2609 109.0888 0.0000 -18.9823 0.0000
# 4 0.0000 0.0000 0.0000 27.9048 0.0000 4.8235
# 5 1.9908 -22.0327 -18.9823 0.0000 33.0007 0.0000
# 6 0.0000 0.0000 0.0000 4.8235 0.0000 18.7906
#
#
#
# Elastic Compliance Matrix: (Units=1/GPa)
#
#
# Indices 1 2 3 4 5 6 
#
# 1 0.019633 -0.000374 -0.003178 0.000000 -0.003262 0.000000
# 2 -0.000374 0.006385 -0.002316 0.000000 0.002953 0.000000
# 3 -0.003178 -0.002316 0.011587 0.000000 0.005310 0.000000
# 4 0.000000 0.000000 0.000000 0.037500 0.000000 -0.009626
# 5 -0.003262 0.002953 0.005310 0.000000 0.035525 0.000000
# 6 0.000000 0.000000 0.000000 -0.009626 0.000000 0.055689
#
#
# Mechanical properties :
#
#
# Convention : Reuss Voigt Hill
#
# Bulk Modulus (GPa) = 38.65841 54.80299 46.73070
# Shear Modulus (GPa) = 26.78404 34.31208 30.54806
#
# Velocity S-wave (km/s) = 3.37601 3.82111 3.60543
# Velocity P-wave (km/s) = 5.62556 6.54127 6.10062
#
# Compressibility (1/GPa) = 0.02586759
#
# Stress axis : x y z
#
# Youngs Moduli (GPa) = 50.93544 156.61266 86.30594
#
# Poissons Ratio (x) = 0.05861 0.27426
# Poissons Ratio (y) = 0.01906 0.19993
# Poissons Ratio (z) = 0.16186 0.36279
#
# Static dielectric constant tensor:
#      x y z
#    x 1.952500 0.000000 0.048590 
#    y 0.000000 1.880600 0.000000 
#    z 0.048590 0.000000 1.985140 
# 
# From -- ./inp_files/1884.got.cif
#   From: 2010.05.17/outbox.cif.g08.bks.cpg/sg8_1_cif.got.tgz:1884.got - 2010.06.03 19:46:02.
