data_PCOD9131635
_publ_section_title
;
Structure prediction by ZEFSAII (Michael W. Deem and Ramdas Pophale) SiO2 
 PCOD9131635
Probable space group: C M
;
_chemical_formula_sum "Si O2"
_cell_formula_units_Z 32
_cell_length_a 21.046831
_cell_length_b 7.443305
_cell_length_c 20.840677
_cell_angle_alpha 90.000000
_cell_angle_beta 28.917280
_cell_angle_gamma 90.000000
_cell_volume 1578.710515
_symmetry_space_group_name_H-M "C M"
_symmetry_group_IT_number 8
_symmetry_cell_setting 'monoclinic'
loop_
_space_group_symop_operation_xyz
x,y,z
x,-y,z
1/2+x,1/2+y,z
1/2+x,1/2-y,z
loop_
_atom_site_type_symbol
_atom_site_label
_atom_site_fract_x
_atom_site_fract_y
_atom_site_fract_z
Si Si1 0.734090 0.204990 0.564590
Si Si2 0.694264 0.290358 0.854324
Si Si3 0.857788 0.289351 0.590473
Si Si4 0.699135 0.719729 0.994509
Si Si5 0.130138 0.783573 0.295104
Si Si6 0.954044 0.719909 0.849917
Si Si7 0.498933 0.719831 0.276812
Si Si8 0.923501 0.717467 0.024998
O O1 0.794734 0.202289 0.582880
O O2 0.589849 0.285190 0.698709
O O3 0.850209 0.284772 0.418781
O O4 0.715832 0.000000 0.558709
O O5 0.730201 0.500000 0.828487
O O6 0.791346 0.215871 0.713701
O O7 0.702263 0.214936 0.918837
O O8 0.546310 0.277789 0.958528
O O9 0.824770 0.500000 0.614836
O O10 0.014731 0.270963 0.445664
O O11 0.696619 0.500000 0.995954
O O12 0.827819 0.772914 0.920647
O O13 0.572533 0.776266 0.147588
O O14 0.082642 0.726334 0.265818
O O15 0.278865 0.722512 0.175500
O O16 0.132016 0.000000 0.292813
O O17 0.957330 0.500000 0.848026
O O18 0.943436 0.775357 0.933482
O O19 0.496024 0.500000 0.280552
O O20 0.924545 0.500000 0.024513
#
# Coordination Sequence:
#
# PCOD9131635 Si02
#       8
#     4   4   4   4   4   4   4   4
#     4   9  16  27  48  75  95 117 158 208 248 278
#     4  10  21  33  47  71 105 139 161 188 242 304
#     4  10  19  30  44  69 103 135 161 188 237 298
#     4   9  16  29  47  69  99 128 158 200 244 285
#     4   9  17  30  51  76  94 117 162 213 249 276
#     4   9  15  26  48  75  95 117 158 208 243 271
#     4   8  13  24  44  70  94 115 150 199 244 279
#     4  10  18  31  53  77  97 122 164 212 247 281
#
# _framework density 20.269708000000001
#
# number of rings (size 3 to 8) (size 9 to 14) (size 15 to 20)
#    0.000    2.750    2.500    1.125    0.000    1.000 
#    0.000    1.250    0.000    9.000    0.000    0.000 
#    0.000    0.000    0.000    0.000    0.000    0.000 
#
# Total GULP energy -89257.517128 kJ/mol
# GULP energy per Si atom -5578.594820 kJ/mol
# Density = 2.022357 g / cm^3
# Si number density = 20.269708 Si / 1000 Ang^3
#
#
#
# Elastic Constant Matrix: (Units=GPa)
#
#
# Indices 1 2 3 4 5 6 
#
# 1 87.0498 -8.1619 55.7554 -0.0001 8.5140 0.0001
# 2 -8.1619 62.3823 -5.3530 0.0009 3.1072 -0.0005
# 3 55.7554 -5.3530 184.8102 -0.0003 3.2198 0.0002
# 4 -0.0001 0.0009 -0.0003 1.5293 0.0001 1.8628
# 5 8.5140 3.1072 3.2198 0.0001 24.5685 -0.0001
# 6 0.0001 -0.0005 0.0002 1.8628 -0.0001 7.5517
#
#
#
# Elastic Compliance Matrix: (Units=1/GPa)
#
#
# Indices 1 2 3 4 5 6 
#
# 1 0.014928 0.001819 -0.004367 -0.000001 -0.004831 0.000000
# 2 0.001819 0.016400 -0.000027 -0.000015 -0.002701 0.000005
# 3 -0.004367 -0.000027 0.006716 0.000002 0.000636 -0.000001
# 4 -0.000001 -0.000015 0.000002 0.934766 -0.000003 -0.230575
# 5 -0.004831 -0.002701 0.000636 -0.000003 0.042635 0.000001
# 6 0.000000 0.000005 -0.000001 -0.230575 0.000001 0.189295
#
#
# Mechanical properties :
#
#
# Convention : Reuss Voigt Hill
#
# Bulk Modulus (GPa) = 30.39906 46.52481 38.46194
# Shear Modulus (GPa) = 4.09549 26.19671 15.14610
#
# Velocity S-wave (km/s) = 1.42298 3.59891 2.73651
# Velocity P-wave (km/s) = 4.21066 6.34604 5.38525
#
# Compressibility (1/GPa) = 0.03289575
#
# Stress axis : x y z
#
# Youngs Moduli (GPa) = 66.99035 60.97409 148.88781
#
# Poissons Ratio (x) = -0.11091 0.65014
# Poissons Ratio (y) = -0.12185 0.00397
# Poissons Ratio (z) = 0.29252 0.00163
#
# Static dielectric constant tensor:
#      x y z
#    x 1.662600 0.000000 0.003440 
#    y 0.000000 1.805290 0.000000 
#    z 0.003440 0.000000 1.745160 
# 
# From -- ./inp_files/29743.got.cif
#   From: 2010.05.17/outbox.cif.g08.bks.cpg/sg8_15_cif.got.tgz:29743.got - 2010.06.03 19:46:02.
