data_PCOD9131117
_publ_section_title
;
Structure prediction by ZEFSAII (Michael W. Deem and Ramdas Pophale) SiO2 
 PCOD9131117
Probable space group: P M
;
_chemical_formula_sum "Si O2"
_cell_formula_units_Z 13
_cell_length_a 5.008835
_cell_length_b 19.323355
_cell_length_c 5.094763
_cell_angle_alpha 90.000000
_cell_angle_beta 89.691729
_cell_angle_gamma 90.000000
_cell_volume 493.102220
_symmetry_space_group_name_H-M "P M"
_symmetry_group_IT_number 6
_symmetry_cell_setting 'monoclinic'
loop_
_space_group_symop_operation_xyz
x,y,z
x,-y,z
loop_
_atom_site_type_symbol
_atom_site_label
_atom_site_fract_x
_atom_site_fract_y
_atom_site_fract_z
Si Si1 0.362380 0.145751 0.303420
Si Si2 0.999440 0.146174 0.806725
Si Si3 0.997917 0.000000 0.681971
Si Si4 0.194325 0.500000 0.509377
Si Si5 0.692643 0.738783 0.507833
Si Si6 0.364671 0.000000 0.178331
Si Si7 0.520083 0.393907 0.750448
Si Si8 0.869921 0.393686 0.268861
O O1 0.241455 0.143971 0.595102
O O2 0.548081 0.212260 0.300438
O O3 0.503366 0.072659 0.239908
O O4 0.124780 0.150968 0.093327
O O5 0.828949 0.211078 0.715860
O O6 0.857264 0.072255 0.752353
O O7 0.114655 0.000000 0.387465
O O8 0.246107 0.000000 0.887604
O O9 0.131719 0.438531 0.291252
O O10 0.258142 0.438640 0.727462
O O11 0.496327 0.685933 0.661906
O O12 0.892087 0.686340 0.356348
O O13 0.695565 0.426227 0.509832
O O14 0.694858 0.398315 0.009761
#
# Coordination Sequence:
#
# PCOD9131117 Si02
#       8
#     2   2   1   1   2   1   2   2
#     4  10  22  37  61  85 121 161 198 246 297 342
#     4  10  22  37  61  85 121 161 198 246 297 342
#     4   8  16  35  54  83 114 154 204 241 282 349
#     4  12  24  46  72  84 120 168 184 246 308 336
#     4  10  26  38  62  92 124 152 202 242 296 358
#     4   8  16  35  54  83 114 154 204 241 282 349
#     4  10  26  43  62  93 122 148 203 244 286 366
#     4  10  26  43  62  93 122 148 203 244 286 366
#
# _framework density 26.363705
#
# number of rings (size 3 to 8) (size 9 to 14) (size 15 to 20)
#    0.923    1.231    0.000    0.923    6.462    3.077 
#    0.000    0.000    0.000   11.077    0.000    0.000 
#    0.000    0.000    0.000    0.000    0.000    0.000 
#
# Total GULP energy -72477.650807 kJ/mol
# GULP energy per Si atom -5575.203908 kJ/mol
# Density = 2.630370 g / cm^3
# Si number density = 26.363705 Si / 1000 Ang^3
#
#
#
# Elastic Constant Matrix: (Units=GPa)
#
#
# Indices 1 2 3 4 5 6 
#
# 1 56.2880 25.2989 31.9986 0.0000 -2.5089 0.0000
# 2 25.2989 282.0832 59.4176 0.0000 42.3631 0.0000
# 3 31.9986 59.4176 203.0948 0.0000 22.4690 0.0000
# 4 0.0000 0.0000 0.0000 42.8596 0.0000 29.8098
# 5 -2.5089 42.3631 22.4690 0.0000 47.6611 0.0000
# 6 0.0000 0.0000 0.0000 29.8098 0.0000 -1.8453
#
#
#
# Elastic Compliance Matrix: (Units=1/GPa)
#
#
# Indices 1 2 3 4 5 6 
#
# 1 0.020568 -0.001804 -0.003176 0.000000 0.004183 0.000000
# 2 -0.001804 0.004389 -0.000588 0.000000 -0.003719 0.000000
# 3 -0.003176 -0.000588 0.005863 0.000000 -0.002408 0.000000
# 4 0.000000 0.000000 0.000000 0.001907 0.000000 0.030804
# 5 0.004183 -0.003719 -0.002408 0.000000 0.025642 0.000000
# 6 0.000000 0.000000 0.000000 0.030804 0.000000 -0.044290
#
#
# Mechanical properties :
#
#
# Convention : Reuss Voigt Hill
#
# Bulk Modulus (GPa) = 50.80256 86.09958 68.45107
# Shear Modulus (GPa) = 157.34215 46.05181 101.69698
#
# Velocity S-wave (km/s) = 7.73375 4.18399 6.21758
# Velocity P-wave (km/s) = 9.95287 7.48801 8.80710
#
# Compressibility (1/GPa) = 0.01968405
#
# Stress axis : x y z
#
# Youngs Moduli (GPa) = 48.61835 227.82621 170.56920
#
# Poissons Ratio (x) = 0.41100 0.54167
# Poissons Ratio (y) = 0.08771 0.10037
# Poissons Ratio (z) = 0.15440 0.13407
#
# Static dielectric constant tensor:
#      x y z
#    x 2.448170 0.000000 -0.014240 
#    y 0.000000 2.093970 0.000000 
#    z -0.014240 0.000000 2.013580 
# 
# From -- ./inp_files/516.got.cif
#   From: 2010.05.17/outbox.cif.g08.bks.cpg/sg6_1_cif.got.tgz:516.got - 2010.06.03 19:42:10.
