data_PCOD9131800
_publ_section_title
;
Structure prediction by ZEFSAII (Michael W. Deem and Ramdas Pophale) SiO2 
 PCOD9131800
Probable space group: C M
;
_chemical_formula_sum "Si O2"
_cell_formula_units_Z 24
_cell_length_a 8.766140
_cell_length_b 16.478547
_cell_length_c 9.629017
_cell_angle_alpha 90.000000
_cell_angle_beta 42.231933
_cell_angle_gamma 90.000000
_cell_volume 934.899061
_symmetry_space_group_name_H-M "C M"
_symmetry_group_IT_number 8
_symmetry_cell_setting 'monoclinic'
loop_
_space_group_symop_operation_xyz
x,y,z
x,-y,z
1/2+x,1/2+y,z
1/2+x,1/2-y,z
loop_
_atom_site_type_symbol
_atom_site_label
_atom_site_fract_x
_atom_site_fract_y
_atom_site_fract_z
Si Si1 0.888050 0.381448 0.593790
Si Si2 0.922839 0.838072 0.857623
Si Si3 0.693412 0.736156 0.419491
Si Si4 0.171504 0.179174 0.142940
Si Si5 0.191072 0.000000 0.170194
Si Si6 0.772990 0.000000 0.841863
Si Si7 0.656532 0.000000 0.607123
Si Si8 0.811907 0.500000 0.403128
O O1 0.625448 0.373166 0.816915
O O2 0.035651 0.425360 0.611466
O O3 0.910118 0.426841 0.431023
O O4 0.994538 0.294632 0.501875
O O5 0.071259 0.811679 0.624452
O O6 0.760478 0.913704 0.930793
O O7 0.810607 0.754816 0.984622
O O8 0.740166 0.678476 0.258908
O O9 0.910814 0.792580 0.300858
O O10 0.213735 0.085768 0.074367
O O11 0.923419 0.000000 0.393692
O O12 0.641389 0.000000 0.784358
O O13 0.042388 0.000000 0.617937
O O14 0.329792 0.000000 0.224579
#
# Coordination Sequence:
#
# PCOD9131800 Si02
#       8
#     4   4   4   4   2   2   2   2
#     4  10  20  40  73 113 153 202 254 319 388 458
#     4  11  26  49  77 116 161 209 259 323 397 468
#     4  12  25  46  76 110 154 212 256 324 390 461
#     4  12  28  48  80 117 159 205 265 321 391 472
#     4  11  22  46  74 118 156 204 265 320 385 469
#     4   9  20  44  74 112 155 204 259 321 392 459
#     4  10  18  38  82 119 147 206 266 321 392 467
#     4   8  18  38  74 109 148 202 252 312 397 461
#
# _framework density 25.671219000000001
#
# number of rings (size 3 to 8) (size 9 to 14) (size 15 to 20)
#    0.000    1.333    3.333    3.500    2.333    0.000 
#    0.000    6.667    0.000    0.000    0.000    0.000 
#    0.000    0.000    0.000    0.000    0.000    0.000 
#
# Total GULP energy -67121.478626 kJ/mol
# GULP energy per Si atom -5593.456552 kJ/mol
# Density = 2.561279 g / cm^3
# Si number density = 25.671219 Si / 1000 Ang^3
#
#
#
# Elastic Constant Matrix: (Units=GPa)
#
#
# Indices 1 2 3 4 5 6 
#
# 1 157.1157 68.9829 43.2057 -0.0003 -7.1705 0.0004
# 2 68.9829 188.2851 53.2398 -0.0002 -0.3244 0.0003
# 3 43.2057 53.2398 102.6300 -0.0001 9.7608 0.0006
# 4 -0.0003 -0.0002 -0.0001 -8.3319 0.0002 -43.1492
# 5 -7.1705 -0.3244 9.7608 0.0002 44.8487 -0.0004
# 6 0.0004 0.0003 0.0006 -43.1492 -0.0004 25.1476
#
#
#
# Elastic Compliance Matrix: (Units=1/GPa)
#
#
# Indices 1 2 3 4 5 6 
#
# 1 0.008112 -0.002291 -0.002398 0.000000 0.001802 0.000000
# 2 -0.002291 0.006897 -0.002638 0.000000 0.000258 0.000000
# 3 -0.002398 -0.002638 0.012417 0.000000 -0.003105 0.000000
# 4 0.000000 0.000000 0.000000 -0.012140 0.000000 -0.020831
# 5 0.001802 0.000258 -0.003105 0.000000 0.023263 0.000000
# 6 0.000000 0.000000 0.000000 -0.020831 0.000000 0.004022
#
#
# Mechanical properties :
#
#
# Convention : Reuss Voigt Hill
#
# Bulk Modulus (GPa) = 78.29429 86.54305 82.41867
# Shear Modulus (GPa) = 81.32454 31.17304 56.24879
#
# Velocity S-wave (km/s) = 5.63454 3.48849 4.68602
# Velocity P-wave (km/s) = 8.53790 7.07187 7.83923
#
# Compressibility (1/GPa) = 0.01277232
#
# Stress axis : x y z
#
# Youngs Moduli (GPa) = 123.26929 144.99601 80.53486
#
# Poissons Ratio (x) = 0.33218 0.19313
# Poissons Ratio (y) = 0.28240 0.21243
# Poissons Ratio (z) = 0.29562 0.38247
#
# Static dielectric constant tensor:
#      x y z
#    x 2.079260 0.000000 0.013140 
#    y 0.000000 2.057100 0.000000 
#    z 0.013140 0.000000 2.072080 
# 
# From -- ./inp_files/20680.got.cif
#   From: 2010.05.17/outbox.cif.g08.bks.cpg/sg8_11_cif.got.tgz:20680.got - 2010.06.03 19:46:02.
