data_PCOD9131866
_publ_section_title
;
Structure prediction by ZEFSAII (Michael W. Deem and Ramdas Pophale) SiO2 
 PCOD9131866
Probable space group: C M
;
_chemical_formula_sum "Si O2"
_cell_formula_units_Z 32
_cell_length_a 25.169998
_cell_length_b 8.926627
_cell_length_c 8.149613
_cell_angle_alpha 90.000000
_cell_angle_beta 108.185831
_cell_angle_gamma 90.000000
_cell_volume 1739.617147
_symmetry_space_group_name_H-M "C M"
_symmetry_group_IT_number 8
_symmetry_cell_setting 'monoclinic'
loop_
_space_group_symop_operation_xyz
x,y,z
x,-y,z
1/2+x,1/2+y,z
1/2+x,1/2-y,z
loop_
_atom_site_type_symbol
_atom_site_label
_atom_site_fract_x
_atom_site_fract_y
_atom_site_fract_z
Si Si1 0.968810 0.325866 0.047960
Si Si2 0.693705 0.823468 0.636914
Si Si3 0.687003 0.680980 0.286281
Si Si4 0.371067 0.675461 0.123940
Si Si5 0.980558 0.174114 0.379025
Si Si6 0.251163 0.179094 0.012761
Si Si7 0.072827 0.174517 0.023167
Si Si8 0.588939 0.671576 0.664550
O O1 0.957541 0.500000 0.016800
O O2 0.911080 0.233624 0.013839
O O3 0.997365 0.287267 0.251346
O O4 0.015340 0.265233 0.970365
O O5 0.708906 0.752248 0.475592
O O6 0.725224 0.752129 0.823960
O O7 0.628813 0.782370 0.606709
O O8 0.702884 0.000000 0.643037
O O9 0.688950 0.500000 0.300336
O O10 0.621936 0.723708 0.193062
O O11 0.720756 0.724542 0.153871
O O12 0.358254 0.500000 0.092862
O O13 0.413552 0.694510 0.320978
O O14 0.315558 0.770628 0.084660
O O15 0.023179 0.194836 0.566976
O O16 0.987298 0.000000 0.330467
O O17 0.245923 0.000000 0.993726
O O18 0.059808 0.000000 0.044180
O O19 0.098871 0.182964 0.867123
O O20 0.602434 0.500000 0.626265
#
# Coordination Sequence:
#
# PCOD9131866 Si02
#       8
#     4   4   4   4   4   4   4   4
#     4  10  19  32  52  80 112 151 193 238 291 354
#     4  12  25  38  58  91 127 162 199 253 311 366
#     4  10  22  40  62  87 120 163 207 251 305 367
#     4   9  19  37  60  85 115 157 199 247 303 360
#     4   8  17  33  55  80 108 147 192 239 293 350
#     4  11  22  42  67  91 119 161 211 257 302 362
#     4  10  19  34  56  83 117 158 202 251 303 360
#     4  10  19  36  58  83 118 161 205 248 302 365
#
# _framework density 18.394853000000001
#
# number of rings (size 3 to 8) (size 9 to 14) (size 15 to 20)
#    0.750    1.250    1.250    3.375    0.000    5.500 
#    0.000    1.250    0.000    4.500    0.000    0.000 
#    0.000    0.000    0.000    0.000    0.000    0.000 
#
# Total GULP energy -89077.644647 kJ/mol
# GULP energy per Si atom -5567.352790 kJ/mol
# Density = 1.835299 g / cm^3
# Si number density = 18.394853 Si / 1000 Ang^3
#
#
#
# Elastic Constant Matrix: (Units=GPa)
#
#
# Indices 1 2 3 4 5 6 
#
# 1 94.8488 31.7740 38.1898 0.0000 1.8785 0.0000
# 2 31.7740 65.3971 34.0568 0.0000 -2.7346 0.0000
# 3 38.1898 34.0568 101.5846 0.0000 0.7405 0.0000
# 4 0.0000 0.0000 0.0000 4.1710 0.0000 6.8201
# 5 1.8785 -2.7346 0.7405 0.0000 21.8124 0.0000
# 6 0.0000 0.0000 0.0000 6.8201 0.0000 28.1144
#
#
#
# Elastic Compliance Matrix: (Units=1/GPa)
#
#
# Indices 1 2 3 4 5 6 
#
# 1 0.013605 -0.004873 -0.003469 0.000000 -0.001665 0.000000
# 2 -0.004873 0.020412 -0.005034 0.000000 0.003150 0.000000
# 3 -0.003469 -0.005034 0.012841 0.000000 -0.000768 0.000000
# 4 0.000000 0.000000 0.000000 0.397358 0.000000 -0.096392
# 5 -0.001665 0.003150 -0.000768 0.000000 0.046410 0.000000
# 6 0.000000 0.000000 0.000000 -0.096392 0.000000 0.058952
#
#
# Mechanical properties :
#
#
# Convention : Reuss Voigt Hill
#
# Bulk Modulus (GPa) = 49.73592 52.20797 50.97195
# Shear Modulus (GPa) = 8.57583 21.34023 14.95803
#
# Velocity S-wave (km/s) = 2.16153 3.40975 2.85470
# Velocity P-wave (km/s) = 5.77289 6.62912 6.21577
#
# Compressibility (1/GPa) = 0.02010619
#
# Stress axis : x y z
#
# Youngs Moduli (GPa) = 73.50050 48.98981 77.87302
#
# Poissons Ratio (x) = 0.23875 0.27013
# Poissons Ratio (y) = 0.35820 0.39203
# Poissons Ratio (z) = 0.25496 0.24662
#
# Static dielectric constant tensor:
#      x y z
#    x 1.647660 0.000000 0.003080 
#    y 0.000000 1.630920 0.000000 
#    z 0.003080 0.000000 1.647000 
# 
# From -- ./inp_files/17263.got.cif
#   From: 2010.05.17/outbox.cif.g08.bks.cpg/sg8_9_cif.got.tgz:17263.got - 2010.06.03 19:46:02.
