data_PCOD9132893
_publ_section_title
;
Structure prediction by ZEFSAII (Michael W. Deem and Ramdas Pophale) SiO2 
 PCOD9132893
Probable space group: C M
;
_chemical_formula_sum "Si O2"
_cell_formula_units_Z 28
_cell_length_a 16.426012
_cell_length_b 20.007108
_cell_length_c 11.529754
_cell_angle_alpha 90.000000
_cell_angle_beta 21.696752
_cell_angle_gamma 90.000000
_cell_volume 1400.809236
_symmetry_space_group_name_H-M "C M"
_symmetry_group_IT_number 8
_symmetry_cell_setting 'monoclinic'
loop_
_space_group_symop_operation_xyz
x,y,z
x,-y,z
1/2+x,1/2+y,z
1/2+x,1/2-y,z
loop_
_atom_site_type_symbol
_atom_site_label
_atom_site_fract_x
_atom_site_fract_y
_atom_site_fract_z
Si Si1 0.300950 0.836142 0.755670
Si Si2 0.120311 0.573452 0.673683
Si Si3 0.355944 0.282098 0.327877
Si Si4 0.667323 0.928293 0.876415
Si Si5 0.054249 0.782821 0.534770
Si Si6 0.061464 0.673538 0.207631
Si Si7 0.665477 0.613516 0.184873
O O1 0.476867 0.784795 0.575222
O O2 0.440687 0.868417 0.467673
O O3 0.193117 0.869188 0.011902
O O4 0.098655 0.799200 0.960639
O O5 0.230678 0.500000 0.503044
O O6 0.239369 0.644923 0.492920
O O7 0.073703 0.574110 0.871888
O O8 0.887695 0.574669 0.917843
O O9 0.215781 0.236382 0.425739
O O10 0.424532 0.240808 0.354113
O O11 0.930786 0.921202 0.512883
O O12 0.618282 0.000000 0.995682
O O13 0.573810 0.868844 0.074793
O O14 0.154870 0.827644 0.297248
O O15 0.819330 0.811455 0.892254
#
# Coordination Sequence:
#
# PCOD9132893 Si02
#       7
#     4   4   4   4   4   4   4
#     4  11  22  35  58  95 124 157 205 253 315 368
#     4  11  23  39  62  89 117 162 217 257 301 370
#     4  11  22  38  62  89 127 162 207 256 313 358
#     4  10  22  44  65  87 122 167 210 254 307 374
#     4  10  21  37  60  87 127 159 202 253 309 361
#     4  10  24  38  60  96 126 159 206 261 310 374
#     4  11  21  39  62  93 121 162 207 258 306 373
#
# _framework density 19.988444999999999
#
# number of rings (size 3 to 8) (size 9 to 14) (size 15 to 20)
#    0.000    1.429    2.857    3.000    6.000    0.000 
#    0.000    2.143    0.000    0.000    0.000    0.000 
#    0.000    0.000    0.000    0.000    0.000    0.000 
#
# Total GULP energy -77936.022619 kJ/mol
# GULP energy per Si atom -5566.858758 kJ/mol
# Density = 1.994295 g / cm^3
# Si number density = 19.988445 Si / 1000 Ang^3
#
#
#
# Elastic Constant Matrix: (Units=GPa)
#
#
# Indices 1 2 3 4 5 6 
#
# 1 96.2310 25.7547 48.8836 0.0173 -17.8795 -0.0186
# 2 25.7547 79.0315 27.1641 0.0471 5.3813 -0.0109
# 3 48.8836 27.1641 89.5223 0.0515 13.4479 -0.0205
# 4 0.0173 0.0471 0.0515 10.1487 -0.0298 -11.9654
# 5 -17.8795 5.3813 13.4479 -0.0298 30.7016 0.0000
# 6 -0.0186 -0.0109 -0.0205 -11.9654 0.0000 -3.3082
#
#
#
# Elastic Compliance Matrix: (Units=1/GPa)
#
#
# Indices 1 2 3 4 5 6 
#
# 1 0.022076 -0.003766 -0.013854 0.000015 0.019584 -0.000079
# 2 -0.003766 0.014781 -0.001830 -0.000016 -0.003982 0.000041
# 3 -0.013854 -0.001830 0.021895 -0.000036 -0.017338 0.000079
# 4 0.000015 -0.000016 -0.000036 0.018717 0.000046 -0.067699
# 5 0.019584 -0.003982 -0.017338 0.000046 0.052269 -0.000154
# 6 -0.000079 0.000041 0.000079 -0.067699 -0.000154 -0.057420
#
#
# Mechanical properties :
#
#
# Convention : Reuss Voigt Hill
#
# Bulk Modulus (GPa) = 50.37394 52.04328 51.20861
# Shear Modulus (GPa) = 42.43209 18.37392 30.40300
#
# Velocity S-wave (km/s) = 4.61242 3.03516 3.90427
# Velocity P-wave (km/s) = 7.32271 6.19485 6.78227
#
# Compressibility (1/GPa) = 0.01985153
#
# Stress axis : x y z
#
# Youngs Moduli (GPa) = 45.29874 67.65582 45.67239
#
# Poissons Ratio (x) = 0.25478 0.63273
# Poissons Ratio (y) = 0.17059 0.08360
# Poissons Ratio (z) = 0.62755 0.12384
#
# Static dielectric constant tensor:
#      x y z
#    x 1.721090 0.000000 0.014630 
#    y 0.000000 1.801090 0.000010 
#    z 0.014630 0.000010 1.725660 
# 
# From -- ./inp_files/23445.got.cif
#   From: 2010.05.17/outbox.cif.g08.bks.cpg/sg8_12_cif.got.tgz:23445.got - 2010.06.03 19:46:02.
