data_PCOD9132334
_publ_section_title
;
Structure prediction by ZEFSAII (Michael W. Deem and Ramdas Pophale) SiO2 
 PCOD9132334
Probable space group: C M
;
_chemical_formula_sum "Si O2"
_cell_formula_units_Z 32
_cell_length_a 20.321241
_cell_length_b 8.761104
_cell_length_c 25.233949
_cell_angle_alpha 90.000000
_cell_angle_beta 156.500976
_cell_angle_gamma 90.000000
_cell_volume 1791.335574
_symmetry_space_group_name_H-M "C M"
_symmetry_group_IT_number 8
_symmetry_cell_setting 'monoclinic'
loop_
_space_group_symop_operation_xyz
x,y,z
x,-y,z
1/2+x,1/2+y,z
1/2+x,1/2-y,z
loop_
_atom_site_type_symbol
_atom_site_label
_atom_site_fract_x
_atom_site_fract_y
_atom_site_fract_z
Si Si1 0.907480 0.182251 0.907040
Si Si2 0.742246 0.682005 0.447455
Si Si3 0.551506 0.318057 0.617776
Si Si4 0.935615 0.818633 0.142003
Si Si5 0.012325 0.318156 0.363313
Si Si6 0.048323 0.681292 0.119788
Si Si7 0.912044 0.317967 0.406781
Si Si8 0.211372 0.317163 0.074236
O O1 0.726376 0.244514 0.761055
O O2 0.908253 0.000000 0.909187
O O3 0.970521 0.247937 0.009602
O O4 0.038320 0.241300 0.960173
O O5 0.762937 0.500000 0.466195
O O6 0.602342 0.711644 0.299117
O O7 0.665134 0.746606 0.444580
O O8 0.910252 0.760569 0.553671
O O9 0.562624 0.500000 0.627392
O O10 0.494535 0.261975 0.517756
O O11 0.785482 0.783163 0.070903
O O12 0.941827 0.724851 0.092784
O O13 0.932974 0.000000 0.128318
O O14 0.006955 0.500000 0.350399
O O15 0.009492 0.290748 0.423971
O O16 0.847739 0.244689 0.216354
O O17 0.063380 0.500000 0.125242
O O18 0.228010 0.754454 0.262305
O O19 0.902860 0.500000 0.409464
O O20 0.200918 0.500000 0.071985
#
# Coordination Sequence:
#
# PCOD9132334 Si02
#       8
#     4   4   4   4   4   4   4   4
#     4  12  25  42  62  85 121 162 198 244 303 363
#     4  10  20  36  59  86 121 158 196 243 298 354
#     4  12  25  41  62  88 120 158 202 248 297 359
#     4   9  19  35  58  87 121 155 193 244 298 348
#     4  10  20  34  58  89 121 155 197 246 294 348
#     4  12  23  36  60  91 121 154 201 251 292 346
#     4  11  22  38  60  89 123 157 198 245 297 351
#     4  10  20  36  59  87 120 155 197 245 297 353
#
# _framework density 17.863765999999998
#
# number of rings (size 3 to 8) (size 9 to 14) (size 15 to 20)
#    0.000    1.250    2.500    5.625    0.000    4.000 
#    0.000    1.250    0.000    6.000    0.000    0.000 
#    0.000    0.000    0.000    0.000    0.000    0.000 
#
# Total GULP energy -89442.174533 kJ/mol
# GULP energy per Si atom -5590.135908 kJ/mol
# Density = 1.782311 g / cm^3
# Si number density = 17.863766 Si / 1000 Ang^3
#
#
#
# Elastic Constant Matrix: (Units=GPa)
#
#
# Indices 1 2 3 4 5 6 
#
# 1 113.6995 61.3318 55.4227 0.0001 19.1816 0.0000
# 2 61.3318 106.0164 39.1303 0.0006 13.0474 0.0001
# 3 55.4227 39.1303 101.0713 0.0008 14.6656 0.0001
# 4 0.0001 0.0006 0.0008 29.6932 0.0001 3.1642
# 5 19.1816 13.0474 14.6656 0.0001 28.5634 0.0000
# 6 0.0000 0.0001 0.0001 3.1642 0.0000 36.0354
#
#
#
# Elastic Compliance Matrix: (Units=1/GPa)
#
#
# Indices 1 2 3 4 5 6 
#
# 1 0.015775 -0.006531 -0.005421 0.000000 -0.004827 0.000000
# 2 -0.006531 0.013964 -0.001659 0.000000 -0.001141 0.000000
# 3 -0.005421 -0.001659 0.013907 0.000000 -0.002742 0.000000
# 4 0.000000 0.000000 0.000000 0.033996 0.000000 -0.002985
# 5 -0.004827 -0.001141 -0.002742 0.000000 0.040180 0.000000
# 6 0.000000 0.000000 0.000000 -0.002985 0.000000 0.028013
#
#
# Mechanical properties :
#
#
# Convention : Reuss Voigt Hill
#
# Bulk Modulus (GPa) = 60.89265 70.28407 65.58836
# Shear Modulus (GPa) = 28.00624 29.85188 28.92906
#
# Velocity S-wave (km/s) = 3.96380 4.09233 4.02858
# Velocity P-wave (km/s) = 7.42362 7.85872 7.64427
#
# Compressibility (1/GPa) = 0.01642234
#
# Stress axis : x y z
#
# Youngs Moduli (GPa) = 63.39138 71.61499 71.90584
#
# Poissons Ratio (x) = 0.46772 0.38983
# Poissons Ratio (y) = 0.41401 0.11931
# Poissons Ratio (z) = 0.34367 0.11883
#
# Static dielectric constant tensor:
#      x y z
#    x 1.620200 0.000000 0.013260 
#    y 0.000000 1.592940 0.000000 
#    z 0.013260 0.000000 1.573530 
# 
# From -- ./inp_files/31336.got.cif
#   From: 2010.05.17/outbox.cif.g08.bks.cpg/sg8_16_cif.got.tgz:31336.got - 2010.06.03 19:46:02.
