data_PCOD9132894
_publ_section_title
;
Structure prediction by ZEFSAII (Michael W. Deem and Ramdas Pophale) SiO2 
 PCOD9132894
Probable space group: C M
;
_chemical_formula_sum "Si O2"
_cell_formula_units_Z 28
_cell_length_a 14.657583
_cell_length_b 9.146989
_cell_length_c 17.381477
_cell_angle_alpha 90.000000
_cell_angle_beta 146.153434
_cell_angle_gamma 90.000000
_cell_volume 1297.954960
_symmetry_space_group_name_H-M "C M"
_symmetry_group_IT_number 8
_symmetry_cell_setting 'monoclinic'
loop_
_space_group_symop_operation_xyz
x,y,z
x,-y,z
1/2+x,1/2+y,z
1/2+x,1/2-y,z
loop_
_atom_site_type_symbol
_atom_site_label
_atom_site_fract_x
_atom_site_fract_y
_atom_site_fract_z
Si Si1 0.976300 0.840871 0.316530
Si Si2 0.815206 0.823317 0.958368
Si Si3 0.064801 0.334801 0.642155
Si Si4 0.733902 0.768729 0.600891
Si Si5 0.613884 0.177340 0.094121
Si Si6 0.734938 0.843074 0.431025
Si Si7 0.070670 0.178571 0.899370
O O1 0.807473 0.788066 0.235815
O O2 0.108404 0.848000 0.478163
O O3 0.065312 0.746542 0.312928
O O4 0.942517 0.000000 0.260160
O O5 0.697318 0.792246 0.800680
O O6 0.730074 0.737856 0.968290
O O7 0.821089 0.000000 0.971588
O O8 0.993036 0.753358 0.069337
O O9 0.012309 0.500000 0.623682
O O10 0.153616 0.331564 0.621685
O O11 0.900619 0.238650 0.523627
O O12 0.751179 0.860559 0.534948
O O13 0.919486 0.738936 0.752538
O O14 0.591843 0.000000 0.076935
O O15 0.568730 0.259007 0.983420
O O16 0.721477 0.000000 0.382722
O O17 0.053756 0.000000 0.884733
#
# Coordination Sequence:
#
# PCOD9132894 Si02
#       7
#     4   4   4   4   4   4   4
#     4   9  22  43  64  88 123 163 206 254 307 366
#     4  11  23  39  61  94 128 165 208 254 308 372
#     4  11  21  37  61  91 126 160 201 252 307 362
#     4  10  22  39  65  90 123 158 202 251 308 362
#     4  11  24  44  65  90 125 168 210 258 312 369
#     4  10  21  37  60  89 120 156 202 249 302 360
#     4  12  23  41  66  96 127 162 207 260 312 371
#
# _framework density 21.572396000000001
#
# number of rings (size 3 to 8) (size 9 to 14) (size 15 to 20)
#    0.857    0.571    2.857    3.000    0.000    3.429 
#    2.571    0.000    0.000    0.000    0.000    0.000 
#    0.000    0.000    0.000    0.000    0.000    0.000 
#
# Total GULP energy -77958.185658 kJ/mol
# GULP energy per Si atom -5568.441833 kJ/mol
# Density = 2.152330 g / cm^3
# Si number density = 21.572396 Si / 1000 Ang^3
#
#
#
# Elastic Constant Matrix: (Units=GPa)
#
#
# Indices 1 2 3 4 5 6 
#
# 1 83.2647 2.8140 9.2837 -0.0001 28.5565 0.0000
# 2 2.8140 64.6311 28.3477 -0.0001 25.0722 0.0000
# 3 9.2837 28.3477 95.6573 0.0000 37.5349 -0.0001
# 4 -0.0001 -0.0001 0.0000 16.7191 0.0000 5.6544
# 5 28.5565 25.0722 37.5349 0.0000 51.5325 0.0000
# 6 0.0000 0.0000 -0.0001 5.6544 0.0000 25.2505
#
#
#
# Elastic Compliance Matrix: (Units=1/GPa)
#
#
# Indices 1 2 3 4 5 6 
#
# 1 0.015681 0.002887 0.002217 0.000000 -0.011709 0.000000
# 2 0.002887 0.020161 -0.002490 0.000000 -0.009595 0.000000
# 3 0.002217 -0.002490 0.015379 0.000000 -0.011219 0.000000
# 4 0.000000 0.000000 0.000000 0.064713 0.000000 -0.014491
# 5 -0.011709 -0.009595 -0.011219 0.000000 0.038734 0.000000
# 6 0.000000 0.000000 0.000000 -0.014491 0.000000 0.042848
#
#
# Mechanical properties :
#
#
# Convention : Reuss Voigt Hill
#
# Bulk Modulus (GPa) = 17.71496 36.04932 26.88214
# Shear Modulus (GPa) = 23.68512 32.24093 27.96302
#
# Velocity S-wave (km/s) = 3.31711 3.87013 3.60424
# Velocity P-wave (km/s) = 4.78546 6.05951 5.45978
#
# Compressibility (1/GPa) = 0.05644945
#
# Stress axis : x y z
#
# Youngs Moduli (GPa) = 63.77205 49.60055 65.02487
#
# Poissons Ratio (x) = -0.14320 -0.14416
# Poissons Ratio (y) = -0.18412 0.16189
# Poissons Ratio (z) = -0.14139 0.12349
#
# Static dielectric constant tensor:
#      x y z
#    x 1.805440 0.000000 -0.018090 
#    y 0.000000 1.774160 0.000000 
#    z -0.018090 0.000000 1.861600 
# 
# From -- ./inp_files/30766.got.cif
#   From: 2010.05.17/outbox.cif.g08.bks.cpg/sg8_16_cif.got.tgz:30766.got - 2010.06.03 19:46:02.
