data_PCOD9132578
_publ_section_title
;
Structure prediction by ZEFSAII (Michael W. Deem and Ramdas Pophale) SiO2 
 PCOD9132578
Probable space group: C M
;
_chemical_formula_sum "Si O2"
_cell_formula_units_Z 32
_cell_length_a 9.777960
_cell_length_b 15.968455
_cell_length_c 11.003628
_cell_angle_alpha 90.000000
_cell_angle_beta 76.500669
_cell_angle_gamma 90.000000
_cell_volume 1670.628123
_symmetry_space_group_name_H-M "C M"
_symmetry_group_IT_number 8
_symmetry_cell_setting 'monoclinic'
loop_
_space_group_symop_operation_xyz
x,y,z
x,-y,z
1/2+x,1/2+y,z
1/2+x,1/2-y,z
loop_
_atom_site_type_symbol
_atom_site_label
_atom_site_fract_x
_atom_site_fract_y
_atom_site_fract_z
Si Si1 0.607490 0.739294 0.592630
Si Si2 0.724236 0.402055 0.414596
Si Si3 0.076656 0.833229 0.208965
Si Si4 0.828405 0.094802 0.920012
Si Si5 0.654575 0.599003 0.927561
Si Si6 0.040400 0.332824 0.357451
Si Si7 0.293357 0.408763 0.205779
Si Si8 0.810585 0.748948 0.761014
O O1 0.631921 0.646244 0.534734
O O2 0.575893 0.795486 0.481848
O O3 0.745072 0.760825 0.641055
O O4 0.477574 0.750232 0.709974
O O5 0.736541 0.500000 0.437226
O O6 0.649405 0.385952 0.300939
O O7 0.878836 0.359678 0.380862
O O8 0.087393 0.737373 0.249264
O O9 0.909026 0.847293 0.235502
O O10 0.139173 0.862332 0.066755
O O11 0.774009 0.170183 0.849324
O O12 0.997676 0.100972 0.902454
O O13 0.796055 0.000000 0.883966
O O14 0.769409 0.105304 0.068258
O O15 0.696863 0.500000 0.922268
O O16 0.752680 0.662710 0.831256
O O17 0.148713 0.406260 0.306953
O O18 0.363028 0.500000 0.199380
#
# Coordination Sequence:
#
# PCOD9132578 Si02
#       8
#     4   4   4   4   4   4   4   4
#     4  11  25  41  60  86 118 158 209 249 300 356
#     4  11  23  40  62  89 122 159 200 251 306 367
#     4  10  20  38  63  91 121 152 198 242 297 368
#     4   9  20  39  64  90 120 158 200 245 306 371
#     4  10  21  39  64  92 122 162 203 247 305 368
#     4  11  22  39  60  88 122 157 193 246 309 354
#     4  10  20  37  61  91 119 148 192 245 297 355
#     4  12  22  43  63  87 120 160 210 255 298 359
#
# _framework density 19.154474
#
# number of rings (size 3 to 8) (size 9 to 14) (size 15 to 20)
#    0.000    1.500    2.500    4.500    1.750    2.000 
#    2.250    1.875    0.000    0.000    0.000    0.000 
#    0.000    0.000    0.000    0.000    0.000    0.000 
#
# Total GULP energy -89266.883155 kJ/mol
# GULP energy per Si atom -5579.180197 kJ/mol
# Density = 1.911088 g / cm^3
# Si number density = 19.154474 Si / 1000 Ang^3
#
#
#
# Elastic Constant Matrix: (Units=GPa)
#
#
# Indices 1 2 3 4 5 6 
#
# 1 29.2261 12.8608 21.7262 0.0000 -11.3078 0.0000
# 2 12.8608 132.4475 54.9333 0.0000 -1.2503 0.0000
# 3 21.7262 54.9333 62.5989 0.0000 1.5819 0.0000
# 4 0.0000 0.0000 0.0000 7.2166 0.0000 -4.5554
# 5 -11.3078 -1.2503 1.5819 0.0000 36.3034 0.0000
# 6 0.0000 0.0000 0.0000 -4.5554 0.0000 26.9381
#
#
#
# Elastic Compliance Matrix: (Units=1/GPa)
#
#
# Indices 1 2 3 4 5 6 
#
# 1 0.058090 0.004885 -0.024937 0.000000 0.019349 0.000000
# 2 0.004885 0.012309 -0.012560 0.000000 0.002493 0.000000
# 3 -0.024937 -0.012560 0.035898 0.000000 -0.009764 0.000000
# 4 0.000000 0.000000 0.000000 0.155128 0.000000 0.026233
# 5 0.019349 0.002493 -0.009764 0.000000 0.034084 0.000000
# 6 0.000000 0.000000 0.000000 0.026233 0.000000 0.041558
#
#
# Mechanical properties :
#
#
# Convention : Reuss Voigt Hill
#
# Bulk Modulus (GPa) = 24.34682 44.81257 34.57969
# Shear Modulus (GPa) = 12.01980 23.07512 17.54746
#
# Velocity S-wave (km/s) = 2.50775 3.47462 3.03000
# Velocity P-wave (km/s) = 4.59603 6.28836 5.50758
#
# Compressibility (1/GPa) = 0.04107313
#
# Stress axis : x y z
#
# Youngs Moduli (GPa) = 17.21465 81.24443 27.85684
#
# Poissons Ratio (x) = -0.39685 0.69466
# Poissons Ratio (y) = -0.08409 0.34987
# Poissons Ratio (z) = 0.42928 1.02040
#
# Static dielectric constant tensor:
#      x y z
#    x 1.635500 0.000000 -0.012330 
#    y 0.000000 1.656390 0.000000 
#    z -0.012330 0.000000 1.669820 
# 
# From -- ./inp_files/18887.got.cif
#   From: 2010.05.17/outbox.cif.g08.bks.cpg/sg8_10_cif.got.tgz:18887.got - 2010.06.03 19:46:02.
