data_PCOD9132437
_publ_section_title
;
Structure prediction by ZEFSAII (Michael W. Deem and Ramdas Pophale) SiO2 
 PCOD9132437
Probable space group: C M
;
_chemical_formula_sum "Si O2"
_cell_formula_units_Z 32
_cell_length_a 26.211554
_cell_length_b 7.840511
_cell_length_c 24.634048
_cell_angle_alpha 90.000000
_cell_angle_beta 162.466472
_cell_angle_gamma 90.000000
_cell_volume 1525.175873
_symmetry_space_group_name_H-M "C M"
_symmetry_group_IT_number 8
_symmetry_cell_setting 'monoclinic'
loop_
_space_group_symop_operation_xyz
x,y,z
x,-y,z
1/2+x,1/2+y,z
1/2+x,1/2-y,z
loop_
_atom_site_type_symbol
_atom_site_label
_atom_site_fract_x
_atom_site_fract_y
_atom_site_fract_z
Si Si1 0.483100 0.709209 0.540750
Si Si2 0.345569 0.297595 0.286182
Si Si3 0.165670 0.298188 0.283709
Si Si4 0.627608 0.697638 0.368019
Si Si5 0.347453 0.294350 0.167565
Si Si6 0.955022 0.195226 0.763066
Si Si7 0.941874 0.298604 0.870621
Si Si8 0.848852 0.709110 0.893629
O O1 0.481438 0.500000 0.538578
O O2 0.430047 0.768634 0.426564
O O3 0.344830 0.769176 0.443660
O O4 0.675212 0.760951 0.745835
O O5 0.385162 0.500000 0.324975
O O6 0.389036 0.227831 0.270598
O O7 0.142722 0.282383 0.085805
O O8 0.168259 0.500000 0.275220
O O9 0.136627 0.276083 0.317690
O O10 0.011846 0.228216 0.091510
O O11 0.586775 0.500000 0.318559
O O12 0.480766 0.770550 0.258378
O O13 0.809885 0.711751 0.581936
O O14 0.363386 0.500000 0.186038
O O15 0.149328 0.257991 0.954799
O O16 0.951211 0.000000 0.741884
O O17 0.908177 0.211153 0.779221
O O18 0.905024 0.500000 0.825500
O O19 0.850518 0.237421 0.832264
O O20 0.855025 0.500000 0.898448
#
# Coordination Sequence:
#
# PCOD9132437 Si02
#       8
#     4   4   4   4   4   4   4   4
#     4   9  16  27  50  83 111 141 185 232 281 332
#     4   8  13  26  50  80 110 137 177 234 281 323
#     4  10  20  36  54  80 115 148 188 241 288 335
#     4  11  24  41  62  85 112 157 205 244 286 345
#     4   9  20  38  61  87 114 151 199 245 287 339
#     4  11  23  38  58  87 122 156 188 238 299 353
#     4   9  16  31  55  82 114 149 188 236 281 336
#     4   9  17  29  52  82 110 145 190 236 281 333
#
# _framework density 20.981186000000001
#
# number of rings (size 3 to 8) (size 9 to 14) (size 15 to 20)
#    0.000    2.500    1.250    2.250    1.750    2.000 
#    0.000    1.875    0.000    0.750    0.000    0.000 
#    0.000    0.000    0.000    0.000    0.000    0.000 
#
# Total GULP energy -89280.463461 kJ/mol
# GULP energy per Si atom -5580.028966 kJ/mol
# Density = 2.093343 g / cm^3
# Si number density = 20.981186 Si / 1000 Ang^3
#
#
#
# Elastic Constant Matrix: (Units=GPa)
#
#
# Indices 1 2 3 4 5 6 
#
# 1 127.9112 -5.5963 56.4026 0.0013 32.8233 0.0000
# 2 -5.5963 18.3738 1.4307 0.0226 6.9358 0.0046
# 3 56.4026 1.4307 56.4909 0.0220 23.4785 0.0045
# 4 0.0013 0.0226 0.0220 -12.1084 0.0052 -3.2038
# 5 32.8233 6.9358 23.4785 0.0052 30.4476 0.0004
# 6 0.0000 0.0046 0.0045 -3.2038 0.0004 21.3276
#
#
#
# Elastic Compliance Matrix: (Units=1/GPa)
#
#
# Indices 1 2 3 4 5 6 
#
# 1 0.016296 0.009841 -0.012195 -0.000006 -0.010405 0.000000
# 2 0.009841 0.066940 -0.001139 0.000112 -0.024979 0.000003
# 3 -0.012195 -0.001139 0.035812 0.000055 -0.014209 0.000001
# 4 -0.000006 0.000112 0.000055 -0.079430 -0.000048 -0.011932
# 5 -0.010405 -0.024979 -0.014209 -0.000048 0.060708 0.000000
# 6 0.000000 0.000003 0.000001 -0.011932 0.000000 0.045095
#
#
# Mechanical properties :
#
#
# Convention : Reuss Voigt Hill
#
# Bulk Modulus (GPa) = 8.92365 34.13886 21.53125
# Shear Modulus (GPa) = 26.34873 17.96930 22.15901
#
# Velocity S-wave (km/s) = 3.54761 2.92969 3.25335
# Velocity P-wave (km/s) = 4.58728 5.26788 4.93932
#
# Compressibility (1/GPa) = 0.11206181
#
# Stress axis : x y z
#
# Youngs Moduli (GPa) = 61.36441 14.93868 27.92323
#
# Poissons Ratio (x) = -0.14701 0.34053
# Poissons Ratio (y) = -0.60388 0.03181
# Poissons Ratio (z) = 0.74835 0.01702
#
# Static dielectric constant tensor:
#      x y z
#    x 1.742670 0.000000 0.024340 
#    y 0.000000 1.772470 0.000000 
#    z 0.024340 0.000000 1.749650 
# 
# From -- ./inp_files/17256.got.cif
#   From: 2010.05.17/outbox.cif.g08.bks.cpg/sg8_9_cif.got.tgz:17256.got - 2010.06.03 19:46:02.
