data_PCOD9132941
_publ_section_title
;
Structure prediction by ZEFSAII (Michael W. Deem and Ramdas Pophale) SiO2 
 PCOD9132941
Probable space group: C M
;
_chemical_formula_sum "Si O2"
_cell_formula_units_Z 16
_cell_length_a 5.104683
_cell_length_b 19.059478
_cell_length_c 6.883162
_cell_angle_alpha 90.000000
_cell_angle_beta 109.430364
_cell_angle_gamma 90.000000
_cell_volume 631.540020
_symmetry_space_group_name_H-M "C M"
_symmetry_group_IT_number 8
_symmetry_cell_setting 'monoclinic'
loop_
_space_group_symop_operation_xyz
x,y,z
x,-y,z
1/2+x,1/2+y,z
1/2+x,1/2-y,z
loop_
_atom_site_type_symbol
_atom_site_label
_atom_site_fract_x
_atom_site_fract_y
_atom_site_fract_z
Si Si1 0.319120 0.861501 0.919160
Si Si2 0.849035 0.583243 0.499105
Si Si3 0.594462 0.206758 0.327518
Si Si4 0.885565 0.924498 0.064000
O O1 0.302489 0.874608 0.687042
O O2 0.561959 0.918655 0.025962
O O3 0.465041 0.799393 0.076899
O O4 0.019562 0.871364 0.943434
O O5 0.926273 0.500000 0.544580
O O6 0.569631 0.582758 0.301375
O O7 0.398438 0.262108 0.388369
O O8 0.558200 0.132411 0.427313
O O9 0.946122 0.000000 0.990762
#
# Coordination Sequence:
#
# PCOD9132941 Si02
#       4
#     4   4   4   4
#     4  11  23  41  66  96 133 177 222 270 332 398
#     4  10  23  43  72 104 134 174 225 283 341 395
#     4  11  25  46  68  96 136 181 226 273 331 404
#     4  10  21  38  61  96 137 170 211 270 331 395
#
# _framework density 25.334893999999998
#
# number of rings (size 3 to 8) (size 9 to 14) (size 15 to 20)
#    0.000    1.500    0.000    5.250    0.000   10.000 
#    0.000    8.750    0.000    0.000    0.000    0.000 
#    0.000    0.000    0.000    0.000    0.000    0.000 
#
# Total GULP energy -44655.706524 kJ/mol
# GULP energy per Si atom -5581.963316 kJ/mol
# Density = 2.527723 g / cm^3
# Si number density = 25.334894 Si / 1000 Ang^3
#
#
#
# Elastic Constant Matrix: (Units=GPa)
#
#
# Indices 1 2 3 4 5 6 
#
# 1 84.3489 48.4917 13.7483 0.0000 -10.6099 0.0000
# 2 48.4917 113.5836 32.8678 0.0000 -21.1772 0.0000
# 3 13.7483 32.8678 149.2497 0.0000 -16.5133 0.0000
# 4 0.0000 0.0000 0.0000 25.8876 0.0000 -3.1087
# 5 -10.6099 -21.1772 -16.5133 0.0000 36.8307 0.0000
# 6 0.0000 0.0000 0.0000 -3.1087 0.0000 34.8537
#
#
#
# Elastic Compliance Matrix: (Units=1/GPa)
#
#
# Indices 1 2 3 4 5 6 
#
# 1 0.015731 -0.006597 0.000090 0.000000 0.000779 0.000000
# 2 -0.006597 0.013017 -0.001727 0.000000 0.004810 0.000000
# 3 0.000090 -0.001727 0.007329 0.000000 0.002319 0.000000
# 4 0.000000 0.000000 0.000000 0.039047 0.000000 0.003483
# 5 0.000779 0.004810 0.002319 0.000000 0.031181 0.000000
# 6 0.000000 0.000000 0.000000 0.003483 0.000000 0.029002
#
#
# Mechanical properties :
#
#
# Convention : Reuss Voigt Hill
#
# Bulk Modulus (GPa) = 50.99577 59.71089 55.35333
# Shear Modulus (GPa) = 31.58342 36.31935 33.95138
#
# Velocity S-wave (km/s) = 3.53461 3.79036 3.66471
# Velocity P-wave (km/s) = 6.06880 6.54030 6.30896
#
# Compressibility (1/GPa) = 0.01960947
#
# Stress axis : x y z
#
# Youngs Moduli (GPa) = 63.56729 76.82294 136.44920
#
# Poissons Ratio (x) = 0.50679 -0.01226
# Poissons Ratio (y) = 0.41935 0.23561
# Poissons Ratio (z) = -0.00571 0.13265
#
# Static dielectric constant tensor:
#      x y z
#    x 1.928320 0.000000 0.003140 
#    y 0.000000 2.043160 0.000000 
#    z 0.003140 0.000000 2.047750 
# 
# From -- ./inp_files/396.got.cif
#   From: 2010.05.17/outbox.cif.g08.bks.cpg/sg8_1_cif.got.tgz:396.got - 2010.06.03 19:46:02.
