data_PCOD9132413
_publ_section_title
;
Structure prediction by ZEFSAII (Michael W. Deem and Ramdas Pophale) SiO2 
 PCOD9132413
Probable space group: C M
;
_chemical_formula_sum "Si O2"
_cell_formula_units_Z 28
_cell_length_a 11.477234
_cell_length_b 13.079582
_cell_length_c 10.101478
_cell_angle_alpha 90.000000
_cell_angle_beta 123.980712
_cell_angle_gamma 90.000000
_cell_volume 1257.444468
_symmetry_space_group_name_H-M "C M"
_symmetry_group_IT_number 8
_symmetry_cell_setting 'monoclinic'
loop_
_space_group_symop_operation_xyz
x,y,z
x,-y,z
1/2+x,1/2+y,z
1/2+x,1/2-y,z
loop_
_atom_site_type_symbol
_atom_site_label
_atom_site_fract_x
_atom_site_fract_y
_atom_site_fract_z
Si Si1 0.696170 0.882495 0.404890
Si Si2 0.940454 0.386732 0.056375
Si Si3 0.645130 0.807933 0.644901
Si Si4 0.990065 0.120990 0.486192
Si Si5 0.567942 0.829147 0.876481
Si Si6 0.463904 0.616405 0.894868
Si Si7 0.383219 0.331390 0.125218
O O1 0.599271 0.877493 0.214828
O O2 0.609577 0.841271 0.473921
O O3 0.850275 0.838662 0.474712
O O4 0.722408 0.000000 0.451969
O O5 0.886843 0.500000 0.056191
O O6 0.870845 0.289264 0.081105
O O7 0.956184 0.373736 0.908755
O O8 0.620246 0.686526 0.621839
O O9 0.556767 0.849463 0.712948
O O10 0.803083 0.848666 0.763976
O O11 0.953689 0.142300 0.309010
O O12 0.007090 0.000000 0.515226
O O13 0.556077 0.706390 0.890883
O O14 0.722742 0.868910 0.014691
O O15 0.488286 0.500000 0.865798
O O16 0.472473 0.623183 0.059874
#
# Coordination Sequence:
#
# PCOD9132413 Si02
#       7
#     4   4   4   4   4   4   4
#     4  10  20  35  59  87 118 156 196 239 291 356
#     4  10  20  36  59  90 121 153 195 241 295 356
#     4  11  22  37  58  89 122 154 199 253 297 347
#     4  11  22  38  63  90 121 162 203 245 301 361
#     4  10  22  38  61  88 120 156 200 246 298 355
#     4  10  22  40  62  88 119 160 205 248 299 360
#     4  10  20  38  62  94 121 155 198 252 299 353
#
# _framework density 22.267385000000001
#
# number of rings (size 3 to 8) (size 9 to 14) (size 15 to 20)
#    0.000    1.714    2.857    1.714    0.000    5.143 
#    0.000    5.714    0.000    7.714    0.000    0.000 
#    0.000    0.000    0.000    0.000    0.000    0.000 
#
# Total GULP energy -78102.314038 kJ/mol
# GULP energy per Si atom -5578.736717 kJ/mol
# Density = 2.221670 g / cm^3
# Si number density = 22.267385 Si / 1000 Ang^3
#
#
#
# Elastic Constant Matrix: (Units=GPa)
#
#
# Indices 1 2 3 4 5 6 
#
# 1 47.4265 3.4978 24.5560 0.0000 -17.4263 0.0000
# 2 3.4978 83.4952 3.2294 0.0000 4.5083 0.0000
# 3 24.5560 3.2294 79.8457 0.0000 -33.7499 0.0000
# 4 0.0000 0.0000 0.0000 19.5535 0.0000 7.3064
# 5 -17.4263 4.5083 -33.7499 0.0000 40.0640 0.0000
# 6 0.0000 0.0000 0.0000 7.3064 0.0000 17.3527
#
#
#
# Elastic Compliance Matrix: (Units=1/GPa)
#
#
# Indices 1 2 3 4 5 6 
#
# 1 0.026494 -0.001327 -0.004908 0.000000 0.007539 0.000000
# 2 -0.001327 0.012258 -0.001420 0.000000 -0.003153 0.000000
# 3 -0.004908 -0.001420 0.020587 0.000000 0.015367 0.000000
# 4 0.000000 0.000000 0.000000 0.060690 0.000000 -0.025553
# 5 0.007539 -0.003153 0.015367 0.000000 0.041539 0.000000
# 6 0.000000 0.000000 0.000000 -0.025553 0.000000 0.068387
#
#
# Mechanical properties :
#
#
# Convention : Reuss Voigt Hill
#
# Bulk Modulus (GPa) = 22.71298 30.37041 26.54170
# Shear Modulus (GPa) = 19.23511 27.35967 23.29739
#
# Velocity S-wave (km/s) = 2.94228 3.50907 3.23810
# Velocity P-wave (km/s) = 4.66529 5.48513 5.09174
#
# Compressibility (1/GPa) = 0.04402768
#
# Stress axis : x y z
#
# Youngs Moduli (GPa) = 37.74384 81.58256 48.57551
#
# Poissons Ratio (x) = 0.10827 0.23840
# Poissons Ratio (y) = 0.05009 0.06900
# Poissons Ratio (z) = 0.18524 0.11588
#
# Static dielectric constant tensor:
#      x y z
#    x 1.840820 0.000000 -0.035470 
#    y 0.000000 1.846330 0.000000 
#    z -0.035470 0.000000 1.861650 
# 
# From -- ./inp_files/10700.got.cif
#   From: 2010.05.17/outbox.cif.g08.bks.cpg/sg8_6_cif.got.tgz:10700.got - 2010.06.03 19:46:02.
