data_PCOD9132832
_publ_section_title
;
Structure prediction by ZEFSAII (Michael W. Deem and Ramdas Pophale) SiO2 
 PCOD9132832
Probable space group: C M
;
_chemical_formula_sum "Si O2"
_cell_formula_units_Z 32
_cell_length_a 14.665297
_cell_length_b 17.323233
_cell_length_c 19.186602
_cell_angle_alpha 90.000000
_cell_angle_beta 162.409963
_cell_angle_gamma 90.000000
_cell_volume 1473.052698
_symmetry_space_group_name_H-M "C M"
_symmetry_group_IT_number 8
_symmetry_cell_setting 'monoclinic'
loop_
_space_group_symop_operation_xyz
x,y,z
x,-y,z
1/2+x,1/2+y,z
1/2+x,1/2-y,z
loop_
_atom_site_type_symbol
_atom_site_label
_atom_site_fract_x
_atom_site_fract_y
_atom_site_fract_z
Si Si1 0.643670 0.867284 0.274440
Si Si2 0.120876 0.256172 0.893747
Si Si3 0.558234 0.236620 0.572051
Si Si4 0.851538 0.581984 0.195478
Si Si5 0.660169 0.916109 0.718325
Si Si6 0.509439 0.245555 0.378595
Si Si7 0.423505 0.414737 0.334030
Si Si8 0.145661 0.583325 0.873169
O O1 0.528669 0.920248 0.252257
O O2 0.739984 0.906444 0.272512
O O3 0.922793 0.814462 0.504406
O O4 0.366334 0.808429 0.062709
O O5 0.261128 0.341048 0.995369
O O6 0.911390 0.244965 0.809363
O O7 0.873147 0.252166 0.651050
O O8 0.501727 0.159942 0.574176
O O9 0.410124 0.233542 0.386976
O O10 0.920720 0.500000 0.284595
O O11 0.931064 0.665696 0.284869
O O12 0.490623 0.582376 0.924358
O O13 0.708379 0.910203 0.836377
O O14 0.513183 0.000000 0.598184
O O15 0.389628 0.331232 0.270512
O O16 0.358691 0.500000 0.254939
O O17 0.780068 0.415602 0.613423
O O18 0.256536 0.500000 0.978542
#
# Coordination Sequence:
#
# PCOD9132832 Si02
#       8
#     4   4   4   4   4   4   4   4
#     4  11  20  35  60  83 113 151 190 232 294 343
#     4   9  19  37  53  82 114 149 189 228 289 343
#     4   9  20  36  54  83 111 153 185 231 287 342
#     4  11  22  36  57  88 116 149 195 241 288 342
#     4  10  21  36  56  81 114 153 193 237 287 341
#     4   8  19  36  52  82 110 150 186 231 290 334
#     4   9  18  35  55  80 106 142 192 232 277 336
#     4   9  18  33  56  79 106 145 193 238 276 333
#
# _framework density 21.723593999999999
#
# number of rings (size 3 to 8) (size 9 to 14) (size 15 to 20)
#    0.750    1.750    2.500    0.375    7.000    0.500 
#    0.000    1.875    0.000    0.750    0.000    0.000 
#    0.000    0.000    0.000    0.000    0.000    0.000 
#
# Total GULP energy -89072.843427 kJ/mol
# GULP energy per Si atom -5567.052714 kJ/mol
# Density = 2.167415 g / cm^3
# Si number density = 21.723594 Si / 1000 Ang^3
#
#
#
# Elastic Constant Matrix: (Units=GPa)
#
#
# Indices 1 2 3 4 5 6 
#
# 1 57.7918 25.8702 14.8082 0.2338 21.8180 0.1109
# 2 25.8702 221.8520 18.3287 1.7384 -11.9011 1.3009
# 3 14.8082 18.3287 39.5499 0.4670 18.8166 0.9326
# 4 0.2338 1.7384 0.4670 -278.6587 0.8650 -198.4570
# 5 21.8180 -11.9011 18.8166 0.8650 27.5870 0.4610
# 6 0.1109 1.3009 0.9326 -198.4570 0.4610 -106.2588
#
#
#
# Elastic Compliance Matrix: (Units=1/GPa)
#
#
# Indices 1 2 3 4 5 6 
#
# 1 0.029431 -0.005461 0.005491 0.000028 -0.029375 -0.000167
# 2 -0.005461 0.006261 -0.006217 -0.000038 0.011259 0.000136
# 3 0.005491 -0.006217 0.043624 0.000558 -0.036782 -0.000889
# 4 0.000028 -0.000038 0.000558 0.010878 -0.000420 -0.020313
# 5 -0.029375 0.011259 -0.036782 -0.000420 0.089424 0.000958
# 6 -0.000167 0.000136 -0.000889 -0.020313 0.000958 0.028526
#
#
# Mechanical properties :
#
#
# Convention : Reuss Voigt Hill
#
# Bulk Modulus (GPa) = 14.93808 48.57868 31.75838
# Shear Modulus (GPa) = 20.59042 -54.12034 -16.76496
#
# Velocity S-wave (km/s) = 3.08204 -4.99672 -2.78103
# Velocity P-wave (km/s) = 4.42229 3.29832 2.08299
#
# Compressibility (1/GPa) = 0.06694302
#
# Stress axis : x y z
#
# Youngs Moduli (GPa) = 33.97744 159.70978 22.92327
#
# Poissons Ratio (x) = 0.87212 -0.12586
# Poissons Ratio (y) = 0.18554 0.14251
# Poissons Ratio (z) = -0.18656 0.99285
#
# Static dielectric constant tensor:
#      x y z
#    x 1.817820 -0.000050 -0.002270 
#    y -0.000050 1.859930 -0.000180 
#    z -0.002270 -0.000180 1.807960 
# 
# From -- ./inp_files/30983.got.cif
#   From: 2010.05.17/outbox.cif.g08.bks.cpg/sg8_16_cif.got.tgz:30983.got - 2010.06.03 19:46:02.
