data_PCOD9132202
_publ_section_title
;
Structure prediction by ZEFSAII (Michael W. Deem and Ramdas Pophale) SiO2 
 PCOD9132202
Probable space group: C M
;
_chemical_formula_sum "Si O2"
_cell_formula_units_Z 28
_cell_length_a 15.911647
_cell_length_b 17.599772
_cell_length_c 9.159142
_cell_angle_alpha 90.000000
_cell_angle_beta 146.152049
_cell_angle_gamma 90.000000
_cell_volume 1428.647379
_symmetry_space_group_name_H-M "C M"
_symmetry_group_IT_number 8
_symmetry_cell_setting 'monoclinic'
loop_
_space_group_symop_operation_xyz
x,y,z
x,-y,z
1/2+x,1/2+y,z
1/2+x,1/2-y,z
loop_
_atom_site_type_symbol
_atom_site_label
_atom_site_fract_x
_atom_site_fract_y
_atom_site_fract_z
Si Si1 0.147190 0.173452 0.510880
Si Si2 0.339944 0.273039 0.003029
Si Si3 0.328797 0.858049 0.203410
Si Si4 0.380788 0.409096 0.686570
Si Si5 0.199427 0.909830 0.301716
Si Si6 0.530812 0.587554 0.620617
Si Si7 0.667216 0.090342 0.633376
O O1 0.215120 0.116908 0.490150
O O2 0.053553 0.131219 0.503343
O O3 0.018989 0.221823 0.245750
O O4 0.268230 0.223911 0.769104
O O5 0.309961 0.225668 0.107755
O O6 0.260190 0.355070 0.876998
O O7 0.306437 0.865375 0.343915
O O8 0.491668 0.889758 0.393570
O O9 0.193254 0.906920 0.936599
O O10 0.376927 0.500000 0.661818
O O11 0.414393 0.378640 0.572569
O O12 0.235124 0.389466 0.571401
O O13 0.527948 0.394180 0.999263
O O14 0.225581 0.000000 0.325659
O O15 0.494879 0.500000 0.538309
O O16 0.691909 0.000000 0.693336
#
# Coordination Sequence:
#
# PCOD9132202 Si02
#       7
#     4   4   4   4   4   4   4
#     4  11  22  39  61  89 127 162 210 264 311 376
#     4  11  23  41  58  91 125 167 211 255 324 375
#     4  10  21  39  61  89 129 164 202 257 320 386
#     4   8  16  31  57  90 118 153 199 251 310 368
#     4  10  19  37  64  93 119 161 213 255 311 379
#     4   9  18  35  62  91 119 156 206 258 314 375
#     4  11  20  36  64  89 124 165 211 258 308 375
#
# _framework density 19.598956999999999
#
# number of rings (size 3 to 8) (size 9 to 14) (size 15 to 20)
#    0.000    2.000    2.857    2.571    0.000    0.571 
#    5.143    0.000    3.143    0.000    0.000    0.000 
#    0.000    0.000    0.000    0.000    0.000    0.000 
#
# Total GULP energy -78058.538993 kJ/mol
# GULP energy per Si atom -5575.609928 kJ/mol
# Density = 1.955435 g / cm^3
# Si number density = 19.598957 Si / 1000 Ang^3
#
#
#
# Elastic Constant Matrix: (Units=GPa)
#
#
# Indices 1 2 3 4 5 6 
#
# 1 160.4519 46.2943 42.5255 0.0000 -5.2689 0.0000
# 2 46.2943 86.4704 21.3680 0.0000 -20.1491 0.0000
# 3 42.5255 21.3680 62.7690 0.0000 -1.4759 0.0000
# 4 0.0000 0.0000 0.0000 18.2805 0.0000 -2.0305
# 5 -5.2689 -20.1491 -1.4759 0.0000 29.9043 0.0000
# 6 0.0000 0.0000 0.0000 -2.0305 0.0000 22.3288
#
#
#
# Elastic Compliance Matrix: (Units=1/GPa)
#
#
# Indices 1 2 3 4 5 6 
#
# 1 0.008451 -0.003699 -0.004495 0.000000 -0.001225 0.000000
# 2 -0.003699 0.016708 -0.002936 0.000000 0.010461 0.000000
# 3 -0.004495 -0.002936 0.019934 0.000000 -0.001786 0.000000
# 4 0.000000 0.000000 0.000000 0.055261 0.000000 0.005025
# 5 -0.001225 0.010461 -0.001786 0.000000 0.040184 0.000000
# 6 0.000000 0.000000 0.000000 0.005025 0.000000 0.045242
#
#
# Mechanical properties :
#
#
# Convention : Reuss Voigt Hill
#
# Bulk Modulus (GPa) = 43.79525 58.89632 51.34578
# Shear Modulus (GPa) = 23.18556 27.40296 25.29426
#
# Velocity S-wave (km/s) = 3.44321 3.74329 3.59638
# Velocity P-wave (km/s) = 6.18076 6.98562 6.59548
#
# Compressibility (1/GPa) = 0.02283353
#
# Stress axis : x y z
#
# Youngs Moduli (GPa) = 118.33272 59.85107 50.16542
#
# Poissons Ratio (x) = 0.22140 0.22549
# Poissons Ratio (y) = 0.43773 0.14727
# Poissons Ratio (z) = 0.53189 0.17571
#
# Static dielectric constant tensor:
#      x y z
#    x 1.721570 0.000000 -0.014770 
#    y 0.000000 1.716980 0.000000 
#    z -0.014770 0.000000 1.681210 
# 
# From -- ./inp_files/13575.got.cif
#   From: 2010.05.17/outbox.cif.g08.bks.cpg/sg8_7_cif.got.tgz:13575.got - 2010.06.03 19:46:02.
