data_PCOD9132122
_publ_section_title
;
Structure prediction by ZEFSAII (Michael W. Deem and Ramdas Pophale) SiO2 
 PCOD9132122
Probable space group: C M
;
_chemical_formula_sum "Si O2"
_cell_formula_units_Z 22
_cell_length_a 14.575127
_cell_length_b 10.360457
_cell_length_c 9.085076
_cell_angle_alpha 90.000000
_cell_angle_beta 139.377837
_cell_angle_gamma 90.000000
_cell_volume 893.194596
_symmetry_space_group_name_H-M "C M"
_symmetry_group_IT_number 8
_symmetry_cell_setting 'monoclinic'
loop_
_space_group_symop_operation_xyz
x,y,z
x,-y,z
1/2+x,1/2+y,z
1/2+x,1/2-y,z
loop_
_atom_site_type_symbol
_atom_site_label
_atom_site_fract_x
_atom_site_fract_y
_atom_site_fract_z
Si Si1 0.524490 0.767909 0.539550
Si Si2 0.276288 0.355189 0.337533
Si Si3 0.595053 0.000000 0.831954
Si Si4 0.675828 0.500000 0.816118
Si Si5 0.627134 0.716257 0.382366
Si Si6 0.403987 0.500000 0.060504
Si Si7 0.959928 0.000000 0.782620
Si Si8 0.845813 0.500000 0.749117
O O1 0.359027 0.734614 0.326463
O O2 0.599580 0.630311 0.664866
O O3 0.597589 0.814641 0.479065
O O4 0.541002 0.869561 0.687577
O O5 0.257582 0.500000 0.254598
O O6 0.144940 0.285469 0.248437
O O7 0.379712 0.381208 0.603692
O O8 0.754972 0.000000 0.958431
O O9 0.499715 0.000000 0.866319
O O10 0.623189 0.500000 0.924088
O O11 0.821520 0.500000 0.898754
O O12 0.759167 0.623581 0.579820
O O13 0.492151 0.624516 0.216834
O O14 0.421441 0.500000 0.905019
#
# Coordination Sequence:
#
# PCOD9132122 Si02
#       8
#     4   4   2   2   4   2   2   2
#     4  10  19  35  65  91 120 160 219 248 304 376
#     4   9  18  35  66  88 109 164 217 254 291 374
#     4  12  22  36  64 102 125 163 217 263 307 378
#     4   8  17  37  63  88 120 164 206 266 301 362
#     4  10  20  37  59  89 123 163 206 256 314 366
#     4  11  24  37  59  97 136 165 192 274 337 357
#     4   8  17  35  61  94 117 157 215 255 315 364
#     4   9  18  33  63  93 114 157 222 248 296 383
#
# _framework density 24.630690999999999
#
# number of rings (size 3 to 8) (size 9 to 14) (size 15 to 20)
#    0.545    1.818    2.727    1.636    1.273    0.000 
#    0.000    3.636    2.000    0.000    2.364    0.000 
#    0.000    0.000    0.000    0.000    0.000    0.000 
#
# Total GULP energy -61296.871988 kJ/mol
# GULP energy per Si atom -5572.442908 kJ/mol
# Density = 2.457463 g / cm^3
# Si number density = 24.630691 Si / 1000 Ang^3
#
#
#
# Elastic Constant Matrix: (Units=GPa)
#
#
# Indices 1 2 3 4 5 6 
#
# 1 246.2085 34.1047 54.0458 0.0000 28.4329 0.0000
# 2 34.1047 79.6325 1.0007 0.0000 23.4074 0.0000
# 3 54.0458 1.0007 45.6971 0.0000 21.8738 0.0000
# 4 0.0000 0.0000 0.0000 8.4376 0.0000 0.0095
# 5 28.4329 23.4074 21.8738 0.0000 35.4919 0.0000
# 6 0.0000 0.0000 0.0000 0.0095 0.0000 39.2823
#
#
#
# Elastic Compliance Matrix: (Units=1/GPa)
#
#
# Indices 1 2 3 4 5 6 
#
# 1 0.006021 -0.003141 -0.008135 0.000000 0.002262 0.000000
# 2 -0.003141 0.018704 0.011356 0.000000 -0.016817 0.000000
# 3 -0.008135 0.011356 0.044995 0.000000 -0.028703 0.000000
# 4 0.000000 0.000000 0.000000 0.118517 0.000000 -0.000029
# 5 0.002262 -0.016817 -0.028703 0.000000 0.055144 0.000000
# 6 0.000000 0.000000 0.000000 -0.000029 0.000000 0.025457
#
#
# Mechanical properties :
#
#
# Convention : Reuss Voigt Hill
#
# Bulk Modulus (GPa) = 14.31064 61.09341 37.70202
# Shear Modulus (GPa) = 17.12486 35.46815 26.29651
#
# Velocity S-wave (km/s) = 2.63965 3.79885 3.27101
# Velocity P-wave (km/s) = 3.88755 6.64073 5.44115
#
# Compressibility (1/GPa) = 0.06987807
#
# Stress axis : x y z
#
# Youngs Moduli (GPa) = 166.07583 53.46544 22.22454
#
# Poissons Ratio (x) = 0.16796 0.18080
# Poissons Ratio (y) = 0.52172 -0.25237
# Poissons Ratio (z) = 1.35108 -0.60713
#
# Static dielectric constant tensor:
#      x y z
#    x 2.017140 0.000000 -0.029220 
#    y 0.000000 1.927220 0.000000 
#    z -0.029220 0.000000 2.014280 
# 
# From -- ./inp_files/12404.got.cif
#   From: 2010.05.17/outbox.cif.g08.bks.cpg/sg8_7_cif.got.tgz:12404.got - 2010.06.03 19:46:02.
