data_PCOD9132571
_publ_section_title
;
Structure prediction by ZEFSAII (Michael W. Deem and Ramdas Pophale) SiO2 
 PCOD9132571
Probable space group: C M
;
_chemical_formula_sum "Si O2"
_cell_formula_units_Z 28
_cell_length_a 13.940828
_cell_length_b 10.442987
_cell_length_c 20.252386
_cell_angle_alpha 90.000000
_cell_angle_beta 26.915209
_cell_angle_gamma 90.000000
_cell_volume 1334.665937
_symmetry_space_group_name_H-M "C M"
_symmetry_group_IT_number 8
_symmetry_cell_setting 'monoclinic'
loop_
_space_group_symop_operation_xyz
x,y,z
x,-y,z
1/2+x,1/2+y,z
1/2+x,1/2-y,z
loop_
_atom_site_type_symbol
_atom_site_label
_atom_site_fract_x
_atom_site_fract_y
_atom_site_fract_z
Si Si1 0.962990 0.853317 0.915820
Si Si2 0.005888 0.853896 0.037143
Si Si3 0.171269 0.649405 0.537842
Si Si4 0.113085 0.359653 0.723128
Si Si5 0.007659 0.352246 0.147449
Si Si6 0.004371 0.361920 0.365721
Si Si7 0.551869 0.252520 0.473821
O O1 0.033950 0.753363 0.817704
O O2 0.018370 0.000000 0.864289
O O3 0.059175 0.825453 0.928568
O O4 0.706320 0.847515 0.074997
O O5 0.749860 0.855739 0.196798
O O6 0.065587 0.745199 0.052625
O O7 0.074921 0.000000 0.011071
O O8 0.229483 0.500000 0.495006
O O9 0.062667 0.661552 0.676580
O O10 0.372955 0.743422 0.418541
O O11 0.044140 0.693685 0.551475
O O12 0.035177 0.500000 0.790891
O O13 0.367955 0.355458 0.574961
O O14 0.986570 0.500000 0.137882
O O15 0.786160 0.307324 0.315094
O O16 0.915637 0.500000 0.399089
O O17 0.003265 0.349699 0.446003
#
# Coordination Sequence:
#
# PCOD9132571 Si02
#       7
#     4   4   4   4   4   4   4
#     4  10  22  40  59  81 115 155 189 228 283 341
#     4   9  19  36  57  82 113 150 188 229 281 337
#     4  10  21  36  56  82 113 149 190 234 281 332
#     4  10  23  40  57  83 116 150 191 237 281 330
#     4  10  21  38  61  89 115 144 188 237 282 333
#     4   9  18  33  55  84 115 144 182 231 283 340
#     4  10  20  37  61  85 113 148 188 232 283 337
#
# _framework density 20.979033000000001
#
# number of rings (size 3 to 8) (size 9 to 14) (size 15 to 20)
#    0.000    2.286    0.000    1.714    0.000   11.429 
#    0.000    5.714    0.000    0.000    0.000    0.000 
#    0.000    0.000    0.000    0.000    0.000    0.000 
#
# Total GULP energy -78154.978297 kJ/mol
# GULP energy per Si atom -5582.498450 kJ/mol
# Density = 2.093128 g / cm^3
# Si number density = 20.979033 Si / 1000 Ang^3
#
#
#
# Elastic Constant Matrix: (Units=GPa)
#
#
# Indices 1 2 3 4 5 6 
#
# 1 128.9377 65.2607 27.8846 0.0009 21.4235 -0.0003
# 2 65.2607 133.8234 29.6671 0.0002 21.5091 0.0001
# 3 27.8846 29.6671 56.5752 0.0016 5.3029 -0.0003
# 4 0.0009 0.0002 0.0016 24.3491 -0.0002 0.0703
# 5 21.4235 21.5091 5.3029 -0.0002 31.6013 0.0003
# 6 -0.0003 0.0001 -0.0003 0.0703 0.0003 19.2458
#
#
#
# Elastic Compliance Matrix: (Units=1/GPa)
#
#
# Indices 1 2 3 4 5 6 
#
# 1 0.011189 -0.004111 -0.002957 0.000000 -0.004291 0.000000
# 2 -0.004111 0.010857 -0.003287 0.000000 -0.004051 0.000000
# 3 -0.002957 -0.003287 0.020786 -0.000001 0.000754 0.000000
# 4 0.000000 0.000000 -0.000001 0.041070 0.000000 -0.000150
# 5 -0.004291 -0.004051 0.000754 0.000000 0.037184 -0.000001
# 6 0.000000 0.000000 0.000000 -0.000150 -0.000001 0.051960
#
#
# Mechanical properties :
#
#
# Convention : Reuss Voigt Hill
#
# Bulk Modulus (GPa) = 45.20449 62.77346 53.98897
# Shear Modulus (GPa) = 24.85949 28.14085 26.50017
#
# Velocity S-wave (km/s) = 3.44607 3.66646 3.55797
# Velocity P-wave (km/s) = 6.11785 6.92177 6.53219
#
# Compressibility (1/GPa) = 0.02212170
#
# Stress axis : x y z
#
# Youngs Moduli (GPa) = 89.37386 92.10339 48.10918
#
# Poissons Ratio (x) = 0.37867 0.14224
# Poissons Ratio (y) = 0.36744 0.15815
# Poissons Ratio (z) = 0.26425 0.30278
#
# Static dielectric constant tensor:
#      x y z
#    x 1.745230 0.000000 -0.008930 
#    y 0.000000 1.720150 0.000000 
#    z -0.008930 0.000000 1.787910 
# 
# From -- ./inp_files/27840.got.cif
#   From: 2010.05.17/outbox.cif.g08.bks.cpg/sg8_14_cif.got.tgz:27840.got - 2010.06.03 19:46:02.
