data_PCOD9132995
_publ_section_title
;
Structure prediction by ZEFSAII (Michael W. Deem and Ramdas Pophale) SiO2 
 PCOD9132995
Probable space group: C M
;
_chemical_formula_sum "Si O2"
_cell_formula_units_Z 28
_cell_length_a 10.779585
_cell_length_b 15.658432
_cell_length_c 7.598587
_cell_angle_alpha 90.000000
_cell_angle_beta 71.877609
_cell_angle_gamma 90.000000
_cell_volume 1218.952974
_symmetry_space_group_name_H-M "C M"
_symmetry_group_IT_number 8
_symmetry_cell_setting 'monoclinic'
loop_
_space_group_symop_operation_xyz
x,y,z
x,-y,z
1/2+x,1/2+y,z
1/2+x,1/2-y,z
loop_
_atom_site_type_symbol
_atom_site_label
_atom_site_fract_x
_atom_site_fract_y
_atom_site_fract_z
Si Si1 0.074510 0.902446 0.313920
Si Si2 0.227059 0.098289 0.929105
Si Si3 0.922046 0.593693 0.536592
Si Si4 0.018062 0.230774 0.869123
Si Si5 0.393216 0.244230 0.271684
Si Si6 0.683539 0.845730 0.530152
Si Si7 0.907045 0.094746 0.695251
O O1 0.988125 0.822783 0.287798
O O2 0.048532 0.899958 0.534040
O O3 0.026448 0.000000 0.290266
O O4 0.210966 0.894633 0.149123
O O5 0.356209 0.112057 0.756415
O O6 0.120406 0.162474 0.900859
O O7 0.190822 0.000000 0.906490
O O8 0.876300 0.500000 0.496981
O O9 0.892843 0.669166 0.414236
O O10 0.077328 0.593280 0.492620
O O11 0.099193 0.286202 0.696663
O O12 0.906238 0.173499 0.827180
O O13 0.950071 0.281053 0.058044
O O14 0.251879 0.288369 0.349960
O O15 0.794469 0.890837 0.599332
O O16 0.893149 0.000000 0.778229
#
# Coordination Sequence:
#
# PCOD9132995 Si02
#       7
#     4   4   4   4   4   4   4
#     4   8  16  34  63  94 125 161 216 271 318 378
#     4   9  18  36  63  95 127 167 219 275 330 388
#     4  11  23  43  66  95 135 177 217 272 337 398
#     4  11  22  38  65  94 128 171 223 268 325 387
#     4  10  22  41  63  95 128 178 222 271 323 390
#     4  11  22  41  63  94 130 171 218 268 330 389
#     4  10  21  39  63  95 131 169 212 269 328 388
#
# _framework density 22.970534000000001
#
# number of rings (size 3 to 8) (size 9 to 14) (size 15 to 20)
#    0.000    2.000    1.429    2.571    0.000    2.286 
#    5.143    2.857    0.000    0.000    0.000    0.000 
#    0.000    0.000    0.000    0.000    0.000    0.000 
#
# Total GULP energy -78108.057173 kJ/mol
# GULP energy per Si atom -5579.146941 kJ/mol
# Density = 2.291825 g / cm^3
# Si number density = 22.970534 Si / 1000 Ang^3
#
#
#
# Elastic Constant Matrix: (Units=GPa)
#
#
# Indices 1 2 3 4 5 6 
#
# 1 46.8025 12.5503 3.1871 0.0000 -18.1450 0.0000
# 2 12.5503 112.1409 40.7682 0.0000 -13.8547 0.0000
# 3 3.1871 40.7682 110.6895 0.0000 -26.8775 0.0000
# 4 0.0000 0.0000 0.0000 28.8506 0.0000 -4.8362
# 5 -18.1450 -13.8547 -26.8775 0.0000 28.1358 0.0000
# 6 0.0000 0.0000 0.0000 -4.8362 0.0000 22.8710
#
#
#
# Elastic Compliance Matrix: (Units=1/GPa)
#
#
# Indices 1 2 3 4 5 6 
#
# 1 0.031202 -0.002653 0.006051 0.000000 0.024596 0.000000
# 2 -0.002653 0.010599 -0.003874 0.000000 -0.000193 0.000000
# 3 0.006051 -0.003874 0.014024 0.000000 0.015392 0.000000
# 4 0.000000 0.000000 0.000000 0.035935 0.000000 0.007599
# 5 0.024596 -0.000193 0.015392 0.000000 0.066013 0.000000
# 6 0.000000 0.000000 0.000000 0.007599 0.000000 0.045330
#
#
# Mechanical properties :
#
#
# Convention : Reuss Voigt Hill
#
# Bulk Modulus (GPa) = 18.22390 42.51601 30.36996
# Shear Modulus (GPa) = 22.48748 30.17995 26.33371
#
# Velocity S-wave (km/s) = 3.13225 3.62865 3.38955
# Velocity P-wave (km/s) = 4.58608 6.00876 5.34497
#
# Compressibility (1/GPa) = 0.05487299
#
# Stress axis : x y z
#
# Youngs Moduli (GPa) = 32.04970 94.34975 71.30442
#
# Poissons Ratio (x) = 0.25031 -0.43148
# Poissons Ratio (y) = 0.08503 0.27624
# Poissons Ratio (z) = -0.19394 0.36552
#
# Static dielectric constant tensor:
#      x y z
#    x 1.910410 0.000000 0.023720 
#    y 0.000000 1.917020 0.000000 
#    z 0.023720 0.000000 1.891590 
# 
# From -- ./inp_files/10702.got.cif
#   From: 2010.05.17/outbox.cif.g08.bks.cpg/sg8_6_cif.got.tgz:10702.got - 2010.06.03 19:46:02.
