data_PCOD9132883
_publ_section_title
;
Structure prediction by ZEFSAII (Michael W. Deem and Ramdas Pophale) SiO2 
 PCOD9132883
Probable space group: C M
;
_chemical_formula_sum "Si O2"
_cell_formula_units_Z 32
_cell_length_a 15.557421
_cell_length_b 8.873300
_cell_length_c 23.302685
_cell_angle_alpha 90.000000
_cell_angle_beta 31.802601
_cell_angle_gamma 90.000000
_cell_volume 1695.253755
_symmetry_space_group_name_H-M "C M"
_symmetry_group_IT_number 8
_symmetry_cell_setting 'monoclinic'
loop_
_space_group_symop_operation_xyz
x,y,z
x,-y,z
1/2+x,1/2+y,z
1/2+x,1/2-y,z
loop_
_atom_site_type_symbol
_atom_site_label
_atom_site_fract_x
_atom_site_fract_y
_atom_site_fract_z
Si Si1 0.905130 0.823924 0.603510
Si Si2 0.416176 0.318519 0.388300
Si Si3 0.767530 0.681895 0.365903
Si Si4 0.673438 0.823359 0.623672
Si Si5 0.273161 0.818025 0.231040
Si Si6 0.121840 0.818974 0.832547
Si Si7 0.069050 0.180989 0.993727
Si Si8 0.397851 0.319888 0.852513
O O1 0.806208 0.814769 0.599674
O O2 0.797183 0.738374 0.711410
O O3 0.087206 0.767469 0.488557
O O4 0.913375 0.000000 0.614739
O O5 0.409327 0.500000 0.389806
O O6 0.394891 0.248739 0.338094
O O7 0.266287 0.269525 0.514182
O O8 0.589102 0.277306 0.317706
O O9 0.768676 0.500000 0.367168
O O10 0.798414 0.726609 0.282901
O O11 0.518898 0.729858 0.732518
O O12 0.627757 0.000000 0.643198
O O13 0.287373 0.000000 0.219329
O O14 0.405492 0.742961 0.115198
O O15 0.083205 0.769481 0.919033
O O16 0.988402 0.770909 0.860286
O O17 0.123820 0.000000 0.830654
O O18 0.224588 0.243886 0.939947
O O19 0.070789 0.000000 0.994084
O O20 0.380608 0.500000 0.863329
#
# Coordination Sequence:
#
# PCOD9132883 Si02
#       8
#     4   4   4   4   4   4   4   4
#     4   9  17  33  58  85 116 152 189 230 282 344
#     4  10  21  37  59  86 116 153 194 236 287 344
#     4  10  21  37  58  86 117 151 191 238 289 342
#     4   9  17  34  58  84 119 156 188 233 288 340
#     4  10  22  43  62  80 115 158 197 237 286 343
#     4   9  21  39  57  82 117 152 187 235 290 339
#     4  11  24  41  61  85 115 153 197 242 289 341
#     4  10  21  38  59  86 117 153 193 235 287 345
#
# _framework density 18.87623
#
# number of rings (size 3 to 8) (size 9 to 14) (size 15 to 20)
#    0.000    2.250    1.250    0.750    1.750    4.500 
#    0.000    3.750    0.000    0.000    0.000    0.000 
#    0.000    0.000    0.000    0.000    0.000    0.000 
#
# Total GULP energy -89335.767217 kJ/mol
# GULP energy per Si atom -5583.485451 kJ/mol
# Density = 1.883327 g / cm^3
# Si number density = 18.876230 Si / 1000 Ang^3
#
#
#
# Elastic Constant Matrix: (Units=GPa)
#
#
# Indices 1 2 3 4 5 6 
#
# 1 72.6774 18.6119 24.9821 0.0001 28.1015 0.0000
# 2 18.6119 15.4108 19.1894 0.0000 5.5342 0.0000
# 3 24.9821 19.1894 80.3411 -0.0001 26.1498 0.0000
# 4 0.0001 0.0000 -0.0001 29.2451 0.0000 1.9981
# 5 28.1015 5.5342 26.1498 0.0000 25.8844 0.0000
# 6 0.0000 0.0000 0.0000 1.9981 0.0000 25.7705
#
#
#
# Elastic Compliance Matrix: (Units=1/GPa)
#
#
# Indices 1 2 3 4 5 6 
#
# 1 0.039733 -0.049539 0.015004 0.000000 -0.047702 0.000000
# 2 -0.049539 0.154372 -0.042060 0.000000 0.063268 0.000000
# 3 0.015004 -0.042060 0.030100 0.000000 -0.037705 0.000000
# 4 0.000000 0.000000 0.000000 0.034376 0.000000 -0.002665
# 5 -0.047702 0.063268 -0.037705 0.000000 0.114985 0.000000
# 6 0.000000 0.000000 0.000000 -0.002665 0.000000 0.039011
#
#
# Mechanical properties :
#
#
# Convention : Reuss Voigt Hill
#
# Bulk Modulus (GPa) = 14.08173 32.66624 23.37398
# Shear Modulus (GPa) = 8.48265 23.22307 15.85286
#
# Velocity S-wave (km/s) = 2.12216 3.51134 2.90113
# Velocity P-wave (km/s) = 3.67165 5.81226 4.86125
#
# Compressibility (1/GPa) = 0.07101400
#
# Stress axis : x y z
#
# Youngs Moduli (GPa) = 25.16799 6.47787 33.22271
#
# Poissons Ratio (x) = 0.32090 -0.49846
# Poissons Ratio (y) = 1.24679 1.39736
# Poissons Ratio (z) = -0.37761 0.27246
#
# Static dielectric constant tensor:
#      x y z
#    x 1.662490 0.000000 0.000420 
#    y 0.000000 1.636710 0.000000 
#    z 0.000420 0.000000 1.628120 
# 
# From -- ./inp_files/24782.got.cif
#   From: 2010.05.17/outbox.cif.g08.bks.cpg/sg8_13_cif.got.tgz:24782.got - 2010.06.03 19:46:02.
