data_PCOD9132643
_publ_section_title
;
Structure prediction by ZEFSAII (Michael W. Deem and Ramdas Pophale) SiO2 
 PCOD9132643
Probable space group: C M
;
_chemical_formula_sum "Si O2"
_cell_formula_units_Z 26
_cell_length_a 14.473471
_cell_length_b 10.316735
_cell_length_c 11.739589
_cell_angle_alpha 90.000000
_cell_angle_beta 42.550653
_cell_angle_gamma 90.000000
_cell_volume 1185.413416
_symmetry_space_group_name_H-M "C M"
_symmetry_group_IT_number 8
_symmetry_cell_setting 'monoclinic'
loop_
_space_group_symop_operation_xyz
x,y,z
x,-y,z
1/2+x,1/2+y,z
1/2+x,1/2-y,z
loop_
_atom_site_type_symbol
_atom_site_label
_atom_site_fract_x
_atom_site_fract_y
_atom_site_fract_z
Si Si1 0.577120 0.355710 0.549990
Si Si2 0.354721 0.750003 0.368972
Si Si3 0.705875 0.742139 0.799842
Si Si4 0.280898 0.500000 0.589533
Si Si5 0.408214 0.345809 0.070376
Si Si6 0.988114 0.643995 0.455819
Si Si7 0.290149 0.650747 0.945098
O O1 0.574191 0.500000 0.501199
O O2 0.714258 0.331983 0.495858
O O3 0.566209 0.249344 0.460636
O O4 0.443040 0.344952 0.750343
O O5 0.325271 0.614399 0.458155
O O6 0.386265 0.726338 0.208758
O O7 0.469810 0.820163 0.340172
O O8 0.735174 0.884340 0.721330
O O9 0.833134 0.654661 0.645564
O O10 0.706321 0.759272 0.936080
O O11 0.561921 0.686930 0.892333
O O12 0.395780 0.500000 0.097184
O O13 0.306680 0.306885 0.060469
O O14 0.043355 0.500000 0.421893
O O15 0.246895 0.500000 0.982027
#
# Coordination Sequence:
#
# PCOD9132643 Si02
#       7
#     4   4   4   2   4   4   4
#     4  10  22  40  66  93 123 167 218 269 318 380
#     4  11  23  39  62  88 134 169 213 267 326 385
#     4  10  20  38  65  91 124 164 217 269 317 378
#     4  10  20  38  62  92 118 172 222 264 308 378
#     4  11  23  39  60  92 129 171 208 262 332 381
#     4  10  22  39  66  94 123 166 222 268 313 382
#     4   9  18  37  63  87 116 161 212 260 309 378
#
# _framework density 21.933275999999999
#
# number of rings (size 3 to 8) (size 9 to 14) (size 15 to 20)
#    0.000    1.846    1.538    2.769    7.538    2.462 
#    2.769    1.538    1.692    0.000    0.000    0.000 
#    0.000    0.000    0.000    0.000    0.000    0.000 
#
# Total GULP energy -72426.446339 kJ/mol
# GULP energy per Si atom -5571.265103 kJ/mol
# Density = 2.188336 g / cm^3
# Si number density = 21.933276 Si / 1000 Ang^3
#
#
#
# Elastic Constant Matrix: (Units=GPa)
#
#
# Indices 1 2 3 4 5 6 
#
# 1 101.8867 21.5673 15.2685 0.0000 21.2074 0.0000
# 2 21.5673 119.9570 11.3171 0.0000 11.5498 0.0000
# 3 15.2685 11.3171 70.6156 0.0000 21.0917 0.0000
# 4 0.0000 0.0000 0.0000 25.9572 0.0000 16.5199
# 5 21.2074 11.5498 21.0917 0.0000 46.9178 0.0000
# 6 0.0000 0.0000 0.0000 16.5199 0.0000 25.5603
#
#
#
# Elastic Compliance Matrix: (Units=1/GPa)
#
#
# Indices 1 2 3 4 5 6 
#
# 1 0.011157 -0.001511 -0.000895 0.000000 -0.004269 0.000000
# 2 -0.001511 0.008788 -0.000739 0.000000 -0.001149 0.000000
# 3 -0.000895 -0.000739 0.016516 0.000000 -0.006838 0.000000
# 4 0.000000 0.000000 0.000000 0.065444 0.000000 -0.042297
# 5 -0.004269 -0.001149 -0.006838 0.000000 0.026600 0.000000
# 6 0.000000 0.000000 0.000000 -0.042297 0.000000 0.066460
#
#
# Mechanical properties :
#
#
# Convention : Reuss Voigt Hill
#
# Bulk Modulus (GPa) = 33.14347 43.19611 38.16979
# Shear Modulus (GPa) = 23.66176 35.97417 29.81796
#
# Velocity S-wave (km/s) = 3.28808 4.05429 3.69112
# Velocity P-wave (km/s) = 5.43683 6.45395 5.96710
#
# Compressibility (1/GPa) = 0.03017185
#
# Stress axis : x y z
#
# Youngs Moduli (GPa) = 89.62752 113.78924 60.54904
#
# Poissons Ratio (x) = 0.17188 0.05421
# Poissons Ratio (y) = 0.13538 0.04473
# Poissons Ratio (z) = 0.08024 0.08407
#
# Static dielectric constant tensor:
#      x y z
#    x 1.818910 0.000000 0.002620 
#    y 0.000000 1.735880 0.000000 
#    z 0.002620 0.000000 1.854470 
# 
# From -- ./inp_files/21718.got.cif
#   From: 2010.05.17/outbox.cif.g08.bks.cpg/sg8_11_cif.got.tgz:21718.got - 2010.06.03 19:46:02.
