data_PCOD9132896
_publ_section_title
;
Structure prediction by ZEFSAII (Michael W. Deem and Ramdas Pophale) SiO2 
 PCOD9132896
Probable space group: C M
;
_chemical_formula_sum "Si O2"
_cell_formula_units_Z 32
_cell_length_a 14.527952
_cell_length_b 17.784321
_cell_length_c 11.980074
_cell_angle_alpha 90.000000
_cell_angle_beta 27.996431
_cell_angle_gamma 90.000000
_cell_volume 1452.979859
_symmetry_space_group_name_H-M "C M"
_symmetry_group_IT_number 8
_symmetry_cell_setting 'monoclinic'
loop_
_space_group_symop_operation_xyz
x,y,z
x,-y,z
1/2+x,1/2+y,z
1/2+x,1/2-y,z
loop_
_atom_site_type_symbol
_atom_site_label
_atom_site_fract_x
_atom_site_fract_y
_atom_site_fract_z
Si Si1 0.960970 0.412349 0.863580
Si Si2 0.564212 0.585580 0.842428
Si Si3 0.714239 0.916716 0.792926
Si Si4 0.299029 0.655844 0.938106
Si Si5 0.203603 0.413948 0.381415
Si Si6 0.634117 0.253438 0.482364
Si Si7 0.875671 0.290365 0.440560
Si Si8 0.071960 0.848582 0.334586
O O1 0.908709 0.500000 0.933393
O O2 0.059502 0.383408 0.871697
O O3 0.129186 0.411502 0.589054
O O4 0.758414 0.368821 0.060050
O O5 0.642533 0.500000 0.750999
O O6 0.418755 0.601757 0.893239
O O7 0.724875 0.651243 0.658693
O O8 0.429085 0.590017 0.098381
O O9 0.747765 0.876528 0.872691
O O10 0.929637 0.918242 0.507354
O O11 0.642968 0.000000 0.893878
O O12 0.437872 0.727086 0.762748
O O13 0.089924 0.673683 0.212141
O O14 0.140348 0.500000 0.410352
O O15 0.128854 0.329251 0.431969
O O16 0.802521 0.268165 0.394218
O O17 0.649602 0.314624 0.367997
O O18 0.916898 0.212815 0.458222
#
# Coordination Sequence:
#
# PCOD9132896 Si02
#       8
#     4   4   4   4   4   4   4   4
#     4  10  21  39  63  92 126 162 203 253 308 368
#     4  10  23  42  62  90 126 162 207 257 303 362
#     4  10  21  37  60  91 125 160 199 249 311 373
#     4  10  21  39  64  93 122 158 201 254 313 371
#     4  10  21  39  61  83 118 166 206 247 298 352
#     4  10  22  39  61  92 126 157 203 260 310 364
#     4  11  23  39  64  91 121 163 208 254 309 365
#     4  11  22  38  63  92 124 162 205 254 308 369
#
# _framework density 22.023705
#
# number of rings (size 3 to 8) (size 9 to 14) (size 15 to 20)
#    0.000    1.750    0.000    3.750    0.000    6.000 
#    0.000    8.125    0.000   14.250    0.000    0.000 
#    0.000    0.000    0.000    0.000    0.000    0.125 
#
# Total GULP energy -89123.977571 kJ/mol
# GULP energy per Si atom -5570.248598 kJ/mol
# Density = 2.197358 g / cm^3
# Si number density = 22.023705 Si / 1000 Ang^3
#
#
#
# Elastic Constant Matrix: (Units=GPa)
#
#
# Indices 1 2 3 4 5 6 
#
# 1 57.3614 21.5085 16.8695 -0.0102 -7.9510 0.0190
# 2 21.5085 110.5658 55.4240 -0.0191 -11.4843 0.0000
# 3 16.8695 55.4240 87.4926 -0.0136 -3.7985 -0.0055
# 4 -0.0102 -0.0191 -0.0136 19.8661 -0.0014 -8.5885
# 5 -7.9510 -11.4843 -3.7985 -0.0014 19.0771 -0.0062
# 6 0.0190 0.0000 -0.0055 -8.5885 -0.0062 11.5291
#
#
#
# Elastic Compliance Matrix: (Units=1/GPa)
#
#
# Indices 1 2 3 4 5 6 
#
# 1 0.019766 -0.002045 -0.002231 -0.000009 0.006563 -0.000037
# 2 -0.002045 0.014277 -0.008386 0.000012 0.006072 0.000012
# 3 -0.002231 -0.008386 0.017060 0.000010 -0.002581 0.000018
# 4 -0.000009 0.000012 0.000010 0.074249 0.000029 0.055311
# 5 0.006563 0.006072 -0.002581 0.000029 0.058295 0.000041
# 6 -0.000037 0.000012 0.000018 0.055311 0.000041 0.127941
#
#
# Mechanical properties :
#
#
# Convention : Reuss Voigt Hill
#
# Bulk Modulus (GPa) = 38.79144 49.22487 44.00815
# Shear Modulus (GPa) = 14.47163 20.86899 17.67031
#
# Velocity S-wave (km/s) = 2.56616 3.08160 2.83562
# Velocity P-wave (km/s) = 5.14121 5.92124 5.54496
#
# Compressibility (1/GPa) = 0.02577888
#
# Stress axis : x y z
#
# Youngs Moduli (GPa) = 50.59223 70.04476 58.61760
#
# Poissons Ratio (x) = 0.14326 0.13075
# Poissons Ratio (y) = 0.10348 0.49156
# Poissons Ratio (z) = 0.11285 0.58738
#
# Static dielectric constant tensor:
#      x y z
#    x 1.813910 -0.000010 0.012860 
#    y -0.000010 1.873840 0.000010 
#    z 0.012860 0.000010 1.837990 
# 
# From -- ./inp_files/22380.got.cif
#   From: 2010.05.17/outbox.cif.g08.bks.cpg/sg8_12_cif.got.tgz:22380.got - 2010.06.03 19:46:02.
