data_PCOD9132071
_publ_section_title
;
Structure prediction by ZEFSAII (Michael W. Deem and Ramdas Pophale) SiO2 
 PCOD9132071
Probable space group: C M
;
_chemical_formula_sum "Si O2"
_cell_formula_units_Z 32
_cell_length_a 20.996994
_cell_length_b 8.753179
_cell_length_c 20.646794
_cell_angle_alpha 90.000000
_cell_angle_beta 28.621769
_cell_angle_gamma 90.000000
_cell_volume 1817.749799
_symmetry_space_group_name_H-M "C M"
_symmetry_group_IT_number 8
_symmetry_cell_setting 'monoclinic'
loop_
_space_group_symop_operation_xyz
x,y,z
x,-y,z
1/2+x,1/2+y,z
1/2+x,1/2-y,z
loop_
_atom_site_type_symbol
_atom_site_label
_atom_site_fract_x
_atom_site_fract_y
_atom_site_fract_z
Si Si1 0.410800 0.682455 0.451910
Si Si2 0.841739 0.317563 0.754994
Si Si3 0.543581 0.816790 0.463019
Si Si4 0.163938 0.316427 0.166684
Si Si5 0.293977 0.817164 0.180250
Si Si6 0.597180 0.182599 0.894372
Si Si7 0.366563 0.316318 0.875046
Si Si8 0.129375 0.816751 0.721705
O O1 0.412761 0.500000 0.451328
O O2 0.461338 0.745982 0.476346
O O3 0.518082 0.745719 0.305099
O O4 0.263236 0.744923 0.573395
O O5 0.827935 0.500000 0.765966
O O6 0.711434 0.244292 0.839039
O O7 0.861039 0.260237 0.810353
O O8 0.967011 0.277433 0.597180
O O9 0.691994 0.751796 0.323354
O O10 0.545602 0.000000 0.453667
O O11 0.157026 0.500000 0.177921
O O12 0.248563 0.253481 0.152016
O O13 0.241187 0.275372 0.032290
O O14 0.276876 0.000000 0.192687
O O15 0.448779 0.782507 0.052313
O O16 0.613204 0.256322 0.809229
O O17 0.609273 0.000000 0.877145
O O18 0.365912 0.500000 0.867869
O O19 0.499896 0.275363 0.795492
O O20 0.141187 0.000000 0.712859
#
# Coordination Sequence:
#
# PCOD9132071 Si02
#       8
#     4   4   4   4   4   4   4   4
#     4  11  21  33  55  87 116 149 187 238 287 334
#     4  11  24  39  59  84 116 155 193 236 287 345
#     4  10  20  35  55  82 114 151 190 233 284 341
#     4  10  19  35  57  83 114 151 188 233 286 342
#     4  10  20  33  55  87 115 145 186 236 286 335
#     4  11  22  36  58  87 117 149 191 240 286 339
#     4  10  23  40  60  84 115 153 192 235 289 345
#     4  11  21  37  59  86 115 149 193 239 287 339
#
# _framework density 17.604182999999999
#
# number of rings (size 3 to 8) (size 9 to 14) (size 15 to 20)
#    0.000    1.500    2.500    4.875    0.000    5.000 
#    0.000    1.250    0.000    1.500    0.000    0.000 
#    0.000    0.000    0.000    0.000    0.000    0.000 
#
# Total GULP energy -89381.997822 kJ/mol
# GULP energy per Si atom -5586.374864 kJ/mol
# Density = 1.756411 g / cm^3
# Si number density = 17.604183 Si / 1000 Ang^3
#
#
#
# Elastic Constant Matrix: (Units=GPa)
#
#
# Indices 1 2 3 4 5 6 
#
# 1 95.3442 47.9070 77.5007 0.0000 3.0452 0.0000
# 2 47.9070 80.2676 75.5839 0.0002 0.6082 -0.0002
# 3 77.5007 75.5839 189.3363 0.0001 1.6154 0.0000
# 4 0.0000 0.0002 0.0001 32.7542 0.0000 0.6620
# 5 3.0452 0.6082 1.6154 0.0000 23.9469 0.0000
# 6 0.0000 -0.0002 0.0000 0.6620 0.0000 27.5068
#
#
#
# Elastic Compliance Matrix: (Units=1/GPa)
#
#
# Indices 1 2 3 4 5 6 
#
# 1 0.017351 -0.005879 -0.004741 0.000000 -0.001737 0.000000
# 2 -0.005879 0.021954 -0.006363 0.000000 0.000619 0.000000
# 3 -0.004741 -0.006363 0.009761 0.000000 0.000106 0.000000
# 4 0.000000 0.000000 0.000000 0.030545 0.000000 -0.000735
# 5 -0.001737 0.000619 0.000106 0.000000 0.041957 0.000000
# 6 0.000000 0.000000 0.000000 -0.000735 0.000000 0.036372
#
#
# Mechanical properties :
#
#
# Convention : Reuss Voigt Hill
#
# Bulk Modulus (GPa) = 66.21800 85.21460 75.71630
# Shear Modulus (GPa) = 25.38841 27.77200 26.58020
#
# Velocity S-wave (km/s) = 3.80172 3.97618 3.88993
# Velocity P-wave (km/s) = 7.54768 8.34212 7.95482
#
# Compressibility (1/GPa) = 0.01510163
#
# Stress axis : x y z
#
# Youngs Moduli (GPa) = 57.63330 45.54959 102.44417
#
# Poissons Ratio (x) = 0.26777 0.48566
# Poissons Ratio (y) = 0.33880 0.65187
# Poissons Ratio (z) = 0.27322 0.28984
#
# Static dielectric constant tensor:
#      x y z
#    x 1.556440 0.000000 -0.006300 
#    y 0.000000 1.589400 0.000000 
#    z -0.006300 0.000000 1.618750 
# 
# From -- ./inp_files/31342.got.cif
#   From: 2010.05.17/outbox.cif.g08.bks.cpg/sg8_16_cif.got.tgz:31342.got - 2010.06.03 19:46:02.
