data_PCOD9132241
_publ_section_title
;
Structure prediction by ZEFSAII (Michael W. Deem and Ramdas Pophale) SiO2 
 PCOD9132241
Probable space group: C M
;
_chemical_formula_sum "Si O2"
_cell_formula_units_Z 32
_cell_length_a 16.818454
_cell_length_b 13.555534
_cell_length_c 8.078509
_cell_angle_alpha 90.000000
_cell_angle_beta 58.625049
_cell_angle_gamma 90.000000
_cell_volume 1572.458263
_symmetry_space_group_name_H-M "C M"
_symmetry_group_IT_number 8
_symmetry_cell_setting 'monoclinic'
loop_
_space_group_symop_operation_xyz
x,y,z
x,-y,z
1/2+x,1/2+y,z
1/2+x,1/2-y,z
loop_
_atom_site_type_symbol
_atom_site_label
_atom_site_fract_x
_atom_site_fract_y
_atom_site_fract_z
Si Si1 0.091590 0.315036 0.067490
Si Si2 0.367471 0.808148 0.787519
Si Si3 0.399038 0.385387 0.168973
Si Si4 0.539129 0.746364 0.795543
Si Si5 0.386782 0.195496 0.382082
Si Si6 0.675114 0.607937 0.985154
Si Si7 0.777576 0.108078 0.992338
Si Si8 0.190356 0.111165 0.563733
O O1 0.985263 0.343635 0.210589
O O2 0.100323 0.308850 0.858980
O O3 0.113444 0.201973 0.101854
O O4 0.168930 0.379829 0.071886
O O5 0.461467 0.811287 0.790179
O O6 0.386332 0.826224 0.576026
O O7 0.280000 0.874309 0.937247
O O8 0.328852 0.696534 0.843956
O O9 0.419390 0.500000 0.182660
O O10 0.385794 0.311521 0.335958
O O11 0.480020 0.334788 0.967534
O O12 0.307650 0.381629 0.151019
O O13 0.608985 0.686570 0.602042
O O14 0.293553 0.147798 0.408172
O O15 0.640187 0.500000 0.070696
O O16 0.684183 0.610346 0.773576
O O17 0.810257 0.000000 0.903591
O O18 0.174228 0.000000 0.523606
#
# Coordination Sequence:
#
# PCOD9132241 Si02
#       8
#     4   4   4   4   4   4   4   4
#     4   9  18  31  49  73  97 127 164 200 240 289
#     4   9  18  32  51  75 100 125 157 203 251 290
#     4   9  18  33  53  73  93 125 166 205 247 293
#     4   9  17  32  53  71  96 131 165 197 237 297
#     4  10  20  31  48  74 102 126 157 208 253 283
#     4   8  15  31  53  72  92 125 166 198 232 289
#     4   9  18  34  53  69  93 132 169 197 236 296
#     4   9  17  30  49  71  95 127 165 200 237 285
#
# _framework density 20.350301999999999
#
# number of rings (size 3 to 8) (size 9 to 14) (size 15 to 20)
#    0.000    3.000    0.000    1.125    0.000    5.500 
#    0.000    0.625    0.000   16.500    0.000    0.000 
#    0.000    0.000    0.000    0.000    0.000    0.000 
#
# Total GULP energy -89141.784981 kJ/mol
# GULP energy per Si atom -5571.361561 kJ/mol
# Density = 2.030398 g / cm^3
# Si number density = 20.350302 Si / 1000 Ang^3
#
#
#
# Elastic Constant Matrix: (Units=GPa)
#
#
# Indices 1 2 3 4 5 6 
#
# 1 119.6065 2.7728 3.1024 0.0000 -18.0311 0.0000
# 2 2.7728 25.7152 -6.5212 0.0000 0.8613 0.0000
# 3 3.1024 -6.5212 23.3872 0.0000 -13.8108 0.0000
# 4 0.0000 0.0000 0.0000 9.5830 0.0000 3.1490
# 5 -18.0311 0.8613 -13.8108 0.0000 20.3067 0.0000
# 6 0.0000 0.0000 0.0000 3.1490 0.0000 14.5902
#
#
#
# Elastic Compliance Matrix: (Units=1/GPa)
#
#
# Indices 1 2 3 4 5 6 
#
# 1 0.010247 0.000154 0.006773 0.000000 0.013698 0.000000
# 2 0.000154 0.043178 0.018414 0.000000 0.010829 0.000000
# 3 0.006773 0.018414 0.083701 0.000000 0.062158 0.000000
# 4 0.000000 0.000000 0.000000 0.112317 0.000000 -0.024241
# 5 0.013698 0.010829 0.062158 0.000000 0.103223 0.000000
# 6 0.000000 0.000000 0.000000 -0.024241 0.000000 0.073771
#
#
# Mechanical properties :
#
#
# Convention : Reuss Voigt Hill
#
# Bulk Modulus (GPa) = 5.32465 18.60188 11.96327
# Shear Modulus (GPa) = 11.40621 20.18629 15.79625
#
# Velocity S-wave (km/s) = 2.37004 3.15293 2.78909
# Velocity P-wave (km/s) = 3.17988 4.73448 4.03280
#
# Compressibility (1/GPa) = 0.18780565
#
# Stress axis : x y z
#
# Youngs Moduli (GPa) = 97.59427 23.16003 11.94733
#
# Poissons Ratio (x) = -0.00356 -0.08091
# Poissons Ratio (y) = -0.01501 -0.22000
# Poissons Ratio (z) = -0.66097 -0.42647
#
# Static dielectric constant tensor:
#      x y z
#    x 1.776190 0.000000 -0.005760 
#    y 0.000000 1.736750 0.000000 
#    z -0.005760 0.000000 1.728990 
# 
# From -- ./inp_files/13241.got.cif
#   From: 2010.05.17/outbox.cif.g08.bks.cpg/sg8_7_cif.got.tgz:13241.got - 2010.06.03 19:46:02.
