data_PCOD9132908
_publ_section_title
;
Structure prediction by ZEFSAII (Michael W. Deem and Ramdas Pophale) SiO2 
 PCOD9132908
Probable space group: C M
;
_chemical_formula_sum "Si O2"
_cell_formula_units_Z 32
_cell_length_a 12.346273
_cell_length_b 22.799211
_cell_length_c 5.258677
_cell_angle_alpha 90.000000
_cell_angle_beta 67.677926
_cell_angle_gamma 90.000000
_cell_volume 1369.316105
_symmetry_space_group_name_H-M "C M"
_symmetry_group_IT_number 8
_symmetry_cell_setting 'monoclinic'
loop_
_space_group_symop_operation_xyz
x,y,z
x,-y,z
1/2+x,1/2+y,z
1/2+x,1/2-y,z
loop_
_atom_site_type_symbol
_atom_site_label
_atom_site_fract_x
_atom_site_fract_y
_atom_site_fract_z
Si Si1 0.882440 0.156244 0.645100
Si Si2 0.113961 0.830478 0.224773
Si Si3 0.422500 0.931065 0.178176
Si Si4 0.333421 0.877577 0.732601
Si Si5 0.170046 0.429124 0.808194
Si Si6 0.492588 0.745224 0.936087
Si Si7 0.258128 0.744460 0.361315
Si Si8 0.084962 0.659685 0.487105
O O1 0.789015 0.104719 0.770804
O O2 0.817404 0.208282 0.540906
O O3 0.998474 0.132206 0.392805
O O4 0.944293 0.189235 0.823695
O O5 0.175097 0.802045 0.420029
O O6 0.056937 0.776241 0.127550
O O7 0.210559 0.854244 0.943293
O O8 0.331144 0.916178 0.480815
O O9 0.432988 0.000000 0.160619
O O10 0.381801 0.910030 0.939597
O O11 0.559577 0.911003 0.089794
O O12 0.446890 0.838578 0.544791
O O13 0.181730 0.500000 0.790254
O O14 0.128692 0.400955 0.574414
O O15 0.369449 0.773537 0.119540
O O16 0.575726 0.791372 0.724654
O O17 0.193985 0.692201 0.256518
#
# Coordination Sequence:
#
# PCOD9132908 Si02
#       8
#     4   4   4   4   4   4   4   4
#     4  10  23  41  65  93 137 182 231 286 347 426
#     4  11  24  39  62  96 138 180 224 279 357 436
#     4  10  23  44  69  98 128 172 236 297 351 403
#     4  11  24  39  69  98 134 176 223 285 352 420
#     4   9  21  43  69  95 130 179 237 291 340 406
#     4  11  23  37  60  93 132 178 222 279 356 422
#     4  10  22  38  57  91 130 177 221 275 344 411
#     4  10  21  37  63  96 129 180 224 286 341 420
#
# _framework density 23.369332
#
# number of rings (size 3 to 8) (size 9 to 14) (size 15 to 20)
#    0.000    1.750    2.500    0.375    7.000    2.500 
#    0.000    1.250    0.000    0.000    0.000    0.000 
#    0.000    0.000    0.000    0.000    0.000    0.000 
#
# Total GULP energy -89096.986671 kJ/mol
# GULP energy per Si atom -5568.561667 kJ/mol
# Density = 2.331614 g / cm^3
# Si number density = 23.369332 Si / 1000 Ang^3
#
#
#
# Elastic Constant Matrix: (Units=GPa)
#
#
# Indices 1 2 3 4 5 6 
#
# 1 90.9208 26.5218 43.7551 0.0000 -25.3342 0.0000
# 2 26.5218 71.7573 33.0354 0.0000 -16.6709 0.0000
# 3 43.7551 33.0354 88.0320 0.0000 -16.0313 0.0000
# 4 0.0000 0.0000 0.0000 3.1319 0.0000 -3.1497
# 5 -25.3342 -16.6709 -16.0313 0.0000 38.6868 0.0000
# 6 0.0000 0.0000 0.0000 -3.1497 0.0000 34.9776
#
#
#
# Elastic Compliance Matrix: (Units=1/GPa)
#
#
# Indices 1 2 3 4 5 6 
#
# 1 0.016581 -0.001455 -0.006309 0.000000 0.007617 0.000000
# 2 -0.001455 0.017926 -0.005160 0.000000 0.004634 0.000000
# 3 -0.006309 -0.005160 0.016521 0.000000 0.000491 0.000000
# 4 0.000000 0.000000 0.000000 0.351089 0.000000 0.031615
# 5 0.007617 0.004634 0.000491 0.000000 0.033037 0.000000
# 6 0.000000 0.000000 0.000000 0.031615 0.000000 0.031437
#
#
# Mechanical properties :
#
#
# Convention : Reuss Voigt Hill
#
# Bulk Modulus (GPa) = 39.71147 50.81495 45.26321
# Shear Modulus (GPa) = 9.98341 25.18577 17.58459
#
# Velocity S-wave (km/s) = 2.06913 3.28644 2.74608
# Velocity P-wave (km/s) = 4.76846 6.01601 5.42820
#
# Compressibility (1/GPa) = 0.02518164
#
# Stress axis : x y z
#
# Youngs Moduli (GPa) = 60.30878 55.78621 60.52924
#
# Poissons Ratio (x) = 0.08114 0.38185
# Poissons Ratio (y) = 0.08772 0.31234
# Poissons Ratio (z) = 0.38046 0.28786
#
# Static dielectric constant tensor:
#      x y z
#    x 2.014180 0.000000 -0.067130 
#    y 0.000000 1.917260 0.000000 
#    z -0.067130 0.000000 2.092610 
# 
# From -- ./inp_files/3158.got.cif
#   From: 2010.05.17/outbox.cif.g08.bks.cpg/sg8_2_cif.got.tgz:3158.got - 2010.06.03 19:46:02.
