data_PCOD9132573
_publ_section_title
;
Structure prediction by ZEFSAII (Michael W. Deem and Ramdas Pophale) SiO2 
 PCOD9132573
Probable space group: C M
;
_chemical_formula_sum "Si O2"
_cell_formula_units_Z 32
_cell_length_a 10.732740
_cell_length_b 24.959528
_cell_length_c 7.178270
_cell_angle_alpha 90.000000
_cell_angle_beta 42.493612
_cell_angle_gamma 90.000000
_cell_volume 1298.964450
_symmetry_space_group_name_H-M "C M"
_symmetry_group_IT_number 8
_symmetry_cell_setting 'monoclinic'
loop_
_space_group_symop_operation_xyz
x,y,z
x,-y,z
1/2+x,1/2+y,z
1/2+x,1/2-y,z
loop_
_atom_site_type_symbol
_atom_site_label
_atom_site_fract_x
_atom_site_fract_y
_atom_site_fract_z
Si Si1 0.064740 0.440213 0.149830
Si Si2 0.811489 0.347553 0.357059
Si Si3 0.226788 0.855528 0.871747
Si Si4 0.842444 0.118639 0.344300
Si Si5 0.785774 0.755891 0.800381
Si Si6 0.982735 0.441586 0.671292
Si Si7 0.886043 0.131208 0.737594
Si Si8 0.707621 0.765437 0.448168
O O1 0.062021 0.500000 0.072586
O O2 0.976888 0.443412 0.452119
O O3 0.954239 0.395017 0.155782
O O4 0.271966 0.418196 0.944006
O O5 0.822507 0.342772 0.569891
O O6 0.599850 0.364250 0.552716
O O7 0.828368 0.287110 0.258033
O O8 0.181502 0.796066 0.997819
O O9 0.355863 0.890859 0.859683
O O10 0.043746 0.889545 0.037777
O O11 0.691746 0.073047 0.488752
O O12 0.877045 0.126374 0.524824
O O13 0.772392 0.174612 0.334070
O O14 0.774918 0.813970 0.907536
O O15 0.717898 0.762888 0.662895
O O16 0.003035 0.742794 0.592770
O O17 0.925650 0.500000 0.804027
#
# Coordination Sequence:
#
# PCOD9132573 Si02
#       8
#     4   4   4   4   4   4   4   4
#     4  10  22  40  64  84 110 160 207 243 289 348
#     4   9  20  39  57  85 118 154 201 245 289 351
#     4  10  20  37  61  86 118 159 198 249 298 351
#     4  11  22  36  59  91 123 156 193 247 307 360
#     4   9  18  36  56  85 123 161 200 241 301 364
#     4  10  22  41  62  86 116 157 209 250 287 354
#     4  10  22  38  55  89 124 153 193 243 301 360
#     4   9  18  35  56  86 124 160 197 244 304 362
#
# _framework density 24.635007999999999
#
# number of rings (size 3 to 8) (size 9 to 14) (size 15 to 20)
#    0.000    2.250    1.250    0.750    1.750    2.500 
#    0.000    6.250    0.000    0.000    0.000    0.000 
#    0.000    0.000    0.000    0.000    0.000    0.000 
#
# Total GULP energy -89425.440925 kJ/mol
# GULP energy per Si atom -5589.090058 kJ/mol
# Density = 2.457894 g / cm^3
# Si number density = 24.635008 Si / 1000 Ang^3
#
#
#
# Elastic Constant Matrix: (Units=GPa)
#
#
# Indices 1 2 3 4 5 6 
#
# 1 126.8627 17.6377 13.4061 0.0000 0.1759 0.0000
# 2 17.6377 123.4657 3.6619 0.0000 -16.8695 0.0000
# 3 13.4061 3.6619 36.0049 0.0000 -9.7964 0.0000
# 4 0.0000 0.0000 0.0000 14.8243 0.0000 -14.3710
# 5 0.1759 -16.8695 -9.7964 0.0000 40.9200 0.0000
# 6 0.0000 0.0000 0.0000 -14.3710 0.0000 13.7073
#
#
#
# Elastic Compliance Matrix: (Units=1/GPa)
#
#
# Indices 1 2 3 4 5 6 
#
# 1 0.008421 -0.001291 -0.003379 0.000000 -0.001377 0.000000
# 2 -0.001291 0.008781 0.000614 0.000000 0.003773 0.000000
# 3 -0.003379 0.000614 0.031066 0.000000 0.007705 0.000000
# 4 0.000000 0.000000 0.000000 -4.120765 0.000000 -4.320317
# 5 -0.001377 0.003773 0.007705 0.000000 0.027844 0.000000
# 6 0.000000 0.000000 0.000000 -4.320317 0.000000 -4.456579
#
#
# Mechanical properties :
#
#
# Convention : Reuss Voigt Hill
#
# Bulk Modulus (GPa) = 24.90255 39.52720 32.21488
# Shear Modulus (GPa) = -0.58964 30.66549 15.03792
#
# Velocity S-wave (km/s) = -0.48977 3.53199 2.47337
# Velocity P-wave (km/s) = 3.13221 5.71955 4.61107
#
# Compressibility (1/GPa) = 0.04015653
#
# Stress axis : x y z
#
# Youngs Moduli (GPa) = 118.75087 113.88113 32.18941
#
# Poissons Ratio (x) = 0.14702 0.10877
# Poissons Ratio (y) = 0.15330 -0.01977
# Poissons Ratio (z) = 0.40125 -0.06993
#
# Static dielectric constant tensor:
#      x y z
#    x 1.963300 0.000000 0.046200 
#    y 0.000000 1.998220 0.000000 
#    z 0.046200 0.000000 2.009810 
# 
# From -- ./inp_files/11586.got.cif
#   From: 2010.05.17/outbox.cif.g08.bks.cpg/sg8_6_cif.got.tgz:11586.got - 2010.06.03 19:46:02.
