data_PCOD9132817
_publ_section_title
;
Structure prediction by ZEFSAII (Michael W. Deem and Ramdas Pophale) SiO2 
 PCOD9132817
Probable space group: C M
;
_chemical_formula_sum "Si O2"
_cell_formula_units_Z 22
_cell_length_a 5.064153
_cell_length_b 13.698564
_cell_length_c 13.940773
_cell_angle_alpha 90.000000
_cell_angle_beta 91.801805
_cell_angle_gamma 90.000000
_cell_volume 966.615902
_symmetry_space_group_name_H-M "C M"
_symmetry_group_IT_number 8
_symmetry_cell_setting 'monoclinic'
loop_
_space_group_symop_operation_xyz
x,y,z
x,-y,z
1/2+x,1/2+y,z
1/2+x,1/2-y,z
loop_
_atom_site_type_symbol
_atom_site_label
_atom_site_fract_x
_atom_site_fract_y
_atom_site_fract_z
Si Si1 0.988090 0.883614 0.773730
Si Si2 0.841176 0.822162 0.354630
Si Si3 0.498560 0.882112 0.892057
Si Si4 0.653208 0.000000 0.223261
Si Si5 0.915849 0.314587 0.107130
Si Si6 0.466370 0.308982 0.562148
O O1 0.781174 0.853074 0.852944
O O2 0.916802 0.851872 0.666151
O O3 0.780437 0.644347 0.810186
O O4 0.979370 0.000000 0.773128
O O5 0.085309 0.747893 0.344536
O O6 0.873442 0.862242 0.464459
O O7 0.813768 0.913005 0.284037
O O8 0.494877 0.000000 0.903030
O O9 0.434300 0.838297 0.994166
O O10 0.488351 0.086931 0.163609
O O11 0.131590 0.229902 0.127629
O O12 0.777474 0.286558 0.557598
#
# Coordination Sequence:
#
# PCOD9132817 Si02
#       6
#     4   4   4   2   4   4
#     4  10  21  35  63  89 129 168 213 250 313 387
#     4  10  24  45  68 100 132 168 220 270 323 396
#     4  10  21  41  58  92 130 173 210 264 315 381
#     4  12  26  48  74  92 136 170 218 274 346 372
#     4  12  27  44  69 101 130 170 223 270 325 396
#     4  10  21  38  60  91 128 162 208 261 313 379
#
# _framework density 22.759817999999999
#
# number of rings (size 3 to 8) (size 9 to 14) (size 15 to 20)
#    0.000    1.455    0.909    3.273    1.273    7.273 
#    0.000    0.000    0.000    0.000    0.000    0.000 
#    0.000    0.000    0.000    0.000    0.000    0.000 
#
# Total GULP energy -61261.920203 kJ/mol
# GULP energy per Si atom -5569.265473 kJ/mol
# Density = 2.270802 g / cm^3
# Si number density = 22.759818 Si / 1000 Ang^3
#
#
#
# Elastic Constant Matrix: (Units=GPa)
#
#
# Indices 1 2 3 4 5 6 
#
# 1 85.1474 -1.5866 -0.3069 0.0000 15.5577 0.0000
# 2 -1.5866 126.3047 31.6586 0.0000 18.2689 0.0000
# 3 -0.3069 31.6586 115.6198 0.0000 21.3661 0.0000
# 4 0.0000 0.0000 0.0000 62.1929 0.0000 7.5160
# 5 15.5577 18.2689 21.3661 0.0000 26.9915 0.0000
# 6 0.0000 0.0000 0.0000 7.5160 0.0000 5.3199
#
#
#
# Elastic Compliance Matrix: (Units=1/GPa)
#
#
# Indices 1 2 3 4 5 6 
#
# 1 0.013572 0.001213 0.001524 0.000000 -0.009851 0.000000
# 2 0.001213 0.009122 -0.001434 0.000000 -0.005738 0.000000
# 3 0.001524 -0.001434 0.010576 0.000000 -0.008279 0.000000
# 4 0.000000 0.000000 0.000000 0.019390 0.000000 -0.027394
# 5 -0.009851 -0.005738 -0.008279 0.000000 0.053164 0.000000
# 6 0.000000 0.000000 0.000000 -0.027394 0.000000 0.226676
#
#
# Mechanical properties :
#
#
# Convention : Reuss Voigt Hill
#
# Bulk Modulus (GPa) = 27.87318 42.95580 35.41449
# Shear Modulus (GPa) = 14.62622 38.72131 26.67376
#
# Velocity S-wave (km/s) = 2.53777 4.12916 3.42711
# Velocity P-wave (km/s) = 4.56731 6.45351 5.59053
#
# Compressibility (1/GPa) = 0.03587678
#
# Stress axis : x y z
#
# Youngs Moduli (GPa) = 73.67943 109.62429 94.55555
#
# Poissons Ratio (x) = -0.13300 -0.14412
# Poissons Ratio (y) = -0.08939 0.13561
# Poissons Ratio (z) = -0.11230 0.15722
#
# Static dielectric constant tensor:
#      x y z
#    x 1.841980 0.000000 -0.007440 
#    y 0.000000 1.812130 0.000000 
#    z -0.007440 0.000000 1.869090 
# 
# From -- ./inp_files/24872.got.cif
#   From: 2010.05.17/outbox.cif.g08.bks.cpg/sg8_13_cif.got.tgz:24872.got - 2010.06.03 19:46:02.
