data_PCOD9132590
_publ_section_title
;
Structure prediction by ZEFSAII (Michael W. Deem and Ramdas Pophale) SiO2 
 PCOD9132590
Probable space group: C M
;
_chemical_formula_sum "Si O2"
_cell_formula_units_Z 32
_cell_length_a 32.451677
_cell_length_b 8.802017
_cell_length_c 12.456071
_cell_angle_alpha 90.000000
_cell_angle_beta 26.944322
_cell_angle_gamma 90.000000
_cell_volume 1612.196252
_symmetry_space_group_name_H-M "C M"
_symmetry_group_IT_number 8
_symmetry_cell_setting 'monoclinic'
loop_
_space_group_symop_operation_xyz
x,y,z
x,-y,z
1/2+x,1/2+y,z
1/2+x,1/2-y,z
loop_
_atom_site_type_symbol
_atom_site_label
_atom_site_fract_x
_atom_site_fract_y
_atom_site_fract_z
Si Si1 0.188440 0.320617 0.599080
Si Si2 0.500111 0.678795 0.013644
Si Si3 0.747042 0.181872 0.863941
Si Si4 0.557517 0.817144 0.419998
Si Si5 0.310623 0.179295 0.498104
Si Si6 0.994013 0.676751 0.796827
Si Si7 0.290280 0.176082 0.171604
Si Si8 0.869827 0.181182 0.778415
O O1 0.176187 0.500000 0.632983
O O2 0.264010 0.265804 0.507430
O O3 0.222009 0.271415 0.403075
O O4 0.094809 0.235571 0.841961
O O5 0.488108 0.500000 0.055600
O O6 0.414845 0.767333 0.260720
O O7 0.503687 0.722023 0.879155
O O8 0.761052 0.272239 0.722257
O O9 0.828150 0.215249 0.759042
O O10 0.747563 0.000000 0.840856
O O11 0.652135 0.218607 0.143224
O O12 0.553362 0.774893 0.555894
O O13 0.471409 0.742022 0.561579
O O14 0.544522 0.000000 0.448039
O O15 0.305597 0.000000 0.490846
O O16 0.014261 0.500000 0.777085
O O17 0.889774 0.682643 0.997318
O O18 0.262292 0.000000 0.233337
O O19 0.306666 0.242842 0.015928
O O20 0.868001 0.000000 0.797942
#
# Coordination Sequence:
#
# PCOD9132590 Si02
#       8
#     4   4   4   4   4   4   4   4
#     4  12  25  42  66  94 126 167 213 264 322 383
#     4  12  25  41  64  95 128 168 213 263 318 381
#     4  10  23  43  65  90 123 170 217 259 312 377
#     4   9  20  39  62  88 125 168 207 256 316 375
#     4  12  26  46  67  92 128 169 215 269 321 379
#     4   9  18  35  61  91 129 168 205 256 315 375
#     4  10  20  37  62  93 132 168 206 258 317 380
#     4  10  21  37  61  93 127 164 210 261 313 370
#
# _framework density 19.848699
#
# number of rings (size 3 to 8) (size 9 to 14) (size 15 to 20)
#    0.000    1.500    1.250    4.875    1.750    4.500 
#    0.000    2.500    0.000    0.000    0.000    0.000 
#    0.000    0.000    0.000    0.000    0.000    0.000 
#
# Total GULP energy -89491.182565 kJ/mol
# GULP energy per Si atom -5593.198910 kJ/mol
# Density = 1.980352 g / cm^3
# Si number density = 19.848699 Si / 1000 Ang^3
#
#
#
# Elastic Constant Matrix: (Units=GPa)
#
#
# Indices 1 2 3 4 5 6 
#
# 1 23.0600 11.0299 1.7840 0.0000 7.5021 0.0000
# 2 11.0299 50.2219 -0.6536 0.0000 9.6444 0.0000
# 3 1.7840 -0.6536 73.3548 0.0000 5.9674 0.0000
# 4 0.0000 0.0000 0.0000 33.0585 0.0000 1.5694
# 5 7.5021 9.6444 5.9674 0.0000 24.4323 0.0000
# 6 0.0000 0.0000 0.0000 1.5694 0.0000 30.7438
#
#
#
# Elastic Compliance Matrix: (Units=1/GPa)
#
#
# Indices 1 2 3 4 5 6 
#
# 1 0.051678 -0.009006 -0.000342 0.000000 -0.012230 0.000000
# 2 -0.009006 0.023173 0.000964 0.000000 -0.006617 0.000000
# 3 -0.000342 0.000964 0.013949 0.000000 -0.003682 0.000000
# 4 0.000000 0.000000 0.000000 0.030323 0.000000 -0.001548
# 5 -0.012230 -0.006617 -0.003682 0.000000 0.048196 0.000000
# 6 0.000000 0.000000 0.000000 -0.001548 0.000000 0.032606
#
#
# Mechanical properties :
#
#
# Convention : Reuss Voigt Hill
#
# Bulk Modulus (GPa) = 13.88281 18.99524 16.43902
# Shear Modulus (GPa) = 20.77249 26.61200 23.69225
#
# Velocity S-wave (km/s) = 3.23854 3.66559 3.45866
# Velocity P-wave (km/s) = 4.58189 5.24463 4.92442
#
# Compressibility (1/GPa) = 0.07203155
#
# Stress axis : x y z
#
# Youngs Moduli (GPa) = 19.35064 43.15401 71.69051
#
# Poissons Ratio (x) = 0.38863 0.02453
# Poissons Ratio (y) = 0.17426 -0.06910
# Poissons Ratio (z) = 0.00662 -0.04159
#
# Static dielectric constant tensor:
#      x y z
#    x 1.684130 0.000000 -0.009170 
#    y 0.000000 1.664100 0.000000 
#    z -0.009170 0.000000 1.695730 
# 
# From -- ./inp_files/24799.got.cif
#   From: 2010.05.17/outbox.cif.g08.bks.cpg/sg8_13_cif.got.tgz:24799.got - 2010.06.03 19:46:02.
