data_PCOD9132732
_publ_section_title
;
Structure prediction by ZEFSAII (Michael W. Deem and Ramdas Pophale) SiO2 
 PCOD9132732
Probable space group: C M
;
_chemical_formula_sum "Si O2"
_cell_formula_units_Z 16
_cell_length_a 9.981885
_cell_length_b 10.558702
_cell_length_c 10.382160
_cell_angle_alpha 90.000000
_cell_angle_beta 125.757913
_cell_angle_gamma 90.000000
_cell_volume 887.964785
_symmetry_space_group_name_H-M "C M"
_symmetry_group_IT_number 8
_symmetry_cell_setting 'monoclinic'
loop_
_space_group_symop_operation_xyz
x,y,z
x,-y,z
1/2+x,1/2+y,z
1/2+x,1/2-y,z
loop_
_atom_site_type_symbol
_atom_site_label
_atom_site_fract_x
_atom_site_fract_y
_atom_site_fract_z
Si Si1 0.870370 0.500000 0.836061
Si Si2 0.920768 0.500000 0.338485
Si Si3 0.824212 0.764637 0.902647
Si Si4 0.645973 0.000000 0.215323
Si Si5 0.599007 0.000000 0.710876
Si Si6 0.216076 0.759658 0.136193
O O1 0.778484 0.632777 0.805669
O O2 0.974951 0.500000 0.763653
O O3 0.997265 0.500000 0.027680
O O4 0.807618 0.376958 0.252432
O O5 0.064258 0.500000 0.309816
O O6 0.998858 0.500000 0.522875
O O7 0.716549 0.878101 0.786936
O O8 0.788918 0.757177 0.034775
O O9 0.021175 0.784399 0.004167
O O10 0.736922 0.868957 0.231373
#
# Coordination Sequence:
#
# PCOD9132732 Si02
#       6
#     2   2   4   2   2   4
#     4  10  20  40  62  90 127 157 216 252 295 375
#     4  12  25  40  62 100 131 156 205 272 314 354
#     4  11  20  41  70  89 121 171 213 248 304 380
#     4  10  20  40  62  90 127 157 216 252 295 375
#     4  12  25  40  62 100 131 156 205 272 314 354
#     4  11  20  41  70  89 121 171 213 248 304 380
#
# _framework density 18.018733000000001
#
# number of rings (size 3 to 8) (size 9 to 14) (size 15 to 20)
#    0.000    1.000   10.000    0.750    0.000    2.000 
#    0.000    1.250    0.000    0.000    0.000    0.000 
#    0.000    0.000    0.000    0.000    0.000    0.000 
#
# Total GULP energy -44645.178635 kJ/mol
# GULP energy per Si atom -5580.647329 kJ/mol
# Density = 1.797772 g / cm^3
# Si number density = 18.018733 Si / 1000 Ang^3
#
#
#
# Elastic Constant Matrix: (Units=GPa)
#
#
# Indices 1 2 3 4 5 6 
#
# 1 45.4267 15.5219 -22.5770 0.0000 -10.2316 0.0000
# 2 15.5219 199.1346 28.8461 0.0000 8.8764 0.0000
# 3 -22.5770 28.8461 53.7889 0.0000 -4.1928 0.0000
# 4 0.0000 0.0000 0.0000 0.8674 0.0000 -6.8573
# 5 -10.2316 8.8764 -4.1928 0.0000 19.4888 0.0000
# 6 0.0000 0.0000 0.0000 -6.8573 0.0000 30.3425
#
#
#
# Elastic Compliance Matrix: (Units=1/GPa)
#
#
# Indices 1 2 3 4 5 6 
#
# 1 0.046096 -0.008998 0.026830 0.000000 0.034071 0.000000
# 2 -0.008998 0.007400 -0.008519 0.000000 -0.009927 0.000000
# 3 0.026830 -0.008519 0.036432 0.000000 0.025804 0.000000
# 4 0.000000 0.000000 0.000000 -1.465637 0.000000 -0.331228
# 5 0.034071 -0.009927 0.025804 0.000000 0.079271 0.000000
# 6 0.000000 0.000000 0.000000 -0.331228 0.000000 -0.041899
#
#
# Mechanical properties :
#
#
# Convention : Reuss Voigt Hill
#
# Bulk Modulus (GPa) = 9.21208 37.99247 23.60227
# Shear Modulus (GPa) = -3.78565 28.57702 12.39569
#
# Velocity S-wave (km/s) = -1.45104 3.98673 2.62569
# Velocity P-wave (km/s) = 1.52192 6.50560 4.72436
#
# Compressibility (1/GPa) = 0.10855316
#
# Stress axis : x y z
#
# Youngs Moduli (GPa) = 21.69372 135.14166 27.44806
#
# Poissons Ratio (x) = 1.21603 -0.73642
# Poissons Ratio (y) = 0.19520 0.23383
# Poissons Ratio (z) = -0.58203 1.15127
#
# Static dielectric constant tensor:
#      x y z
#    x 1.619080 0.000000 0.012160 
#    y 0.000000 1.685820 0.000000 
#    z 0.012160 0.000000 1.575990 
# 
# From -- ./inp_files/7372.got.cif
#   From: 2010.05.17/outbox.cif.g08.bks.cpg/sg8_4_cif.got.tgz:7372.got - 2010.06.03 19:46:02.
