data_PCOD9132903
_publ_section_title
;
Structure prediction by ZEFSAII (Michael W. Deem and Ramdas Pophale) SiO2 
 PCOD9132903
Probable space group: C M
;
_chemical_formula_sum "Si O2"
_cell_formula_units_Z 22
_cell_length_a 15.763985
_cell_length_b 10.945867
_cell_length_c 8.977458
_cell_angle_alpha 90.000000
_cell_angle_beta 44.963127
_cell_angle_gamma 90.000000
_cell_volume 1094.649017
_symmetry_space_group_name_H-M "C M"
_symmetry_group_IT_number 8
_symmetry_cell_setting 'monoclinic'
loop_
_space_group_symop_operation_xyz
x,y,z
x,-y,z
1/2+x,1/2+y,z
1/2+x,1/2-y,z
loop_
_atom_site_type_symbol
_atom_site_label
_atom_site_fract_x
_atom_site_fract_y
_atom_site_fract_z
Si Si1 0.825650 0.000000 0.310920
Si Si2 0.222573 0.137999 0.447834
Si Si3 0.995954 0.761239 0.600464
Si Si4 0.540022 0.000000 0.665476
Si Si5 0.888082 0.000000 0.901300
Si Si6 0.684168 0.000000 0.940864
Si Si7 0.313925 0.303506 0.573097
Si Si8 0.947462 0.500000 0.105561
O O1 0.682282 0.000000 0.458258
O O2 0.851132 0.114749 0.385485
O O3 0.894015 0.000000 0.070968
O O4 0.138249 0.211373 0.439980
O O5 0.234984 0.198764 0.593852
O O6 0.174228 0.000000 0.521799
O O7 0.357697 0.114942 0.222139
O O8 0.980612 0.624605 0.680996
O O9 0.930661 0.766829 0.522516
O O10 0.940971 0.874185 0.765205
O O11 0.524462 0.000000 0.862013
O O12 0.749850 0.000000 0.016653
O O13 0.733133 0.884398 0.785193
O O14 0.541245 0.000000 0.123219
#
# Coordination Sequence:
#
# PCOD9132903 Si02
#       8
#     2   4   4   2   2   2   4   2
#     4  11  22  39  69  90 122 169 220 256 322 382
#     4  10  22  37  65  89 129 168 208 265 316 376
#     4  11  23  43  67  93 132 168 214 266 323 379
#     4  12  24  39  67  88 134 171 215 262 322 376
#     4  10  23  38  69  99 126 169 218 266 315 381
#     4   9  18  41  63  92 127 169 208 262 321 385
#     4  10  21  41  64  90 127 166 214 261 321 374
#     4  10  21  37  62  93 131 164 211 264 322 368
#
# _framework density 20.097764999999999
#
# number of rings (size 3 to 8) (size 9 to 14) (size 15 to 20)
#    0.545    1.091    4.545    0.545    3.818    1.455 
#    0.000    0.000    4.000    0.000    0.000    0.000 
#    0.000    0.000    0.000    0.000    0.000    0.000 
#
# Total GULP energy -61306.982900 kJ/mol
# GULP energy per Si atom -5573.362082 kJ/mol
# Density = 2.005202 g / cm^3
# Si number density = 20.097765 Si / 1000 Ang^3
#
#
#
# Elastic Constant Matrix: (Units=GPa)
#
#
# Indices 1 2 3 4 5 6 
#
# 1 148.7465 35.3382 15.0939 0.0000 -7.7994 0.0000
# 2 35.3382 117.6656 2.3755 0.0000 6.6417 0.0000
# 3 15.0939 2.3755 31.1988 0.0000 1.2607 0.0000
# 4 0.0000 0.0000 0.0000 6.3373 0.0000 6.7692
# 5 -7.7994 6.6417 1.2607 0.0000 34.6568 0.0000
# 6 0.0000 0.0000 0.0000 6.7692 0.0000 27.5109
#
#
#
# Elastic Compliance Matrix: (Units=1/GPa)
#
#
# Indices 1 2 3 4 5 6 
#
# 1 0.007789 -0.002397 -0.003681 0.000000 0.002346 0.000000
# 2 -0.002397 0.009340 0.000544 0.000000 -0.002349 0.000000
# 3 -0.003681 0.000544 0.033879 0.000000 -0.002165 0.000000
# 4 0.000000 0.000000 0.000000 0.214055 0.000000 -0.052669
# 5 0.002346 -0.002349 -0.002165 0.000000 0.029911 0.000000
# 6 0.000000 0.000000 0.000000 -0.052669 0.000000 0.049309
#
#
# Mechanical properties :
#
#
# Convention : Reuss Voigt Hill
#
# Bulk Modulus (GPa) = 25.03764 44.80288 34.92026
# Shear Modulus (GPa) = 13.56245 30.02123 21.79184
#
# Velocity S-wave (km/s) = 2.60056 3.86911 3.29643
# Velocity P-wave (km/s) = 4.63704 6.50391 5.64814
#
# Compressibility (1/GPa) = 0.03993987
#
# Stress axis : x y z
#
# Youngs Moduli (GPa) = 128.38798 107.06313 29.51661
#
# Poissons Ratio (x) = 0.25667 0.10864
# Poissons Ratio (y) = 0.30779 -0.01605
# Poissons Ratio (z) = 0.47253 -0.05820
#
# Static dielectric constant tensor:
#      x y z
#    x 1.734160 0.000000 -0.040760 
#    y 0.000000 1.785310 0.000000 
#    z -0.040760 0.000000 1.706870 
# 
# From -- ./inp_files/12400.got.cif
#   From: 2010.05.17/outbox.cif.g08.bks.cpg/sg8_7_cif.got.tgz:12400.got - 2010.06.03 19:46:02.
