data_PCOD9132574
_publ_section_title
;
Structure prediction by ZEFSAII (Michael W. Deem and Ramdas Pophale) SiO2 
 PCOD9132574
Probable space group: C M
;
_chemical_formula_sum "Si O2"
_cell_formula_units_Z 24
_cell_length_a 14.700730
_cell_length_b 8.187185
_cell_length_c 9.803083
_cell_angle_alpha 90.000000
_cell_angle_beta 125.860124
_cell_angle_gamma 90.000000
_cell_volume 956.229560
_symmetry_space_group_name_H-M "C M"
_symmetry_group_IT_number 8
_symmetry_cell_setting 'monoclinic'
loop_
_space_group_symop_operation_xyz
x,y,z
x,-y,z
1/2+x,1/2+y,z
1/2+x,1/2-y,z
loop_
_atom_site_type_symbol
_atom_site_label
_atom_site_fract_x
_atom_site_fract_y
_atom_site_fract_z
Si Si1 0.314050 0.197903 0.616590
Si Si2 0.547106 0.811084 0.733792
Si Si3 0.282515 0.809597 0.889464
Si Si4 0.610179 0.313605 0.077353
Si Si5 0.565861 0.191542 0.329533
Si Si6 0.844478 0.186275 0.236806
O O1 0.419014 0.250254 0.616090
O O2 0.336662 0.240666 0.794661
O O3 0.193689 0.271207 0.479351
O O4 0.307228 0.000000 0.602980
O O5 0.647868 0.711144 0.755776
O O6 0.552631 0.000000 0.693879
O O7 0.575735 0.801045 0.921587
O O8 0.307147 0.000000 0.938938
O O9 0.316832 0.705850 0.050428
O O10 0.588398 0.500000 0.017976
O O11 0.552474 0.270449 0.168397
O O12 0.745102 0.291675 0.216166
O O13 0.473332 0.257460 0.353866
O O14 0.549018 0.000000 0.303071
O O15 0.831669 0.000000 0.268621
#
# Coordination Sequence:
#
# PCOD9132574 Si02
#       6
#     4   4   4   4   4   4
#     4  10  23  40  57  81 117 157 193 234 287 346
#     4  10  20  37  61  87 116 150 192 239 287 341
#     4  10  20  37  61  87 116 150 192 239 287 341
#     4  11  22  39  63  89 118 152 195 242 290 344
#     4  12  25  40  59  85 119 157 197 240 291 348
#     4  11  22  39  63  89 118 152 195 242 290 344
#
# _framework density 25.098576000000001
#
# number of rings (size 3 to 8) (size 9 to 14) (size 15 to 20)
#    0.000    1.333    0.000    8.500    0.000    5.333 
#    0.000    3.333    0.000    0.000    0.000    0.000 
#    0.000    0.000    0.000    0.000    0.000    0.000 
#
# Total GULP energy -67225.047327 kJ/mol
# GULP energy per Si atom -5602.087277 kJ/mol
# Density = 2.504145 g / cm^3
# Si number density = 25.098576 Si / 1000 Ang^3
#
#
#
# Elastic Constant Matrix: (Units=GPa)
#
#
# Indices 1 2 3 4 5 6 
#
# 1 150.9890 -6.8721 11.1013 0.0000 12.5770 0.0000
# 2 -6.8721 74.6232 -8.7513 0.0000 -2.7910 0.0000
# 3 11.1013 -8.7513 64.5622 0.0000 21.3265 0.0000
# 4 0.0000 0.0000 0.0000 23.2673 0.0000 2.4731
# 5 12.5770 -2.7910 21.3265 0.0000 49.3674 0.0000
# 6 0.0000 0.0000 0.0000 2.4731 0.0000 28.0173
#
#
#
# Elastic Compliance Matrix: (Units=1/GPa)
#
#
# Indices 1 2 3 4 5 6 
#
# 1 0.006812 0.000500 -0.000629 0.000000 -0.001435 0.000000
# 2 0.000500 0.013654 0.001810 0.000000 -0.000137 0.000000
# 3 -0.000629 0.001810 0.018378 0.000000 -0.007677 0.000000
# 4 0.000000 0.000000 0.000000 0.043386 0.000000 -0.003830
# 5 -0.001435 -0.000137 -0.007677 0.000000 0.023930 0.000000
# 6 0.000000 0.000000 0.000000 -0.003830 0.000000 0.036030
#
#
# Mechanical properties :
#
#
# Convention : Reuss Voigt Hill
#
# Bulk Modulus (GPa) = 23.69393 31.23669 27.46531
# Shear Modulus (GPa) = 32.70166 39.77684 36.23925
#
# Velocity S-wave (km/s) = 3.61353 3.98530 3.80396
# Velocity P-wave (km/s) = 5.18372 5.80082 5.50093
#
# Compressibility (1/GPa) = 0.04220491
#
# Stress axis : x y z
#
# Youngs Moduli (GPa) = 146.80904 73.23950 54.41192
#
# Poissons Ratio (x) = -0.03660 0.03425
# Poissons Ratio (y) = -0.07337 -0.09850
# Poissons Ratio (z) = 0.09240 -0.13258
#
# Static dielectric constant tensor:
#      x y z
#    x 1.973590 0.000000 0.043820 
#    y 0.000000 1.833800 0.000000 
#    z 0.043820 0.000000 2.091230 
# 
# From -- ./inp_files/22841.got.cif
#   From: 2010.05.17/outbox.cif.g08.bks.cpg/sg8_12_cif.got.tgz:22841.got - 2010.06.03 19:46:02.
