data_PCOD9132210
_publ_section_title
;
Structure prediction by ZEFSAII (Michael W. Deem and Ramdas Pophale) SiO2 
 PCOD9132210
Probable space group: C M
;
_chemical_formula_sum "Si O2"
_cell_formula_units_Z 28
_cell_length_a 12.938783
_cell_length_b 15.972147
_cell_length_c 5.331451
_cell_angle_alpha 90.000000
_cell_angle_beta 97.354923
_cell_angle_gamma 90.000000
_cell_volume 1092.733037
_symmetry_space_group_name_H-M "C M"
_symmetry_group_IT_number 8
_symmetry_cell_setting 'monoclinic'
loop_
_space_group_symop_operation_xyz
x,y,z
x,-y,z
1/2+x,1/2+y,z
1/2+x,1/2-y,z
loop_
_atom_site_type_symbol
_atom_site_label
_atom_site_fract_x
_atom_site_fract_y
_atom_site_fract_z
Si Si1 0.936550 0.239115 0.088810
Si Si2 0.506504 0.092284 0.940920
Si Si3 0.616586 0.661843 0.885778
Si Si4 0.273644 0.742394 0.611030
Si Si5 0.240721 0.907575 0.324100
Si Si6 0.497696 0.407851 0.447033
Si Si7 0.141317 0.407939 0.480690
O O1 0.930877 0.338892 0.040083
O O2 0.057492 0.223255 0.054433
O O3 0.936102 0.173824 0.322520
O O4 0.852554 0.215194 0.852768
O O5 0.588980 0.086603 0.192583
O O6 0.457864 0.000000 0.898223
O O7 0.559336 0.112380 0.685122
O O8 0.710252 0.608437 0.026703
O O9 0.668896 0.722411 0.705918
O O10 0.524024 0.605521 0.747253
O O11 0.300095 0.824937 0.449839
O O12 0.231598 0.659048 0.473978
O O13 0.119304 0.909709 0.387224
O O14 0.286368 0.000000 0.382922
O O15 0.453120 0.500000 0.378496
O O16 0.181995 0.500000 0.563547
#
# Coordination Sequence:
#
# PCOD9132210 Si02
#       7
#     4   4   4   4   4   4   4
#     4  11  23  37  61  89 124 160 206 262 315 380
#     4  10  21  41  67  91 124 170 217 264 317 377
#     4  10  19  38  61  82 120 160 201 254 313 380
#     4  11  23  37  61  89 124 160 206 262 315 380
#     4   9  19  36  59  86 118 158 199 248 312 379
#     4   9  19  36  59  86 118 158 199 248 312 379
#     4  10  21  41  67  91 124 170 217 264 317 377
#
# _framework density 25.623826999999999
#
# number of rings (size 3 to 8) (size 9 to 14) (size 15 to 20)
#    0.000    2.000    1.429    3.000    0.000    3.429 
#    0.000    0.000    0.000    0.000    0.000    0.000 
#    0.000    0.000    0.000    0.000    0.000    0.000 
#
# Total GULP energy -77956.694424 kJ/mol
# GULP energy per Si atom -5568.335316 kJ/mol
# Density = 2.556551 g / cm^3
# Si number density = 25.623827 Si / 1000 Ang^3
#
#
#
# Elastic Constant Matrix: (Units=GPa)
#
#
# Indices 1 2 3 4 5 6 
#
# 1 64.4947 30.4920 8.8382 0.0000 -3.4868 0.0000
# 2 30.4920 137.8832 24.7744 0.0000 22.2319 0.0000
# 3 8.8382 24.7744 89.0622 0.0000 26.9161 0.0000
# 4 0.0000 0.0000 0.0000 60.0239 0.0000 -49.1605
# 5 -3.4868 22.2319 26.9161 0.0000 44.9713 0.0000
# 6 0.0000 0.0000 0.0000 -49.1605 0.0000 92.8842
#
#
#
# Elastic Compliance Matrix: (Units=1/GPa)
#
#
# Indices 1 2 3 4 5 6 
#
# 1 0.018132 -0.004421 -0.002020 0.000000 0.004800 0.000000
# 2 -0.004421 0.009072 -0.000764 0.000000 -0.004370 0.000000
# 3 -0.002020 -0.000764 0.014130 0.000000 -0.008236 0.000000
# 4 0.000000 0.000000 0.000000 0.029408 0.000000 0.015564
# 5 0.004800 -0.004370 -0.008236 0.000000 0.029698 0.000000
# 6 0.000000 0.000000 0.000000 0.015564 0.000000 0.019004
#
#
# Mechanical properties :
#
#
# Convention : Reuss Voigt Hill
#
# Bulk Modulus (GPa) = 37.14224 46.62770 41.88497
# Shear Modulus (GPa) = 35.00701 54.73156 44.86929
#
# Velocity S-wave (km/s) = 3.70021 4.62666 4.18913
# Velocity P-wave (km/s) = 5.72556 6.83943 6.30714
#
# Compressibility (1/GPa) = 0.02692352
#
# Stress axis : x y z
#
# Youngs Moduli (GPa) = 55.15243 110.22856 70.77025
#
# Poissons Ratio (x) = 0.48728 0.14298
# Poissons Ratio (y) = 0.24381 0.05408
# Poissons Ratio (z) = 0.11143 0.08423
#
# Static dielectric constant tensor:
#      x y z
#    x 2.087330 0.000000 -0.138460 
#    y 0.000000 2.122410 0.000000 
#    z -0.138460 0.000000 2.236440 
# 
# From -- ./inp_files/4067.got.cif
#   From: 2010.05.17/outbox.cif.g08.bks.cpg/sg8_3_cif.got.tgz:4067.got - 2010.06.03 19:46:02.
