data_PCOD9132501
_publ_section_title
;
Structure prediction by ZEFSAII (Michael W. Deem and Ramdas Pophale) SiO2 
 PCOD9132501
Probable space group: C M
;
_chemical_formula_sum "Si O2"
_cell_formula_units_Z 32
_cell_length_a 25.108198
_cell_length_b 9.026510
_cell_length_c 24.255680
_cell_angle_alpha 90.000000
_cell_angle_beta 162.433713
_cell_angle_gamma 90.000000
_cell_volume 1659.132314
_symmetry_space_group_name_H-M "C M"
_symmetry_group_IT_number 8
_symmetry_cell_setting 'monoclinic'
loop_
_space_group_symop_operation_xyz
x,y,z
x,-y,z
1/2+x,1/2+y,z
1/2+x,1/2-y,z
loop_
_atom_site_type_symbol
_atom_site_label
_atom_site_fract_x
_atom_site_fract_y
_atom_site_fract_z
Si Si1 0.234940 0.322296 0.449290
Si Si2 0.172536 0.829109 0.991744
Si Si3 0.116604 0.676366 0.823336
Si Si4 0.959358 0.823120 0.094735
Si Si5 0.247620 0.329286 0.586458
Si Si6 0.947066 0.176698 0.954970
Si Si7 0.638502 0.326623 0.589871
Si Si8 0.746331 0.174830 0.176426
O O1 0.247845 0.500000 0.459827
O O2 0.427844 0.253376 0.628453
O O3 0.185005 0.284257 0.463528
O O4 0.094223 0.261554 0.267311
O O5 0.196804 0.740202 0.959306
O O6 0.961076 0.827203 0.794181
O O7 0.227507 0.000000 0.039750
O O8 0.260237 0.753649 0.130935
O O9 0.091436 0.500000 0.803194
O O10 0.259343 0.707183 0.916858
O O11 0.988226 0.000000 0.129532
O O12 0.981923 0.784937 0.052960
O O13 0.194058 0.500000 0.544528
O O14 0.187217 0.225553 0.576164
O O15 0.755467 0.231921 0.746898
O O16 0.958747 0.000000 0.959874
O O17 0.087410 0.253978 0.053532
O O18 0.679797 0.500000 0.637046
O O19 0.429636 0.305028 0.389514
O O20 0.716177 0.000000 0.138439
#
# Coordination Sequence:
#
# PCOD9132501 Si02
#       8
#     4   4   4   4   4   4   4   4
#     4  10  22  39  61  92 125 160 203 252 304 361
#     4  10  20  36  60  91 126 161 199 248 304 363
#     4  10  21  39  62  90 125 162 201 251 304 361
#     4  10  24  43  64  89 120 163 211 253 303 362
#     4   9  19  36  58  88 124 159 197 243 301 360
#     4  11  24  44  65  87 120 163 209 257 304 360
#     4  11  24  39  60  90 122 159 202 250 307 366
#     4  11  24  40  60  91 124 159 202 250 309 367
#
# _framework density 19.287189999999999
#
# number of rings (size 3 to 8) (size 9 to 14) (size 15 to 20)
#    0.000    1.750    1.250    3.000    1.750    7.500 
#    0.000    3.750    0.000    0.000    0.000    0.000 
#    0.000    0.000    0.000    0.000    0.000    0.000 
#
# Total GULP energy -89437.084628 kJ/mol
# GULP energy per Si atom -5589.817789 kJ/mol
# Density = 1.924329 g / cm^3
# Si number density = 19.287190 Si / 1000 Ang^3
#
#
#
# Elastic Constant Matrix: (Units=GPa)
#
#
# Indices 1 2 3 4 5 6 
#
# 1 49.2135 18.0141 14.0065 -0.0002 -16.7822 -0.0002
# 2 18.0141 54.0041 28.3113 0.0021 -10.9854 0.0004
# 3 14.0065 28.3113 62.7352 0.0020 -22.7852 0.0017
# 4 -0.0002 0.0021 0.0020 20.1501 0.0006 -22.4390
# 5 -16.7822 -10.9854 -22.7852 0.0006 26.5293 0.0001
# 6 -0.0002 0.0004 0.0017 -22.4390 0.0001 6.1399
#
#
#
# Elastic Compliance Matrix: (Units=1/GPa)
#
#
# Indices 1 2 3 4 5 6 
#
# 1 0.028149 -0.007681 0.003625 0.000000 0.017739 0.000000
# 2 -0.007681 0.026368 -0.011603 0.000000 -0.003906 0.000001
# 3 0.003625 -0.011603 0.028275 0.000003 0.021773 0.000005
# 4 0.000000 0.000000 0.000003 -0.016167 0.000003 -0.059083
# 5 0.017739 -0.003906 0.021773 0.000003 0.065998 0.000006
# 6 0.000000 0.000001 0.000005 -0.059083 0.000006 -0.053056
#
#
# Mechanical properties :
#
#
# Convention : Reuss Voigt Hill
#
# Bulk Modulus (GPa) = 19.42814 31.84630 25.63722
# Shear Modulus (GPa) = 39.04922 17.60526 28.32724
#
# Velocity S-wave (km/s) = 4.50446 3.02453 3.83653
# Velocity P-wave (km/s) = 6.09495 5.36139 5.73990
#
# Compressibility (1/GPa) = 0.05147174
#
# Stress axis : x y z
#
# Youngs Moduli (GPa) = 35.52544 37.92535 35.36725
#
# Poissons Ratio (x) = 0.29132 -0.12819
# Poissons Ratio (y) = 0.27288 0.41037
# Poissons Ratio (z) = -0.12877 0.44005
#
# Static dielectric constant tensor:
#      x y z
#    x 1.646070 0.000000 0.006960 
#    y 0.000000 1.642310 0.000000 
#    z 0.006960 0.000000 1.679670 
# 
# From -- ./inp_files/32428.got.cif
#   From: 2010.05.17/outbox.cif.g08.bks.cpg/sg8_17_cif.got.tgz:32428.got - 2010.06.03 19:46:02.
