data_PCOD9132231
_publ_section_title
;
Structure prediction by ZEFSAII (Michael W. Deem and Ramdas Pophale) SiO2 
 PCOD9132231
Probable space group: C M
;
_chemical_formula_sum "Si O2"
_cell_formula_units_Z 32
_cell_length_a 17.940432
_cell_length_b 13.576080
_cell_length_c 11.945904
_cell_angle_alpha 90.000000
_cell_angle_beta 32.276604
_cell_angle_gamma 90.000000
_cell_volume 1553.722231
_symmetry_space_group_name_H-M "C M"
_symmetry_group_IT_number 8
_symmetry_cell_setting 'monoclinic'
loop_
_space_group_symop_operation_xyz
x,y,z
x,-y,z
1/2+x,1/2+y,z
1/2+x,1/2-y,z
loop_
_atom_site_type_symbol
_atom_site_label
_atom_site_fract_x
_atom_site_fract_y
_atom_site_fract_z
Si Si1 0.981880 0.743949 0.157630
Si Si2 0.481779 0.821309 0.392574
Si Si3 0.902998 0.225767 0.792794
Si Si4 0.254818 0.608455 0.163439
Si Si5 0.900033 0.888749 0.573191
Si Si6 0.740333 0.383510 0.855155
Si Si7 0.185652 0.678570 0.490649
Si Si8 0.098872 0.392824 0.834073
O O1 0.011396 0.670731 0.223731
O O2 0.820880 0.771132 0.372072
O O3 0.087854 0.835489 0.034304
O O4 0.010116 0.691947 0.004292
O O5 0.599330 0.877157 0.312604
O O6 0.486301 0.703611 0.414071
O O7 0.333251 0.859577 0.626420
O O8 0.878841 0.141891 0.729442
O O9 0.821399 0.321452 0.848571
O O10 0.066034 0.249650 0.596147
O O11 0.844871 0.189569 0.984686
O O12 0.308470 0.500000 0.067801
O O13 0.243660 0.620378 0.310339
O O14 0.751717 0.886836 0.697738
O O15 0.956915 0.000000 0.489569
O O16 0.735957 0.500000 0.880812
O O17 0.116105 0.618688 0.679739
O O18 0.038987 0.500000 0.936172
#
# Coordination Sequence:
#
# PCOD9132231 Si02
#       8
#     4   4   4   4   4   4   4   4
#     4  12  23  44  66  97 131 170 219 270 325 390
#     4  11  21  41  67 100 129 168 221 275 323 380
#     4  11  23  44  65  99 131 171 221 272 327 385
#     4  12  24  41  69  99 128 174 224 268 329 393
#     4  10  19  39  69  95 126 168 215 269 320 378
#     4  11  23  41  67  97 132 169 218 273 322 385
#     4  12  25  42  66  92 141 172 208 272 331 391
#     4  11  23  42  66  95 128 170 217 265 324 388
#
# _framework density 20.595701999999999
#
# number of rings (size 3 to 8) (size 9 to 14) (size 15 to 20)
#    0.000    0.750    7.500    1.875    0.000    4.000 
#    0.000    1.250    0.000    0.000    0.000    0.000 
#    0.000    0.000    0.000    0.000    0.000    0.000 
#
# Total GULP energy -89382.303627 kJ/mol
# GULP energy per Si atom -5586.393977 kJ/mol
# Density = 2.054883 g / cm^3
# Si number density = 20.595702 Si / 1000 Ang^3
#
#
#
# Elastic Constant Matrix: (Units=GPa)
#
#
# Indices 1 2 3 4 5 6 
#
# 1 64.6149 9.6141 12.0488 0.0000 12.3381 0.0000
# 2 9.6141 109.0578 23.1241 0.0000 8.5849 0.0000
# 3 12.0488 23.1241 69.6658 0.0000 11.7262 0.0000
# 4 0.0000 0.0000 0.0000 9.2659 0.0000 4.4168
# 5 12.3381 8.5849 11.7262 0.0000 42.1484 0.0000
# 6 0.0000 0.0000 0.0000 4.4168 0.0000 5.8717
#
#
#
# Elastic Compliance Matrix: (Units=1/GPa)
#
#
# Indices 1 2 3 4 5 6 
#
# 1 0.016753 -0.000733 -0.001945 0.000000 -0.004214 0.000000
# 2 -0.000733 0.009949 -0.003012 0.000000 -0.000974 0.000000
# 3 -0.001945 -0.003012 0.016252 0.000000 -0.003339 0.000000
# 4 0.000000 0.000000 0.000000 0.168253 0.000000 -0.126565
# 5 -0.004214 -0.000974 -0.003339 0.000000 0.026086 0.000000
# 6 0.000000 0.000000 0.000000 -0.126565 0.000000 0.265514
#
#
# Mechanical properties :
#
#
# Convention : Reuss Voigt Hill
#
# Bulk Modulus (GPa) = 31.67033 36.99029 34.33031
# Shear Modulus (GPa) = 9.52904 24.69396 17.11150
#
# Velocity S-wave (km/s) = 2.15331 3.46639 2.88554
# Velocity P-wave (km/s) = 4.64681 5.83270 5.27320
#
# Compressibility (1/GPa) = 0.03157530
#
# Stress axis : x y z
#
# Youngs Moduli (GPa) = 59.69228 100.50932 61.52974
#
# Poissons Ratio (x) = 0.07365 0.11967
# Poissons Ratio (y) = 0.04374 0.18531
# Poissons Ratio (z) = 0.11610 0.30271
#
# Static dielectric constant tensor:
#      x y z
#    x 1.738840 0.000000 0.022840 
#    y 0.000000 1.724640 0.000000 
#    z 0.022840 0.000000 1.742190 
# 
# From -- ./inp_files/23303.got.cif
#   From: 2010.05.17/outbox.cif.g08.bks.cpg/sg8_12_cif.got.tgz:23303.got - 2010.06.03 19:46:02.
