data_PCOD9132423
_publ_section_title
;
Structure prediction by ZEFSAII (Michael W. Deem and Ramdas Pophale) SiO2 
 PCOD9132423
Probable space group: C M
;
_chemical_formula_sum "Si O2"
_cell_formula_units_Z 32
_cell_length_a 22.114503
_cell_length_b 9.294023
_cell_length_c 14.423716
_cell_angle_alpha 90.000000
_cell_angle_beta 30.223599
_cell_angle_gamma 90.000000
_cell_volume 1492.280597
_symmetry_space_group_name_H-M "C M"
_symmetry_group_IT_number 8
_symmetry_cell_setting 'monoclinic'
loop_
_space_group_symop_operation_xyz
x,y,z
x,-y,z
1/2+x,1/2+y,z
1/2+x,1/2-y,z
loop_
_atom_site_type_symbol
_atom_site_label
_atom_site_fract_x
_atom_site_fract_y
_atom_site_fract_z
Si Si1 0.091140 0.166375 0.208090
Si Si2 0.857836 0.166143 0.052043
Si Si3 0.461903 0.172943 0.529656
Si Si4 0.496072 0.834272 0.165344
Si Si5 0.261591 0.830693 0.348365
Si Si6 0.135235 0.167450 0.695524
Si Si7 0.367095 0.167159 0.847761
Si Si8 0.241374 0.668476 0.722743
O O1 0.008796 0.230003 0.235868
O O2 0.070618 0.259153 0.327823
O O3 0.063928 0.000000 0.262783
O O4 0.229572 0.174916 0.993571
O O5 0.865107 0.241806 0.943312
O O6 0.995476 0.175519 0.905939
O O7 0.824714 0.000000 0.085443
O O8 0.773879 0.241890 0.238527
O O9 0.452393 0.213998 0.650513
O O10 0.345001 0.240210 0.634523
O O11 0.461156 0.000000 0.524909
O O12 0.382093 0.808230 0.250653
O O13 0.488479 0.000000 0.208866
O O14 0.617706 0.820215 0.944650
O O15 0.156233 0.793067 0.560105
O O16 0.254142 0.000000 0.335319
O O17 0.211632 0.266654 0.661760
O O18 0.173514 0.000000 0.654313
O O19 0.392669 0.000000 0.836036
O O20 0.273509 0.500000 0.675628
#
# Coordination Sequence:
#
# PCOD9132423 Si02
#       8
#     4   4   4   4   4   4   4   4
#     4  11  23  40  63  92 121 156 201 249 300 356
#     4  11  24  40  61  89 118 153 202 254 300 348
#     4  11  23  41  63  90 123 161 198 241 302 362
#     4  10  20  35  60  92 124 160 197 241 299 358
#     4  10  21  40  62  86 120 160 197 237 297 361
#     4  10  22  39  61  89 122 160 198 243 300 358
#     4  10  24  44  63  83 116 161 203 245 300 358
#     4  11  21  35  61  95 124 157 200 246 296 353
#
# _framework density 21.443688999999999
#
# number of rings (size 3 to 8) (size 9 to 14) (size 15 to 20)
#    0.000    1.500    2.500    2.250    0.000    6.000 
#    0.000    3.750    0.000    0.000    0.000    0.000 
#    0.000    0.000    0.000    0.000    0.000    0.000 
#
# Total GULP energy -89484.002232 kJ/mol
# GULP energy per Si atom -5592.750140 kJ/mol
# Density = 2.139488 g / cm^3
# Si number density = 21.443689 Si / 1000 Ang^3
#
#
#
# Elastic Constant Matrix: (Units=GPa)
#
#
# Indices 1 2 3 4 5 6 
#
# 1 67.9174 48.7369 5.3896 0.0000 33.8375 0.0000
# 2 48.7369 95.6517 30.4670 -0.0001 38.6518 0.0000
# 3 5.3896 30.4670 93.7845 -0.0001 30.5950 0.0000
# 4 0.0000 -0.0001 -0.0001 30.2392 0.0000 6.9358
# 5 33.8375 38.6518 30.5950 0.0000 46.5962 0.0000
# 6 0.0000 0.0000 0.0000 6.9358 0.0000 32.6006
#
#
#
# Elastic Compliance Matrix: (Units=1/GPa)
#
#
# Indices 1 2 3 4 5 6 
#
# 1 0.031283 -0.010799 0.007889 0.000000 -0.018939 0.000000
# 2 -0.010799 0.019541 -0.003815 0.000000 -0.005862 0.000000
# 3 0.007889 -0.003815 0.015634 0.000000 -0.012829 0.000000
# 4 0.000000 0.000000 0.000000 0.034766 0.000000 -0.007397
# 5 -0.018939 -0.005862 -0.012829 0.000000 0.048501 0.000000
# 6 0.000000 0.000000 0.000000 -0.007397 0.000000 0.032248
#
#
# Mechanical properties :
#
#
# Convention : Reuss Voigt Hill
#
# Bulk Modulus (GPa) = 18.86532 47.39338 33.12935
# Shear Modulus (GPa) = 23.46401 33.40454 28.43427
#
# Velocity S-wave (km/s) = 3.31148 3.95115 3.64538
# Velocity P-wave (km/s) = 4.84127 6.55475 5.76206
#
# Compressibility (1/GPa) = 0.05300730
#
# Stress axis : x y z
#
# Youngs Moduli (GPa) = 31.96657 51.17429 63.96285
#
# Poissons Ratio (x) = 0.55263 -0.50459
# Poissons Ratio (y) = 0.34521 0.24402
# Poissons Ratio (z) = -0.25218 0.19523
#
# Static dielectric constant tensor:
#      x y z
#    x 1.758200 0.000000 -0.018190 
#    y 0.000000 1.719380 0.000000 
#    z -0.018190 0.000000 1.804340 
# 
# From -- ./inp_files/26562.got.cif
#   From: 2010.05.17/outbox.cif.g08.bks.cpg/sg8_14_cif.got.tgz:26562.got - 2010.06.03 19:46:02.
