data_PCOD9132146
_publ_section_title
;
Structure prediction by ZEFSAII (Michael W. Deem and Ramdas Pophale) SiO2 
 PCOD9132146
Probable space group: C M
;
_chemical_formula_sum "Si O2"
_cell_formula_units_Z 32
_cell_length_a 12.513159
_cell_length_b 15.962285
_cell_length_c 16.635161
_cell_angle_alpha 90.000000
_cell_angle_beta 25.465291
_cell_angle_gamma 90.000000
_cell_volume 1428.635288
_symmetry_space_group_name_H-M "C M"
_symmetry_group_IT_number 8
_symmetry_cell_setting 'monoclinic'
loop_
_space_group_symop_operation_xyz
x,y,z
x,-y,z
1/2+x,1/2+y,z
1/2+x,1/2-y,z
loop_
_atom_site_type_symbol
_atom_site_label
_atom_site_fract_x
_atom_site_fract_y
_atom_site_fract_z
Si Si1 0.511100 0.837792 0.485960
Si Si2 0.652497 0.641114 0.406275
Si Si3 0.172000 0.409441 0.644949
Si Si4 0.442133 0.850326 0.957581
Si Si5 0.657466 0.900473 0.970773
Si Si6 0.990156 0.359519 0.310556
Si Si7 0.899058 0.165000 0.344093
Si Si8 0.474338 0.344937 0.896019
O O1 0.541628 0.736426 0.477582
O O2 0.491696 0.859574 0.405256
O O3 0.761043 0.868414 0.359276
O O4 0.262097 0.870222 0.698705
O O5 0.432483 0.589821 0.515761
O O6 0.751699 0.605675 0.424476
O O7 0.900971 0.635340 0.183105
O O8 0.118596 0.500000 0.646180
O O9 0.213635 0.346340 0.544146
O O10 0.976724 0.385020 0.844945
O O11 0.639077 0.882517 0.888746
O O12 0.473663 0.750597 0.927555
O O13 0.167528 0.875688 0.173699
O O14 0.874826 0.854220 0.872154
O O15 0.672406 0.000000 0.974573
O O16 0.962535 0.263203 0.298871
O O17 0.257263 0.389987 0.095176
#
# Coordination Sequence:
#
# PCOD9132146 Si02
#       8
#     4   4   4   4   4   4   4   4
#     4  11  20  38  63  91 125 164 211 260 306 380
#     4  10  19  36  60  91 125 159 204 257 316 370
#     4  12  23  37  59  89 123 162 207 260 317 370
#     4  11  22  39  59  93 125 168 213 262 313 379
#     4  11  23  41  66  96 133 167 206 271 334 375
#     4   9  19  35  58  91 121 160 202 259 310 363
#     4  10  22  37  58  86 126 162 206 254 311 375
#     4  10  22  37  63  93 128 164 211 263 311 378
#
# _framework density 22.398997999999999
#
# number of rings (size 3 to 8) (size 9 to 14) (size 15 to 20)
#    0.000    1.500    3.750    2.250    1.750    2.500 
#    0.000    0.625    0.000    3.750    0.000    0.000 
#    0.000    0.000    0.000    0.000    0.000    0.000 
#
# Total GULP energy -89255.517292 kJ/mol
# GULP energy per Si atom -5578.469831 kJ/mol
# Density = 2.234802 g / cm^3
# Si number density = 22.398998 Si / 1000 Ang^3
#
#
#
# Elastic Constant Matrix: (Units=GPa)
#
#
# Indices 1 2 3 4 5 6 
#
# 1 122.6182 -13.5545 22.7195 -0.0053 10.9235 -0.0038
# 2 -13.5545 22.8296 -10.7470 -0.0375 4.6076 0.0109
# 3 22.7195 -10.7470 73.7448 -0.0223 4.6141 0.0136
# 4 -0.0053 -0.0375 -0.0223 -2.3072 0.0023 12.2306
# 5 10.9235 4.6076 4.6141 0.0023 31.8429 0.0075
# 6 -0.0038 0.0109 0.0136 12.2306 0.0075 -6.2192
#
#
#
# Elastic Compliance Matrix: (Units=1/GPa)
#
#
# Indices 1 2 3 4 5 6 
#
# 1 0.009444 0.005484 -0.001875 0.000013 -0.003762 0.000021
# 2 0.005484 0.052252 0.006576 0.000048 -0.010395 0.000185
# 3 -0.001875 0.006576 0.015254 0.000002 -0.002519 0.000048
# 4 0.000013 0.000048 0.000002 0.045987 -0.000037 0.090437
# 5 -0.003762 -0.010395 -0.002519 -0.000037 0.034564 -0.000051
# 6 0.000021 0.000185 0.000048 0.090437 -0.000051 0.017061
#
#
# Mechanical properties :
#
#
# Convention : Reuss Voigt Hill
#
# Bulk Modulus (GPa) = 10.27549 24.00316 17.13932
# Shear Modulus (GPa) = 26.79063 19.38160 23.08611
#
# Velocity S-wave (km/s) = 3.46217 2.94477 3.21390
# Velocity P-wave (km/s) = 4.53647 4.72246 4.63040
#
# Compressibility (1/GPa) = 0.09731900
#
# Stress axis : x y z
#
# Youngs Moduli (GPa) = 105.88615 19.13796 65.55731
#
# Poissons Ratio (x) = -0.10495 0.12292
# Poissons Ratio (y) = -0.58065 -0.43109
# Poissons Ratio (z) = 0.19854 -0.12585
#
# Static dielectric constant tensor:
#      x y z
#    x 1.851260 0.000000 -0.007010 
#    y 0.000000 1.813660 0.000040 
#    z -0.007010 0.000040 1.865340 
# 
# From -- ./inp_files/22401.got.cif
#   From: 2010.05.17/outbox.cif.g08.bks.cpg/sg8_12_cif.got.tgz:22401.got - 2010.06.03 19:46:02.
