data_PCOD9132324
_publ_section_title
;
Structure prediction by ZEFSAII (Michael W. Deem and Ramdas Pophale) SiO2 
 PCOD9132324
Probable space group: C M
;
_chemical_formula_sum "Si O2"
_cell_formula_units_Z 32
_cell_length_a 14.899106
_cell_length_b 8.834574
_cell_length_c 25.564588
_cell_angle_alpha 90.000000
_cell_angle_beta 150.376397
_cell_angle_gamma 90.000000
_cell_volume 1663.317829
_symmetry_space_group_name_H-M "C M"
_symmetry_group_IT_number 8
_symmetry_cell_setting 'monoclinic'
loop_
_space_group_symop_operation_xyz
x,y,z
x,-y,z
1/2+x,1/2+y,z
1/2+x,1/2-y,z
loop_
_atom_site_type_symbol
_atom_site_label
_atom_site_fract_x
_atom_site_fract_y
_atom_site_fract_z
Si Si1 0.493970 0.817387 0.038180
Si Si2 0.793025 0.673116 0.660111
Si Si3 0.760955 0.317968 0.445442
Si Si4 0.082445 0.826523 0.665579
Si Si5 0.627096 0.816840 0.893972
Si Si6 0.416106 0.319273 0.886034
Si Si7 0.964166 0.679634 0.441496
Si Si8 0.868459 0.182026 0.282846
O O1 0.684415 0.770852 0.160879
O O2 0.482324 0.000000 0.031910
O O3 0.325622 0.747388 0.984492
O O4 0.477938 0.754107 0.971523
O O5 0.799772 0.500000 0.644599
O O6 0.688205 0.673599 0.663103
O O7 0.669438 0.769674 0.558961
O O8 0.994060 0.725223 0.777932
O O9 0.774818 0.500000 0.457402
O O10 0.843060 0.276406 0.430579
O O11 0.552464 0.271953 0.346066
O O12 0.887891 0.243677 0.553833
O O13 0.209810 0.730251 0.768132
O O14 0.069622 0.000000 0.676787
O O15 0.539173 0.746907 0.901487
O O16 0.625681 0.000000 0.896670
O O17 0.428321 0.500000 0.894137
O O18 0.958070 0.500000 0.432895
O O19 0.888450 0.755754 0.351287
O O20 0.867166 0.000000 0.284301
#
# Coordination Sequence:
#
# PCOD9132324 Si02
#       8
#     4   4   4   4   4   4   4   4
#     4  11  24  41  59  83 114 153 201 247 287 338
#     4   8  16  32  55  82 113 146 180 221 279 343
#     4   9  19  37  58  82 113 149 185 227 282 341
#     4   9  17  32  56  87 117 146 184 232 282 339
#     4  10  21  39  62  88 118 153 190 237 292 345
#     4  11  22  38  61  88 118 154 191 235 290 347
#     4  10  20  34  57  86 113 143 183 230 280 333
#     4  10  23  41  58  78 110 150 192 235 282 336
#
# _framework density 19.238657
#
# number of rings (size 3 to 8) (size 9 to 14) (size 15 to 20)
#    0.000    2.250    0.000    3.375    0.000    7.500 
#    0.000    2.500    0.000    0.000    0.000    0.000 
#    0.000    0.000    0.000    0.000    0.000    0.000 
#
# Total GULP energy -89368.904244 kJ/mol
# GULP energy per Si atom -5585.556515 kJ/mol
# Density = 1.919487 g / cm^3
# Si number density = 19.238657 Si / 1000 Ang^3
#
#
#
# Elastic Constant Matrix: (Units=GPa)
#
#
# Indices 1 2 3 4 5 6 
#
# 1 105.3085 40.2129 91.7843 0.0000 8.5018 0.0000
# 2 40.2129 60.3197 65.5461 0.0000 4.8435 0.0000
# 3 91.7843 65.5461 218.7445 0.0001 13.8440 0.0000
# 4 0.0000 0.0000 0.0001 29.9168 0.0000 -0.9230
# 5 8.5018 4.8435 13.8440 0.0000 33.4685 0.0000
# 6 0.0000 0.0000 0.0000 -0.9230 0.0000 24.5952
#
#
#
# Elastic Compliance Matrix: (Units=1/GPa)
#
#
# Indices 1 2 3 4 5 6 
#
# 1 0.015965 -0.004967 -0.005134 0.000000 -0.001213 0.000000
# 2 -0.004967 0.026137 -0.005738 0.000000 -0.000147 0.000000
# 3 -0.005134 -0.005738 0.008533 0.000000 -0.001395 0.000000
# 4 0.000000 0.000000 0.000000 0.033465 0.000000 0.001256
# 5 -0.001213 -0.000147 -0.001395 0.000000 0.030785 0.000000
# 6 0.000000 0.000000 0.000000 0.001256 0.000000 0.040705
#
#
# Mechanical properties :
#
#
# Convention : Reuss Voigt Hill
#
# Bulk Modulus (GPa) = 52.75124 86.60660 69.67892
# Shear Modulus (GPa) = 25.82790 30.05140 27.93965
#
# Velocity S-wave (km/s) = 3.66799 3.95654 3.81500
# Velocity P-wave (km/s) = 6.73927 8.12324 7.46340
#
# Compressibility (1/GPa) = 0.01895690
#
# Stress axis : x y z
#
# Youngs Moduli (GPa) = 62.63682 38.25950 117.18720
#
# Poissons Ratio (x) = 0.19005 0.60159
# Poissons Ratio (y) = 0.31115 0.67246
# Poissons Ratio (z) = 0.32155 0.21955
#
# Static dielectric constant tensor:
#      x y z
#    x 1.697450 0.000000 0.015900 
#    y 0.000000 1.648890 0.000000 
#    z 0.015900 0.000000 1.648550 
# 
# From -- ./inp_files/26569.got.cif
#   From: 2010.05.17/outbox.cif.g08.bks.cpg/sg8_14_cif.got.tgz:26569.got - 2010.06.03 19:46:02.
