data_PCOD9132251
_publ_section_title
;
Structure prediction by ZEFSAII (Michael W. Deem and Ramdas Pophale) SiO2 
 PCOD9132251
Probable space group: C M
;
_chemical_formula_sum "Si O2"
_cell_formula_units_Z 32
_cell_length_a 14.699184
_cell_length_b 7.865508
_cell_length_c 20.631822
_cell_angle_alpha 90.000000
_cell_angle_beta 134.865620
_cell_angle_gamma 90.000000
_cell_volume 1690.669762
_symmetry_space_group_name_H-M "C M"
_symmetry_group_IT_number 8
_symmetry_cell_setting 'monoclinic'
loop_
_space_group_symop_operation_xyz
x,y,z
x,-y,z
1/2+x,1/2+y,z
1/2+x,1/2-y,z
loop_
_atom_site_type_symbol
_atom_site_label
_atom_site_fract_x
_atom_site_fract_y
_atom_site_fract_z
Si Si1 0.754760 0.794392 0.642020
Si Si2 0.252726 0.704130 0.493987
Si Si3 0.749106 0.294001 0.138168
Si Si4 0.758183 0.298559 0.995707
Si Si5 0.464593 0.795903 0.495409
Si Si6 0.459030 0.203996 0.992347
Si Si7 0.461910 0.792016 0.346794
Si Si8 0.472582 0.201601 0.852875
O O1 0.783568 0.736863 0.582741
O O2 0.609269 0.736735 0.584658
O O3 0.859808 0.737139 0.746045
O O4 0.755248 0.000000 0.642434
O O5 0.247223 0.500000 0.494125
O O6 0.358665 0.750080 0.494711
O O7 0.107890 0.762168 0.404604
O O8 0.752500 0.500000 0.138720
O O9 0.856835 0.233744 0.242416
O O10 0.771653 0.230608 0.075877
O O11 0.605359 0.242024 0.085286
O O12 0.783027 0.500000 0.012632
O O13 0.857000 0.227096 0.992744
O O14 0.610257 0.274811 0.901359
O O15 0.433480 0.737724 0.406467
O O16 0.470549 0.000000 0.495570
O O17 0.442000 0.268595 0.910028
O O18 0.442758 0.000000 0.981685
O O19 0.460161 0.000000 0.345024
O O20 0.490242 0.000000 0.866751
#
# Coordination Sequence:
#
# PCOD9132251 Si02
#       8
#     4   4   4   4   4   4   4   4
#     4   9  19  35  51  68  96 131 160 191 238 291
#     4   9  18  33  52  72  96 127 161 197 236 281
#     4   9  17  31  52  73  94 127 167 198 228 279
#     4   9  18  33  51  70  96 130 162 193 236 288
#     4   9  18  33  51  71  98 129 159 195 238 283
#     4   9  19  34  49  70 100 127 155 198 246 283
#     4   8  16  32  50  70  99 131 160 192 236 286
#     4  10  20  33  50  72  97 124 158 202 242 279
#
# _framework density 18.927410999999999
#
# number of rings (size 3 to 8) (size 9 to 14) (size 15 to 20)
#    0.000    3.000    0.000    1.875    0.000    4.000 
#    0.000    8.125    0.000    0.000    0.000    0.000 
#    0.000    0.000    0.000    0.000    0.000    0.000 
#
# Total GULP energy -89195.442466 kJ/mol
# GULP energy per Si atom -5574.715154 kJ/mol
# Density = 1.888433 g / cm^3
# Si number density = 18.927411 Si / 1000 Ang^3
#
#
#
# Elastic Constant Matrix: (Units=GPa)
#
#
# Indices 1 2 3 4 5 6 
#
# 1 197.2918 1.0925 93.9313 0.0000 12.1099 0.0000
# 2 1.0925 10.1496 -10.7048 0.0000 -3.3486 0.0000
# 3 93.9313 -10.7048 167.2555 0.0000 4.4105 0.0000
# 4 0.0000 0.0000 0.0000 16.2562 0.0000 4.2383
# 5 12.1099 -3.3486 4.4105 0.0000 8.1287 0.0000
# 6 0.0000 0.0000 0.0000 4.2383 0.0000 19.4539
#
#
#
# Elastic Compliance Matrix: (Units=1/GPa)
#
#
# Indices 1 2 3 4 5 6 
#
# 1 0.008409 -0.010945 -0.005046 0.000000 -0.014299 0.000000
# 2 -0.010945 0.134858 0.013070 0.000000 0.064768 0.000000
# 3 -0.005046 0.013070 0.009444 0.000000 0.007778 0.000000
# 4 0.000000 0.000000 0.000000 0.065219 0.000000 -0.014209
# 5 -0.014299 0.064768 0.007778 0.000000 0.166785 0.000000
# 6 0.000000 0.000000 0.000000 -0.014209 0.000000 0.054499
#
#
# Mechanical properties :
#
#
# Convention : Reuss Voigt Hill
#
# Bulk Modulus (GPa) = 6.80877 60.37053 33.58965
# Shear Modulus (GPa) = 10.12118 28.12628 19.12373
#
# Velocity S-wave (km/s) = 2.31495 3.85906 3.18208
# Velocity P-wave (km/s) = 3.27878 7.19872 5.59339
#
# Compressibility (1/GPa) = 0.14686948
#
# Stress axis : x y z
#
# Youngs Moduli (GPa) = 118.91400 7.41521 105.88418
#
# Poissons Ratio (x) = 0.08116 0.53432
# Poissons Ratio (y) = 1.30151 -1.38392
# Poissons Ratio (z) = 0.60007 -0.09692
#
# Static dielectric constant tensor:
#      x y z
#    x 1.656390 0.000000 -0.015270 
#    y 0.000000 1.690350 0.000000 
#    z -0.015270 0.000000 1.636220 
# 
# From -- ./inp_files/25855.got.cif
#   From: 2010.05.17/outbox.cif.g08.bks.cpg/sg8_13_cif.got.tgz:25855.got - 2010.06.03 19:46:02.
