data_PCOD9132377
_publ_section_title
;
Structure prediction by ZEFSAII (Michael W. Deem and Ramdas Pophale) SiO2 
 PCOD9132377
Probable space group: C M
;
_chemical_formula_sum "Si O2"
_cell_formula_units_Z 32
_cell_length_a 20.100203
_cell_length_b 8.797024
_cell_length_c 10.809388
_cell_angle_alpha 90.000000
_cell_angle_beta 45.495599
_cell_angle_gamma 90.000000
_cell_volume 1363.159253
_symmetry_space_group_name_H-M "C M"
_symmetry_group_IT_number 8
_symmetry_cell_setting 'monoclinic'
loop_
_space_group_symop_operation_xyz
x,y,z
x,-y,z
1/2+x,1/2+y,z
1/2+x,1/2-y,z
loop_
_atom_site_type_symbol
_atom_site_label
_atom_site_fract_x
_atom_site_fract_y
_atom_site_fract_z
Si Si1 0.121840 0.823130 0.941100
Si Si2 0.486336 0.178231 0.712746
Si Si3 0.306711 0.819815 0.807358
Si Si4 0.457701 0.180189 0.023279
Si Si5 0.753685 0.178278 0.268810
Si Si6 0.742667 0.323530 0.531576
Si Si7 0.911473 0.180232 0.440936
Si Si8 0.590684 0.679694 0.346409
O O1 0.197276 0.781093 0.948260
O O2 0.182684 0.806599 0.734898
O O3 0.097776 0.000000 0.988430
O O4 0.027009 0.734919 0.039913
O O5 0.374137 0.190678 0.836762
O O6 0.535216 0.279334 0.545553
O O7 0.510504 0.000000 0.658812
O O8 0.505100 0.219283 0.829220
O O9 0.356492 0.715065 0.640523
O O10 0.310698 0.000000 0.763102
O O11 0.356976 0.255399 0.146002
O O12 0.446444 0.000000 0.043223
O O13 0.709894 0.222463 0.459554
O O14 0.690242 0.245800 0.242639
O O15 0.757911 0.000000 0.248931
O O16 0.740152 0.500000 0.498035
O O17 0.848434 0.273622 0.427597
O O18 0.017913 0.227089 0.333309
O O19 0.908443 0.000000 0.417081
O O20 0.603141 0.500000 0.317730
#
# Coordination Sequence:
#
# PCOD9132377 Si02
#       8
#     4   4   4   4   4   4   4   4
#     4   9  18  33  55  81 107 137 171 212 264 320
#     4   9  18  34  57  82 106 138 180 221 263 314
#     4   8  15  30  52  78 107 138 174 218 265 310
#     4  11  23  37  53  75 106 142 179 223 271 319
#     4  12  25  39  55  75 105 145 187 229 271 320
#     4  10  20  36  59  84 111 141 176 222 271 320
#     4   9  17  30  52  83 113 140 174 217 264 316
#     4  10  20  35  57  84 113 143 177 220 267 317
#
# _framework density 23.474881
#
# number of rings (size 3 to 8) (size 9 to 14) (size 15 to 20)
#    0.000    2.250    0.000    4.125    0.000    7.000 
#    0.000    1.250    0.000    6.000    0.000    0.000 
#    0.000    0.000    0.000    0.000    0.000    0.000 
#
# Total GULP energy -89439.833705 kJ/mol
# GULP energy per Si atom -5589.989607 kJ/mol
# Density = 2.342145 g / cm^3
# Si number density = 23.474881 Si / 1000 Ang^3
#
#
#
# Elastic Constant Matrix: (Units=GPa)
#
#
# Indices 1 2 3 4 5 6 
#
# 1 158.5629 46.3436 28.6815 0.0000 -29.3209 0.0000
# 2 46.3436 49.0279 25.7820 0.0000 -18.6457 0.0000
# 3 28.6815 25.7820 90.7439 0.0000 -27.1201 0.0000
# 4 0.0000 0.0000 0.0000 25.0325 0.0000 -13.8902
# 5 -29.3209 -18.6457 -27.1201 0.0000 49.4949 0.0000
# 6 0.0000 0.0000 0.0000 -13.8902 0.0000 33.6628
#
#
#
# Elastic Compliance Matrix: (Units=1/GPa)
#
#
# Indices 1 2 3 4 5 6 
#
# 1 0.008966 -0.007557 0.000059 0.000000 0.002497 0.000000
# 2 -0.007557 0.032135 -0.005335 0.000000 0.004706 0.000000
# 3 0.000059 -0.005335 0.014263 0.000000 0.005840 0.000000
# 4 0.000000 0.000000 0.000000 0.051811 0.000000 0.021378
# 5 0.002497 0.004706 0.005840 0.000000 0.026656 0.000000
# 6 0.000000 0.000000 0.000000 0.021378 0.000000 0.038528
#
#
# Mechanical properties :
#
#
# Convention : Reuss Voigt Hill
#
# Bulk Modulus (GPa) = 33.67178 55.54987 44.61082
# Shear Modulus (GPa) = 24.04728 34.80655 29.42691
#
# Velocity S-wave (km/s) = 3.20407 3.85478 3.54439
# Velocity P-wave (km/s) = 5.29745 6.59753 5.98291
#
# Compressibility (1/GPa) = 0.02969846
#
# Stress axis : x y z
#
# Youngs Moduli (GPa) = 111.52737 31.11872 70.11373
#
# Poissons Ratio (x) = 0.23516 -0.00417
# Poissons Ratio (y) = 0.84281 0.37407
# Poissons Ratio (z) = -0.00663 0.16603
#
# Static dielectric constant tensor:
#      x y z
#    x 1.909960 0.000000 0.012000 
#    y 0.000000 1.779380 0.000000 
#    z 0.012000 0.000000 1.983060 
# 
# From -- ./inp_files/27763.got.cif
#   From: 2010.05.17/outbox.cif.g08.bks.cpg/sg8_14_cif.got.tgz:27763.got - 2010.06.03 19:46:02.
