data_PCOD9132090
_publ_section_title
;
Structure prediction by ZEFSAII (Michael W. Deem and Ramdas Pophale) SiO2 
 PCOD9132090
Probable space group: C M
;
_chemical_formula_sum "Si O2"
_cell_formula_units_Z 32
_cell_length_a 23.395857
_cell_length_b 13.438654
_cell_length_c 19.343275
_cell_angle_alpha 90.000000
_cell_angle_beta 165.346073
_cell_angle_gamma 90.000000
_cell_volume 1538.547910
_symmetry_space_group_name_H-M "C M"
_symmetry_group_IT_number 8
_symmetry_cell_setting 'monoclinic'
loop_
_space_group_symop_operation_xyz
x,y,z
x,-y,z
1/2+x,1/2+y,z
1/2+x,1/2-y,z
loop_
_atom_site_type_symbol
_atom_site_label
_atom_site_fract_x
_atom_site_fract_y
_atom_site_fract_z
Si Si1 0.584160 0.203773 0.463370
Si Si2 0.605747 0.181302 0.330707
Si Si3 0.511566 0.615604 0.171105
Si Si4 0.763276 0.757988 0.195207
Si Si5 0.639348 0.264737 0.741050
Si Si6 0.922048 0.614489 0.863248
Si Si7 0.521465 0.386976 0.022072
Si Si8 0.296318 0.387828 0.419938
O O1 0.591439 0.161275 0.394437
O O2 0.337050 0.215966 0.207590
O O3 0.711789 0.310710 0.613925
O O4 0.753586 0.133391 0.704014
O O5 0.648107 0.300747 0.372928
O O6 0.762427 0.122038 0.462165
O O7 0.359202 0.168061 0.008160
O O8 0.536630 0.500000 0.218250
O O9 0.251513 0.655041 0.875951
O O10 0.577907 0.631192 0.168377
O O11 0.004216 0.780747 0.512676
O O12 0.598346 0.851728 0.009471
O O13 0.643982 0.680039 0.107995
O O14 0.465623 0.301239 0.595179
O O15 0.856938 0.500000 0.781142
O O16 0.070066 0.626976 0.107643
O O17 0.574895 0.500000 0.068696
O O18 0.375348 0.500000 0.495223
#
# Coordination Sequence:
#
# PCOD9132090 Si02
#       8
#     4   4   4   4   4   4   4   4
#     4  11  21  37  57  81 120 156 183 225 285 339
#     4  10  22  36  56  82 120 153 183 228 282 342
#     4   9  18  37  59  82 111 143 187 234 280 330
#     4  10  19  35  59  83 113 148 187 237 282 331
#     4   9  19  35  58  84 112 141 190 237 281 328
#     4   9  20  37  60  87 108 141 195 242 282 329
#     4  10  21  37  59  86 111 144 192 239 281 333
#     4  10  20  38  62  85 109 146 195 238 281 330
#
# _framework density 20.798832000000001
#
# number of rings (size 3 to 8) (size 9 to 14) (size 15 to 20)
#    0.750    1.500    1.250    3.000    0.000    5.000 
#    0.000    3.125    0.000    0.000    0.000    0.000 
#    0.000    0.000    0.000    0.000    0.000    0.000 
#
# Total GULP energy -89086.704020 kJ/mol
# GULP energy per Si atom -5567.919001 kJ/mol
# Density = 2.075149 g / cm^3
# Si number density = 20.798832 Si / 1000 Ang^3
#
#
#
# Elastic Constant Matrix: (Units=GPa)
#
#
# Indices 1 2 3 4 5 6 
#
# 1 107.0377 10.4505 1.9623 0.0174 15.7932 0.0057
# 2 10.4505 54.2838 10.2687 -0.1349 6.6383 -0.0032
# 3 1.9623 10.2687 24.0391 0.1256 12.1238 0.0117
# 4 0.0174 -0.1349 0.1256 11.0542 -0.0309 6.0959
# 5 15.7932 6.6383 12.1238 -0.0309 19.7631 -0.0001
# 6 0.0057 -0.0032 0.0117 6.0959 -0.0001 11.1288
#
#
#
# Elastic Compliance Matrix: (Units=1/GPa)
#
#
# Indices 1 2 3 4 5 6 
#
# 1 0.011170 -0.001804 0.005873 -0.000190 -0.011924 0.000092
# 2 -0.001804 0.020397 -0.008456 0.000485 -0.000221 -0.000250
# 3 0.005873 -0.008456 0.066136 -0.001348 -0.042427 0.000664
# 4 -0.000190 0.000485 -0.001348 0.129650 0.001018 -0.071015
# 5 -0.011924 -0.000221 -0.042427 0.001018 0.086231 -0.000507
# 6 0.000092 -0.000250 0.000664 -0.071015 -0.000507 0.128755
#
#
# Mechanical properties :
#
#
# Convention : Reuss Voigt Hill
#
# Bulk Modulus (GPa) = 11.24489 25.63595 18.44042
# Shear Modulus (GPa) = 10.40030 19.23450 14.81740
#
# Velocity S-wave (km/s) = 2.23859 3.04433 2.67201
# Velocity P-wave (km/s) = 3.47850 4.97088 4.29008
#
# Compressibility (1/GPa) = 0.08892927
#
# Stress axis : x y z
#
# Youngs Moduli (GPa) = 89.52303 49.02707 15.12039
#
# Poissons Ratio (x) = 0.08844 -0.08881
# Poissons Ratio (y) = 0.16148 0.12786
# Poissons Ratio (z) = -0.52580 0.41459
#
# Static dielectric constant tensor:
#      x y z
#    x 1.796700 0.000000 -0.000770 
#    y 0.000000 1.749350 -0.000020 
#    z -0.000770 -0.000020 1.783600 
# 
# From -- ./inp_files/29959.got.cif
#   From: 2010.05.17/outbox.cif.g08.bks.cpg/sg8_15_cif.got.tgz:29959.got - 2010.06.03 19:46:02.
