data_PCOD9132822
_publ_section_title
;
Structure prediction by ZEFSAII (Michael W. Deem and Ramdas Pophale) SiO2 
 PCOD9132822
Probable space group: C M
;
_chemical_formula_sum "Si O2"
_cell_formula_units_Z 32
_cell_length_a 10.742593
_cell_length_b 9.648662
_cell_length_c 14.463904
_cell_angle_alpha 90.000000
_cell_angle_beta 76.548892
_cell_angle_gamma 90.000000
_cell_volume 1458.082395
_symmetry_space_group_name_H-M "C M"
_symmetry_group_IT_number 8
_symmetry_cell_setting 'monoclinic'
loop_
_space_group_symop_operation_xyz
x,y,z
x,-y,z
1/2+x,1/2+y,z
1/2+x,1/2-y,z
loop_
_atom_site_type_symbol
_atom_site_label
_atom_site_fract_x
_atom_site_fract_y
_atom_site_fract_z
Si Si1 0.889160 0.851740 0.364360
Si Si2 0.346412 0.846458 0.654205
Si Si3 0.043976 0.661640 0.112564
Si Si4 0.138979 0.659680 0.885152
Si Si5 0.287569 0.664163 0.189649
Si Si6 0.022299 0.653286 0.450352
Si Si7 0.704702 0.843478 0.563864
Si Si8 0.442624 0.333714 0.795682
O O1 0.787975 0.822810 0.301302
O O2 0.828156 0.864564 0.476808
O O3 0.985040 0.726957 0.363331
O O4 0.950098 0.000000 0.330850
O O5 0.404839 0.865645 0.541892
O O6 0.230811 0.743108 0.650473
O O7 0.440540 0.760091 0.703242
O O8 0.316219 0.000000 0.696022
O O9 0.015212 0.500000 0.140201
O O10 0.159826 0.710798 0.159161
O O11 0.915540 0.752475 0.140408
O O12 0.097847 0.666361 0.999207
O O13 0.117149 0.500000 0.856075
O O14 0.292841 0.684421 0.853204
O O15 0.046983 0.766931 0.846537
O O16 0.302137 0.500000 0.165322
O O17 0.074862 0.500000 0.422196
O O18 0.116693 0.732036 0.503444
O O19 0.656385 0.000000 0.594493
O O20 0.462976 0.500000 0.778153
#
# Coordination Sequence:
#
# PCOD9132822 Si02
#       8
#     4   4   4   4   4   4   4   4
#     4   9  19  34  52  79 113 150 194 242 292 347
#     4  10  21  36  53  83 118 151 195 246 294 349
#     4  10  22  41  65  90 120 159 199 246 305 363
#     4  10  23  43  64  90 122 156 199 250 302 361
#     4  10  22  39  61  92 126 158 200 251 299 358
#     4   9  19  34  55  78 109 151 195 242 290 345
#     4   9  18  34  55  77 108 154 198 239 293 349
#     4  11  24  41  65  93 122 159 200 248 301 360
#
# _framework density 21.946634
#
# number of rings (size 3 to 8) (size 9 to 14) (size 15 to 20)
#    0.000    2.250    0.000    1.500    3.500    4.500 
#    0.000    0.000    0.000    0.000    0.000    0.000 
#    0.000    0.000    0.000    0.000    0.000    0.000 
#
# Total GULP energy -89132.031226 kJ/mol
# GULP energy per Si atom -5570.751952 kJ/mol
# Density = 2.189668 g / cm^3
# Si number density = 21.946634 Si / 1000 Ang^3
#
#
#
# Elastic Constant Matrix: (Units=GPa)
#
#
# Indices 1 2 3 4 5 6 
#
# 1 111.2392 53.5671 34.5861 0.0000 17.9343 0.0000
# 2 53.5671 105.6198 44.9650 0.0000 22.8743 0.0000
# 3 34.5861 44.9650 78.7358 0.0000 15.4706 0.0000
# 4 0.0000 0.0000 0.0000 -65.5912 0.0000 27.5273
# 5 17.9343 22.8743 15.4706 0.0000 45.5554 0.0000
# 6 0.0000 0.0000 0.0000 27.5273 0.0000 28.6949
#
#
#
# Elastic Compliance Matrix: (Units=1/GPa)
#
#
# Indices 1 2 3 4 5 6 
#
# 1 0.012335 -0.004937 -0.002285 0.000000 -0.001602 0.000000
# 2 -0.004937 0.015255 -0.005808 0.000000 -0.003744 0.000000
# 3 -0.002285 -0.005808 0.017435 0.000000 -0.002105 0.000000
# 4 0.000000 0.000000 0.000000 -0.010870 0.000000 0.010427
# 5 -0.001602 -0.003744 -0.002105 0.000000 0.025177 0.000000
# 6 0.000000 0.000000 0.000000 0.010427 0.000000 0.024846
#
#
# Mechanical properties :
#
#
# Convention : Reuss Voigt Hill
#
# Bulk Modulus (GPa) = 52.72315 62.42570 57.57442
# Shear Modulus (GPa) = 42.89686 12.56359 27.73023
#
# Velocity S-wave (km/s) = 4.42588 2.39521 3.55847
# Velocity P-wave (km/s) = 7.08473 6.01294 6.57072
#
# Compressibility (1/GPa) = 0.01896700
#
# Stress axis : x y z
#
# Youngs Moduli (GPa) = 81.06733 65.55218 57.35714
#
# Poissons Ratio (x) = 0.32361 0.13104
# Poissons Ratio (y) = 0.40020 0.33312
# Poissons Ratio (z) = 0.18521 0.38071
#
# Static dielectric constant tensor:
#      x y z
#    x 1.877170 0.000000 -0.069320 
#    y 0.000000 1.913920 0.000000 
#    z -0.069320 0.000000 1.828050 
# 
# From -- ./inp_files/25858.got.cif
#   From: 2010.05.17/outbox.cif.g08.bks.cpg/sg8_13_cif.got.tgz:25858.got - 2010.06.03 19:46:02.
