data_PCOD9132111
_publ_section_title
;
Structure prediction by ZEFSAII (Michael W. Deem and Ramdas Pophale) SiO2 
 PCOD9132111
Probable space group: C M
;
_chemical_formula_sum "Si O2"
_cell_formula_units_Z 32
_cell_length_a 17.370390
_cell_length_b 20.533256
_cell_length_c 5.506605
_cell_angle_alpha 90.000000
_cell_angle_beta 39.833783
_cell_angle_gamma 90.000000
_cell_volume 1258.093404
_symmetry_space_group_name_H-M "C M"
_symmetry_group_IT_number 8
_symmetry_cell_setting 'monoclinic'
loop_
_space_group_symop_operation_xyz
x,y,z
x,-y,z
1/2+x,1/2+y,z
1/2+x,1/2-y,z
loop_
_atom_site_type_symbol
_atom_site_label
_atom_site_fract_x
_atom_site_fract_y
_atom_site_fract_z
Si Si1 0.937150 0.069481 0.069170
Si Si2 0.249122 0.825571 0.914210
Si Si3 0.683162 0.076947 0.903224
Si Si4 0.952508 0.207232 0.991860
Si Si5 0.302872 0.690024 0.859975
Si Si6 0.994396 0.346352 0.031019
Si Si7 0.124325 0.933320 0.995942
Si Si8 0.839864 0.572392 0.083939
O O1 0.794933 0.076459 0.441254
O O2 0.004120 0.134450 0.821456
O O3 0.961319 0.000000 0.886335
O O4 0.993921 0.062747 0.198215
O O5 0.216076 0.751556 0.033125
O O6 0.363020 0.830457 0.459189
O O7 0.139195 0.863571 0.070240
O O8 0.296537 0.869923 0.017005
O O9 0.735040 0.120910 0.001187
O O10 0.656030 0.000000 0.018086
O O11 0.579371 0.119795 0.024543
O O12 0.886493 0.195311 0.414224
O O13 0.026418 0.274316 0.850020
O O14 0.867274 0.209354 0.958231
O O15 0.962059 0.401186 0.910521
O O16 0.230095 0.934730 0.538889
O O17 0.147827 0.000000 0.085428
O O18 0.860553 0.500000 0.927600
#
# Coordination Sequence:
#
# PCOD9132111 Si02
#       8
#     4   4   4   4   4   4   4   4
#     4   9  20  41  65  91 127 171 223 272 324 394
#     4  10  20  37  61  93 126 168 216 276 329 394
#     4  10  22  42  67  96 134 181 223 271 335 409
#     4  10  21  42  66  93 129 173 223 277 326 390
#     4  10  22  42  66  93 130 174 225 271 327 390
#     4  10  21  39  63  95 132 171 217 272 338 405
#     4   9  19  36  60  91 123 164 216 274 331 383
#     4  10  19  35  60  92 127 164 215 275 336 397
#
# _framework density 25.435314999999999
#
# number of rings (size 3 to 8) (size 9 to 14) (size 15 to 20)
#    0.000    2.250    1.250    0.750    1.750    2.000 
#    9.000    0.000    0.000    0.000    0.000    0.000 
#    0.000    0.000    0.000    0.000    0.000    0.000 
#
# Total GULP energy -89151.382130 kJ/mol
# GULP energy per Si atom -5571.961383 kJ/mol
# Density = 2.537742 g / cm^3
# Si number density = 25.435315 Si / 1000 Ang^3
#
#
#
# Elastic Constant Matrix: (Units=GPa)
#
#
# Indices 1 2 3 4 5 6 
#
# 1 56.3176 30.4748 -12.1324 0.0000 -4.4559 0.0000
# 2 30.4748 255.3535 4.2806 0.0000 -1.2131 0.0000
# 3 -12.1324 4.2806 79.1189 0.0000 -2.1283 0.0000
# 4 0.0000 0.0000 0.0000 -3.8107 0.0000 13.9516
# 5 -4.4559 -1.2131 -2.1283 0.0000 25.3446 0.0000
# 6 0.0000 0.0000 0.0000 13.9516 0.0000 23.1608
#
#
#
# Elastic Compliance Matrix: (Units=1/GPa)
#
#
# Indices 1 2 3 4 5 6 
#
# 1 0.020079 -0.002434 0.003310 0.000000 0.003692 0.000000
# 2 -0.002434 0.004216 -0.000609 0.000000 -0.000277 0.000000
# 3 0.003310 -0.000609 0.013224 0.000000 0.001663 0.000000
# 4 0.000000 0.000000 0.000000 -0.081867 0.000000 0.049315
# 5 0.003692 -0.000277 0.001663 0.000000 0.040232 0.000000
# 6 0.000000 0.000000 0.000000 0.049315 0.000000 0.013470
#
#
# Mechanical properties :
#
#
# Convention : Reuss Voigt Hill
#
# Bulk Modulus (GPa) = 26.27938 48.44846 37.36392
# Shear Modulus (GPa) = 232.52195 33.48340 133.00267
#
# Velocity S-wave (km/s) = 9.57159 3.63218 7.23907
# Velocity P-wave (km/s) = 11.51122 6.05635 9.19749
#
# Compressibility (1/GPa) = 0.03805264
#
# Stress axis : x y z
#
# Youngs Moduli (GPa) = 49.80380 237.21771 75.61750
#
# Poissons Ratio (x) = 0.57744 -0.25029
# Poissons Ratio (y) = 0.12123 0.04604
# Poissons Ratio (z) = -0.16485 0.14442
#
# Static dielectric constant tensor:
#      x y z
#    x 2.067040 0.000000 0.069110 
#    y 0.000000 2.082200 0.000000 
#    z 0.069110 0.000000 2.078660 
# 
# From -- ./inp_files/5133.got.cif
#   From: 2010.05.17/outbox.cif.g08.bks.cpg/sg8_3_cif.got.tgz:5133.got - 2010.06.03 19:46:02.
