data_PCOD9132963
_publ_section_title
;
Structure prediction by ZEFSAII (Michael W. Deem and Ramdas Pophale) SiO2 
 PCOD9132963
Probable space group: C M
;
_chemical_formula_sum "Si O2"
_cell_formula_units_Z 32
_cell_length_a 17.543218
_cell_length_b 19.638562
_cell_length_c 10.297736
_cell_angle_alpha 90.000000
_cell_angle_beta 155.230515
_cell_angle_gamma 90.000000
_cell_volume 1486.421999
_symmetry_space_group_name_H-M "C M"
_symmetry_group_IT_number 8
_symmetry_cell_setting 'monoclinic'
loop_
_space_group_symop_operation_xyz
x,y,z
x,-y,z
1/2+x,1/2+y,z
1/2+x,1/2-y,z
loop_
_atom_site_type_symbol
_atom_site_label
_atom_site_fract_x
_atom_site_fract_y
_atom_site_fract_z
Si Si1 0.547800 0.659038 0.416560
Si Si2 0.565555 0.575966 0.203019
Si Si3 0.184703 0.379372 0.533174
Si Si4 0.383967 0.918896 0.261351
Si Si5 0.621149 0.861406 0.158803
Si Si6 0.892531 0.417695 0.563424
Si Si7 0.458034 0.582658 0.533248
Si Si8 0.877877 0.250623 0.925721
O O1 0.620258 0.605263 0.424853
O O2 0.445950 0.618293 0.372265
O O3 0.722725 0.698928 0.736555
O O4 0.443825 0.709360 0.155134
O O5 0.627271 0.500000 0.300089
O O6 0.684729 0.606238 0.271108
O O7 0.351847 0.578577 0.849759
O O8 0.126360 0.403488 0.301147
O O9 0.277391 0.304507 0.678331
O O10 0.011456 0.381268 0.356804
O O11 0.438151 0.894499 0.489196
O O12 0.421901 0.000000 0.308474
O O13 0.168464 0.911551 0.903250
O O14 0.825991 0.872951 0.421492
O O15 0.504613 0.888581 0.857467
O O16 0.527046 0.791628 0.069731
O O17 0.915123 0.500000 0.593004
O O18 0.414124 0.500000 0.463581
#
# Coordination Sequence:
#
# PCOD9132963 Si02
#       8
#     4   4   4   4   4   4   4   4
#     4  11  23  46  69 102 144 186 241 299 346 430
#     4  10  21  38  67 101 138 184 235 296 363 420
#     4  11  24  43  70  99 141 192 242 293 352 434
#     4  10  23  44  71 106 147 187 233 297 372 435
#     4  12  24  45  69 103 142 188 238 300 352 424
#     4  10  22  39  65 103 143 180 231 294 361 427
#     4  11  26  46  73 110 148 184 238 302 371 428
#     4  11  24  45  70  96 140 193 248 285 345 426
#
# _framework density 21.528206999999998
#
# number of rings (size 3 to 8) (size 9 to 14) (size 15 to 20)
#    0.000    1.250    2.500    2.625    3.500    3.000 
#    2.250    2.500    0.000    0.000    0.000    0.000 
#    0.000    0.000    0.000    0.000    0.000    0.000 
#
# Total GULP energy -89133.495118 kJ/mol
# GULP energy per Si atom -5570.843445 kJ/mol
# Density = 2.147921 g / cm^3
# Si number density = 21.528207 Si / 1000 Ang^3
#
#
#
# Elastic Constant Matrix: (Units=GPa)
#
#
# Indices 1 2 3 4 5 6 
#
# 1 158.2977 37.2773 44.3928 0.0001 -3.6110 0.0000
# 2 37.2773 45.6558 22.9786 0.0001 5.7588 0.0000
# 3 44.3928 22.9786 96.6322 0.0002 -1.7167 0.0000
# 4 0.0001 0.0001 0.0002 1543.1690 0.0001 26.9551
# 5 -3.6110 5.7588 -1.7167 0.0001 39.9456 0.0000
# 6 0.0000 0.0000 0.0000 26.9551 0.0000 31.2036
#
#
#
# Elastic Compliance Matrix: (Units=1/GPa)
#
#
# Indices 1 2 3 4 5 6 
#
# 1 0.008410 -0.005820 -0.002453 0.000000 0.001494 0.000000
# 2 -0.005820 0.029513 -0.004433 0.000000 -0.004971 0.000000
# 3 -0.002453 -0.004433 0.012546 0.000000 0.000956 0.000000
# 4 0.000000 0.000000 0.000000 0.000658 0.000000 -0.000568
# 5 0.001494 -0.004971 0.000956 0.000000 0.025927 0.000000
# 6 0.000000 0.000000 0.000000 -0.000568 0.000000 0.032539
#
#
# Mechanical properties :
#
#
# Convention : Reuss Voigt Hill
#
# Bulk Modulus (GPa) = 39.90760 56.65368 48.28064
# Shear Modulus (GPa) = 34.87793 335.92611 185.40202
#
# Velocity S-wave (km/s) = 4.02942 12.50515 9.29018
# Velocity P-wave (km/s) = 6.34239 15.32573 11.72826
#
# Compressibility (1/GPa) = 0.02505788
#
# Stress axis : x y z
#
# Youngs Moduli (GPa) = 118.90882 33.88305 79.70425
#
# Poissons Ratio (x) = 0.19721 0.19550
# Poissons Ratio (y) = 0.69210 0.35329
# Poissons Ratio (z) = 0.29167 0.15019
#
# Static dielectric constant tensor:
#      x y z
#    x 1.772170 0.000000 0.002960 
#    y 0.000000 1.151710 0.000000 
#    z 0.002960 0.000000 1.813950 
# 
# From -- ./inp_files/13868.got.cif
#   From: 2010.05.17/outbox.cif.g08.bks.cpg/sg8_7_cif.got.tgz:13868.got - 2010.06.03 19:46:02.
