data_PCOD9132681
_publ_section_title
;
Structure prediction by ZEFSAII (Michael W. Deem and Ramdas Pophale) SiO2 
 PCOD9132681
Probable space group: C M
;
_chemical_formula_sum "Si O2"
_cell_formula_units_Z 24
_cell_length_a 13.111500
_cell_length_b 13.903162
_cell_length_c 10.836804
_cell_angle_alpha 90.000000
_cell_angle_beta 146.058364
_cell_angle_gamma 90.000000
_cell_volume 1102.991686
_symmetry_space_group_name_H-M "C M"
_symmetry_group_IT_number 8
_symmetry_cell_setting 'monoclinic'
loop_
_space_group_symop_operation_xyz
x,y,z
x,-y,z
1/2+x,1/2+y,z
1/2+x,1/2-y,z
loop_
_atom_site_type_symbol
_atom_site_label
_atom_site_fract_x
_atom_site_fract_y
_atom_site_fract_z
Si Si1 0.045390 0.609964 0.100260
Si Si2 0.671103 0.114388 0.681363
Si Si3 0.636284 0.260540 0.999914
Si Si4 0.353666 0.611884 0.603514
Si Si5 0.941370 0.218279 0.140076
Si Si6 0.758648 0.614845 0.346037
O O1 0.991825 0.500000 0.032358
O O2 0.245343 0.614684 0.365659
O O3 0.933799 0.671551 0.087039
O O4 0.038324 0.671694 0.969030
O O5 0.719126 0.136142 0.585772
O O6 0.470962 0.138107 0.534434
O O7 0.685302 0.000000 0.704444
O O8 0.820330 0.160263 0.920051
O O9 0.515687 0.311384 0.774668
O O10 0.830538 0.218423 0.154162
O O11 0.665238 0.345207 0.127894
O O12 0.411948 0.500000 0.679391
O O13 0.143765 0.172687 0.334936
O O14 0.738695 0.500000 0.341494
#
# Coordination Sequence:
#
# PCOD9132681 Si02
#       6
#     4   4   4   4   4   4
#     4  10  23  42  63  94 133 171 212 264 324 383
#     4  10  20  38  68  97 125 166 221 269 314 380
#     4  11  23  38  66  94 130 169 211 270 323 380
#     4  10  20  40  70  97 126 171 224 269 317 385
#     4  11  23  38  64  95 130 169 215 266 322 385
#     4  10  21  40  65  95 124 164 217 264 316 379
#
# _framework density 21.759003
#
# number of rings (size 3 to 8) (size 9 to 14) (size 15 to 20)
#    0.000    1.667    3.333    2.000    4.667    4.000 
#    0.000    0.000    0.000    0.000    0.000    0.000 
#    0.000    0.000    0.000    0.000    0.000    0.000 
#
# Total GULP energy -66947.752312 kJ/mol
# GULP energy per Si atom -5578.979359 kJ/mol
# Density = 2.170948 g / cm^3
# Si number density = 21.759003 Si / 1000 Ang^3
#
#
#
# Elastic Constant Matrix: (Units=GPa)
#
#
# Indices 1 2 3 4 5 6 
#
# 1 63.7081 35.8814 7.5731 0.0000 12.1448 0.0000
# 2 35.8814 91.5889 26.1731 0.0000 12.4757 0.0000
# 3 7.5731 26.1731 49.4677 0.0000 19.2978 0.0000
# 4 0.0000 0.0000 0.0000 36.2765 0.0000 7.4987
# 5 12.1448 12.4757 19.2978 0.0000 25.5951 0.0000
# 6 0.0000 0.0000 0.0000 7.4987 0.0000 24.4450
#
#
#
# Elastic Compliance Matrix: (Units=1/GPa)
#
#
# Indices 1 2 3 4 5 6 
#
# 1 0.021888 -0.008681 0.005161 0.000000 -0.010045 0.000000
# 2 -0.008681 0.016354 -0.008246 0.000000 0.002366 0.000000
# 3 0.005161 -0.008246 0.032833 0.000000 -0.023184 0.000000
# 4 0.000000 0.000000 0.000000 0.029432 0.000000 -0.009029
# 5 -0.010045 0.002366 -0.023184 0.000000 0.060163 0.000000
# 6 0.000000 0.000000 0.000000 -0.009029 0.000000 0.043678
#
#
# Mechanical properties :
#
#
# Convention : Reuss Voigt Hill
#
# Bulk Modulus (GPa) = 21.03458 38.22440 29.62949
# Shear Modulus (GPa) = 20.51473 26.27248 23.39361
#
# Velocity S-wave (km/s) = 3.07386 3.47858 3.28246
# Velocity P-wave (km/s) = 4.72083 5.80856 5.29271
#
# Compressibility (1/GPa) = 0.04754076
#
# Stress axis : x y z
#
# Youngs Moduli (GPa) = 45.68810 61.14799 30.45756
#
# Poissons Ratio (x) = 0.53085 -0.15720
# Poissons Ratio (y) = 0.39664 0.25117
# Poissons Ratio (z) = -0.23581 0.50426
#
# Static dielectric constant tensor:
#      x y z
#    x 1.812750 0.000000 0.029170 
#    y 0.000000 1.773010 0.000000 
#    z 0.029170 0.000000 1.834190 
# 
# From -- ./inp_files/22158.got.cif
#   From: 2010.05.17/outbox.cif.g08.bks.cpg/sg8_12_cif.got.tgz:22158.got - 2010.06.03 19:46:02.
