data_PCOD9132038
_publ_section_title
;
Structure prediction by ZEFSAII (Michael W. Deem and Ramdas Pophale) SiO2 
 PCOD9132038
Probable space group: C M
;
_chemical_formula_sum "Si O2"
_cell_formula_units_Z 32
_cell_length_a 26.320100
_cell_length_b 9.432765
_cell_length_c 10.173317
_cell_angle_alpha 90.000000
_cell_angle_beta 37.707689
_cell_angle_gamma 90.000000
_cell_volume 1544.828203
_symmetry_space_group_name_H-M "C M"
_symmetry_group_IT_number 8
_symmetry_cell_setting 'monoclinic'
loop_
_space_group_symop_operation_xyz
x,y,z
x,-y,z
1/2+x,1/2+y,z
1/2+x,1/2-y,z
loop_
_atom_site_type_symbol
_atom_site_label
_atom_site_fract_x
_atom_site_fract_y
_atom_site_fract_z
Si Si1 0.964680 0.165519 0.361280
Si Si2 0.570927 0.154867 0.487105
Si Si3 0.801257 0.329745 0.644643
Si Si4 0.136062 0.669263 0.080925
Si Si5 0.166332 0.344921 0.567424
Si Si6 0.453761 0.344857 0.863103
Si Si7 0.555844 0.649519 0.916709
Si Si8 0.319361 0.835342 0.293389
O O1 0.879257 0.251428 0.556084
O O2 0.047805 0.252266 0.232185
O O3 0.962700 0.000000 0.411642
O O4 0.980691 0.157113 0.171132
O O5 0.637322 0.180112 0.237350
O O6 0.615576 0.146379 0.536502
O O7 0.499191 0.270870 0.648404
O O8 0.532748 0.000000 0.538102
O O9 0.798812 0.500000 0.676015
O O10 0.816430 0.311601 0.456604
O O11 0.714653 0.252959 0.860370
O O12 0.135859 0.500000 0.047477
O O13 0.202821 0.500000 0.520270
O O14 0.109074 0.292105 0.805223
O O15 0.232400 0.221820 0.418899
O O16 0.420830 0.500000 0.897019
O O17 0.521956 0.360425 0.839041
O O18 0.386771 0.248548 0.071644
O O19 0.601804 0.500000 0.854006
O O20 0.332401 0.000000 0.245190
#
# Coordination Sequence:
#
# PCOD9132038 Si02
#       8
#     4   4   4   4   4   4   4   4
#     4  11  22  39  63  92 126 163 206 257 312 371
#     4   9  21  42  61  82 115 156 201 249 298 354
#     4  11  24  41  63  93 128 165 208 257 310 371
#     4  11  24  43  65  89 123 167 214 260 309 367
#     4  10  20  34  57  85 114 152 197 243 299 362
#     4  10  19  34  59  86 114 150 190 237 292 354
#     4   9  18  33  54  82 116 148 184 235 297 358
#     4  11  22  36  56  87 124 155 190 244 307 365
#
# _framework density 20.714276999999999
#
# number of rings (size 3 to 8) (size 9 to 14) (size 15 to 20)
#    0.000    1.750    1.250    3.000    0.000    7.500 
#    2.250    0.000    0.000    0.000    0.000    0.000 
#    0.000    0.000    0.000    0.000    0.000    0.000 
#
# Total GULP energy -89160.632186 kJ/mol
# GULP energy per Si atom -5572.539512 kJ/mol
# Density = 2.066713 g / cm^3
# Si number density = 20.714277 Si / 1000 Ang^3
#
#
#
# Elastic Constant Matrix: (Units=GPa)
#
#
# Indices 1 2 3 4 5 6 
#
# 1 22.1206 32.9339 18.5542 0.0000 -12.9499 0.0000
# 2 32.9339 163.9696 92.1077 0.0000 -8.9048 0.0000
# 3 18.5542 92.1077 112.7770 0.0000 -9.1691 0.0000
# 4 0.0000 0.0000 0.0000 34.6908 0.0000 -11.2130
# 5 -12.9499 -8.9048 -9.1691 0.0000 28.1618 0.0000
# 6 0.0000 0.0000 0.0000 -11.2130 0.0000 14.8189
#
#
#
# Elastic Compliance Matrix: (Units=1/GPa)
#
#
# Indices 1 2 3 4 5 6 
#
# 1 0.091232 -0.017686 0.002456 0.000000 0.037160 0.000000
# 2 -0.017686 0.014706 -0.009640 0.000000 -0.006621 0.000000
# 3 0.002456 -0.009640 0.016620 0.000000 0.003493 0.000000
# 4 0.000000 0.000000 0.000000 0.038159 0.000000 0.028873
# 5 0.037160 -0.006621 0.003493 0.000000 0.051640 0.000000
# 6 0.000000 0.000000 0.000000 0.028873 0.000000 0.089329
#
#
# Mechanical properties :
#
#
# Convention : Reuss Voigt Hill
#
# Bulk Modulus (GPa) = 13.73257 65.11766 39.42511
# Shear Modulus (GPa) = 13.30855 25.88574 19.59714
#
# Velocity S-wave (km/s) = 2.53747 3.53888 3.07916
# Velocity P-wave (km/s) = 3.90243 6.94281 5.63168
#
# Compressibility (1/GPa) = 0.07281960
#
# Stress axis : x y z
#
# Youngs Moduli (GPa) = 10.96101 67.99789 60.16908
#
# Poissons Ratio (x) = 1.20261 -0.14778
# Poissons Ratio (y) = 0.19386 0.58001
# Poissons Ratio (z) = -0.02692 0.65547
#
# Static dielectric constant tensor:
#      x y z
#    x 1.786940 0.000000 -0.013300 
#    y 0.000000 1.804200 0.000000 
#    z -0.013300 0.000000 1.757770 
# 
# From -- ./inp_files/24818.got.cif
#   From: 2010.05.17/outbox.cif.g08.bks.cpg/sg8_13_cif.got.tgz:24818.got - 2010.06.03 19:46:02.
