data_PCOD9132650
_publ_section_title
;
Structure prediction by ZEFSAII (Michael W. Deem and Ramdas Pophale) SiO2 
 PCOD9132650
Probable space group: C M
;
_chemical_formula_sum "Si O2"
_cell_formula_units_Z 24
_cell_length_a 15.448764
_cell_length_b 8.616231
_cell_length_c 15.051757
_cell_angle_alpha 90.000000
_cell_angle_beta 139.981589
_cell_angle_gamma 90.000000
_cell_volume 1288.344555
_symmetry_space_group_name_H-M "C M"
_symmetry_group_IT_number 8
_symmetry_cell_setting 'monoclinic'
loop_
_space_group_symop_operation_xyz
x,y,z
x,-y,z
1/2+x,1/2+y,z
1/2+x,1/2-y,z
loop_
_atom_site_type_symbol
_atom_site_label
_atom_site_fract_x
_atom_site_fract_y
_atom_site_fract_z
Si Si1 0.228180 0.813486 0.245560
Si Si2 0.901262 0.311323 0.553948
Si Si3 0.928941 0.186067 0.259731
Si Si4 0.440408 0.815183 0.069504
Si Si5 0.707491 0.186204 0.761438
Si Si6 0.217592 0.812547 0.572965
O O1 0.313620 0.762616 0.399725
O O2 0.308274 0.755907 0.222584
O O3 0.079259 0.746044 0.136418
O O4 0.221428 0.000000 0.240649
O O5 0.900617 0.500000 0.552883
O O6 0.827811 0.262818 0.586726
O O7 0.055426 0.261178 0.665531
O O8 0.930012 0.247907 0.160633
O O9 0.070325 0.227583 0.418324
O O10 0.919306 0.000000 0.250693
O O11 0.442722 0.000000 0.074931
O O12 0.315676 0.758044 0.912746
O O13 0.736536 0.237098 0.683483
O O14 0.712386 0.000000 0.771829
O O15 0.223752 0.000000 0.586402
#
# Coordination Sequence:
#
# PCOD9132650 Si02
#       6
#     4   4   4   4   4   4
#     4  11  21  40  66  95 126 163 211 262 314 374
#     4   9  19  37  63  91 121 159 204 253 309 370
#     4  11  22  39  65  96 128 167 209 256 313 376
#     4  12  26  43  62  91 129 171 214 262 315 371
#     4  11  23  41  63  91 126 165 206 259 320 375
#     4  10  20  38  63  92 124 161 206 256 309 376
#
# _framework density 18.628557000000001
#
# number of rings (size 3 to 8) (size 9 to 14) (size 15 to 20)
#    0.000    1.333    3.333    3.000    0.000    2.000 
#    0.000    6.667    0.000    0.000    0.000    0.000 
#    0.000    0.000    0.000    0.000    0.000    0.000 
#
# Total GULP energy -67089.456168 kJ/mol
# GULP energy per Si atom -5590.788014 kJ/mol
# Density = 1.858616 g / cm^3
# Si number density = 18.628557 Si / 1000 Ang^3
#
#
#
# Elastic Constant Matrix: (Units=GPa)
#
#
# Indices 1 2 3 4 5 6 
#
# 1 36.2041 -39.8449 -26.2909 0.0000 4.0771 0.0000
# 2 -39.8449 13.8427 -5.6575 0.0000 -3.3879 0.0000
# 3 -26.2909 -5.6575 69.5116 0.0000 3.6310 0.0000
# 4 0.0000 0.0000 0.0000 24.4501 0.0000 -8.1545
# 5 4.0771 -3.3879 3.6310 0.0000 34.1211 0.0000
# 6 0.0000 0.0000 0.0000 -8.1545 0.0000 31.5951
#
#
#
# Elastic Compliance Matrix: (Units=1/GPa)
#
#
# Indices 1 2 3 4 5 6 
#
# 1 -0.009434 -0.029875 -0.005936 0.000000 -0.001207 0.000000
# 2 -0.029875 -0.018279 -0.012951 0.000000 0.003133 0.000000
# 3 -0.005936 -0.012951 0.011179 0.000000 -0.001766 0.000000
# 4 0.000000 0.000000 0.000000 0.044752 0.000000 0.011550
# 5 -0.001207 0.003133 -0.001766 0.000000 0.029951 0.000000
# 6 0.000000 0.000000 0.000000 0.011550 0.000000 0.034632
#
#
# Mechanical properties :
#
#
# Convention : Reuss Voigt Hill
#
# Bulk Modulus (GPa) = -8.76735 -2.66983 -5.71859
# Shear Modulus (GPa) = 32.82868 30.79003 31.80936
#
# Velocity S-wave (km/s) = 4.20250 4.06992 4.13675
# Velocity P-wave (km/s) = 4.33952 4.54416 4.44302
#
# Compressibility (1/GPa) = -0.11405955
#
# Stress axis : x y z
#
# Youngs Moduli (GPa) = -106.00470 -54.70637 89.45376
#
# Poissons Ratio (x) = -1.63437 0.53104
# Poissons Ratio (y) = -3.16693 1.15851
# Poissons Ratio (z) = -0.62929 -0.70850
#
# Static dielectric constant tensor:
#      x y z
#    x 1.618590 0.000000 0.009500 
#    y 0.000000 1.627270 0.000000 
#    z 0.009500 0.000000 1.610920 
# 
# From -- ./inp_files/12073.got.cif
#   From: 2010.05.17/outbox.cif.g08.bks.cpg/sg8_7_cif.got.tgz:12073.got - 2010.06.03 19:46:02.
