data_PCOD9132926
_publ_section_title
;
Structure prediction by ZEFSAII (Michael W. Deem and Ramdas Pophale) SiO2 
 PCOD9132926
Probable space group: C M
;
_chemical_formula_sum "Si O2"
_cell_formula_units_Z 32
_cell_length_a 11.513192
_cell_length_b 15.518734
_cell_length_c 17.568662
_cell_angle_alpha 90.000000
_cell_angle_beta 30.162920
_cell_angle_gamma 90.000000
_cell_volume 1577.221393
_symmetry_space_group_name_H-M "C M"
_symmetry_group_IT_number 8
_symmetry_cell_setting 'monoclinic'
loop_
_space_group_symop_operation_xyz
x,y,z
x,-y,z
1/2+x,1/2+y,z
1/2+x,1/2-y,z
loop_
_atom_site_type_symbol
_atom_site_label
_atom_site_fract_x
_atom_site_fract_y
_atom_site_fract_z
Si Si1 0.493550 0.399422 0.146040
Si Si2 0.538476 0.099718 0.975355
Si Si3 0.455518 0.163767 0.851977
Si Si4 0.562073 0.334167 0.278651
Si Si5 0.618204 0.097598 0.599804
Si Si6 0.499474 0.163757 0.394932
Si Si7 0.503323 0.401308 0.649584
Si Si8 0.883488 0.262938 0.622446
O O1 0.561753 0.500000 0.101741
O O2 0.497766 0.369195 0.231522
O O3 0.236334 0.388147 0.260736
O O4 0.679629 0.338235 0.998792
O O5 0.489832 0.114543 0.912721
O O6 0.811472 0.120765 0.823352
O O7 0.506219 0.000000 0.013132
O O8 0.336670 0.151132 0.132515
O O9 0.559133 0.115808 0.720599
O O10 0.605326 0.250874 0.775543
O O11 0.389397 0.385378 0.431663
O O12 0.504619 0.234393 0.325090
O O13 0.476148 0.165535 0.628610
O O14 0.560398 0.000000 0.611241
O O15 0.267453 0.108108 0.524667
O O16 0.482507 0.215752 0.483887
O O17 0.456949 0.500000 0.652837
O O18 0.466407 0.329847 0.605887
#
# Coordination Sequence:
#
# PCOD9132926 Si02
#       8
#     4   4   4   4   4   4   4   4
#     4  11  23  40  62  90 120 158 207 252 301 360
#     4   9  19  37  60  88 119 155 200 249 298 355
#     4  10  21  38  60  87 122 155 200 251 302 355
#     4  11  21  37  59  88 122 154 200 247 300 352
#     4  12  22  37  63  92 124 160 204 255 302 361
#     4  12  22  38  59  90 124 158 200 249 302 359
#     4  10  21  39  61  85 119 160 200 241 300 365
#     4  11  22  40  57  88 124 156 200 252 298 359
#
# _framework density 20.288844999999998
#
# number of rings (size 3 to 8) (size 9 to 14) (size 15 to 20)
#    0.000    1.250    3.750    3.375    0.000    5.500 
#    0.000    0.000    0.000    0.000    0.000    0.000 
#    0.000    0.000    0.000    0.000    0.000    0.000 
#
# Total GULP energy -89261.675960 kJ/mol
# GULP energy per Si atom -5578.854748 kJ/mol
# Density = 2.024267 g / cm^3
# Si number density = 20.288845 Si / 1000 Ang^3
#
#
#
# Elastic Constant Matrix: (Units=GPa)
#
#
# Indices 1 2 3 4 5 6 
#
# 1 42.0932 28.0501 31.1881 -0.0035 -16.1707 -0.0017
# 2 28.0501 101.0118 29.3329 -0.0057 -8.1723 0.0008
# 3 31.1881 29.3329 162.1980 0.0073 -24.4390 -0.0023
# 4 -0.0035 -0.0057 0.0073 27.9574 -0.0004 -9.8255
# 5 -16.1707 -8.1723 -24.4390 -0.0004 41.3282 0.0027
# 6 -0.0017 0.0008 -0.0023 -9.8255 0.0027 16.0266
#
#
#
# Elastic Compliance Matrix: (Units=1/GPa)
#
#
# Indices 1 2 3 4 5 6 
#
# 1 0.035898 -0.008008 -0.003927 0.000006 0.010141 0.000006
# 2 -0.008008 0.012276 -0.000864 0.000002 -0.001216 0.000000
# 3 -0.003927 -0.000864 0.007486 -0.000003 0.002720 -0.000002
# 4 0.000006 0.000002 -0.000003 0.045592 -0.000001 0.027951
# 5 0.010141 -0.001216 0.002720 -0.000001 0.029532 -0.000004
# 6 0.000006 0.000000 -0.000002 0.027951 -0.000004 0.079533
#
#
# Mechanical properties :
#
#
# Convention : Reuss Voigt Hill
#
# Bulk Modulus (GPa) = 33.26208 53.60504 43.43356
# Shear Modulus (GPa) = 20.33063 31.51124 25.92093
#
# Velocity S-wave (km/s) = 3.16897 3.94525 3.57822
# Velocity P-wave (km/s) = 5.46074 6.87253 6.20690
#
# Compressibility (1/GPa) = 0.03006427
#
# Stress axis : x y z
#
# Youngs Moduli (GPa) = 27.85669 81.46037 133.57760
#
# Poissons Ratio (x) = 0.65233 0.52449
# Poissons Ratio (y) = 0.22307 0.11535
# Poissons Ratio (z) = 0.10938 0.07034
#
# Static dielectric constant tensor:
#      x y z
#    x 1.756180 0.000000 -0.068700 
#    y 0.000000 1.720370 0.000000 
#    z -0.068700 0.000000 1.773190 
# 
# From -- ./inp_files/28886.got.cif
#   From: 2010.05.17/outbox.cif.g08.bks.cpg/sg8_15_cif.got.tgz:28886.got - 2010.06.03 19:46:02.
