data_PCOD9132191
_publ_section_title
;
Structure prediction by ZEFSAII (Michael W. Deem and Ramdas Pophale) SiO2 
 PCOD9132191
Probable space group: C M
;
_chemical_formula_sum "Si O2"
_cell_formula_units_Z 32
_cell_length_a 19.987592
_cell_length_b 7.558355
_cell_length_c 12.196568
_cell_angle_alpha 90.000000
_cell_angle_beta 51.608844
_cell_angle_gamma 90.000000
_cell_volume 1444.191379
_symmetry_space_group_name_H-M "C M"
_symmetry_group_IT_number 8
_symmetry_cell_setting 'monoclinic'
loop_
_space_group_symop_operation_xyz
x,y,z
x,-y,z
1/2+x,1/2+y,z
1/2+x,1/2-y,z
loop_
_atom_site_type_symbol
_atom_site_label
_atom_site_fract_x
_atom_site_fract_y
_atom_site_fract_z
Si Si1 0.821480 0.797269 0.214230
Si Si2 0.288833 0.203583 0.720996
Si Si3 0.600497 0.716435 0.931209
Si Si4 0.037823 0.785044 0.229642
Si Si5 0.846829 0.785409 0.433213
Si Si6 0.965446 0.706047 0.638806
Si Si7 0.961801 0.785416 0.898726
Si Si8 0.635522 0.705989 0.336733
O O1 0.830657 0.719706 0.326650
O O2 0.721789 0.795557 0.288433
O O3 0.852257 0.000000 0.195321
O O4 0.880937 0.725531 0.055744
O O5 0.197259 0.282000 0.844124
O O6 0.290574 0.209562 0.587482
O O7 0.377017 0.282621 0.678289
O O8 0.288133 0.000000 0.760576
O O9 0.602912 0.500000 0.925769
O O10 0.546497 0.769849 0.879801
O O11 0.552042 0.770406 0.090889
O O12 0.105844 0.722798 0.248875
O O13 0.943735 0.736166 0.363247
O O14 0.041032 0.000000 0.227106
O O15 0.837916 0.000000 0.445099
O O16 0.968643 0.500000 0.604787
O O17 0.961448 0.721860 0.774282
O O18 0.053103 0.782872 0.500048
O O19 0.960378 0.000000 0.894167
O O20 0.657715 0.500000 0.302542
#
# Coordination Sequence:
#
# PCOD9132191 Si02
#       8
#     4   4   4   4   4   4   4   4
#     4  10  22  39  60  88 121 155 190 240 298 344
#     4  10  22  37  58  86 116 151 190 240 291 337
#     4   9  18  36  60  85 112 146 193 238 284 341
#     4   9  17  34  61  85 107 143 192 241 285 339
#     4  10  19  37  62  84 112 149 192 239 286 343
#     4  11  24  40  57  83 124 159 191 242 297 342
#     4  10  21  39  62  85 116 157 197 235 286 354
#     4  11  23  38  62  88 114 154 201 243 287 350
#
# _framework density 22.157727999999999
#
# number of rings (size 3 to 8) (size 9 to 14) (size 15 to 20)
#    0.000    2.000    2.500    0.750    3.500    1.500 
#    0.000    0.000    0.000    2.250    0.000    0.000 
#    0.000    0.000    0.000    0.000    0.000    0.000 
#
# Total GULP energy -89335.988151 kJ/mol
# GULP energy per Si atom -5583.499259 kJ/mol
# Density = 2.210730 g / cm^3
# Si number density = 22.157728 Si / 1000 Ang^3
#
#
#
# Elastic Constant Matrix: (Units=GPa)
#
#
# Indices 1 2 3 4 5 6 
#
# 1 111.0644 -8.1802 20.1590 0.0000 4.6560 0.0000
# 2 -8.1802 55.6844 -14.5811 0.0000 -2.2395 0.0000
# 3 20.1590 -14.5811 68.8902 0.0000 4.6398 0.0000
# 4 0.0000 0.0000 0.0000 1.0732 0.0000 3.3114
# 5 4.6560 -2.2395 4.6398 0.0000 43.5906 0.0000
# 6 0.0000 0.0000 0.0000 3.3114 0.0000 3.0928
#
#
#
# Elastic Compliance Matrix: (Units=1/GPa)
#
#
# Indices 1 2 3 4 5 6 
#
# 1 0.009557 0.000694 -0.002602 0.000000 -0.000708 0.000000
# 2 0.000694 0.019076 0.003801 0.000000 0.000501 0.000000
# 3 -0.002602 0.003801 0.016166 0.000000 -0.001247 0.000000
# 4 0.000000 0.000000 0.000000 -0.404497 0.000000 0.433084
# 5 -0.000708 0.000501 -0.001247 0.000000 0.023175 0.000000
# 6 0.000000 0.000000 0.000000 0.433084 0.000000 -0.140361
#
#
# Mechanical properties :
#
#
# Convention : Reuss Voigt Hill
#
# Bulk Modulus (GPa) = 20.58299 25.60382 23.09340
# Shear Modulus (GPa) = -10.76482 25.43407 7.33463
#
# Velocity S-wave (km/s) = -2.20654 3.39169 1.82137
# Velocity P-wave (km/s) = 1.67860 5.18830 3.85591
#
# Compressibility (1/GPa) = 0.04858381
#
# Stress axis : x y z
#
# Youngs Moduli (GPa) = 104.63672 52.42272 61.85939
#
# Poissons Ratio (x) = -0.03639 0.16096
# Poissons Ratio (y) = -0.07263 -0.23510
# Poissons Ratio (z) = 0.27226 -0.19924
#
# Static dielectric constant tensor:
#      x y z
#    x 1.801390 0.000000 -0.006250 
#    y 0.000000 1.877960 0.000000 
#    z -0.006250 0.000000 1.766000 
# 
# From -- ./inp_files/23872.got.cif
#   From: 2010.05.17/outbox.cif.g08.bks.cpg/sg8_12_cif.got.tgz:23872.got - 2010.06.03 19:46:02.
