data_PCOD9132785
_publ_section_title
;
Structure prediction by ZEFSAII (Michael W. Deem and Ramdas Pophale) SiO2 
 PCOD9132785
Probable space group: C M
;
_chemical_formula_sum "Si O2"
_cell_formula_units_Z 20
_cell_length_a 10.427598
_cell_length_b 9.908801
_cell_length_c 17.327807
_cell_angle_alpha 90.000000
_cell_angle_beta 152.032960
_cell_angle_gamma 90.000000
_cell_volume 839.630269
_symmetry_space_group_name_H-M "C M"
_symmetry_group_IT_number 8
_symmetry_cell_setting 'monoclinic'
loop_
_space_group_symop_operation_xyz
x,y,z
x,-y,z
1/2+x,1/2+y,z
1/2+x,1/2-y,z
loop_
_atom_site_type_symbol
_atom_site_label
_atom_site_fract_x
_atom_site_fract_y
_atom_site_fract_z
Si Si1 0.400511 0.500000 0.436031
Si Si2 0.318251 0.000000 0.910326
Si Si3 0.263370 0.761088 0.002558
Si Si4 0.730434 0.000000 0.606592
Si Si5 0.020727 0.500000 0.805502
Si Si6 0.257606 0.792347 0.367338
Si Si7 0.401683 0.500000 0.260171
Si Si8 0.459944 0.500000 0.904388
O O1 0.302838 0.640337 0.418085
O O2 0.301693 0.500000 0.294412
O O3 0.725950 0.500000 0.610882
O O4 0.016172 0.000000 0.710311
O O5 0.298303 0.139394 0.948507
O O6 0.642071 0.000000 0.064780
O O7 0.552625 0.706846 0.185559
O O8 0.064738 0.637843 0.876599
O O9 0.139363 0.863701 0.000231
O O10 0.536616 0.130269 0.494132
O O11 0.815175 0.000000 0.742957
O O12 0.248651 0.500000 0.860640
O O13 0.095412 0.874081 0.346121
#
# Coordination Sequence:
#
# PCOD9132785 Si02
#       8
#     2   2   4   2   2   4   2   2
#     4  12  23  43  66  95 127 168 211 265 312 373
#     4  10  20  44  64  89 128 169 209 252 313 381
#     4  10  22  42  63  94 131 164 212 261 310 376
#     4   9  20  41  67  89 133 167 202 264 321 363
#     4  12  24  38  69  96 127 167 212 259 321 369
#     4  11  22  42  67  94 130 166 208 267 313 371
#     4  11  24  41  71  91 125 173 214 249 325 377
#     4  10  23  43  61  92 130 174 206 259 312 381
#
# _framework density 23.820008999999999
#
# number of rings (size 3 to 8) (size 9 to 14) (size 15 to 20)
#    0.000    1.600    2.000    5.400    2.800    0.000 
#    0.000    2.000    4.400    2.400    0.000    0.000 
#    0.000    0.000    0.000    0.000    0.000    0.000 
#
# Total GULP energy -55908.460760 kJ/mol
# GULP energy per Si atom -5590.846076 kJ/mol
# Density = 2.376579 g / cm^3
# Si number density = 23.820009 Si / 1000 Ang^3
#
#
#
# Elastic Constant Matrix: (Units=GPa)
#
#
# Indices 1 2 3 4 5 6 
#
# 1 47.9442 27.6854 4.8029 0.0014 17.2921 0.0025
# 2 27.6854 177.7714 36.0307 0.0023 16.1146 0.0010
# 3 4.8029 36.0307 141.8203 0.0026 21.4636 0.0050
# 4 0.0014 0.0023 0.0026 49.3813 -0.0010 4.7916
# 5 17.2921 16.1146 21.4636 -0.0010 39.4774 0.0035
# 6 0.0025 0.0010 0.0050 4.7916 0.0035 20.1221
#
#
#
# Elastic Compliance Matrix: (Units=1/GPa)
#
#
# Indices 1 2 3 4 5 6 
#
# 1 0.026745 -0.003489 0.001676 -0.000001 -0.011202 -0.000001
# 2 -0.003489 0.006498 -0.001485 0.000000 -0.000317 0.000001
# 3 0.001676 -0.001485 0.008054 0.000000 -0.004507 -0.000001
# 4 -0.000001 0.000000 0.000000 0.020730 0.000002 -0.004936
# 5 -0.011202 -0.000317 -0.004507 0.000002 0.032817 -0.000004
# 6 -0.000001 0.000001 -0.000001 -0.004936 -0.000004 0.050872
#
#
# Mechanical properties :
#
#
# Convention : Reuss Voigt Hill
#
# Bulk Modulus (GPa) = 28.81801 56.06378 42.44090
# Shear Modulus (GPa) = 30.51032 41.73062 36.12047
#
# Velocity S-wave (km/s) = 3.58281 4.19013 3.89831
# Velocity P-wave (km/s) = 5.40739 6.85544 6.17402
#
# Compressibility (1/GPa) = 0.03470052
#
# Stress axis : x y z
#
# Youngs Moduli (GPa) = 37.39046 153.88654 124.16615
#
# Poissons Ratio (x) = 0.53697 -0.20811
# Poissons Ratio (y) = 0.13047 0.18436
# Poissons Ratio (z) = -0.06267 0.22849
#
# Static dielectric constant tensor:
#      x y z
#    x 1.940390 0.000000 0.006220 
#    y 0.000000 1.892570 0.000000 
#    z 0.006220 0.000000 1.902770 
# 
# From -- ./inp_files/31923.got.cif
#   From: 2010.05.17/outbox.cif.g08.bks.cpg/sg8_16_cif.got.tgz:31923.got - 2010.06.03 19:46:02.
