data_PCOD9132697
_publ_section_title
;
Structure prediction by ZEFSAII (Michael W. Deem and Ramdas Pophale) SiO2 
 PCOD9132697
Probable space group: C M
;
_chemical_formula_sum "Si O2"
_cell_formula_units_Z 24
_cell_length_a 9.218873
_cell_length_b 18.463912
_cell_length_c 13.858988
_cell_angle_alpha 90.000000
_cell_angle_beta 151.308195
_cell_angle_gamma 90.000000
_cell_volume 1132.564646
_symmetry_space_group_name_H-M "C M"
_symmetry_group_IT_number 8
_symmetry_cell_setting 'monoclinic'
loop_
_space_group_symop_operation_xyz
x,y,z
x,-y,z
1/2+x,1/2+y,z
1/2+x,1/2-y,z
loop_
_atom_site_type_symbol
_atom_site_label
_atom_site_fract_x
_atom_site_fract_y
_atom_site_fract_z
Si Si1 0.333040 0.616162 0.029120
Si Si2 0.248291 0.854807 0.098636
Si Si3 0.400931 0.756337 0.780586
Si Si4 0.547493 0.000000 0.741040
Si Si5 0.848725 0.163986 0.555002
Si Si6 0.634622 0.500000 0.327071
Si Si7 0.171759 0.500000 0.484865
Si Si8 0.217106 0.000000 0.038604
O O1 0.617600 0.615091 0.123461
O O2 0.442107 0.570979 0.185420
O O3 0.076983 0.569269 0.826173
O O4 0.206651 0.696124 0.960688
O O5 0.567745 0.823633 0.317558
O O6 0.274097 0.919273 0.034113
O O7 0.982721 0.804649 0.905709
O O8 0.326022 0.715247 0.636900
O O9 0.141307 0.808510 0.668596
O O10 0.255584 0.000000 0.505263
O O11 0.862206 0.000000 0.862417
O O12 0.844816 0.077924 0.581510
O O13 0.939093 0.500000 0.438900
O O14 0.967613 0.500000 0.269709
#
# Coordination Sequence:
#
# PCOD9132697 Si02
#       8
#     4   4   4   2   4   2   2   2
#     4  10  21  41  59  97 131 157 220 277 318 383
#     4  10  21  40  63  92 127 167 218 270 320 391
#     4  12  26  41  64  98 136 176 210 279 336 389
#     4   9  19  33  64  94 117 165 218 259 319 392
#     4  11  26  42  68  94 132 178 222 268 337 392
#     4  11  19  37  72  93 118 178 218 271 322 399
#     4  10  20  39  62  95 126 167 223 266 315 389
#     4   8  16  37  58  86 121 154 213 272 296 370
#
# _framework density 21.190843000000001
#
# number of rings (size 3 to 8) (size 9 to 14) (size 15 to 20)
#    0.000    1.667    6.667    0.000    7.000    2.667 
#    0.000    0.000    0.000    0.000    0.000    0.000 
#    0.000    0.000    0.000    0.000    0.000    0.000 
#
# Total GULP energy -66800.857780 kJ/mol
# GULP energy per Si atom -5566.738148 kJ/mol
# Density = 2.114261 g / cm^3
# Si number density = 21.190843 Si / 1000 Ang^3
#
#
#
# Elastic Constant Matrix: (Units=GPa)
#
#
# Indices 1 2 3 4 5 6 
#
# 1 34.5031 17.5313 21.5803 0.0035 2.3274 0.0052
# 2 17.5313 96.9651 33.9937 0.0081 9.3660 0.0103
# 3 21.5803 33.9937 116.6095 -0.0272 -14.5057 -0.0215
# 4 0.0035 0.0081 -0.0272 26.4621 -0.0068 14.2150
# 5 2.3274 9.3660 -14.5057 -0.0068 26.0734 -0.0049
# 6 0.0052 0.0103 -0.0215 14.2150 -0.0049 0.4751
#
#
#
# Elastic Compliance Matrix: (Units=1/GPa)
#
#
# Indices 1 2 3 4 5 6 
#
# 1 0.034991 -0.003714 -0.006033 -0.000022 -0.005145 0.000020
# 2 -0.003714 0.012982 -0.003906 -0.000017 -0.006505 0.000014
# 3 -0.006033 -0.003906 0.011896 0.000027 0.008560 -0.000019
# 4 -0.000022 -0.000017 0.000027 -0.002507 0.000036 0.075016
# 5 -0.005145 -0.006505 0.008560 0.000036 0.045912 -0.000024
# 6 0.000020 0.000014 -0.000019 0.075016 -0.000024 -0.139646
#
#
# Mechanical properties :
#
#
# Convention : Reuss Voigt Hill
#
# Bulk Modulus (GPa) = 30.71108 43.80981 37.26044
# Shear Modulus (GPa) = 2796.95045 22.26694 1409.60869
#
# Velocity S-wave (km/s) = 36.36965 3.24509 25.81940
# Velocity P-wave (km/s) = 42.16863 5.89573 30.10775
#
# Compressibility (1/GPa) = 0.03256154
#
# Stress axis : x y z
#
# Youngs Moduli (GPa) = 28.57913 77.02737 84.06408
#
# Poissons Ratio (x) = 0.28611 0.50714
# Poissons Ratio (y) = 0.10615 0.32839
# Poissons Ratio (z) = 0.17241 0.30090
#
# Static dielectric constant tensor:
#      x y z
#    x 1.768170 0.000000 -0.019340 
#    y 0.000000 1.962050 -0.000010 
#    z -0.019340 -0.000010 1.755160 
# 
# From -- ./inp_files/8680.got.cif
#   From: 2010.05.17/outbox.cif.g08.bks.cpg/sg8_5_cif.got.tgz:8680.got - 2010.06.03 19:46:02.
