data_PCOD9132273
_publ_section_title
;
Structure prediction by ZEFSAII (Michael W. Deem and Ramdas Pophale) SiO2 
 PCOD9132273
Probable space group: C M
;
_chemical_formula_sum "Si O2"
_cell_formula_units_Z 32
_cell_length_a 18.352368
_cell_length_b 8.036760
_cell_length_c 13.072200
_cell_angle_alpha 90.000000
_cell_angle_beta 45.587296
_cell_angle_gamma 90.000000
_cell_volume 1377.251009
_symmetry_space_group_name_H-M "C M"
_symmetry_group_IT_number 8
_symmetry_cell_setting 'monoclinic'
loop_
_space_group_symop_operation_xyz
x,y,z
x,-y,z
1/2+x,1/2+y,z
1/2+x,1/2-y,z
loop_
_atom_site_type_symbol
_atom_site_label
_atom_site_fract_x
_atom_site_fract_y
_atom_site_fract_z
Si Si1 0.203750 0.189319 0.768840
Si Si2 0.652394 0.197373 0.597249
Si Si3 0.212207 0.202917 0.094837
Si Si4 0.987226 0.690950 0.037766
Si Si5 0.922997 0.201141 0.539601
Si Si6 0.491146 0.698127 0.252875
Si Si7 0.148672 0.200072 0.382851
Si Si8 0.930326 0.296620 0.870134
O O1 0.199153 0.215121 0.650375
O O2 0.318317 0.232400 0.688780
O O3 0.180716 0.000000 0.819290
O O4 0.110111 0.294330 0.905663
O O5 0.693641 0.233161 0.444207
O O6 0.658430 0.000000 0.611622
O O7 0.533298 0.253094 0.712054
O O8 0.107636 0.262625 0.147164
O O9 0.204846 0.246560 0.222477
O O10 0.319395 0.260439 0.943708
O O11 0.211320 0.000000 0.090161
O O12 0.956323 0.500000 0.069821
O O13 0.951868 0.765654 0.179054
O O14 0.945237 0.761913 0.972739
O O15 0.931778 0.257260 0.411782
O O16 0.030176 0.253982 0.484378
O O17 0.918734 0.000000 0.546513
O O18 0.495447 0.500000 0.260340
O O19 0.149315 0.000000 0.387180
O O20 0.930587 0.500000 0.869214
#
# Coordination Sequence:
#
# PCOD9132273 Si02
#       8
#     4   4   4   4   4   4   4   4
#     4  11  22  36  55  76 100 137 185 227 264 313
#     4  10  20  34  52  76 107 138 169 214 267 312
#     4   8  15  31  53  75 100 131 169 208 245 295
#     4  10  20  34  52  76 107 138 169 214 267 312
#     4   9  19  36  54  76 110 143 173 217 267 309
#     4   9  18  33  54  78 105 138 171 207 255 312
#     4   9  18  33  54  78 105 138 171 207 255 312
#     4   8  16  31  50  71  96 129 167 204 246 297
#
# _framework density 23.234690000000001
#
# number of rings (size 3 to 8) (size 9 to 14) (size 15 to 20)
#    0.000    2.750    0.000    4.125    0.000    3.000 
#    0.000    4.375    0.000    7.500    0.000    0.000 
#    0.000    0.000    0.000    0.000    0.000    0.000 
#
# Total GULP energy -89336.800829 kJ/mol
# GULP energy per Si atom -5583.550052 kJ/mol
# Density = 2.318181 g / cm^3
# Si number density = 23.234690 Si / 1000 Ang^3
#
#
#
# Elastic Constant Matrix: (Units=GPa)
#
#
# Indices 1 2 3 4 5 6 
#
# 1 26.0729 -3.5200 56.8912 0.0000 8.7832 0.0000
# 2 -3.5200 15.5968 -8.2592 0.0001 0.1320 0.0000
# 3 56.8912 -8.2592 47.5692 0.0000 -6.2348 0.0000
# 4 0.0000 0.0001 0.0000 13.9522 0.0000 6.2233
# 5 8.7832 0.1320 -6.2348 0.0000 52.3174 0.0000
# 6 0.0000 0.0000 0.0000 6.2233 0.0000 15.9997
#
#
#
# Elastic Compliance Matrix: (Units=1/GPa)
#
#
# Indices 1 2 3 4 5 6 
#
# 1 -0.019912 0.009372 0.026287 0.000000 0.006452 0.000000
# 2 0.009372 0.066284 0.000074 -0.000001 -0.001732 0.000000
# 3 0.026287 0.000074 -0.011156 0.000000 -0.005743 0.000000
# 4 0.000000 -0.000001 0.000000 0.086719 0.000000 -0.033730
# 5 0.006452 -0.001732 -0.005743 0.000000 0.017351 0.000000
# 6 0.000000 0.000000 0.000000 -0.033730 0.000000 0.075621
#
#
# Mechanical properties :
#
#
# Convention : Reuss Voigt Hill
#
# Bulk Modulus (GPa) = 9.37382 19.94032 14.65707
# Shear Modulus (GPa) = 27.93242 19.39567 23.66404
#
# Velocity S-wave (km/s) = 3.47102 2.89238 3.19482
# Velocity P-wave (km/s) = 4.48410 4.44468 4.46443
#
# Compressibility (1/GPa) = 0.10668012
#
# Stress axis : x y z
#
# Youngs Moduli (GPa) = -50.22133 15.08654 -89.63867
#
# Poissons Ratio (x) = -0.14138 2.35630
# Poissons Ratio (y) = 0.47065 0.00659
# Poissons Ratio (z) = 1.32015 -0.00111
#
# Static dielectric constant tensor:
#      x y z
#    x 1.887920 0.000000 -0.010960 
#    y 0.000000 1.825250 0.000000 
#    z -0.010960 0.000000 1.873900 
# 
# From -- ./inp_files/27754.got.cif
#   From: 2010.05.17/outbox.cif.g08.bks.cpg/sg8_14_cif.got.tgz:27754.got - 2010.06.03 19:46:02.
