data_PCOD9132532
_publ_section_title
;
Structure prediction by ZEFSAII (Michael W. Deem and Ramdas Pophale) SiO2 
 PCOD9132532
Probable space group: C M
;
_chemical_formula_sum "Si O2"
_cell_formula_units_Z 32
_cell_length_a 11.571863
_cell_length_b 21.730113
_cell_length_c 6.251838
_cell_angle_alpha 90.000000
_cell_angle_beta 101.148033
_cell_angle_gamma 90.000000
_cell_volume 1542.410408
_symmetry_space_group_name_H-M "C M"
_symmetry_group_IT_number 8
_symmetry_cell_setting 'monoclinic'
loop_
_space_group_symop_operation_xyz
x,y,z
x,-y,z
1/2+x,1/2+y,z
1/2+x,1/2-y,z
loop_
_atom_site_type_symbol
_atom_site_label
_atom_site_fract_x
_atom_site_fract_y
_atom_site_fract_z
Si Si1 0.946150 0.105453 0.388370
Si Si2 0.338298 0.071311 0.494860
Si Si3 0.179399 0.265228 0.356530
Si Si4 0.406633 0.282534 0.694615
Si Si5 0.048056 0.663918 0.663033
Si Si6 0.124929 0.934433 0.758820
Si Si7 0.649962 0.366563 0.166806
Si Si8 0.774223 0.151256 0.018081
O O1 0.940785 0.171336 0.512157
O O2 0.998147 0.064972 0.598153
O O3 0.047744 0.096676 0.249658
O O4 0.828573 0.101268 0.202984
O O5 0.448271 0.112319 0.607018
O O6 0.233442 0.070860 0.633388
O O7 0.276255 0.105215 0.273122
O O8 0.368968 0.000000 0.462828
O O9 0.282844 0.254019 0.566891
O O10 0.134670 0.200444 0.258589
O O11 0.089557 0.310490 0.445684
O O12 0.232058 0.296506 0.165674
O O13 0.495919 0.225990 0.754891
O O14 0.374262 0.321337 0.895124
O O15 0.161807 0.637618 0.828926
O O16 0.139666 0.000000 0.881238
O O17 0.132122 0.875400 0.911370
#
# Coordination Sequence:
#
# PCOD9132532 Si02
#       8
#     4   4   4   4   4   4   4   4
#     4  10  21  39  57  85 127 159 202 262 309 368
#     4  10  23  42  62  91 129 167 212 261 310 380
#     4  10  22  35  55  94 126 158 208 253 320 377
#     4  10  20  37  56  89 124 161 203 253 318 377
#     4  11  22  38  60  90 128 165 208 258 315 384
#     4  10  23  39  63  93 124 165 216 261 313 379
#     4  11  20  35  64  91 122 163 202 264 319 371
#     4  10  24  35  58  87 126 164 205 254 314 388
#
# _framework density 20.746749000000001
#
# number of rings (size 3 to 8) (size 9 to 14) (size 15 to 20)
#    0.000    1.750    2.500    1.125    5.250    1.500 
#    0.000    0.625    0.000    9.750    0.000    0.000 
#    0.000    0.000    0.000    0.000    0.000    0.000 
#
# Total GULP energy -89151.483736 kJ/mol
# GULP energy per Si atom -5571.967733 kJ/mol
# Density = 2.069953 g / cm^3
# Si number density = 20.746749 Si / 1000 Ang^3
#
#
#
# Elastic Constant Matrix: (Units=GPa)
#
#
# Indices 1 2 3 4 5 6 
#
# 1 85.2602 38.7296 36.0166 0.0000 15.2567 0.0000
# 2 38.7296 72.6449 36.4764 0.0000 15.3241 0.0000
# 3 36.0166 36.4764 101.0742 0.0000 15.8274 0.0000
# 4 0.0000 0.0000 0.0000 19.6752 0.0000 3.0407
# 5 15.2567 15.3241 15.8274 0.0000 38.3869 0.0000
# 6 0.0000 0.0000 0.0000 3.0407 0.0000 19.8985
#
#
#
# Elastic Compliance Matrix: (Units=1/GPa)
#
#
# Indices 1 2 3 4 5 6 
#
# 1 0.016549 -0.006734 -0.003055 0.000000 -0.002629 0.000000
# 2 -0.006734 0.020313 -0.004362 0.000000 -0.003634 0.000000
# 3 -0.003055 -0.004362 0.012928 0.000000 -0.002375 0.000000
# 4 0.000000 0.000000 0.000000 0.052055 0.000000 -0.007954
# 5 -0.002629 -0.003634 -0.002375 0.000000 0.029525 0.000000
# 6 0.000000 0.000000 0.000000 -0.007954 0.000000 0.051471
#
#
# Mechanical properties :
#
#
# Convention : Reuss Voigt Hill
#
# Bulk Modulus (GPa) = 46.53812 53.49162 50.01487
# Shear Modulus (GPa) = 22.90372 25.44257 24.17315
#
# Velocity S-wave (km/s) = 3.32620 3.50571 3.41714
# Velocity P-wave (km/s) = 6.10178 6.49814 6.30308
#
# Compressibility (1/GPa) = 0.02148776
#
# Stress axis : x y z
#
# Youngs Moduli (GPa) = 60.42718 49.23066 77.34922
#
# Poissons Ratio (x) = 0.33153 0.23630
# Poissons Ratio (y) = 0.40693 0.33739
# Poissons Ratio (z) = 0.18460 0.21474
#
# Static dielectric constant tensor:
#      x y z
#    x 1.754460 0.000000 0.034380 
#    y 0.000000 1.750770 0.000000 
#    z 0.034380 0.000000 1.785880 
# 
# From -- ./inp_files/3164.got.cif
#   From: 2010.05.17/outbox.cif.g08.bks.cpg/sg8_2_cif.got.tgz:3164.got - 2010.06.03 19:46:02.
