data_PCOD9132453
_publ_section_title
;
Structure prediction by ZEFSAII (Michael W. Deem and Ramdas Pophale) SiO2 
 PCOD9132453
Probable space group: C M
;
_chemical_formula_sum "Si O2"
_cell_formula_units_Z 32
_cell_length_a 25.607495
_cell_length_b 8.415914
_cell_length_c 26.662071
_cell_angle_alpha 90.000000
_cell_angle_beta 16.291189
_cell_angle_gamma 90.000000
_cell_volume 1611.850328
_symmetry_space_group_name_H-M "C M"
_symmetry_group_IT_number 8
_symmetry_cell_setting 'monoclinic'
loop_
_space_group_symop_operation_xyz
x,y,z
x,-y,z
1/2+x,1/2+y,z
1/2+x,1/2-y,z
loop_
_atom_site_type_symbol
_atom_site_label
_atom_site_fract_x
_atom_site_fract_y
_atom_site_fract_z
Si Si1 0.049390 0.314155 0.091420
Si Si2 0.581244 0.312766 0.666279
Si Si3 0.946310 0.192530 0.381506
Si Si4 0.947607 0.311191 0.691291
Si Si5 0.864575 0.688808 0.659707
Si Si6 0.460176 0.806788 0.066062
Si Si7 0.681719 0.688282 0.068825
Si Si8 0.581769 0.690388 0.364956
O O1 0.013783 0.500000 0.132714
O O2 0.044286 0.225219 0.148918
O O3 0.937532 0.258000 0.145469
O O4 0.263011 0.286739 0.876492
O O5 0.594220 0.500000 0.647239
O O6 0.744254 0.253327 0.551899
O O7 0.592476 0.230479 0.601120
O O8 0.379509 0.269253 0.875147
O O9 0.089237 0.241239 0.205904
O O10 0.011994 0.249830 0.375483
O O11 0.941095 0.000000 0.386626
O O12 0.905436 0.500000 0.732795
O O13 0.984044 0.271091 0.599779
O O14 0.870749 0.500000 0.647479
O O15 0.942422 0.769032 0.538370
O O16 0.654045 0.740866 0.866330
O O17 0.285635 0.752518 0.194096
O O18 0.470200 0.000000 0.056663
O O19 0.713955 0.500000 0.040758
O O20 0.594487 0.500000 0.349308
#
# Coordination Sequence:
#
# PCOD9132453 Si02
#       8
#     4   4   4   4   4   4   4   4
#     4   9  16  29  52  83 114 140 175 224 278 332
#     4  11  22  36  58  86 115 145 180 228 282 330
#     4  10  23  41  58  78 107 148 195 233 269 324
#     4   9  17  32  54  81 114 148 182 218 266 333
#     4  10  21  36  57  86 116 146 180 225 280 329
#     4   9  19  36  58  83 110 144 185 227 273 328
#     4  10  20  36  58  82 111 146 185 227 273 330
#     4  10  22  40  59  79 107 147 194 234 269 322
#
# _framework density 19.852961000000001
#
# number of rings (size 3 to 8) (size 9 to 14) (size 15 to 20)
#    0.000    2.250    0.000    4.125    0.000    6.000 
#    0.000    5.000    0.000    0.000    0.000    0.000 
#    0.000    0.000    0.000    0.000    0.000    0.000 
#
# Total GULP energy -89304.424928 kJ/mol
# GULP energy per Si atom -5581.526558 kJ/mol
# Density = 1.980777 g / cm^3
# Si number density = 19.852961 Si / 1000 Ang^3
#
#
#
# Elastic Constant Matrix: (Units=GPa)
#
#
# Indices 1 2 3 4 5 6 
#
# 1 204.3839 17.2113 69.1709 0.0193 -0.0649 0.0014
# 2 17.2113 18.7787 1.9743 0.0623 -0.9379 0.0255
# 3 69.1709 1.9743 85.8588 0.0894 0.9932 0.0260
# 4 0.0193 0.0623 0.0894 116.6891 -0.0149 32.2664
# 5 -0.0649 -0.9379 0.9932 -0.0149 33.4457 -0.0045
# 6 0.0014 0.0255 0.0260 32.2664 -0.0045 36.0365
#
#
#
# Elastic Compliance Matrix: (Units=1/GPa)
#
#
# Indices 1 2 3 4 5 6 
#
# 1 0.007373 -0.006147 -0.005799 0.000006 0.000014 0.000003
# 2 -0.006147 0.058585 0.003588 -0.000028 0.001524 -0.000019
# 3 -0.005799 0.003588 0.016241 -0.000013 -0.000393 -0.000003
# 4 0.000006 -0.000028 -0.000013 0.011390 0.000003 -0.010198
# 5 0.000014 0.001524 -0.000393 0.000003 0.029954 0.000000
# 6 0.000003 -0.000019 -0.000003 -0.010198 0.000000 0.036881
#
#
# Mechanical properties :
#
#
# Convention : Reuss Voigt Hill
#
# Bulk Modulus (GPa) = 15.27136 53.97049 34.62092
# Shear Modulus (GPa) = 25.12984 51.94525 38.53755
#
# Velocity S-wave (km/s) = 3.56167 5.12072 4.41063
# Velocity P-wave (km/s) = 4.96214 7.88711 6.58898
#
# Compressibility (1/GPa) = 0.06548207
#
# Stress axis : x y z
#
# Youngs Moduli (GPa) = 135.63177 17.06926 61.57361
#
# Poissons Ratio (x) = 0.10493 0.35705
# Poissons Ratio (y) = 0.83375 -0.22091
# Poissons Ratio (z) = 0.78649 -0.06124
#
# Static dielectric constant tensor:
#      x y z
#    x 1.726050 0.000000 -0.004990 
#    y 0.000000 1.675270 0.000010 
#    z -0.004990 0.000010 1.691600 
# 
# From -- ./inp_files/16770.got.cif
#   From: 2010.05.17/outbox.cif.g08.bks.cpg/sg8_9_cif.got.tgz:16770.got - 2010.06.03 19:46:02.
