data_PCOD9132690
_publ_section_title
;
Structure prediction by ZEFSAII (Michael W. Deem and Ramdas Pophale) SiO2 
 PCOD9132690
Probable space group: C M
;
_chemical_formula_sum "Si O2"
_cell_formula_units_Z 30
_cell_length_a 13.163064
_cell_length_b 12.977035
_cell_length_c 7.973572
_cell_angle_alpha 90.000000
_cell_angle_beta 78.427543
_cell_angle_gamma 90.000000
_cell_volume 1334.338433
_symmetry_space_group_name_H-M "C M"
_symmetry_group_IT_number 8
_symmetry_cell_setting 'monoclinic'
loop_
_space_group_symop_operation_xyz
x,y,z
x,-y,z
1/2+x,1/2+y,z
1/2+x,1/2-y,z
loop_
_atom_site_type_symbol
_atom_site_label
_atom_site_fract_x
_atom_site_fract_y
_atom_site_fract_z
Si Si1 0.139870 0.329808 0.946470
Si Si2 0.837215 0.500000 0.155424
Si Si3 0.167605 0.887971 0.062772
Si Si4 0.244809 0.381366 0.566473
Si Si5 0.445287 0.814962 0.220710
Si Si6 0.108638 0.231812 0.413537
Si Si7 0.848092 0.119460 0.074609
Si Si8 0.456570 0.620060 0.681517
O O1 0.173125 0.373364 0.757103
O O2 0.229239 0.362655 0.051226
O O3 0.143516 0.205390 0.950495
O O4 0.025315 0.357332 0.049073
O O5 0.789333 0.411455 0.040759
O O6 0.868171 0.407868 0.273820
O O7 0.135613 0.852246 0.261274
O O8 0.119275 0.000000 0.039859
O O9 0.243987 0.500000 0.510257
O O10 0.200983 0.304156 0.443425
O O11 0.359596 0.353609 0.592229
O O12 0.520158 0.797921 0.352161
O O13 0.394113 0.706874 0.181325
O O14 0.056608 0.181406 0.592369
O O15 0.914963 0.133496 0.882410
O O16 0.858520 0.000000 0.126927
O O17 0.477948 0.500000 0.649692
#
# Coordination Sequence:
#
# PCOD9132690 Si02
#       8
#     4   2   4   4   4   4   4   4
#     4  10  20  40  62  90 114 154 197 243 300 345
#     4  10  22  40  58  86 122 154 188 250 290 352
#     4   9  20  39  62  82 121 150 195 241 292 340
#     4  10  23  41  59  84 122 154 191 247 292 350
#     4  11  24  36  62  88 119 156 195 245 289 354
#     4  11  23  38  59  87 119 158 198 233 290 355
#     4  10  20  39  61  89 118 149 197 252 290 344
#     4   9  20  38  62  85 116 154 194 239 293 342
#
# _framework density 22.483051
#
# number of rings (size 3 to 8) (size 9 to 14) (size 15 to 20)
#    0.400    1.600    1.333    2.400    4.667    2.667 
#    0.000    4.000    0.000    1.600    0.000    0.000 
#    0.000    0.000    0.000    0.000    0.000    0.000 
#
# Total GULP energy -83527.775065 kJ/mol
# GULP energy per Si atom -5568.518338 kJ/mol
# Density = 2.243188 g / cm^3
# Si number density = 22.483051 Si / 1000 Ang^3
#
#
#
# Elastic Constant Matrix: (Units=GPa)
#
#
# Indices 1 2 3 4 5 6 
#
# 1 72.5279 26.9219 17.1780 0.0000 4.8985 0.0000
# 2 26.9219 125.1100 24.3014 0.0000 14.5665 0.0000
# 3 17.1780 24.3014 80.7909 0.0000 -4.7897 0.0000
# 4 0.0000 0.0000 0.0000 9.0898 0.0000 -17.0757
# 5 4.8985 14.5665 -4.7897 0.0000 37.6169 0.0000
# 6 0.0000 0.0000 0.0000 -17.0757 0.0000 -36.3445
#
#
#
# Elastic Compliance Matrix: (Units=1/GPa)
#
#
# Indices 1 2 3 4 5 6 
#
# 1 0.015478 -0.002681 -0.002562 0.000000 -0.001303 0.000000
# 2 -0.002681 0.009479 -0.002497 0.000000 -0.003639 0.000000
# 3 -0.002562 -0.002497 0.013855 0.000000 0.003065 0.000000
# 4 0.000000 0.000000 0.000000 0.058437 0.000000 -0.027455
# 5 -0.001303 -0.003639 0.003065 0.000000 0.028553 0.000000
# 6 0.000000 0.000000 0.000000 -0.027455 0.000000 -0.014615
#
#
# Mechanical properties :
#
#
# Convention : Reuss Voigt Hill
#
# Bulk Modulus (GPa) = 42.85962 46.13682 44.49822
# Shear Modulus (GPa) = 37.19055 16.07428 26.63242
#
# Velocity S-wave (km/s) = 4.07155 2.67676 3.44547
# Velocity P-wave (km/s) = 6.41933 5.48804 5.97187
#
# Compressibility (1/GPa) = 0.02333199
#
# Stress axis : x y z
#
# Youngs Moduli (GPa) = 64.60857 105.50063 72.17613
#
# Poissons Ratio (x) = 0.28288 0.18489
# Poissons Ratio (y) = 0.17323 0.18021
# Poissons Ratio (z) = 0.16551 0.26341
#
# Static dielectric constant tensor:
#      x y z
#    x 1.933010 0.000000 -0.010530 
#    y 0.000000 1.837460 0.000000 
#    z -0.010530 0.000000 1.841070 
# 
# From -- ./inp_files/12659.got.cif
#   From: 2010.05.17/outbox.cif.g08.bks.cpg/sg8_7_cif.got.tgz:12659.got - 2010.06.03 19:46:02.
