data_PCOD9132488
_publ_section_title
;
Structure prediction by ZEFSAII (Michael W. Deem and Ramdas Pophale) SiO2 
 PCOD9132488
Probable space group: C M
;
_chemical_formula_sum "Si O2"
_cell_formula_units_Z 28
_cell_length_a 7.799864
_cell_length_b 22.630737
_cell_length_c 11.624444
_cell_angle_alpha 90.000000
_cell_angle_beta 131.311961
_cell_angle_gamma 90.000000
_cell_volume 1541.242254
_symmetry_space_group_name_H-M "C M"
_symmetry_group_IT_number 8
_symmetry_cell_setting 'monoclinic'
loop_
_space_group_symop_operation_xyz
x,y,z
x,-y,z
1/2+x,1/2+y,z
1/2+x,1/2-y,z
loop_
_atom_site_type_symbol
_atom_site_label
_atom_site_fract_x
_atom_site_fract_y
_atom_site_fract_z
Si Si1 0.275020 0.236084 0.829500
Si Si2 0.378337 0.283351 0.485091
Si Si3 0.268388 0.136481 0.663749
Si Si4 0.140288 0.830534 0.984992
Si Si5 0.488977 0.069274 0.552827
Si Si6 0.035367 0.931993 0.770242
Si Si7 0.889057 0.669586 0.336404
O O1 0.390803 0.186006 0.798105
O O2 0.283388 0.211271 0.961704
O O3 0.394844 0.298575 0.874601
O O4 0.019582 0.235713 0.662446
O O5 0.566572 0.326535 0.510568
O O6 0.326780 0.226352 0.386482
O O7 0.152157 0.317964 0.418019
O O8 0.418745 0.099659 0.642401
O O9 0.137584 0.095443 0.698592
O O10 0.126293 0.893071 0.916019
O O11 0.241644 0.832896 0.156051
O O12 0.761057 0.072409 0.652782
O O13 0.376457 0.109857 0.404626
O O14 0.423208 0.000000 0.521743
O O15 0.100879 0.000000 0.808709
#
# Coordination Sequence:
#
# PCOD9132488 Si02
#       7
#     4   4   4   4   4   4   4
#     4   9  20  35  56  85 109 154 187 238 291 346
#     4  10  20  36  60  83 122 148 194 244 290 352
#     4   9  20  36  63  88 110 143 201 254 281 336
#     4  11  22  35  56  86 121 152 186 245 302 355
#     4  11  22  37  62  86 113 157 205 245 286 348
#     4  10  21  39  60  83 112 156 204 244 285 345
#     4  12  22  36  55  91 122 154 193 238 313 350
#
# _framework density 18.167162999999999
#
# number of rings (size 3 to 8) (size 9 to 14) (size 15 to 20)
#    0.857    0.857    1.429    3.857    4.000    0.571 
#    0.000    0.000    0.000    0.000    0.000    0.000 
#    0.000    0.000    0.000    0.000    0.000    0.000 
#
# Total GULP energy -78076.372683 kJ/mol
# GULP energy per Si atom -5576.883763 kJ/mol
# Density = 1.812581 g / cm^3
# Si number density = 18.167163 Si / 1000 Ang^3
#
#
#
# Elastic Constant Matrix: (Units=GPa)
#
#
# Indices 1 2 3 4 5 6 
#
# 1 68.1867 33.4463 26.9732 0.0000 -11.3887 0.0000
# 2 33.4463 128.0046 54.5186 0.0000 -17.9204 0.0000
# 3 26.9732 54.5186 104.2144 0.0000 -22.2823 0.0000
# 4 0.0000 0.0000 0.0000 12.1180 0.0000 -1.1535
# 5 -11.3887 -17.9204 -22.2823 0.0000 26.5513 0.0000
# 6 0.0000 0.0000 0.0000 -1.1535 0.0000 33.8669
#
#
#
# Elastic Compliance Matrix: (Units=1/GPa)
#
#
# Indices 1 2 3 4 5 6 
#
# 1 0.017686 -0.003208 -0.002121 0.000000 0.003641 0.000000
# 2 -0.003208 0.010819 -0.004341 0.000000 0.002283 0.000000
# 3 -0.002121 -0.004341 0.014130 0.000000 0.008018 0.000000
# 4 0.000000 0.000000 0.000000 0.082790 0.000000 0.002820
# 5 0.003641 0.002283 0.008018 0.000000 0.047495 0.000000
# 6 0.000000 0.000000 0.000000 0.002820 0.000000 0.029623
#
#
# Mechanical properties :
#
#
# Convention : Reuss Voigt Hill
#
# Bulk Modulus (GPa) = 42.92834 58.92021 50.92428
# Shear Modulus (GPa) = 21.77225 26.87174 24.32200
#
# Velocity S-wave (km/s) = 3.46560 3.85013 3.66292
# Velocity P-wave (km/s) = 6.30038 7.22961 6.78093
#
# Compressibility (1/GPa) = 0.02329463
#
# Stress axis : x y z
#
# Youngs Moduli (GPa) = 56.54065 92.42864 70.77068
#
# Poissons Ratio (x) = 0.29653 0.15009
# Poissons Ratio (y) = 0.18140 0.30725
# Poissons Ratio (z) = 0.11991 0.40128
#
# Static dielectric constant tensor:
#      x y z
#    x 1.681440 0.000000 -0.000530 
#    y 0.000000 1.632170 0.000000 
#    z -0.000530 0.000000 1.590020 
# 
# From -- ./inp_files/19216.got.cif
#   From: 2010.05.17/outbox.cif.g08.bks.cpg/sg8_10_cif.got.tgz:19216.got - 2010.06.03 19:46:02.
