data_PCOD9132106
_publ_section_title
;
Structure prediction by ZEFSAII (Michael W. Deem and Ramdas Pophale) SiO2 
 PCOD9132106
Probable space group: C M
;
_chemical_formula_sum "Si O2"
_cell_formula_units_Z 32
_cell_length_a 15.855863
_cell_length_b 8.497713
_cell_length_c 12.891712
_cell_angle_alpha 90.000000
_cell_angle_beta 107.894944
_cell_angle_gamma 90.000000
_cell_volume 1652.976938
_symmetry_space_group_name_H-M "C M"
_symmetry_group_IT_number 8
_symmetry_cell_setting 'monoclinic'
loop_
_space_group_symop_operation_xyz
x,y,z
x,-y,z
1/2+x,1/2+y,z
1/2+x,1/2-y,z
loop_
_atom_site_type_symbol
_atom_site_label
_atom_site_fract_x
_atom_site_fract_y
_atom_site_fract_z
Si Si1 0.742800 0.188442 0.121530
Si Si2 0.482385 0.690309 0.741145
Si Si3 0.489962 0.313194 0.507960
Si Si4 0.123954 0.690862 0.267434
Si Si5 0.430450 0.187777 0.269226
Si Si6 0.678457 0.187673 0.513682
Si Si7 0.802909 0.687764 0.730786
Si Si8 0.180421 0.190008 0.876211
O O1 0.674083 0.247586 0.184046
O O2 0.841917 0.241025 0.187953
O O3 0.739876 0.000000 0.121016
O O4 0.714307 0.249080 0.998617
O O5 0.478677 0.500000 0.742966
O O6 0.467547 0.739158 0.615732
O O7 0.404261 0.761597 0.779612
O O8 0.579868 0.740137 0.814197
O O9 0.475427 0.500000 0.495318
O O10 0.439511 0.232027 0.393949
O O11 0.593687 0.275014 0.530261
O O12 0.120832 0.500000 0.261108
O O13 0.179108 0.730516 0.392385
O O14 0.022492 0.743505 0.249400
O O15 0.427125 0.000000 0.258245
O O16 0.762968 0.234571 0.612159
O O17 0.663915 0.000000 0.514642
O O18 0.795682 0.500000 0.719192
O O19 0.743949 0.740768 0.806039
O O20 0.181462 0.000000 0.878111
#
# Coordination Sequence:
#
# PCOD9132106 Si02
#       8
#     4   4   4   4   4   4   4   4
#     4  11  23  40  63  89 116 157 207 250 295 357
#     4  10  22  40  61  86 120 160 200 247 306 360
#     4  10  19  36  60  88 125 162 196 246 304 357
#     4   8  19  38  58  83 119 156 191 238 298 351
#     4  10  21  39  60  88 122 160 198 243 301 360
#     4  10  19  35  60  88 122 161 198 243 303 363
#     4  11  23  39  60  89 121 157 202 249 303 362
#     4  10  23  45  62  81 121 163 198 248 306 356
#
# _framework density 19.359010999999999
#
# number of rings (size 3 to 8) (size 9 to 14) (size 15 to 20)
#    0.000    2.000    1.250    2.625    1.750    3.500 
#    0.000   10.625    0.000    0.000    0.000    0.000 
#    0.000    0.000    0.000    0.000    0.000    0.000 
#
# Total GULP energy -89359.248367 kJ/mol
# GULP energy per Si atom -5584.953023 kJ/mol
# Density = 1.931495 g / cm^3
# Si number density = 19.359011 Si / 1000 Ang^3
#
#
#
# Elastic Constant Matrix: (Units=GPa)
#
#
# Indices 1 2 3 4 5 6 
#
# 1 139.3079 20.8391 87.7793 0.0000 10.6034 0.0000
# 2 20.8391 14.9872 16.9780 0.0000 -1.2337 0.0000
# 3 87.7793 16.9780 129.3053 0.0000 10.2088 0.0000
# 4 0.0000 0.0000 0.0000 32.7696 0.0000 4.4473
# 5 10.6034 -1.2337 10.2088 0.0000 15.0235 0.0000
# 6 0.0000 0.0000 0.0000 4.4473 0.0000 29.2318
#
#
#
# Elastic Compliance Matrix: (Units=1/GPa)
#
#
# Indices 1 2 3 4 5 6 
#
# 1 0.014150 -0.011487 -0.007645 0.000000 -0.005736 0.000000
# 2 -0.011487 0.090679 -0.005639 0.000000 0.019386 0.000000
# 3 -0.007645 -0.005639 0.014027 0.000000 -0.004599 0.000000
# 4 0.000000 0.000000 0.000000 0.031159 0.000000 -0.004741
# 5 -0.005736 0.019386 -0.004599 0.000000 0.075327 0.000000
# 6 0.000000 0.000000 0.000000 -0.004741 0.000000 0.034931
#
#
# Mechanical properties :
#
#
# Convention : Reuss Voigt Hill
#
# Bulk Modulus (GPa) = 14.42691 59.42145 36.92418
# Shear Modulus (GPa) = 15.01857 25.93859 20.47858
#
# Velocity S-wave (km/s) = 2.78833 3.66440 3.25596
# Velocity P-wave (km/s) = 4.22313 6.97602 5.76627
#
# Compressibility (1/GPa) = 0.06931492
#
# Stress axis : x y z
#
# Youngs Moduli (GPa) = 70.66911 11.02785 71.29167
#
# Poissons Ratio (x) = 0.12668 0.54502
# Poissons Ratio (y) = 0.81180 0.40199
# Poissons Ratio (z) = 0.54026 0.06218
#
# Static dielectric constant tensor:
#      x y z
#    x 1.689520 0.000000 -0.009540 
#    y 0.000000 1.662530 0.000000 
#    z -0.009540 0.000000 1.649470 
# 
# From -- ./inp_files/21603.got.cif
#   From: 2010.05.17/outbox.cif.g08.bks.cpg/sg8_11_cif.got.tgz:21603.got - 2010.06.03 19:46:02.
