data_PCOD9132946
_publ_section_title
;
Structure prediction by ZEFSAII (Michael W. Deem and Ramdas Pophale) SiO2 
 PCOD9132946
Probable space group: C M
;
_chemical_formula_sum "Si O2"
_cell_formula_units_Z 32
_cell_length_a 22.063020
_cell_length_b 13.725169
_cell_length_c 16.171253
_cell_angle_alpha 90.000000
_cell_angle_beta 163.213359
_cell_angle_gamma 90.000000
_cell_volume 1414.283339
_symmetry_space_group_name_H-M "C M"
_symmetry_group_IT_number 8
_symmetry_cell_setting 'monoclinic'
loop_
_space_group_symop_operation_xyz
x,y,z
x,-y,z
1/2+x,1/2+y,z
1/2+x,1/2-y,z
loop_
_atom_site_type_symbol
_atom_site_label
_atom_site_fract_x
_atom_site_fract_y
_atom_site_fract_z
Si Si1 0.289010 0.615061 0.140110
Si Si2 0.148017 0.385410 0.594700
Si Si3 0.135265 0.112681 0.179910
Si Si4 0.229749 0.883213 0.969381
Si Si5 0.284784 0.382937 0.946704
Si Si6 0.243451 0.884013 0.800131
Si Si7 0.127222 0.755890 0.315407
Si Si8 0.069481 0.205966 0.925656
O O1 0.251812 0.500000 0.107928
O O2 0.540589 0.631083 0.477825
O O3 0.220508 0.637823 0.956332
O O4 0.170086 0.687255 0.046496
O O5 0.103311 0.500000 0.540684
O O6 0.384917 0.378078 0.872188
O O7 0.143048 0.350356 0.683318
O O8 0.966198 0.346571 0.298673
O O9 0.171645 0.147401 0.134531
O O10 0.197513 0.000000 0.272269
O O11 0.225426 0.184885 0.366400
O O12 0.176857 0.855242 0.806897
O O13 0.100224 0.846359 0.877914
O O14 0.219327 0.000000 0.955823
O O15 0.306233 0.500000 0.969147
O O16 0.505360 0.333081 0.213091
O O17 0.292210 0.000000 0.862760
O O18 0.453467 0.822059 0.057552
O O19 0.321115 0.709787 0.615894
#
# Coordination Sequence:
#
# PCOD9132946 Si02
#       8
#     4   4   4   4   4   4   4   4
#     4  10  24  43  64  91 129 173 218 266 317 384
#     4   8  16  34  63  92 119 158 206 260 311 373
#     4  10  23  43  64  94 132 168 209 264 329 389
#     4  10  21  38  62  93 127 165 210 264 324 381
#     4   9  19  39  67  94 120 161 216 267 319 381
#     4  10  23  43  66  89 126 175 223 266 310 382
#     4  11  24  39  66  96 128 168 215 269 324 388
#     4  12  26  37  63  97 133 170 208 266 329 394
#
# _framework density 22.626301000000002
#
# number of rings (size 3 to 8) (size 9 to 14) (size 15 to 20)
#    0.000    2.000    0.000    3.000    7.000    4.000 
#    0.000    1.875    0.000    0.000    0.000    0.000 
#    0.000    0.000    0.000    0.000    0.000    0.000 
#
# Total GULP energy -89422.880892 kJ/mol
# GULP energy per Si atom -5588.930056 kJ/mol
# Density = 2.257480 g / cm^3
# Si number density = 22.626301 Si / 1000 Ang^3
#
#
#
# Elastic Constant Matrix: (Units=GPa)
#
#
# Indices 1 2 3 4 5 6 
#
# 1 91.1590 38.6740 7.3905 -0.0051 -14.4541 -0.0059
# 2 38.6740 103.1080 8.6826 -0.0136 -8.5041 -0.0171
# 3 7.3905 8.6826 42.6401 -0.0081 3.2627 -0.0116
# 4 -0.0051 -0.0136 -0.0081 23.8194 -0.0035 0.7273
# 5 -14.4541 -8.5041 3.2627 -0.0035 33.9825 -0.0051
# 6 -0.0059 -0.0171 -0.0116 0.7273 -0.0051 44.8386
#
#
#
# Elastic Compliance Matrix: (Units=1/GPa)
#
#
# Indices 1 2 3 4 5 6 
#
# 1 0.013867 -0.004642 -0.001834 0.000000 0.004913 0.000000
# 2 -0.004642 0.011670 -0.001656 0.000005 0.001105 0.000003
# 3 -0.001834 -0.001656 0.024378 0.000006 -0.003535 0.000005
# 4 0.000000 0.000005 0.000006 0.042003 0.000005 -0.000681
# 5 0.004913 0.001105 -0.003535 0.000005 0.032132 0.000004
# 6 0.000000 0.000003 0.000005 -0.000681 0.000004 0.022313
#
#
# Mechanical properties :
#
#
# Convention : Reuss Voigt Hill
#
# Bulk Modulus (GPa) = 29.71733 38.48904 34.10318
# Shear Modulus (GPa) = 28.76129 32.67209 30.71669
#
# Velocity S-wave (km/s) = 3.56918 3.80411 3.68851
# Velocity P-wave (km/s) = 5.49071 6.02849 5.76587
#
# Compressibility (1/GPa) = 0.03365040
#
# Stress axis : x y z
#
# Youngs Moduli (GPa) = 72.11551 85.68859 41.02091
#
# Poissons Ratio (x) = 0.39772 0.07524
# Poissons Ratio (y) = 0.33472 0.06795
# Poissons Ratio (z) = 0.13227 0.14194
#
# Static dielectric constant tensor:
#      x y z
#    x 1.848140 0.000000 -0.014980 
#    y 0.000000 1.864420 0.000000 
#    z -0.014980 0.000000 1.841770 
# 
# From -- ./inp_files/10762.got.cif
#   From: 2010.05.17/outbox.cif.g08.bks.cpg/sg8_6_cif.got.tgz:10762.got - 2010.06.03 19:46:02.
