data_PCOD9132028
_publ_section_title
;
Structure prediction by ZEFSAII (Michael W. Deem and Ramdas Pophale) SiO2 
 PCOD9132028
Probable space group: C M
;
_chemical_formula_sum "Si O2"
_cell_formula_units_Z 28
_cell_length_a 18.937090
_cell_length_b 13.206226
_cell_length_c 22.494832
_cell_angle_alpha 90.000000
_cell_angle_beta 17.468550
_cell_angle_gamma 90.000000
_cell_volume 1688.728122
_symmetry_space_group_name_H-M "C M"
_symmetry_group_IT_number 8
_symmetry_cell_setting 'monoclinic'
loop_
_space_group_symop_operation_xyz
x,y,z
x,-y,z
1/2+x,1/2+y,z
1/2+x,1/2-y,z
loop_
_atom_site_type_symbol
_atom_site_label
_atom_site_fract_x
_atom_site_fract_y
_atom_site_fract_z
Si Si1 0.761300 0.119170 0.782730
Si Si2 0.086475 0.383232 0.120056
Si Si3 0.216481 0.881101 0.198915
Si Si4 0.675954 0.311672 0.364906
Si Si5 0.868995 0.250244 0.813325
Si Si6 0.400374 0.713260 0.351597
Si Si7 0.432465 0.382420 0.197128
O O1 0.796966 0.187488 0.812373
O O2 0.948908 0.156499 0.584124
O O3 0.799276 0.000000 0.766262
O O4 0.498099 0.130355 0.969482
O O5 0.127706 0.500000 0.098951
O O6 0.894441 0.370141 0.221085
O O7 0.975113 0.322149 0.264461
O O8 0.315113 0.324171 0.912131
O O9 0.151091 0.841722 0.316850
O O10 0.080129 0.822755 0.257126
O O11 0.159948 0.000000 0.240110
O O12 0.744438 0.193935 0.318353
O O13 0.137328 0.282550 0.588881
O O14 0.687028 0.342462 0.970111
O O15 0.413945 0.640957 0.282595
O O16 0.397740 0.500000 0.212789
#
# Coordination Sequence:
#
# PCOD9132028 Si02
#       7
#     4   4   4   4   4   4   4
#     4  11  19  33  60  88 111 141 181 237 292 331
#     4  10  19  34  58  86 112 144 189 238 282 333
#     4  11  22  36  56  85 118 144 177 236 294 338
#     4  10  20  34  56  85 112 138 191 237 278 334
#     4  10  19  35  57  87 109 146 195 236 271 339
#     4  10  22  37  55  83 119 150 186 232 284 344
#     4  10  21  37  56  80 113 153 195 234 273 333
#
# _framework density 16.580525999999999
#
# number of rings (size 3 to 8) (size 9 to 14) (size 15 to 20)
#    0.000    2.000    5.714    2.143    0.000    4.000 
#    0.000    0.714    0.000    1.714    0.000    0.000 
#    0.000    0.000    0.000    0.000    0.000    0.000 
#
# Total GULP energy -78080.796393 kJ/mol
# GULP energy per Si atom -5577.199742 kJ/mol
# Density = 1.654279 g / cm^3
# Si number density = 16.580526 Si / 1000 Ang^3
#
#
#
# Elastic Constant Matrix: (Units=GPa)
#
#
# Indices 1 2 3 4 5 6 
#
# 1 56.0776 9.9301 15.6734 0.0074 -0.7603 -0.0149
# 2 9.9301 93.6210 24.0031 0.0426 -6.4721 -0.0189
# 3 15.6734 24.0031 109.3203 0.0116 16.2410 -0.0171
# 4 0.0074 0.0426 0.0116 10.0067 0.0107 -2.0451
# 5 -0.7603 -6.4721 16.2410 0.0107 20.7853 -0.0058
# 6 -0.0149 -0.0189 -0.0171 -2.0451 -0.0058 6.8409
#
#
#
# Elastic Compliance Matrix: (Units=1/GPa)
#
#
# Indices 1 2 3 4 5 6 
#
# 1 0.018856 -0.001092 -0.002846 -0.000002 0.002573 0.000032
# 2 -0.001092 0.012131 -0.003464 -0.000051 0.006444 0.000013
# 3 -0.002846 -0.003464 0.011870 0.000016 -0.010457 0.000010
# 4 -0.000002 -0.000051 0.000016 0.106436 -0.000075 0.031820
# 5 0.002573 0.006444 -0.010457 -0.000075 0.058383 0.000024
# 6 0.000032 0.000013 0.000010 0.031820 0.000024 0.155693
#
#
# Mechanical properties :
#
#
# Convention : Reuss Voigt Hill
#
# Bulk Modulus (GPa) = 35.64864 39.80355 37.72610
# Shear Modulus (GPa) = 12.90238 21.48740 17.19489
#
# Velocity S-wave (km/s) = 2.79259 3.60382 3.22382
# Velocity P-wave (km/s) = 5.65199 6.43234 6.05475
#
# Compressibility (1/GPa) = 0.02805156
#
# Stress axis : x y z
#
# Youngs Moduli (GPa) = 53.03303 82.43364 84.24828
#
# Poissons Ratio (x) = 0.09006 0.23976
# Poissons Ratio (y) = 0.05794 0.29186
# Poissons Ratio (z) = 0.15092 0.28558
#
# Static dielectric constant tensor:
#      x y z
#    x 1.532940 -0.000010 0.008770 
#    y -0.000010 1.557300 0.000010 
#    z 0.008770 0.000010 1.576760 
# 
# From -- ./inp_files/31167.got.cif
#   From: 2010.05.17/outbox.cif.g08.bks.cpg/sg8_16_cif.got.tgz:31167.got - 2010.06.03 19:46:02.
