data_PCOD9132368
_publ_section_title
;
Structure prediction by ZEFSAII (Michael W. Deem and Ramdas Pophale) SiO2 
 PCOD9132368
Probable space group: C M
;
_chemical_formula_sum "Si O2"
_cell_formula_units_Z 32
_cell_length_a 25.077127
_cell_length_b 8.972098
_cell_length_c 24.092703
_cell_angle_alpha 90.000000
_cell_angle_beta 161.829850
_cell_angle_gamma 90.000000
_cell_volume 1690.398426
_symmetry_space_group_name_H-M "C M"
_symmetry_group_IT_number 8
_symmetry_cell_setting 'monoclinic'
loop_
_space_group_symop_operation_xyz
x,y,z
x,-y,z
1/2+x,1/2+y,z
1/2+x,1/2-y,z
loop_
_atom_site_type_symbol
_atom_site_label
_atom_site_fract_x
_atom_site_fract_y
_atom_site_fract_z
Si Si1 0.855460 0.679133 0.398350
Si Si2 0.671397 0.678066 0.513920
Si Si3 0.169587 0.678342 0.786756
Si Si4 0.541836 0.178534 0.149582
Si Si5 0.706132 0.824780 0.948673
Si Si6 0.364169 0.176985 0.277829
Si Si7 0.570146 0.176467 0.304471
Si Si8 0.542492 0.823420 0.905056
O O1 0.837330 0.500000 0.386364
O O2 0.680785 0.755188 0.245422
O O3 0.890373 0.711790 0.368511
O O4 0.014881 0.727495 0.594367
O O5 0.660530 0.500000 0.501487
O O6 0.506878 0.743827 0.381691
O O7 0.676339 0.738626 0.456074
O O8 0.845719 0.720465 0.717779
O O9 0.190606 0.500000 0.800727
O O10 0.351555 0.755041 0.954304
O O11 0.128391 0.706124 0.811129
O O12 0.602775 0.217418 0.272685
O O13 0.533473 0.000000 0.137191
O O14 0.873455 0.723710 0.120118
O O15 0.758904 0.000000 0.001099
O O16 0.587765 0.802318 0.884736
O O17 0.376894 0.000000 0.282502
O O18 0.178744 0.233383 0.075283
O O19 0.591093 0.000000 0.331723
O O20 0.561271 0.000000 0.935395
#
# Coordination Sequence:
#
# PCOD9132368 Si02
#       8
#     4   4   4   4   4   4   4   4
#     4  10  23  41  63  87 114 156 205 243 286 347
#     4  11  23  38  60  88 117 155 199 243 292 349
#     4   9  19  37  61  87 117 156 197 241 288 342
#     4  10  22  38  58  89 124 155 190 239 297 351
#     4   9  17  33  58  86 117 153 193 239 289 343
#     4  11  24  42  61  85 119 157 198 247 294 343
#     4  10  20  35  56  87 124 157 189 235 296 352
#     4  10  22  38  59  89 118 153 199 241 290 351
#
# _framework density 18.930448999999999
#
# number of rings (size 3 to 8) (size 9 to 14) (size 15 to 20)
#    0.000    2.000    1.250    1.500    1.750    5.000 
#    0.000    3.750    0.000    0.000    0.000    0.000 
#    0.000    0.000    0.000    0.000    0.000    0.000 
#
# Total GULP energy -89348.103243 kJ/mol
# GULP energy per Si atom -5584.256453 kJ/mol
# Density = 1.888736 g / cm^3
# Si number density = 18.930449 Si / 1000 Ang^3
#
#
#
# Elastic Constant Matrix: (Units=GPa)
#
#
# Indices 1 2 3 4 5 6 
#
# 1 45.3130 23.6967 18.0670 0.0000 -13.0857 -0.0001
# 2 23.6967 28.5323 22.1582 0.0004 -9.2417 0.0001
# 3 18.0670 22.1582 82.9946 -0.0008 -22.9691 -0.0009
# 4 0.0000 0.0004 -0.0008 9.7719 0.0001 -15.2777
# 5 -13.0857 -9.2417 -22.9691 0.0001 23.7444 -0.0001
# 6 -0.0001 0.0001 -0.0009 -15.2777 -0.0001 13.7700
#
#
#
# Elastic Compliance Matrix: (Units=1/GPa)
#
#
# Indices 1 2 3 4 5 6 
#
# 1 0.041923 -0.033119 0.003472 -0.000004 0.013573 -0.000004
# 2 -0.033119 0.071493 -0.012602 0.000009 -0.002616 0.000009
# 3 0.003472 -0.012602 0.018886 -0.000006 0.015278 -0.000005
# 4 -0.000004 0.000009 -0.000006 -0.139300 -0.000004 -0.154554
# 5 0.013573 -0.002616 0.015278 -0.000004 0.063356 -0.000003
# 6 -0.000004 0.000009 -0.000005 -0.154554 -0.000003 -0.098855
#
#
# Mechanical properties :
#
#
# Convention : Reuss Voigt Hill
#
# Bulk Modulus (GPa) = 20.91802 31.63150 26.27476
# Shear Modulus (GPa) = 86.30431 15.65179 50.97805
#
# Velocity S-wave (km/s) = 6.75938 2.87854 5.19496
# Velocity P-wave (km/s) = 8.48486 5.27196 7.06351
#
# Compressibility (1/GPa) = 0.04780567
#
# Stress axis : x y z
#
# Youngs Moduli (GPa) = 23.85298 13.98741 52.94970
#
# Poissons Ratio (x) = 0.46324 -0.18385
# Poissons Ratio (y) = 0.78998 0.66727
# Poissons Ratio (z) = -0.08282 0.17627
#
# Static dielectric constant tensor:
#      x y z
#    x 1.652490 0.000000 -0.013300 
#    y 0.000000 1.631900 0.000000 
#    z -0.013300 0.000000 1.641710 
# 
# From -- ./inp_files/32447.got.cif
#   From: 2010.05.17/outbox.cif.g08.bks.cpg/sg8_17_cif.got.tgz:32447.got - 2010.06.03 19:46:02.
