data_PCOD9132315
_publ_section_title
;
Structure prediction by ZEFSAII (Michael W. Deem and Ramdas Pophale) SiO2 
 PCOD9132315
Probable space group: C M
;
_chemical_formula_sum "Si O2"
_cell_formula_units_Z 32
_cell_length_a 32.129668
_cell_length_b 7.538755
_cell_length_c 12.380637
_cell_angle_alpha 90.000000
_cell_angle_beta 27.917320
_cell_angle_gamma 90.000000
_cell_volume 1404.033388
_symmetry_space_group_name_H-M "C M"
_symmetry_group_IT_number 8
_symmetry_cell_setting 'monoclinic'
loop_
_space_group_symop_operation_xyz
x,y,z
x,-y,z
1/2+x,1/2+y,z
1/2+x,1/2-y,z
loop_
_atom_site_type_symbol
_atom_site_label
_atom_site_fract_x
_atom_site_fract_y
_atom_site_fract_z
Si Si1 0.505410 0.782046 0.943830
Si Si2 0.562331 0.289438 0.242873
Si Si3 0.950956 0.212913 0.690001
Si Si4 0.861925 0.297616 0.109441
Si Si5 0.249311 0.797705 0.793232
Si Si6 0.942709 0.714585 0.316242
Si Si7 0.261365 0.713606 0.013242
Si Si8 0.677450 0.792984 0.421691
O O1 0.594098 0.719602 0.679071
O O2 0.505464 0.000000 0.941046
O O3 0.416245 0.722471 0.085794
O O4 0.498539 0.728549 0.084135
O O5 0.575682 0.500000 0.228000
O O6 0.530432 0.219512 0.432296
O O7 0.486736 0.268347 0.327374
O O8 0.654205 0.213071 0.986748
O O9 0.958289 0.000000 0.686528
O O10 0.933150 0.291747 0.847910
O O11 0.860589 0.247035 0.830086
O O12 0.839032 0.500000 0.186852
O O13 0.770301 0.216177 0.275444
O O14 0.341614 0.717194 0.542694
O O15 0.248591 0.000000 0.753500
O O16 0.250885 0.796767 0.920306
O O17 0.939243 0.500000 0.324674
O O18 0.252039 0.500000 0.023463
O O19 0.197067 0.780546 0.256781
O O20 0.658593 0.000000 0.447907
#
# Coordination Sequence:
#
# PCOD9132315 Si02
#       8
#     4   4   4   4   4   4   4   4
#     4   9  20  38  58  78 109 150 186 221 269 326
#     4  10  21  37  55  79 111 147 181 222 277 327
#     4   9  18  34  54  77 113 150 176 216 274 330
#     4  10  20  34  56  85 111 139 180 229 273 319
#     4  10  21  34  53  81 110 140 176 225 278 318
#     4  10  21  39  58  79 109 146 187 228 268 318
#     4   9  17  31  54  78 106 141 178 219 267 324
#     4   9  19  37  56  77 109 149 182 218 272 326
#
# _framework density 22.791481000000001
#
# number of rings (size 3 to 8) (size 9 to 14) (size 15 to 20)
#    0.000    2.500    1.250    1.125    1.750    4.000 
#    0.000    4.375    0.000    0.000    0.000    0.000 
#    0.000    0.000    0.000    0.000    0.000    0.000 
#
# Total GULP energy -89324.862811 kJ/mol
# GULP energy per Si atom -5582.803926 kJ/mol
# Density = 2.273961 g / cm^3
# Si number density = 22.791481 Si / 1000 Ang^3
#
#
#
# Elastic Constant Matrix: (Units=GPa)
#
#
# Indices 1 2 3 4 5 6 
#
# 1 37.5786 -11.9034 1.5811 0.0000 7.9257 0.0000
# 2 -11.9034 49.9926 1.7030 0.0000 -2.1785 0.0000
# 3 1.5811 1.7030 123.1937 0.0000 4.3165 0.0000
# 4 0.0000 0.0000 0.0000 7.9491 0.0000 0.8649
# 5 7.9257 -2.1785 4.3165 0.0000 26.8747 0.0000
# 6 0.0000 0.0000 0.0000 0.8649 0.0000 6.7585
#
#
#
# Elastic Compliance Matrix: (Units=1/GPa)
#
#
# Indices 1 2 3 4 5 6 
#
# 1 0.030590 0.006923 -0.000193 0.000000 -0.008429 0.000000
# 2 0.006923 0.021654 -0.000380 0.000000 -0.000225 0.000000
# 3 -0.000193 -0.000380 0.008170 0.000000 -0.001286 0.000000
# 4 0.000000 0.000000 0.000000 0.127577 0.000000 -0.016326
# 5 -0.008429 -0.000225 -0.001286 0.000000 0.039884 0.000000
# 6 0.000000 0.000000 0.000000 -0.016326 0.000000 0.150050
#
#
# Mechanical properties :
#
#
# Convention : Reuss Voigt Hill
#
# Bulk Modulus (GPa) = 13.67743 21.50292 17.59018
# Shear Modulus (GPa) = 12.83374 22.94207 17.88791
#
# Velocity S-wave (km/s) = 2.37553 3.17615 2.80456
# Velocity P-wave (km/s) = 3.67945 4.78599 4.26873
#
# Compressibility (1/GPa) = 0.07311313
#
# Stress axis : x y z
#
# Youngs Moduli (GPa) = 32.69082 46.17997 122.39758
#
# Poissons Ratio (x) = -0.31969 0.02362
# Poissons Ratio (y) = -0.22631 0.04655
# Poissons Ratio (z) = 0.00631 0.01756
#
# Static dielectric constant tensor:
#      x y z
#    x 1.803860 0.000000 -0.020970 
#    y 0.000000 1.845160 0.000000 
#    z -0.020970 0.000000 1.876000 
# 
# From -- ./inp_files/21612.got.cif
#   From: 2010.05.17/outbox.cif.g08.bks.cpg/sg8_11_cif.got.tgz:21612.got - 2010.06.03 19:46:02.
