data_PCOD9132126
_publ_section_title
;
Structure prediction by ZEFSAII (Michael W. Deem and Ramdas Pophale) SiO2 
 PCOD9132126
Probable space group: C M
;
_chemical_formula_sum "Si O2"
_cell_formula_units_Z 26
_cell_length_a 23.494100
_cell_length_b 13.253402
_cell_length_c 7.345291
_cell_angle_alpha 90.000000
_cell_angle_beta 155.596053
_cell_angle_gamma 90.000000
_cell_volume 944.976458
_symmetry_space_group_name_H-M "C M"
_symmetry_group_IT_number 8
_symmetry_cell_setting 'monoclinic'
loop_
_space_group_symop_operation_xyz
x,y,z
x,-y,z
1/2+x,1/2+y,z
1/2+x,1/2-y,z
loop_
_atom_site_type_symbol
_atom_site_label
_atom_site_fract_x
_atom_site_fract_y
_atom_site_fract_z
Si Si1 0.232700 0.500000 0.871930
Si Si2 0.248649 0.891287 0.619376
Si Si3 0.816151 0.839521 0.871280
Si Si4 0.157141 0.665613 0.886051
Si Si5 0.954140 0.852775 0.896735
Si Si6 0.019911 0.650160 0.870092
Si Si7 0.223775 0.107921 0.106840
O O1 0.341200 0.408856 0.117376
O O2 0.124321 0.590139 0.628859
O O3 0.301386 0.781799 0.842886
O O4 0.235018 0.879100 0.359824
O O5 0.319522 0.000000 0.860854
O O6 0.096454 0.902577 0.259155
O O7 0.921001 0.855070 0.012693
O O8 0.666927 0.886316 0.375882
O O9 0.304621 0.617475 0.380197
O O10 0.174512 0.783248 0.890075
O O11 0.058182 0.665693 0.771433
O O12 0.983671 0.745656 0.889637
O O13 0.876137 0.596135 0.469199
O O14 0.151962 0.000000 0.864106
#
# Coordination Sequence:
#
# PCOD9132126 Si02
#       7
#     2   4   4   4   4   4   4
#     4  12  28  38  58  84 142 178 200 234 312 384
#     4  10  19  35  66  98 118 146 204 276 317 348
#     4  10  21  40  57  95 123 166 208 254 302 375
#     4  10  21  40  57  95 123 166 208 254 302 375
#     4   9  17  37  67  90 117 152 216 270 299 345
#     4   9  17  37  67  90 117 152 216 270 299 345
#     4  10  19  35  66  98 118 146 204 276 317 348
#
# _framework density 27.513914
#
# number of rings (size 3 to 8) (size 9 to 14) (size 15 to 20)
#    0.000    2.154    6.154    0.000    4.308    1.231 
#    0.000    6.923    0.000    0.000    0.000    0.000 
#    0.000    0.000    0.000    0.000    0.000    0.000 
#
# Total GULP energy -72374.737208 kJ/mol
# GULP energy per Si atom -5567.287478 kJ/mol
# Density = 2.745129 g / cm^3
# Si number density = 27.513914 Si / 1000 Ang^3
#
#
#
# Elastic Constant Matrix: (Units=GPa)
#
#
# Indices 1 2 3 4 5 6 
#
# 1 139.1388 50.0275 58.0706 0.0000 52.2867 0.0000
# 2 50.0275 295.9812 9.3092 0.0000 3.0159 0.0000
# 3 58.0706 9.3092 118.6265 0.0000 26.4937 0.0000
# 4 0.0000 0.0000 0.0000 11.6581 0.0000 -1.6906
# 5 52.2867 3.0159 26.4937 0.0000 50.9771 0.0000
# 6 0.0000 0.0000 0.0000 -1.6906 0.0000 58.6703
#
#
#
# Elastic Compliance Matrix: (Units=1/GPa)
#
#
# Indices 1 2 3 4 5 6 
#
# 1 0.014357 -0.002171 -0.004070 0.000000 -0.012482 0.000000
# 2 -0.002171 0.003716 0.000366 0.000000 0.001817 0.000000
# 3 -0.004070 0.000366 0.010709 0.000000 -0.001413 0.000000
# 4 0.000000 0.000000 0.000000 0.086137 0.000000 0.002482
# 5 -0.012482 0.001817 -0.001413 0.000000 0.033046 0.000000
# 6 0.000000 0.000000 0.000000 0.002482 0.000000 0.017116
#
#
# Mechanical properties :
#
#
# Convention : Reuss Voigt Hill
#
# Bulk Modulus (GPa) = 58.72064 87.61792 73.16928
# Shear Modulus (GPa) = 27.39575 53.35037 40.37306
#
# Velocity S-wave (km/s) = 3.15890 4.40822 3.83478
# Velocity P-wave (km/s) = 5.89011 7.60421 6.80137
#
# Compressibility (1/GPa) = 0.01702979
#
# Stress axis : x y z
#
# Youngs Moduli (GPa) = 69.65157 269.13489 93.37909
#
# Poissons Ratio (x) = 0.58442 0.38006
# Poissons Ratio (y) = 0.15125 -0.03413
# Poissons Ratio (z) = 0.28348 -0.09837
#
# Static dielectric constant tensor:
#      x y z
#    x 2.382330 0.000000 -0.238770 
#    y 0.000000 2.157870 0.000000 
#    z -0.238770 0.000000 2.363830 
# 
# From -- ./inp_files/16459.got.cif
#   From: 2010.05.17/outbox.cif.g08.bks.cpg/sg8_9_cif.got.tgz:16459.got - 2010.06.03 19:46:02.
