data_PCOD9132466
_publ_section_title
;
Structure prediction by ZEFSAII (Michael W. Deem and Ramdas Pophale) SiO2 
 PCOD9132466
Probable space group: C M
;
_chemical_formula_sum "Si O2"
_cell_formula_units_Z 32
_cell_length_a 25.214959
_cell_length_b 7.475646
_cell_length_c 24.198303
_cell_angle_alpha 90.000000
_cell_angle_beta 161.620669
_cell_angle_gamma 90.000000
_cell_volume 1438.219348
_symmetry_space_group_name_H-M "C M"
_symmetry_group_IT_number 8
_symmetry_cell_setting 'monoclinic'
loop_
_space_group_symop_operation_xyz
x,y,z
x,-y,z
1/2+x,1/2+y,z
1/2+x,1/2-y,z
loop_
_atom_site_type_symbol
_atom_site_label
_atom_site_fract_x
_atom_site_fract_y
_atom_site_fract_z
Si Si1 0.541360 0.219155 0.238600
Si Si2 0.878066 0.720954 0.839366
Si Si3 0.522216 0.293726 0.460425
Si Si4 0.712214 0.285044 0.971690
Si Si5 0.363243 0.789900 0.418529
Si Si6 0.192677 0.287324 0.079256
Si Si7 0.978725 0.703995 0.055515
Si Si8 0.923739 0.215776 0.603167
O O1 0.473101 0.282060 0.111198
O O2 0.735879 0.276674 0.435857
O O3 0.546333 0.000000 0.242460
O O4 0.401820 0.275969 0.144691
O O5 0.877958 0.500000 0.840725
O O6 0.708156 0.783770 0.642364
O O7 0.041345 0.780720 0.967415
O O8 0.886983 0.782977 0.911754
O O9 0.538993 0.500000 0.459504
O O10 0.464859 0.287887 0.467706
O O11 0.371963 0.212058 0.276220
O O12 0.714412 0.500000 0.969073
O O13 0.573104 0.219312 0.790329
O O14 0.664626 0.240154 0.987008
O O15 0.177444 0.704789 0.237336
O O16 0.444539 0.763676 0.559240
O O17 0.341682 0.000000 0.387481
O O18 0.198442 0.500000 0.095536
O O19 0.918130 0.500000 0.000995
O O20 0.922923 0.000000 0.604886
#
# Coordination Sequence:
#
# PCOD9132466 Si02
#       8
#     4   4   4   4   4   4   4   4
#     4   8  16  31  53  81 106 132 178 229 267 315
#     4   9  18  33  58  85 104 139 192 232 266 321
#     4  10  20  36  59  81 106 146 191 228 269 326
#     4  10  21  36  57  81 105 144 189 226 269 323
#     4  11  21  33  53  84 120 147 174 223 285 334
#     4  10  21  38  55  79 113 145 182 229 275 324
#     4   9  16  33  58  81 109 145 185 228 270 323
#     4   9  19  36  57  78 105 144 187 227 269 322
#
# _framework density 22.249735999999999
#
# number of rings (size 3 to 8) (size 9 to 14) (size 15 to 20)
#    0.000    2.500    1.250    1.875    1.750    2.000 
#    0.000    3.750    0.000    0.000    0.000    0.000 
#    0.000    0.000    0.000    0.000    0.000    0.000 
#
# Total GULP energy -89337.196191 kJ/mol
# GULP energy per Si atom -5583.574762 kJ/mol
# Density = 2.219909 g / cm^3
# Si number density = 22.249736 Si / 1000 Ang^3
#
#
#
# Elastic Constant Matrix: (Units=GPa)
#
#
# Indices 1 2 3 4 5 6 
#
# 1 37.6773 -15.4108 10.0053 -0.0023 -10.6162 -0.0008
# 2 -15.4108 70.9644 -2.1138 0.0045 1.8114 0.0017
# 3 10.0053 -2.1138 93.8136 0.0067 -24.5996 0.0024
# 4 -0.0023 0.0045 0.0067 -12.3792 0.0019 -6.8895
# 5 -10.6162 1.8114 -24.5996 0.0019 26.6085 0.0000
# 6 -0.0008 0.0017 0.0024 -6.8895 0.0000 11.0232
#
#
#
# Elastic Compliance Matrix: (Units=1/GPa)
#
#
# Indices 1 2 3 4 5 6 
#
# 1 0.032899 0.006821 -0.000046 -0.000002 0.012619 0.000000
# 2 0.006821 0.015531 0.000078 0.000004 0.001736 0.000001
# 3 -0.000046 0.000078 0.014071 0.000008 0.012985 0.000002
# 4 -0.000002 0.000004 0.000008 -0.059933 0.000011 -0.037458
# 5 0.012619 0.001736 0.012985 0.000011 0.054503 0.000005
# 6 0.000000 0.000001 0.000002 -0.037458 0.000005 0.067306
#
#
# Mechanical properties :
#
#
# Convention : Reuss Voigt Hill
#
# Bulk Modulus (GPa) = 13.12234 20.82408 16.97321
# Shear Modulus (GPa) = 36.74478 19.04879 27.89678
#
# Velocity S-wave (km/s) = 4.06824 2.92915 3.54475
# Velocity P-wave (km/s) = 5.28942 4.56284 4.93951
#
# Compressibility (1/GPa) = 0.07620594
#
# Stress axis : x y z
#
# Youngs Moduli (GPa) = 30.39606 64.38804 71.06823
#
# Poissons Ratio (x) = -0.43919 0.00327
# Poissons Ratio (y) = -0.20733 -0.00552
# Poissons Ratio (z) = 0.00140 -0.00500
#
# Static dielectric constant tensor:
#      x y z
#    x 1.768740 0.000000 0.003470 
#    y 0.000000 1.858530 0.000000 
#    z 0.003470 0.000000 1.825570 
# 
# From -- ./inp_files/17258.got.cif
#   From: 2010.05.17/outbox.cif.g08.bks.cpg/sg8_9_cif.got.tgz:17258.got - 2010.06.03 19:46:02.
