data_PCOD9132227
_publ_section_title
;
Structure prediction by ZEFSAII (Michael W. Deem and Ramdas Pophale) SiO2 
 PCOD9132227
Probable space group: C M
;
_chemical_formula_sum "Si O2"
_cell_formula_units_Z 26
_cell_length_a 27.895343
_cell_length_b 7.302763
_cell_length_c 7.384398
_cell_angle_alpha 90.000000
_cell_angle_beta 39.749468
_cell_angle_gamma 90.000000
_cell_volume 961.896361
_symmetry_space_group_name_H-M "C M"
_symmetry_group_IT_number 8
_symmetry_cell_setting 'monoclinic'
loop_
_space_group_symop_operation_xyz
x,y,z
x,-y,z
1/2+x,1/2+y,z
1/2+x,1/2-y,z
loop_
_atom_site_type_symbol
_atom_site_label
_atom_site_fract_x
_atom_site_fract_y
_atom_site_fract_z
Si Si1 0.353600 0.776502 0.066630
Si Si2 0.191227 0.212106 0.636882
Si Si3 0.644017 0.208160 0.362045
Si Si4 0.307117 0.220868 0.801274
Si Si5 0.032931 0.295474 0.200610
Si Si6 0.438321 0.220733 0.146806
Si Si7 0.533191 0.500000 0.497608
O O1 0.276839 0.725883 0.395924
O O2 0.421747 0.704411 0.993890
O O3 0.356494 0.000000 0.054171
O O4 0.339348 0.717865 0.902783
O O5 0.170687 0.231827 0.484613
O O6 0.189352 0.000000 0.697995
O O7 0.122977 0.302280 0.940185
O O8 0.581967 0.341393 0.466365
O O9 0.615864 0.000000 0.451962
O O10 0.722148 0.214270 0.023569
O O11 0.366602 0.271139 0.476641
O O12 0.302964 0.000000 0.816117
O O13 0.001806 0.500000 0.318396
O O14 0.006503 0.158476 0.427783
O O15 0.007694 0.229897 0.073158
O O16 0.441090 0.000000 0.122005
#
# Coordination Sequence:
#
# PCOD9132227 Si02
#       7
#     4   4   4   4   4   4   2
#     4   8  16  31  60  91 116 162 212 250 320 378
#     4  10  19  39  66  92 129 167 209 269 319 380
#     4  11  22  39  65  98 124 164 216 267 324 379
#     4   9  17  35  62  91 128 163 204 264 320 380
#     4  11  24  41  63  94 129 170 219 260 313 385
#     4   9  19  36  60  88 127 170 209 258 315 381
#     4  12  24  42  62  88 138 168 208 264 332 376
#
# _framework density 27.029938999999999
#
# number of rings (size 3 to 8) (size 9 to 14) (size 15 to 20)
#    0.000    2.154    2.308    1.846    2.154    0.000 
#    4.154    0.000    8.462    0.000    0.000    0.000 
#    0.000    0.000    0.000    0.000    0.000    0.000 
#
# Total GULP energy -72604.319313 kJ/mol
# GULP energy per Si atom -5584.947639 kJ/mol
# Density = 2.696842 g / cm^3
# Si number density = 27.029939 Si / 1000 Ang^3
#
#
#
# Elastic Constant Matrix: (Units=GPa)
#
#
# Indices 1 2 3 4 5 6 
#
# 1 195.8123 19.2872 24.8744 0.0000 -13.0242 0.0000
# 2 19.2872 128.8968 -18.2102 0.0000 -2.4707 0.0000
# 3 24.8744 -18.2102 124.1952 0.0000 -10.7090 0.0000
# 4 0.0000 0.0000 0.0000 -65.0357 0.0000 1.4839
# 5 -13.0242 -2.4707 -10.7090 0.0000 43.8192 0.0000
# 6 0.0000 0.0000 0.0000 1.4839 0.0000 25.3877
#
#
#
# Elastic Compliance Matrix: (Units=1/GPa)
#
#
# Indices 1 2 3 4 5 6 
#
# 1 0.005427 -0.000945 -0.001115 0.000000 0.001287 0.000000
# 2 -0.000945 0.008111 0.001424 0.000000 0.000524 0.000000
# 3 -0.001115 0.001424 0.008644 0.000000 0.001862 0.000000
# 4 0.000000 0.000000 0.000000 -0.015356 0.000000 0.000898
# 5 0.001287 0.000524 0.001862 0.000000 0.023688 0.000000
# 6 0.000000 0.000000 0.000000 0.000898 0.000000 0.039337
#
#
# Mechanical properties :
#
#
# Convention : Reuss Voigt Hill
#
# Bulk Modulus (GPa) = 47.82195 55.64523 51.73359
# Shear Modulus (GPa) = 64.02611 29.03110 46.52861
#
# Velocity S-wave (km/s) = 4.87222 3.28080 4.15344
# Velocity P-wave (km/s) = 7.02723 5.91462 6.49480
#
# Compressibility (1/GPa) = 0.02091090
#
# Stress axis : x y z
#
# Youngs Moduli (GPa) = 184.25668 123.29365 115.68268
#
# Poissons Ratio (x) = 0.11650 0.12893
# Poissons Ratio (y) = 0.17410 -0.16470
# Poissons Ratio (z) = 0.20536 -0.17553
#
# Static dielectric constant tensor:
#      x y z
#    x 2.069370 0.000000 0.009990 
#    y 0.000000 2.009570 0.000000 
#    z 0.009990 0.000000 2.187420 
# 
# From -- ./inp_files/17311.got.cif
#   From: 2010.05.17/outbox.cif.g08.bks.cpg/sg8_9_cif.got.tgz:17311.got - 2010.06.03 19:46:02.
