data_PCOD9132316
_publ_section_title
;
Structure prediction by ZEFSAII (Michael W. Deem and Ramdas Pophale) SiO2 
 PCOD9132316
Probable space group: C M
;
_chemical_formula_sum "Si O2"
_cell_formula_units_Z 26
_cell_length_a 19.152863
_cell_length_b 7.278460
_cell_length_c 18.359961
_cell_angle_alpha 90.000000
_cell_angle_beta 21.498419
_cell_angle_gamma 90.000000
_cell_volume 937.972196
_symmetry_space_group_name_H-M "C M"
_symmetry_group_IT_number 8
_symmetry_cell_setting 'monoclinic'
loop_
_space_group_symop_operation_xyz
x,y,z
x,-y,z
1/2+x,1/2+y,z
1/2+x,1/2-y,z
loop_
_atom_site_type_symbol
_atom_site_label
_atom_site_fract_x
_atom_site_fract_y
_atom_site_fract_z
Si Si1 0.960960 0.719130 0.187430
Si Si2 0.384843 0.707584 0.577768
Si Si3 0.921427 0.780465 0.754125
Si Si4 0.338538 0.284967 0.989497
Si Si5 0.904645 0.277113 0.398266
Si Si6 0.973875 0.720114 0.020618
Si Si7 0.072082 0.500000 0.484308
O O1 0.929954 0.500000 0.215494
O O2 0.862282 0.784605 0.357206
O O3 0.189881 0.742639 0.972218
O O4 0.897722 0.801864 0.171082
O O5 0.436139 0.500000 0.545794
O O6 0.318251 0.715158 0.558233
O O7 0.198245 0.767064 0.803230
O O8 0.550801 0.842586 0.438480
O O9 0.021964 0.661144 0.595100
O O10 0.962767 0.000000 0.704906
O O11 0.958096 0.720915 0.803090
O O12 0.321659 0.500000 0.990400
O O13 0.123941 0.214041 0.195220
O O14 0.407885 0.266998 0.004194
O O15 0.889091 0.500000 0.413806
O O16 0.958058 0.500000 0.040573
#
# Coordination Sequence:
#
# PCOD9132316 Si02
#       7
#     4   4   4   4   4   4   2
#     4   8  15  32  56  78 110 147 189 238 272 326
#     4  11  23  37  56  89 117 148 192 240 282 338
#     4   9  18  34  53  84 113 143 188 240 279 332
#     4   9  20  35  58  85 118 149 187 237 285 340
#     4   9  18  37  59  80 111 153 192 232 289 342
#     4  10  20  34  56  85 117 149 192 239 281 331
#     4  12  20  32  62  82 112 148 194 232 290 336
#
# _framework density 27.719370999999999
#
# number of rings (size 3 to 8) (size 9 to 14) (size 15 to 20)
#    0.000    2.462    2.308    2.308    2.154    0.615 
#    4.154    0.000    3.385    0.000    0.000    0.000 
#    0.000    0.000    0.000    0.000    0.000    0.000 
#
# Total GULP energy -72521.974012 kJ/mol
# GULP energy per Si atom -5578.613386 kJ/mol
# Density = 2.765628 g / cm^3
# Si number density = 27.719371 Si / 1000 Ang^3
#
#
#
# Elastic Constant Matrix: (Units=GPa)
#
#
# Indices 1 2 3 4 5 6 
#
# 1 207.2123 22.8082 39.1280 -0.0006 36.2799 0.0000
# 2 22.8082 127.5789 -0.2184 0.0057 9.8588 0.0170
# 3 39.1280 -0.2184 109.5884 0.0059 39.1582 0.0204
# 4 -0.0006 0.0057 0.0059 34.2496 -0.0017 144.7960
# 5 36.2799 9.8588 39.1582 -0.0017 62.8468 -0.0063
# 6 0.0000 0.0170 0.0204 144.7960 -0.0063 299.0949
#
#
#
# Elastic Compliance Matrix: (Units=1/GPa)
#
#
# Indices 1 2 3 4 5 6 
#
# 1 0.005544 -0.000810 -0.001136 0.000000 -0.002366 0.000000
# 2 -0.000810 0.008083 0.000761 -0.000001 -0.001274 0.000000
# 3 -0.001136 0.000761 0.012016 -0.000002 -0.006950 0.000000
# 4 0.000000 -0.000001 -0.000002 -0.027895 0.000002 0.013505
# 5 -0.002366 -0.001274 -0.006950 0.000002 0.021808 0.000000
# 6 0.000000 0.000000 0.000000 0.013505 0.000000 -0.003194
#
#
# Mechanical properties :
#
#
# Convention : Reuss Voigt Hill
#
# Bulk Modulus (GPa) = 42.97066 63.09056 53.03061
# Shear Modulus (GPa) = 188.76503 104.74903 146.75703
#
# Velocity S-wave (km/s) = 8.26114 6.15395 7.28415
# Velocity P-wave (km/s) = 10.32138 8.56182 9.48250
#
# Compressibility (1/GPa) = 0.02327169
#
# Stress axis : x y z
#
# Youngs Moduli (GPa) = 180.38204 123.71780 83.22543
#
# Poissons Ratio (x) = 0.10024 0.09452
# Poissons Ratio (y) = 0.14615 -0.06331
# Poissons Ratio (z) = 0.20487 -0.09411
#
# Static dielectric constant tensor:
#      x y z
#    x 2.229620 0.000000 -0.064920 
#    y 0.000000 1.563630 0.000010 
#    z -0.064920 0.000010 2.228830 
# 
# From -- ./inp_files/29469.got.cif
#   From: 2010.05.17/outbox.cif.g08.bks.cpg/sg8_15_cif.got.tgz:29469.got - 2010.06.03 19:46:02.
