data_PCOD9132333
_publ_section_title
;
Structure prediction by ZEFSAII (Michael W. Deem and Ramdas Pophale) SiO2 
 PCOD9132333
Probable space group: C M
;
_chemical_formula_sum "Si O2"
_cell_formula_units_Z 32
_cell_length_a 8.463017
_cell_length_b 20.921766
_cell_length_c 14.573037
_cell_angle_alpha 90.000000
_cell_angle_beta 139.170463
_cell_angle_gamma 90.000000
_cell_volume 1687.041189
_symmetry_space_group_name_H-M "C M"
_symmetry_group_IT_number 8
_symmetry_cell_setting 'monoclinic'
loop_
_space_group_symop_operation_xyz
x,y,z
x,-y,z
1/2+x,1/2+y,z
1/2+x,1/2-y,z
loop_
_atom_site_type_symbol
_atom_site_label
_atom_site_fract_x
_atom_site_fract_y
_atom_site_fract_z
Si Si1 0.643860 0.072705 0.738790
Si Si2 0.038411 0.283464 0.146107
Si Si3 0.800593 0.652107 0.462028
Si Si4 0.884674 0.152518 0.146285
Si Si5 0.986177 0.189264 0.873137
Si Si6 0.961851 0.782042 0.465480
Si Si7 0.146271 0.810052 0.746496
Si Si8 0.986115 0.427638 0.876488
O O1 0.468719 0.100159 0.583254
O O2 0.857812 0.123741 0.843073
O O3 0.504816 0.073386 0.774639
O O4 0.721201 0.000000 0.754363
O O5 0.199784 0.309911 0.133463
O O6 0.198326 0.298849 0.306908
O O7 0.996978 0.206789 0.129204
O O8 0.767176 0.310346 0.024308
O O9 0.596222 0.626017 0.303984
O O10 0.948637 0.705522 0.470990
O O11 0.659867 0.691117 0.481254
O O12 0.735927 0.099534 0.027167
O O13 0.833777 0.250737 0.838735
O O14 0.976149 0.196102 0.758689
O O15 0.020836 0.807519 0.592544
O O16 0.285761 0.876716 0.816920
O O17 0.940517 0.500000 0.886930
#
# Coordination Sequence:
#
# PCOD9132333 Si02
#       8
#     4   4   4   4   4   4   4   4
#     4  11  25  41  58  82 117 159 198 242 291 345
#     4  10  20  35  56  89 119 144 185 236 293 340
#     4  10  20  37  59  86 120 148 191 236 295 346
#     4  10  21  36  58  89 116 152 187 241 291 346
#     4  12  22  36  61  88 117 152 192 242 291 348
#     4  10  20  34  58  89 117 145 184 239 290 339
#     4  12  21  36  61  89 115 149 195 239 292 344
#     4  11  23  39  57  82 115 155 200 241 287 344
#
# _framework density 18.968119999999999
#
# number of rings (size 3 to 8) (size 9 to 14) (size 15 to 20)
#    0.000    1.250    5.000    1.500    1.750    1.000 
#    0.000    0.000    0.000    0.750    0.000    0.000 
#    0.000    0.000    0.000    0.000    0.000    0.000 
#
# Total GULP energy -89354.405305 kJ/mol
# GULP energy per Si atom -5584.650332 kJ/mol
# Density = 1.892495 g / cm^3
# Si number density = 18.968120 Si / 1000 Ang^3
#
#
#
# Elastic Constant Matrix: (Units=GPa)
#
#
# Indices 1 2 3 4 5 6 
#
# 1 34.4702 15.1203 -7.9831 0.0000 6.6054 0.0000
# 2 15.1203 119.2139 31.3921 0.0000 6.9843 0.0000
# 3 -7.9831 31.3921 115.1857 0.0001 6.4740 0.0000
# 4 0.0000 0.0000 0.0001 19.1393 0.0000 1.4590
# 5 6.6054 6.9843 6.4740 0.0000 25.7596 0.0000
# 6 0.0000 0.0000 0.0000 1.4590 0.0000 23.5572
#
#
#
# Elastic Compliance Matrix: (Units=1/GPa)
#
#
# Indices 1 2 3 4 5 6 
#
# 1 0.033708 -0.004874 0.004135 0.000000 -0.008361 0.000000
# 2 -0.004874 0.009830 -0.002979 0.000000 -0.000667 0.000000
# 3 0.004135 -0.002979 0.009935 0.000000 -0.002749 0.000000
# 4 0.000000 0.000000 0.000000 0.052496 0.000000 -0.003251
# 5 -0.008361 -0.000667 -0.002749 0.000000 0.041836 0.000000
# 6 0.000000 0.000000 0.000000 -0.003251 0.000000 0.042651
#
#
# Mechanical properties :
#
#
# Convention : Reuss Voigt Hill
#
# Bulk Modulus (GPa) = 21.72257 38.43648 30.07952
# Shear Modulus (GPa) = 23.44776 29.04727 26.24751
#
# Velocity S-wave (km/s) = 3.51973 3.91752 3.72394
# Velocity P-wave (km/s) = 5.29103 6.38517 5.86367
#
# Compressibility (1/GPa) = 0.04603508
#
# Stress axis : x y z
#
# Youngs Moduli (GPa) = 29.66617 101.72835 100.65736
#
# Poissons Ratio (x) = 0.49585 -0.41617
# Poissons Ratio (y) = 0.14460 0.29990
# Poissons Ratio (z) = -0.12266 0.30309
#
# Static dielectric constant tensor:
#      x y z
#    x 1.669300 0.000000 -0.005120 
#    y 0.000000 1.630260 0.000000 
#    z -0.005120 0.000000 1.704590 
# 
# From -- ./inp_files/19077.got.cif
#   From: 2010.05.17/outbox.cif.g08.bks.cpg/sg8_10_cif.got.tgz:19077.got - 2010.06.03 19:46:02.
