data_PCOD9132137
_publ_section_title
;
Structure prediction by ZEFSAII (Michael W. Deem and Ramdas Pophale) SiO2 
 PCOD9132137
Probable space group: C M
;
_chemical_formula_sum "Si O2"
_cell_formula_units_Z 32
_cell_length_a 25.927286
_cell_length_b 7.933661
_cell_length_c 24.597136
_cell_angle_alpha 90.000000
_cell_angle_beta 17.332710
_cell_angle_gamma 90.000000
_cell_volume 1507.352230
_symmetry_space_group_name_H-M "C M"
_symmetry_group_IT_number 8
_symmetry_cell_setting 'monoclinic'
loop_
_space_group_symop_operation_xyz
x,y,z
x,-y,z
1/2+x,1/2+y,z
1/2+x,1/2-y,z
loop_
_atom_site_type_symbol
_atom_site_label
_atom_site_fract_x
_atom_site_fract_y
_atom_site_fract_z
Si Si1 0.879050 0.801442 0.719010
Si Si2 0.840191 0.792517 0.879770
Si Si3 0.163041 0.693993 0.762970
Si Si4 0.124888 0.795800 0.681366
Si Si5 0.512981 0.803143 0.271446
Si Si6 0.041382 0.808059 0.999207
Si Si7 0.074415 0.197982 0.327437
Si Si8 0.170998 0.800153 0.345252
O O1 0.884433 0.733398 0.774706
O O2 0.016871 0.728526 0.537403
O O3 0.919508 0.000000 0.682598
O O4 0.688781 0.781917 0.885643
O O5 0.983755 0.742366 0.779432
O O6 0.836943 0.000000 0.882825
O O7 0.651446 0.732928 0.089685
O O8 0.123013 0.500000 0.816572
O O9 0.085724 0.737775 0.782056
O O10 0.370443 0.711314 0.547916
O O11 0.099053 0.799756 0.878145
O O12 0.318365 0.731891 0.471143
O O13 0.129947 0.000000 0.677411
O O14 0.595410 0.787569 0.248727
O O15 0.491750 0.000000 0.279805
O O16 0.852986 0.726486 0.190950
O O17 0.030628 0.000000 0.028127
O O18 0.172439 0.266574 0.281850
O O19 0.114808 0.000000 0.278219
O O20 0.138230 0.000000 0.371195
#
# Coordination Sequence:
#
# PCOD9132137 Si02
#       8
#     4   4   4   4   4   4   4   4
#     4  10  21  42  65  85 114 156 201 246 288 340
#     4   9  19  35  59  85 110 145 194 238 280 340
#     4  10  19  36  59  84 116 153 194 238 287 347
#     4   9  18  33  52  82 118 149 183 231 288 342
#     4   9  18  32  52  82 116 148 181 226 283 340
#     4  12  25  38  57  87 120 155 192 242 300 352
#     4   9  18  34  56  83 115 149 188 235 284 339
#     4  10  21  38  60  86 115 153 199 242 288 348
#
# _framework density 21.229278999999998
#
# number of rings (size 3 to 8) (size 9 to 14) (size 15 to 20)
#    0.000    2.250    1.250    1.500    1.750    2.500 
#    0.000    5.000    0.000    3.000    0.000    0.000 
#    0.000    0.000    0.000    0.000    0.000    0.000 
#
# Total GULP energy -89342.402805 kJ/mol
# GULP energy per Si atom -5583.900175 kJ/mol
# Density = 2.118096 g / cm^3
# Si number density = 21.229279 Si / 1000 Ang^3
#
#
#
# Elastic Constant Matrix: (Units=GPa)
#
#
# Indices 1 2 3 4 5 6 
#
# 1 81.0830 -11.5469 15.1551 0.0009 -5.8727 -0.0028
# 2 -11.5469 18.2742 -9.6689 -0.0435 5.8965 0.0159
# 3 15.1551 -9.6689 38.9236 -0.0361 -8.4796 0.0143
# 4 0.0009 -0.0435 -0.0361 6.0655 0.0114 1.2600
# 5 -5.8727 5.8965 -8.4796 0.0114 24.6472 -0.0014
# 6 -0.0028 0.0159 0.0143 1.2600 -0.0014 12.9748
#
#
#
# Elastic Compliance Matrix: (Units=1/GPa)
#
#
# Indices 1 2 3 4 5 6 
#
# 1 0.014017 0.006764 -0.003678 0.000024 0.000456 -0.000003
# 2 0.006764 0.068873 0.012148 0.000617 -0.010686 -0.000157
# 3 -0.003678 0.012148 0.031693 0.000279 0.007121 -0.000077
# 4 0.000024 0.000617 0.000279 0.168267 -0.000124 -0.016342
# 5 0.000456 -0.010686 0.007121 -0.000124 0.045688 0.000022
# 6 -0.000003 -0.000157 -0.000077 -0.016342 0.000022 0.078660
#
#
# Mechanical properties :
#
#
# Convention : Reuss Voigt Hill
#
# Bulk Modulus (GPa) = 6.89424 14.01771 10.45598
# Shear Modulus (GPa) = 11.76252 18.36029 15.06140
#
# Velocity S-wave (km/s) = 2.35642 2.94404 2.66647
# Velocity P-wave (km/s) = 3.26469 4.26307 3.79684
#
# Compressibility (1/GPa) = 0.14504861
#
# Stress axis : x y z
#
# Youngs Moduli (GPa) = 71.34334 14.51950 31.55319
#
# Poissons Ratio (x) = -0.09820 0.11605
# Poissons Ratio (y) = -0.48254 -0.38329
# Poissons Ratio (z) = 0.26240 -0.17638
#
# Static dielectric constant tensor:
#      x y z
#    x 1.747100 -0.000010 0.004960 
#    y -0.000010 1.777480 0.000010 
#    z 0.004960 0.000010 1.776690 
# 
# From -- ./inp_files/32358.got.cif
#   From: 2010.05.17/outbox.cif.g08.bks.cpg/sg8_17_cif.got.tgz:32358.got - 2010.06.03 19:46:02.
