data_PCOD9132861
_publ_section_title
;
Structure prediction by ZEFSAII (Michael W. Deem and Ramdas Pophale) SiO2 
 PCOD9132861
Probable space group: C M
;
_chemical_formula_sum "Si O2"
_cell_formula_units_Z 32
_cell_length_a 7.846159
_cell_length_b 21.498479
_cell_length_c 11.281126
_cell_angle_alpha 90.000000
_cell_angle_beta 128.408336
_cell_angle_gamma 90.000000
_cell_volume 1491.122841
_symmetry_space_group_name_H-M "C M"
_symmetry_group_IT_number 8
_symmetry_cell_setting 'monoclinic'
loop_
_space_group_symop_operation_xyz
x,y,z
x,-y,z
1/2+x,1/2+y,z
1/2+x,1/2-y,z
loop_
_atom_site_type_symbol
_atom_site_label
_atom_site_fract_x
_atom_site_fract_y
_atom_site_fract_z
Si Si1 0.089320 0.701274 0.813800
Si Si2 0.138694 0.926958 0.951306
Si Si3 0.963862 0.129527 0.116256
Si Si4 0.077852 0.817828 0.557303
Si Si5 0.406596 0.428121 0.343508
Si Si6 0.395938 0.676176 0.734534
Si Si7 0.302047 0.764774 0.261128
Si Si8 0.022838 0.347292 0.156155
O O1 0.186329 0.695002 0.721971
O O2 0.831877 0.687970 0.700508
O O3 0.083013 0.773368 0.854530
O O4 0.251599 0.658736 0.959835
O O5 0.085745 0.908992 0.064830
O O6 0.351920 0.887270 0.009017
O O7 0.160353 0.000000 0.944355
O O8 0.951444 0.893927 0.794809
O O9 0.120996 0.185813 0.227456
O O10 0.917618 0.085834 0.207726
O O11 0.420063 0.680291 0.603931
O O12 0.067377 0.882540 0.481536
O O13 0.972529 0.764455 0.427846
O O14 0.434357 0.500000 0.381005
O O15 0.173473 0.400110 0.279294
O O16 0.173205 0.704055 0.157520
O O17 0.418788 0.805019 0.212317
#
# Coordination Sequence:
#
# PCOD9132861 Si02
#       8
#     4   4   4   4   4   4   4   4
#     4  11  24  42  67 105 132 171 229 287 357 404
#     4  10  22  42  64  95 131 179 225 272 338 405
#     4  10  23  42  70  95 133 171 227 290 337 400
#     4  11  26  43  69  97 141 177 221 283 351 416
#     4  11  25  43  63  95 133 179 229 273 335 415
#     4  11  24  39  68  96 139 171 220 284 341 417
#     4  10  21  39  63  99 131 165 217 278 353 394
#     4  10  21  36  64  92 128 169 216 279 332 403
#
# _framework density 21.460339000000001
#
# number of rings (size 3 to 8) (size 9 to 14) (size 15 to 20)
#    0.000    1.500    1.250    3.000    7.000    4.500 
#    4.500    3.125    0.000    0.000    0.000    0.000 
#    0.000    0.000    0.000    0.000    0.000    0.000 
#
# Total GULP energy -89290.200853 kJ/mol
# GULP energy per Si atom -5580.637553 kJ/mol
# Density = 2.141149 g / cm^3
# Si number density = 21.460339 Si / 1000 Ang^3
#
#
#
# Elastic Constant Matrix: (Units=GPa)
#
#
# Indices 1 2 3 4 5 6 
#
# 1 110.6932 32.6054 40.0379 0.0000 -5.4299 0.0000
# 2 32.6054 163.5502 48.4081 0.0000 10.9925 0.0000
# 3 40.0379 48.4081 66.1340 0.0000 -1.1033 0.0000
# 4 0.0000 0.0000 0.0000 25.8079 0.0000 -4.2638
# 5 -5.4299 10.9925 -1.1033 0.0000 37.8103 0.0000
# 6 0.0000 0.0000 0.0000 -4.2638 0.0000 24.8552
#
#
#
# Elastic Compliance Matrix: (Units=1/GPa)
#
#
# Indices 1 2 3 4 5 6 
#
# 1 0.011673 -0.000449 -0.006711 0.000000 0.001611 0.000000
# 2 -0.000449 0.008054 -0.005666 0.000000 -0.002571 0.000000
# 3 -0.006711 -0.005666 0.023354 0.000000 0.001365 0.000000
# 4 0.000000 0.000000 0.000000 0.039878 0.000000 0.006841
# 5 0.001611 -0.002571 0.001365 0.000000 0.027467 0.000000
# 6 0.000000 0.000000 0.000000 0.006841 0.000000 0.041407
#
#
# Mechanical properties :
#
#
# Convention : Reuss Voigt Hill
#
# Bulk Modulus (GPa) = 57.37961 64.72001 61.04981
# Shear Modulus (GPa) = 27.27860 32.31641 29.79751
#
# Velocity S-wave (km/s) = 3.56914 3.88476 3.73029
# Velocity P-wave (km/s) = 6.61669 7.09544 6.86024
#
# Compressibility (1/GPa) = 0.01742779
#
# Stress axis : x y z
#
# Youngs Moduli (GPa) = 85.66988 124.16567 42.81896
#
# Poissons Ratio (x) = 0.05574 0.28737
# Poissons Ratio (y) = 0.03846 0.24262
# Poissons Ratio (z) = 0.57495 0.70355
#
# Static dielectric constant tensor:
#      x y z
#    x 1.888060 0.000000 0.014790 
#    y 0.000000 1.761810 0.000000 
#    z 0.014790 0.000000 1.826080 
# 
# From -- ./inp_files/19277.got.cif
#   From: 2010.05.17/outbox.cif.g08.bks.cpg/sg8_10_cif.got.tgz:19277.got - 2010.06.03 19:46:02.
