data_PCOD9132094
_publ_section_title
;
Structure prediction by ZEFSAII (Michael W. Deem and Ramdas Pophale) SiO2 
 PCOD9132094
Probable space group: C M
;
_chemical_formula_sum "Si O2"
_cell_formula_units_Z 28
_cell_length_a 14.389844
_cell_length_b 9.724257
_cell_length_c 13.739241
_cell_angle_alpha 90.000000
_cell_angle_beta 140.365116
_cell_angle_gamma 90.000000
_cell_volume 1226.374428
_symmetry_space_group_name_H-M "C M"
_symmetry_group_IT_number 8
_symmetry_cell_setting 'monoclinic'
loop_
_space_group_symop_operation_xyz
x,y,z
x,-y,z
1/2+x,1/2+y,z
1/2+x,1/2-y,z
loop_
_atom_site_type_symbol
_atom_site_label
_atom_site_fract_x
_atom_site_fract_y
_atom_site_fract_z
Si Si1 0.450580 0.353654 0.380580
Si Si2 0.553175 0.339968 0.155920
Si Si3 0.041734 0.338081 0.960669
Si Si4 0.769592 0.733699 0.619672
Si Si5 0.703262 0.845414 0.885269
Si Si6 0.042745 0.648223 0.325616
Si Si7 0.969792 0.163051 0.619572
O O1 0.388004 0.500000 0.297558
O O2 0.628702 0.363162 0.517352
O O3 0.417662 0.227921 0.283385
O O4 0.418618 0.329638 0.467134
O O5 0.601563 0.500000 0.196647
O O6 0.592871 0.255260 0.091396
O O7 0.376870 0.340239 0.020551
O O8 0.596087 0.250006 0.284323
O O9 0.029257 0.500000 0.976307
O O10 0.882243 0.282239 0.797808
O O11 0.143252 0.328105 0.946867
O O12 0.670649 0.863688 0.509568
O O13 0.876931 0.735531 0.613421
O O14 0.630391 0.726206 0.762023
O O15 0.658647 0.000000 0.816765
O O16 0.002556 0.500000 0.254419
O O17 0.964580 0.000000 0.643208
#
# Coordination Sequence:
#
# PCOD9132094 Si02
#       7
#     4   4   4   4   4   4   4
#     4   9  19  35  56  82 113 148 187 229 284 335
#     4  11  23  40  60  83 117 154 193 238 288 340
#     4  10  20  38  63  87 115 150 191 233 289 344
#     4   9  20  35  61  86 118 145 188 234 284 334
#     4   9  21  38  56  84 116 151 188 235 285 339
#     4  10  22  39  59  83 117 154 193 236 286 341
#     4  10  19  35  59  87 114 150 190 233 284 341
#
# _framework density 22.831526
#
# number of rings (size 3 to 8) (size 9 to 14) (size 15 to 20)
#    0.857    1.429    0.000    2.571    0.000    6.286 
#    2.571    0.000    0.000    0.000    0.000    0.000 
#    0.000    0.000    0.000    0.000    0.000    0.000 
#
# Total GULP energy -77934.141987 kJ/mol
# GULP energy per Si atom -5566.724428 kJ/mol
# Density = 2.277956 g / cm^3
# Si number density = 22.831526 Si / 1000 Ang^3
#
#
#
# Elastic Constant Matrix: (Units=GPa)
#
#
# Indices 1 2 3 4 5 6 
#
# 1 80.7970 18.8063 12.0509 0.0000 -6.7147 0.0000
# 2 18.8063 138.4187 59.2048 0.0000 -28.6279 0.0000
# 3 12.0509 59.2048 75.7398 0.0000 -3.6056 0.0000
# 4 0.0000 0.0000 0.0000 20.2154 0.0000 7.2753
# 5 -6.7147 -28.6279 -3.6056 0.0000 36.4100 0.0000
# 6 0.0000 0.0000 0.0000 7.2753 0.0000 -36.2796
#
#
#
# Elastic Compliance Matrix: (Units=1/GPa)
#
#
# Indices 1 2 3 4 5 6 
#
# 1 0.012904 -0.000877 -0.001293 0.000000 0.001562 0.000000
# 2 -0.000877 0.013618 -0.010051 0.000000 0.009550 0.000000
# 3 -0.001293 -0.010051 0.020977 0.000000 -0.006064 0.000000
# 4 0.000000 0.000000 0.000000 0.046137 0.000000 0.009252
# 5 0.001562 0.009550 -0.006064 0.000000 0.034661 0.000000
# 6 0.000000 0.000000 0.000000 0.009252 0.000000 -0.025708
#
#
# Mechanical properties :
#
#
# Convention : Reuss Voigt Hill
#
# Bulk Modulus (GPa) = 43.37205 52.78660 48.07933
# Shear Modulus (GPa) = 37.11541 17.72874 27.42208
#
# Velocity S-wave (km/s) = 4.03627 2.78960 3.46939
# Velocity P-wave (km/s) = 6.38434 5.79190 6.09532
#
# Compressibility (1/GPa) = 0.02305632
#
# Stress axis : x y z
#
# Youngs Moduli (GPa) = 77.49827 73.43456 47.67228
#
# Poissons Ratio (x) = 0.06440 0.06165
# Poissons Ratio (y) = 0.06796 0.47913
# Poissons Ratio (z) = 0.10022 0.73805
#
# Static dielectric constant tensor:
#      x y z
#    x 1.927700 0.000000 0.061120 
#    y 0.000000 1.975160 0.000000 
#    z 0.061120 0.000000 1.918720 
# 
# From -- ./inp_files/21622.got.cif
#   From: 2010.05.17/outbox.cif.g08.bks.cpg/sg8_11_cif.got.tgz:21622.got - 2010.06.03 19:46:02.
