data_PCOD9132290
_publ_section_title
;
Structure prediction by ZEFSAII (Michael W. Deem and Ramdas Pophale) SiO2 
 PCOD9132290
Probable space group: C M
;
_chemical_formula_sum "Si O2"
_cell_formula_units_Z 32
_cell_length_a 20.546396
_cell_length_b 8.666173
_cell_length_c 14.555671
_cell_angle_alpha 90.000000
_cell_angle_beta 44.960934
_cell_angle_gamma 90.000000
_cell_volume 1831.403013
_symmetry_space_group_name_H-M "C M"
_symmetry_group_IT_number 8
_symmetry_cell_setting 'monoclinic'
loop_
_space_group_symop_operation_xyz
x,y,z
x,-y,z
1/2+x,1/2+y,z
1/2+x,1/2-y,z
loop_
_atom_site_type_symbol
_atom_site_label
_atom_site_fract_x
_atom_site_fract_y
_atom_site_fract_z
Si Si1 0.635020 0.813202 0.781270
Si Si2 0.778511 0.813258 0.272268
Si Si3 0.138806 0.312869 0.567982
Si Si4 0.127643 0.685149 0.080862
Si Si5 0.491457 0.685197 0.066800
Si Si6 0.129318 0.183858 0.283888
Si Si7 0.489197 0.815259 0.569882
Si Si8 0.285325 0.685358 0.780769
O O1 0.640316 0.758778 0.671090
O O2 0.725714 0.773605 0.749918
O O3 0.627102 0.000000 0.791007
O O4 0.548706 0.744080 0.921985
O O5 0.725792 0.766715 0.418618
O O6 0.884897 0.767293 0.167268
O O7 0.719403 0.744430 0.247978
O O8 0.773655 0.000000 0.270492
O O9 0.139703 0.500000 0.570704
O O10 0.048273 0.267364 0.600799
O O11 0.123403 0.500000 0.087921
O O12 0.127047 0.751960 0.183248
O O13 0.043130 0.746959 0.104081
O O14 0.220522 0.728257 0.931895
O O15 0.495369 0.500000 0.067135
O O16 0.042248 0.243703 0.429888
O O17 0.129059 0.000000 0.282896
O O18 0.384442 0.762577 0.681835
O O19 0.494745 0.000000 0.557106
O O20 0.296702 0.500000 0.770392
#
# Coordination Sequence:
#
# PCOD9132290 Si02
#       8
#     4   4   4   4   4   4   4   4
#     4   9  18  34  54  75 103 139 176 217 265 313
#     4   9  19  36  55  77 107 141 177 220 268 314
#     4   8  16  33  54  73  96 132 175 212 254 309
#     4  10  21  38  57  78 109 144 178 222 273 320
#     4  10  20  34  54  80 108 139 177 220 264 316
#     4  11  22  36  56  80 107 141 183 226 266 318
#     4  10  20  35  55  78 107 140 174 219 271 320
#     4   9  19  34  53  77 105 138 174 216 265 318
#
# _framework density 17.472942
#
# number of rings (size 3 to 8) (size 9 to 14) (size 15 to 20)
#    0.000    2.500    0.000    3.750    0.000    5.500 
#    0.000    8.125    0.000    0.000    0.000    0.000 
#    0.000    0.000    0.000    0.000    0.000    0.000 
#
# Total GULP energy -89267.784513 kJ/mol
# GULP energy per Si atom -5579.236532 kJ/mol
# Density = 1.743317 g / cm^3
# Si number density = 17.472942 Si / 1000 Ang^3
#
#
#
# Elastic Constant Matrix: (Units=GPa)
#
#
# Indices 1 2 3 4 5 6 
#
# 1 358.4887 130.2428 355.6057 0.0009 7.9505 -0.0010
# 2 130.2428 79.4594 134.6440 0.0003 -2.1974 -0.0003
# 3 355.6057 134.6440 375.5855 0.0009 0.3735 -0.0010
# 4 0.0009 0.0003 0.0009 30.2122 0.0000 -4.1103
# 5 7.9505 -2.1974 0.3735 0.0000 44.2490 0.0000
# 6 -0.0010 -0.0003 -0.0010 -4.1103 0.0000 27.2567
#
#
#
# Elastic Compliance Matrix: (Units=1/GPa)
#
#
# Indices 1 2 3 4 5 6 
#
# 1 0.049569 -0.005044 -0.045115 0.000000 -0.008776 0.000000
# 2 -0.005044 0.032701 -0.006949 0.000000 0.002589 0.000000
# 3 -0.045115 -0.006949 0.047862 0.000000 0.007357 0.000000
# 4 0.000000 0.000000 0.000000 0.033792 0.000000 0.005096
# 5 -0.008776 0.002589 0.007357 0.000000 0.024243 0.000000
# 6 0.000000 0.000000 0.000000 0.005096 0.000000 0.037457
#
#
# Mechanical properties :
#
#
# Convention : Reuss Voigt Hill
#
# Bulk Modulus (GPa) = 62.83914 228.27986 145.55950
# Shear Modulus (GPa) = 14.48665 33.21300 23.84983
#
# Velocity S-wave (km/s) = 2.88252 4.36457 3.69854
# Velocity P-wave (km/s) = 6.86442 12.50322 10.08590
#
# Compressibility (1/GPa) = 0.01591365
#
# Stress axis : x y z
#
# Youngs Moduli (GPa) = 20.17392 30.58024 20.89361
#
# Poissons Ratio (x) = 0.15426 0.94261
# Poissons Ratio (y) = 0.10176 0.14520
# Poissons Ratio (z) = 0.91015 0.21252
#
# Static dielectric constant tensor:
#      x y z
#    x 1.575120 0.000000 0.003950 
#    y 0.000000 1.590440 0.000000 
#    z 0.003950 0.000000 1.574640 
# 
# From -- ./inp_files/27761.got.cif
#   From: 2010.05.17/outbox.cif.g08.bks.cpg/sg8_14_cif.got.tgz:27761.got - 2010.06.03 19:46:02.
