data_PCOD9132050
_publ_section_title
;
Structure prediction by ZEFSAII (Michael W. Deem and Ramdas Pophale) SiO2 
 PCOD9132050
Probable space group: C M
;
_chemical_formula_sum "Si O2"
_cell_formula_units_Z 32
_cell_length_a 14.273709
_cell_length_b 13.747957
_cell_length_c 12.404255
_cell_angle_alpha 90.000000
_cell_angle_beta 149.702961
_cell_angle_gamma 90.000000
_cell_volume 1227.982643
_symmetry_space_group_name_H-M "C M"
_symmetry_group_IT_number 8
_symmetry_cell_setting 'monoclinic'
loop_
_space_group_symop_operation_xyz
x,y,z
x,-y,z
1/2+x,1/2+y,z
1/2+x,1/2-y,z
loop_
_atom_site_type_symbol
_atom_site_label
_atom_site_fract_x
_atom_site_fract_y
_atom_site_fract_z
Si Si1 0.526750 0.105350 0.188430
Si Si2 0.980488 0.888248 0.664578
Si Si3 0.635161 0.738832 0.420246
Si Si4 0.069993 0.610501 0.538622
Si Si5 0.480477 0.385496 0.436577
Si Si6 0.942627 0.385480 0.646629
Si Si7 0.566814 0.818341 0.007089
Si Si8 0.629770 0.612735 0.045264
O O1 0.753496 0.109827 0.433543
O O2 0.473791 0.203278 0.197533
O O3 0.463933 0.000000 0.166919
O O4 0.487644 0.115210 0.024028
O O5 0.054641 0.848521 0.625222
O O6 0.071380 0.855733 0.865536
O O7 0.036034 0.000000 0.718257
O O8 0.667191 0.813713 0.553481
O O9 0.594036 0.641416 0.445136
O O10 0.783658 0.697442 0.482006
O O11 0.135352 0.500000 0.580874
O O12 0.073825 0.625925 0.671723
O O13 0.849354 0.613196 0.289188
O O14 0.448451 0.500000 0.411806
O O15 0.286724 0.332402 0.229547
O O16 0.886264 0.500000 0.587050
O O17 0.014954 0.359105 0.838135
O O18 0.538559 0.705563 0.013151
O O19 0.569831 0.500000 0.004887
#
# Coordination Sequence:
#
# PCOD9132050 Si02
#       8
#     4   4   4   4   4   4   4   4
#     4  10  21  39  63  94 128 167 219 274 326 395
#     4   8  17  35  62  88 120 164 208 263 319 377
#     4  12  23  39  66  96 129 170 223 279 335 391
#     4  10  23  44  66  95 136 178 221 278 344 404
#     4  10  21  39  63  93 128 167 220 272 328 397
#     4  11  25  45  69  96 136 182 225 277 340 406
#     4  11  21  41  69  94 129 180 221 266 338 401
#     4  10  19  34  61  98 130 166 218 267 325 395
#
# _framework density 26.059002
#
# number of rings (size 3 to 8) (size 9 to 14) (size 15 to 20)
#    0.000    1.750    1.250    4.125    3.500    0.000 
#    4.500    1.250    0.000    0.000    0.000    0.000 
#    0.000    0.000    0.000    0.000    0.000    0.000 
#
# Total GULP energy -89278.799670 kJ/mol
# GULP energy per Si atom -5579.924979 kJ/mol
# Density = 2.599969 g / cm^3
# Si number density = 26.059002 Si / 1000 Ang^3
#
#
#
# Elastic Constant Matrix: (Units=GPa)
#
#
# Indices 1 2 3 4 5 6 
#
# 1 86.1540 19.0202 22.9523 0.0000 -18.1562 0.0000
# 2 19.0202 199.9239 -0.9069 0.0000 -6.3228 0.0000
# 3 22.9523 -0.9069 103.6003 0.0000 -18.1286 0.0000
# 4 0.0000 0.0000 0.0000 5.0241 0.0000 -32.2851
# 5 -18.1562 -6.3228 -18.1286 0.0000 52.4958 0.0000
# 6 0.0000 0.0000 0.0000 -32.2851 0.0000 5.9239
#
#
#
# Elastic Compliance Matrix: (Units=1/GPa)
#
#
# Indices 1 2 3 4 5 6 
#
# 1 0.013245 -0.001155 -0.002307 0.000000 0.003645 0.000000
# 2 -0.001155 0.005124 0.000361 0.000000 0.000342 0.000000
# 3 -0.002307 0.000361 0.010680 0.000000 0.002934 0.000000
# 4 0.000000 0.000000 0.000000 -0.005850 0.000000 -0.031884
# 5 0.003645 0.000342 0.002934 0.000000 0.021364 0.000000
# 6 0.000000 0.000000 0.000000 -0.031884 0.000000 -0.004962
#
#
# Mechanical properties :
#
#
# Convention : Reuss Voigt Hill
#
# Bulk Modulus (GPa) = 43.76981 52.42325 48.09653
# Shear Modulus (GPa) = 93.59928 35.92961 64.76445
#
# Velocity S-wave (km/s) = 5.99968 3.71722 4.99069
# Velocity P-wave (km/s) = 8.05157 6.21164 7.19070
#
# Compressibility (1/GPa) = 0.02284680
#
# Stress axis : x y z
#
# Youngs Moduli (GPa) = 75.50095 195.14979 93.63260
#
# Poissons Ratio (x) = 0.22545 0.21597
# Poissons Ratio (y) = 0.08722 -0.03377
# Poissons Ratio (z) = 0.17415 -0.07039
#
# Static dielectric constant tensor:
#      x y z
#    x 2.134760 0.000000 0.025770 
#    y 0.000000 2.166960 0.000000 
#    z 0.025770 0.000000 2.142460 
# 
# From -- ./inp_files/22238.got.cif
#   From: 2010.05.17/outbox.cif.g08.bks.cpg/sg8_12_cif.got.tgz:22238.got - 2010.06.03 19:46:02.
