data_PCOD9132199
_publ_section_title
;
Structure prediction by ZEFSAII (Michael W. Deem and Ramdas Pophale) SiO2 
 PCOD9132199
Probable space group: C M
;
_chemical_formula_sum "Si O2"
_cell_formula_units_Z 26
_cell_length_a 14.275221
_cell_length_b 7.573229
_cell_length_c 9.685857
_cell_angle_alpha 90.000000
_cell_angle_beta 68.808605
_cell_angle_gamma 90.000000
_cell_volume 976.324185
_symmetry_space_group_name_H-M "C M"
_symmetry_group_IT_number 8
_symmetry_cell_setting 'monoclinic'
loop_
_space_group_symop_operation_xyz
x,y,z
x,-y,z
1/2+x,1/2+y,z
1/2+x,1/2-y,z
loop_
_atom_site_type_symbol
_atom_site_label
_atom_site_fract_x
_atom_site_fract_y
_atom_site_fract_z
Si Si1 0.950450 0.791048 0.284150
Si Si2 0.654377 0.188732 0.076691
Si Si3 0.301525 0.000000 0.985016
Si Si4 0.892043 0.791554 0.607592
Si Si5 0.665558 0.294914 0.674409
Si Si6 0.963535 0.789879 0.882755
Si Si7 0.718958 0.714345 0.346049
O O1 0.953585 0.725782 0.441850
O O2 0.836239 0.756771 0.302409
O O3 0.034410 0.709846 0.141694
O O4 0.971452 0.000000 0.271848
O O5 0.677792 0.202091 0.229423
O O6 0.688965 0.000000 0.004704
O O7 0.718825 0.348087 0.985785
O O8 0.382136 0.843271 0.986308
O O9 0.780052 0.716010 0.661867
O O10 0.940335 0.767151 0.730102
O O11 0.880781 0.000000 0.591649
O O12 0.638646 0.500000 0.672792
O O13 0.579891 0.227545 0.822607
O O14 0.667306 0.225131 0.516037
O O15 0.951647 0.000000 0.927221
O O16 0.709233 0.500000 0.333895
#
# Coordination Sequence:
#
# PCOD9132199 Si02
#       7
#     4   4   2   4   4   4   4
#     4  10  19  37  63  98 132 159 196 254 314 373
#     4  12  24  42  65  88 124 165 214 254 309 363
#     4  12  26  44  64  82 120 166 222 258 296 354
#     4   9  19  35  62  95 129 155 193 250 310 371
#     4   9  19  35  62  95 129 155 193 250 310 371
#     4  10  22  42  63  86 124 163 206 250 307 359
#     4  10  19  37  63  98 132 159 196 254 314 373
#
# _framework density 26.630499
#
# number of rings (size 3 to 8) (size 9 to 14) (size 15 to 20)
#    0.000    1.846    1.538    2.308    2.154    3.692 
#    2.769    1.538    0.000    0.000    0.000    0.000 
#    0.000    0.000    0.000    0.000    0.000    0.000 
#
# Total GULP energy -72585.905351 kJ/mol
# GULP energy per Si atom -5583.531181 kJ/mol
# Density = 2.656989 g / cm^3
# Si number density = 26.630499 Si / 1000 Ang^3
#
#
#
# Elastic Constant Matrix: (Units=GPa)
#
#
# Indices 1 2 3 4 5 6 
#
# 1 97.5471 16.0426 20.4818 0.0000 -30.5150 0.0000
# 2 16.0426 143.9929 18.2250 0.0000 -10.8899 0.0000
# 3 20.4818 18.2250 115.2497 0.0000 -3.9015 0.0000
# 4 0.0000 0.0000 0.0000 13.1299 0.0000 -16.9509
# 5 -30.5150 -10.8899 -3.9015 0.0000 41.5790 0.0000
# 6 0.0000 0.0000 0.0000 -16.9509 0.0000 27.3531
#
#
#
# Elastic Compliance Matrix: (Units=1/GPa)
#
#
# Indices 1 2 3 4 5 6 
#
# 1 0.013843 -0.000541 -0.002042 0.000000 0.009826 0.000000
# 2 -0.000541 0.007238 -0.001001 0.000000 0.001405 0.000000
# 3 -0.002042 -0.001001 0.009168 0.000000 -0.000901 0.000000
# 4 0.000000 0.000000 0.000000 0.380906 0.000000 0.236050
# 5 0.009826 0.001405 -0.000901 0.000000 0.031546 0.000000
# 6 0.000000 0.000000 0.000000 0.236050 0.000000 0.182841
#
#
# Mechanical properties :
#
#
# Convention : Reuss Voigt Hill
#
# Bulk Modulus (GPa) = 43.32516 51.80982 47.56749
# Shear Modulus (GPa) = 7.80760 36.54841 22.17800
#
# Velocity S-wave (km/s) = 1.71411 3.70865 2.88897
# Velocity P-wave (km/s) = 4.49688 6.15110 5.38785
#
# Compressibility (1/GPa) = 0.02308127
#
# Stress axis : x y z
#
# Youngs Moduli (GPa) = 72.23862 138.16031 109.08093
#
# Poissons Ratio (x) = 0.07470 0.22274
# Poissons Ratio (y) = 0.03906 0.10918
# Poissons Ratio (z) = 0.14751 0.13829
#
# Static dielectric constant tensor:
#      x y z
#    x 2.098040 0.000000 0.064140 
#    y 0.000000 1.991530 0.000000 
#    z 0.064140 0.000000 2.212000 
# 
# From -- ./inp_files/21265.got.cif
#   From: 2010.05.17/outbox.cif.g08.bks.cpg/sg8_11_cif.got.tgz:21265.got - 2010.06.03 19:46:02.
