data_PCOD9132831
_publ_section_title
;
Structure prediction by ZEFSAII (Michael W. Deem and Ramdas Pophale) SiO2 
 PCOD9132831
Probable space group: C M
;
_chemical_formula_sum "Si O2"
_cell_formula_units_Z 32
_cell_length_a 22.934019
_cell_length_b 8.774547
_cell_length_c 11.475480
_cell_angle_alpha 90.000000
_cell_angle_beta 131.179747
_cell_angle_gamma 90.000000
_cell_volume 1738.070825
_symmetry_space_group_name_H-M "C M"
_symmetry_group_IT_number 8
_symmetry_cell_setting 'monoclinic'
loop_
_space_group_symop_operation_xyz
x,y,z
x,-y,z
1/2+x,1/2+y,z
1/2+x,1/2-y,z
loop_
_atom_site_type_symbol
_atom_site_label
_atom_site_fract_x
_atom_site_fract_y
_atom_site_fract_z
Si Si1 0.940860 0.183052 0.727160
Si Si2 0.029146 0.183388 0.184656
Si Si3 0.742699 0.315862 0.106734
Si Si4 0.095339 0.318432 0.040763
Si Si5 0.553341 0.684149 0.484440
Si Si6 0.362816 0.682504 0.864611
Si Si7 0.908380 0.317397 0.433051
Si Si8 0.217803 0.816438 0.806481
O O1 0.883876 0.224166 0.759268
O O2 0.913364 0.248689 0.568745
O O3 0.946169 0.000000 0.728904
O O4 0.025019 0.248059 0.872375
O O5 0.080117 0.262455 0.152510
O O6 0.051527 0.223928 0.345338
O O7 0.035934 0.000000 0.179200
O O8 0.939441 0.223649 0.040203
O O9 0.735227 0.500000 0.101975
O O10 0.675854 0.242725 0.096781
O O11 0.827656 0.274640 0.265149
O O12 0.731643 0.267587 0.957959
O O13 0.092107 0.500000 0.030688
O O14 0.547631 0.500000 0.485507
O O15 0.480585 0.755834 0.454246
O O16 0.633870 0.732906 0.649423
O O17 0.354425 0.500000 0.858849
O O18 0.286702 0.757759 0.815902
O O19 0.912181 0.500000 0.444586
O O20 0.218899 0.000000 0.806033
#
# Coordination Sequence:
#
# PCOD9132831 Si02
#       8
#     4   4   4   4   4   4   4   4
#     4  10  21  39  60  82 114 152 186 228 287 345
#     4   9  19  37  58  81 112 150 188 227 279 337
#     4  10  22  39  56  79 116 154 186 229 286 340
#     4  11  22  36  59  88 113 145 191 236 279 332
#     4  10  21  37  58  82 110 149 192 232 282 341
#     4   9  19  35  56  80 107 142 180 223 276 331
#     4  11  23  37  57  85 113 147 193 241 284 329
#     4  10  21  36  56  81 109 145 184 226 281 337
#
# _framework density 18.411216
#
# number of rings (size 3 to 8) (size 9 to 14) (size 15 to 20)
#    0.000    2.000    0.000    4.125    0.000    7.000 
#    0.000    3.750    0.000    0.000    0.000    0.000 
#    0.000    0.000    0.000    0.000    0.000    0.000 
#
# Total GULP energy -89392.056272 kJ/mol
# GULP energy per Si atom -5587.003517 kJ/mol
# Density = 1.836931 g / cm^3
# Si number density = 18.411216 Si / 1000 Ang^3
#
#
#
# Elastic Constant Matrix: (Units=GPa)
#
#
# Indices 1 2 3 4 5 6 
#
# 1 180.7682 57.0292 127.3871 0.0000 16.1005 0.0000
# 2 57.0292 37.6576 58.6412 0.0000 1.1483 0.0000
# 3 127.3871 58.6412 188.2496 0.0000 -10.9624 0.0000
# 4 0.0000 0.0000 0.0000 21.4089 0.0000 -0.5094
# 5 16.1005 1.1483 -10.9624 0.0000 28.8336 0.0000
# 6 0.0000 0.0000 0.0000 -0.5094 0.0000 36.2194
#
#
#
# Elastic Compliance Matrix: (Units=1/GPa)
#
#
# Indices 1 2 3 4 5 6 
#
# 1 0.015357 -0.011149 -0.007560 0.000000 -0.011005 0.000000
# 2 -0.011149 0.061707 -0.011718 0.000000 -0.000687 0.000000
# 3 -0.007560 -0.011718 0.014676 0.000000 0.010268 0.000000
# 4 0.000000 0.000000 0.000000 0.046725 0.000000 0.000657
# 5 -0.011005 -0.000687 0.010268 0.000000 0.044758 0.000000
# 6 0.000000 0.000000 0.000000 0.000657 0.000000 0.027619
#
#
# Mechanical properties :
#
#
# Convention : Reuss Voigt Hill
#
# Bulk Modulus (GPa) = 32.37608 99.19893 65.78751
# Shear Modulus (GPa) = 17.73107 28.20025 22.96566
#
# Velocity S-wave (km/s) = 3.10668 3.91792 3.53565
# Velocity P-wave (km/s) = 5.52194 8.62922 7.24414
#
# Compressibility (1/GPa) = 0.03088700
#
# Stress axis : x y z
#
# Youngs Moduli (GPa) = 65.11822 16.20549 68.13874
#
# Poissons Ratio (x) = 0.18067 0.51511
# Poissons Ratio (y) = 0.72598 0.79846
# Poissons Ratio (z) = 0.49228 0.18990
#
# Static dielectric constant tensor:
#      x y z
#    x 1.596570 0.000000 -0.008380 
#    y 0.000000 1.623910 0.000000 
#    z -0.008380 0.000000 1.622980 
# 
# From -- ./inp_files/23907.got.cif
#   From: 2010.05.17/outbox.cif.g08.bks.cpg/sg8_12_cif.got.tgz:23907.got - 2010.06.03 19:46:02.
