data_PCOD9132161
_publ_section_title
;
Structure prediction by ZEFSAII (Michael W. Deem and Ramdas Pophale) SiO2 
 PCOD9132161
Probable space group: C M
;
_chemical_formula_sum "Si O2"
_cell_formula_units_Z 32
_cell_length_a 17.471776
_cell_length_b 12.847810
_cell_length_c 13.270568
_cell_angle_alpha 90.000000
_cell_angle_beta 149.301259
_cell_angle_gamma 90.000000
_cell_volume 1520.799124
_symmetry_space_group_name_H-M "C M"
_symmetry_group_IT_number 8
_symmetry_cell_setting 'monoclinic'
loop_
_space_group_symop_operation_xyz
x,y,z
x,-y,z
1/2+x,1/2+y,z
1/2+x,1/2-y,z
loop_
_atom_site_type_symbol
_atom_site_label
_atom_site_fract_x
_atom_site_fract_y
_atom_site_fract_z
Si Si1 0.411730 0.121939 0.134110
Si Si2 0.545445 0.380999 0.088526
Si Si3 0.225382 0.386294 0.804985
Si Si4 0.869136 0.205083 0.694016
Si Si5 0.825664 0.115471 0.263754
Si Si6 0.172591 0.332727 0.297039
Si Si7 0.156249 0.735393 0.909283
Si Si8 0.600977 0.269467 0.500421
O O1 0.500977 0.133170 0.128533
O O2 0.500904 0.198362 0.311889
O O3 0.411254 0.000000 0.161217
O O4 0.244761 0.170910 0.953509
O O5 0.603159 0.500000 0.148340
O O6 0.405347 0.378797 0.007120
O O7 0.463208 0.351230 0.889144
O O8 0.656679 0.290624 0.251558
O O9 0.185234 0.500000 0.721559
O O10 0.170265 0.362960 0.853120
O O11 0.153261 0.303066 0.650416
O O12 0.758592 0.138768 0.497901
O O13 0.756821 0.289654 0.617270
O O14 0.987283 0.244349 0.746943
O O15 0.765906 0.120939 0.310268
O O16 0.998301 0.141143 0.431804
O O17 0.791732 0.000000 0.187612
O O18 0.735712 0.204610 0.103151
#
# Coordination Sequence:
#
# PCOD9132161 Si02
#       8
#     4   4   4   4   4   4   4   4
#     4  10  21  38  62  90 122 163 209 260 317 373
#     4  10  21  40  67  95 124 164 211 263 318 373
#     4  10  19  36  63  88 118 158 200 252 320 372
#     4  10  22  40  65  88 127 162 205 266 318 369
#     4  11  23  40  61  86 125 174 209 254 322 381
#     4  11  21  42  65  93 128 166 213 265 320 378
#     4  11  21  38  59  90 127 162 206 256 313 381
#     4   9  21  40  61  88 119 157 212 268 303 373
#
# _framework density 21.041568000000002
#
# number of rings (size 3 to 8) (size 9 to 14) (size 15 to 20)
#    0.000    1.750    2.500    1.875    0.000    4.000 
#    0.000    6.250    0.000    0.000    0.000    0.000 
#    0.000    0.000    0.000    0.000    0.000    0.000 
#
# Total GULP energy -89121.425854 kJ/mol
# GULP energy per Si atom -5570.089116 kJ/mol
# Density = 2.099368 g / cm^3
# Si number density = 21.041568 Si / 1000 Ang^3
#
#
#
# Elastic Constant Matrix: (Units=GPa)
#
#
# Indices 1 2 3 4 5 6 
#
# 1 130.9192 16.4526 20.8143 0.0000 28.8224 0.0000
# 2 16.4526 89.4847 11.5719 0.0000 15.1844 0.0000
# 3 20.8143 11.5719 41.2289 0.0000 12.5750 0.0000
# 4 0.0000 0.0000 0.0000 13.5746 0.0000 0.7973
# 5 28.8224 15.1844 12.5750 0.0000 33.8804 0.0000
# 6 0.0000 0.0000 0.0000 0.7973 0.0000 13.0723
#
#
#
# Elastic Compliance Matrix: (Units=1/GPa)
#
#
# Indices 1 2 3 4 5 6 
#
# 1 0.009657 -0.000224 -0.002636 0.000000 -0.007136 0.000000
# 2 -0.000224 0.012243 -0.001926 0.000000 -0.004582 0.000000
# 3 -0.002636 -0.001926 0.028393 0.000000 -0.007433 0.000000
# 4 0.000000 0.000000 0.000000 0.073932 0.000000 -0.004509
# 5 -0.007136 -0.004582 -0.007433 0.000000 0.040399 0.000000
# 6 0.000000 0.000000 0.000000 -0.004509 0.000000 0.076773
#
#
# Mechanical properties :
#
#
# Convention : Reuss Voigt Hill
#
# Bulk Modulus (GPa) = 24.55674 39.92339 32.24006
# Shear Modulus (GPa) = 18.90072 26.29172 22.59622
#
# Velocity S-wave (km/s) = 3.00034 3.53868 3.28057
# Velocity P-wave (km/s) = 4.86813 5.97588 5.45022
#
# Compressibility (1/GPa) = 0.04072202
#
# Stress axis : x y z
#
# Youngs Moduli (GPa) = 103.55663 81.68109 35.21987
#
# Poissons Ratio (x) = 0.01827 0.09283
# Poissons Ratio (y) = 0.02316 0.06783
# Poissons Ratio (z) = 0.27294 0.15730
#
# Static dielectric constant tensor:
#      x y z
#    x 1.806430 0.000000 0.007520 
#    y 0.000000 1.732510 0.000000 
#    z 0.007520 0.000000 1.808260 
# 
# From -- ./inp_files/17828.got.cif
#   From: 2010.05.17/outbox.cif.g08.bks.cpg/sg8_9_cif.got.tgz:17828.got - 2010.06.03 19:46:02.
