data_PCOD9132786
_publ_section_title
;
Structure prediction by ZEFSAII (Michael W. Deem and Ramdas Pophale) SiO2 
 PCOD9132786
Probable space group: C M
;
_chemical_formula_sum "Si O2"
_cell_formula_units_Z 24
_cell_length_a 13.304086
_cell_length_b 14.610523
_cell_length_c 7.867730
_cell_angle_alpha 90.000000
_cell_angle_beta 137.006187
_cell_angle_gamma 90.000000
_cell_volume 1042.877477
_symmetry_space_group_name_H-M "C M"
_symmetry_group_IT_number 8
_symmetry_cell_setting 'monoclinic'
loop_
_space_group_symop_operation_xyz
x,y,z
x,-y,z
1/2+x,1/2+y,z
1/2+x,1/2-y,z
loop_
_atom_site_type_symbol
_atom_site_label
_atom_site_fract_x
_atom_site_fract_y
_atom_site_fract_z
Si Si1 0.875000 0.192901 0.770370
Si Si2 0.016402 0.500000 0.021426
Si Si3 0.214304 0.000000 0.806092
Si Si4 0.849199 0.500000 0.459139
Si Si5 0.671773 0.293875 0.774619
Si Si6 0.533432 0.500000 0.937157
Si Si7 0.916265 0.682495 0.335606
Si Si8 0.610524 0.187398 0.229817
O O1 0.770013 0.217515 0.800221
O O2 0.768390 0.222000 0.484587
O O3 0.930644 0.089236 0.824539
O O4 0.017033 0.252427 0.986462
O O5 0.892456 0.500000 0.017916
O O6 0.917747 0.500000 0.730818
O O7 0.117976 0.587742 0.159544
O O8 0.180401 0.104130 0.699433
O O9 0.123704 0.000000 0.870853
O O10 0.905133 0.589663 0.428603
O O11 0.669952 0.500000 0.239377
O O12 0.505879 0.258677 0.552542
O O13 0.753268 0.301210 0.056732
O O14 0.014020 0.676958 0.283308
#
# Coordination Sequence:
#
# PCOD9132786 Si02
#       8
#     4   2   2   2   4   2   4   4
#     4  10  23  40  70 105 135 186 228 286 339 416
#     4  12  23  40  71  96 136 186 240 281 348 419
#     4  12  22  48  67  98 139 196 216 287 360 409
#     4  12  26  41  69 102 140 187 241 287 346 418
#     4  10  21  42  75  97 138 180 231 275 354 418
#     4  12  25  43  67 102 145 183 233 289 346 408
#     4  10  20  44  68 102 132 187 227 289 345 419
#     4  10  21  43  71  98 140 183 228 284 355 414
#
# _framework density 23.013252000000001
#
# number of rings (size 3 to 8) (size 9 to 14) (size 15 to 20)
#    0.000    1.333    5.000    1.000    2.333    4.667 
#    0.000    2.500    0.000    0.000    0.000    0.000 
#    0.000    0.000    0.000    0.000    0.000    0.000 
#
# Total GULP energy -66981.954599 kJ/mol
# GULP energy per Si atom -5581.829550 kJ/mol
# Density = 2.296087 g / cm^3
# Si number density = 23.013252 Si / 1000 Ang^3
#
#
#
# Elastic Constant Matrix: (Units=GPa)
#
#
# Indices 1 2 3 4 5 6 
#
# 1 98.0843 9.1855 10.0732 0.0000 9.8330 0.0000
# 2 9.1855 132.2533 66.4214 0.0000 18.1122 0.0000
# 3 10.0732 66.4214 188.6246 0.0000 1.3936 0.0000
# 4 0.0000 0.0000 0.0000 36.1228 0.0000 -1.5414
# 5 9.8330 18.1122 1.3936 0.0000 14.7103 0.0000
# 6 0.0000 0.0000 0.0000 -1.5414 0.0000 -2.4918
#
#
#
# Elastic Compliance Matrix: (Units=1/GPa)
#
#
# Indices 1 2 3 4 5 6 
#
# 1 0.011031 0.000762 -0.000797 0.000000 -0.008236 0.000000
# 2 0.000762 0.011450 -0.003967 0.000000 -0.014231 0.000000
# 3 -0.000797 -0.003967 0.006706 0.000000 0.004782 0.000000
# 4 0.000000 0.000000 0.000000 0.026971 0.000000 -0.016684
# 5 -0.008236 -0.014231 0.004782 0.000000 0.090554 0.000000
# 6 0.000000 0.000000 0.000000 -0.016684 0.000000 -0.391001
#
#
# Mechanical properties :
#
#
# Convention : Reuss Voigt Hill
#
# Bulk Modulus (GPa) = 47.20789 65.59137 56.39963
# Shear Modulus (GPa) = -21.81284 31.88707 5.03711
#
# Velocity S-wave (km/s) = -3.08204 3.72640 1.48106
# Velocity P-wave (km/s) = 2.80938 6.86135 5.24265
#
# Compressibility (1/GPa) = 0.02118290
#
# Stress axis : x y z
#
# Youngs Moduli (GPa) = 90.64967 87.33728 149.12419
#
# Poissons Ratio (x) = -0.06654 0.11878
# Poissons Ratio (y) = -0.06906 0.59164
# Poissons Ratio (z) = 0.07221 0.34651
#
# Static dielectric constant tensor:
#      x y z
#    x 1.898880 0.000000 -0.025800 
#    y 0.000000 1.857620 0.000000 
#    z -0.025800 0.000000 1.865380 
# 
# From -- ./inp_files/13337.got.cif
#   From: 2010.05.17/outbox.cif.g08.bks.cpg/sg8_7_cif.got.tgz:13337.got - 2010.06.03 19:46:02.
