data_PCOD9132061
_publ_section_title
;
Structure prediction by ZEFSAII (Michael W. Deem and Ramdas Pophale) SiO2 
 PCOD9132061
Probable space group: C M
;
_chemical_formula_sum "Si O2"
_cell_formula_units_Z 28
_cell_length_a 18.307813
_cell_length_b 13.855923
_cell_length_c 8.946861
_cell_angle_alpha 90.000000
_cell_angle_beta 41.888927
_cell_angle_gamma 90.000000
_cell_volume 1515.362876
_symmetry_space_group_name_H-M "C M"
_symmetry_group_IT_number 8
_symmetry_cell_setting 'monoclinic'
loop_
_space_group_symop_operation_xyz
x,y,z
x,-y,z
1/2+x,1/2+y,z
1/2+x,1/2-y,z
loop_
_atom_site_type_symbol
_atom_site_label
_atom_site_fract_x
_atom_site_fract_y
_atom_site_fract_z
Si Si1 0.517410 0.614530 0.546530
Si Si2 0.539329 0.109239 0.735593
Si Si3 0.206839 0.756576 0.119126
Si Si4 0.789957 0.111655 0.436450
Si Si5 0.342247 0.739571 0.634117
Si Si6 0.018200 0.611900 0.415206
Si Si7 0.921899 0.206844 0.980900
O O1 0.521744 0.500000 0.527265
O O2 0.625740 0.665281 0.315346
O O3 0.416302 0.660057 0.608025
O O4 0.494773 0.647348 0.751325
O O5 0.670723 0.117127 0.540471
O O6 0.501051 0.122940 0.621530
O O7 0.485710 0.193583 0.914107
O O8 0.510415 0.000000 0.825633
O O9 0.135535 0.659634 0.208779
O O10 0.253711 0.780816 0.884866
O O11 0.309695 0.737112 0.068554
O O12 0.791796 0.185733 0.570524
O O13 0.805714 0.000000 0.458381
O O14 0.884502 0.144656 0.178656
O O15 0.426858 0.825541 0.470987
O O16 0.015455 0.500000 0.382410
#
# Coordination Sequence:
#
# PCOD9132061 Si02
#       7
#     4   4   4   4   4   4   4
#     4  10  20  34  55  84 113 146 194 236 281 344
#     4  10  20  36  59  88 116 147 193 240 286 340
#     4  10  19  35  56  83 114 147 189 239 283 336
#     4  11  23  38  59  86 119 156 190 237 291 343
#     4  10  22  38  55  83 118 151 188 235 292 335
#     4  10  19  36  60  87 110 145 195 237 280 341
#     4  11  19  37  58  85 116 152 191 236 289 337
#
# _framework density 18.477422000000001
#
# number of rings (size 3 to 8) (size 9 to 14) (size 15 to 20)
#    0.000    1.714    5.714    0.857    0.000    6.286 
#    0.000    2.143    0.000    1.714    0.000    0.000 
#    0.000    0.000    0.000    0.000    0.000    0.000 
#
# Total GULP energy -78113.874220 kJ/mol
# GULP energy per Si atom -5579.562444 kJ/mol
# Density = 1.843537 g / cm^3
# Si number density = 18.477422 Si / 1000 Ang^3
#
#
#
# Elastic Constant Matrix: (Units=GPa)
#
#
# Indices 1 2 3 4 5 6 
#
# 1 26.4444 14.4627 10.0024 0.0000 -2.0768 0.0000
# 2 14.4627 118.9660 26.0505 0.0000 -20.8055 0.0000
# 3 10.0024 26.0505 90.7165 0.0000 -13.3049 0.0000
# 4 0.0000 0.0000 0.0000 23.5731 0.0000 -0.0221
# 5 -2.0768 -20.8055 -13.3049 0.0000 15.6380 0.0000
# 6 0.0000 0.0000 0.0000 -0.0221 0.0000 18.1697
#
#
#
# Elastic Compliance Matrix: (Units=1/GPa)
#
#
# Indices 1 2 3 4 5 6 
#
# 1 0.041639 -0.004990 -0.003794 0.000000 -0.004337 0.000000
# 2 -0.004990 0.011659 -0.000708 0.000000 0.014246 0.000000
# 3 -0.003794 -0.000708 0.013063 0.000000 0.009668 0.000000
# 4 0.000000 0.000000 0.000000 0.042421 0.000000 0.000052
# 5 -0.004337 0.014246 0.009668 0.000000 0.090550 0.000000
# 6 0.000000 0.000000 0.000000 0.000052 0.000000 0.055037
#
#
# Mechanical properties :
#
#
# Convention : Reuss Voigt Hill
#
# Bulk Modulus (GPa) = 21.10781 37.46201 29.28491
# Shear Modulus (GPa) = 17.29238 23.85026 20.57132
#
# Velocity S-wave (km/s) = 3.06251 3.59664 3.34027
# Velocity P-wave (km/s) = 4.89425 6.12913 5.54617
#
# Compressibility (1/GPa) = 0.04737582
#
# Stress axis : x y z
#
# Youngs Moduli (GPa) = 24.01621 85.77117 76.55177
#
# Poissons Ratio (x) = 0.42796 0.29046
# Poissons Ratio (y) = 0.11983 0.05424
# Poissons Ratio (z) = 0.09112 0.06077
#
# Static dielectric constant tensor:
#      x y z
#    x 1.632190 0.000000 0.017850 
#    y 0.000000 1.628000 0.000000 
#    z 0.017850 0.000000 1.652510 
# 
# From -- ./inp_files/10602.got.cif
#   From: 2010.05.17/outbox.cif.g08.bks.cpg/sg8_6_cif.got.tgz:10602.got - 2010.06.03 19:46:02.
