data_PCOD9132811
_publ_section_title
;
Structure prediction by ZEFSAII (Michael W. Deem and Ramdas Pophale) SiO2 
 PCOD9132811
Probable space group: C M
;
_chemical_formula_sum "Si O2"
_cell_formula_units_Z 32
_cell_length_a 15.639023
_cell_length_b 7.441432
_cell_length_c 23.728554
_cell_angle_alpha 90.000000
_cell_angle_beta 148.830246
_cell_angle_gamma 90.000000
_cell_volume 1429.259321
_symmetry_space_group_name_H-M "C M"
_symmetry_group_IT_number 8
_symmetry_cell_setting 'monoclinic'
loop_
_space_group_symop_operation_xyz
x,y,z
x,-y,z
1/2+x,1/2+y,z
1/2+x,1/2-y,z
loop_
_atom_site_type_symbol
_atom_site_label
_atom_site_fract_x
_atom_site_fract_y
_atom_site_fract_z
Si Si1 0.991340 0.721182 0.557110
Si Si2 0.424394 0.283809 0.325026
Si Si3 0.808456 0.219839 0.082023
Si Si4 0.678715 0.205013 0.559234
Si Si5 0.609955 0.782532 0.081965
Si Si6 0.124909 0.782420 0.325307
Si Si7 0.512754 0.204595 0.695081
Si Si8 0.249248 0.291270 0.923110
O O1 0.987896 0.500000 0.555147
O O2 0.812779 0.780803 0.433029
O O3 0.018637 0.784448 0.636079
O O4 0.134656 0.778204 0.595581
O O5 0.423895 0.500000 0.329576
O O6 0.509350 0.209005 0.428255
O O7 0.241761 0.225141 0.204110
O O8 0.540779 0.236460 0.337620
O O9 0.685266 0.272415 0.063623
O O10 0.994309 0.277614 0.204389
O O11 0.810220 0.000000 0.082708
O O12 0.759648 0.283982 0.992361
O O13 0.822590 0.301184 0.606705
O O14 0.733931 0.000000 0.595740
O O15 0.607406 0.000000 0.080294
O O16 0.429078 0.717943 0.995853
O O17 0.129453 0.000000 0.324877
O O18 0.619562 0.288510 0.805523
O O19 0.574892 0.000000 0.723715
O O20 0.201589 0.500000 0.904065
#
# Coordination Sequence:
#
# PCOD9132811 Si02
#       8
#     4   4   4   4   4   4   4   4
#     4   9  18  32  52  76 103 141 178 207 260 328
#     4   9  17  33  56  78 107 146 177 205 259 329
#     4   8  16  31  51  78 107 137 175 210 257 319
#     4  11  22  33  53  84 107 133 178 230 269 299
#     4   9  19  35  55  79 109 144 175 210 263 323
#     4   8  13  27  53  75  99 140 175 202 246 320
#     4  10  21  40  57  72 105 148 183 212 258 325
#     4  10  21  35  57  82 103 137 183 226 258 301
#
# _framework density 22.389216999999999
#
# number of rings (size 3 to 8) (size 9 to 14) (size 15 to 20)
#    0.000    2.750    1.250    1.875    1.750    2.000 
#    0.000    1.875    0.000    0.750    0.000    0.000 
#    0.000    0.000    0.000    0.000    0.000    0.000 
#
# Total GULP energy -89326.761271 kJ/mol
# GULP energy per Si atom -5582.922579 kJ/mol
# Density = 2.233826 g / cm^3
# Si number density = 22.389217 Si / 1000 Ang^3
#
#
#
# Elastic Constant Matrix: (Units=GPa)
#
#
# Indices 1 2 3 4 5 6 
#
# 1 118.0668 0.9856 56.2347 0.0000 -37.0831 0.0000
# 2 0.9856 66.2271 -2.6956 0.0000 -0.9818 0.0000
# 3 56.2347 -2.6956 110.7963 0.0002 -33.4543 0.0000
# 4 0.0000 0.0000 0.0002 4.0202 0.0000 10.0089
# 5 -37.0831 -0.9818 -33.4543 0.0000 23.5428 0.0000
# 6 0.0000 0.0000 0.0000 10.0089 0.0000 7.6848
#
#
#
# Elastic Compliance Matrix: (Units=1/GPa)
#
#
# Indices 1 2 3 4 5 6 
#
# 1 0.016819 0.000085 -0.000936 0.000000 0.025166 0.000000
# 2 0.000085 0.015170 0.000976 0.000000 0.002153 0.000000
# 3 -0.000936 0.000976 0.015924 0.000000 0.021195 0.000000
# 4 0.000000 0.000000 0.000000 -0.110920 0.000001 0.144464
# 5 0.025166 0.002153 0.021195 0.000001 0.112323 -0.000001
# 6 0.000000 0.000000 0.000000 0.144464 -0.000001 -0.058027
#
#
# Mechanical properties :
#
#
# Convention : Reuss Voigt Hill
#
# Bulk Modulus (GPa) = 20.76267 44.90440 32.83354
# Shear Modulus (GPa) = 704.90489 23.08728 363.99609
#
# Velocity S-wave (km/s) = 17.76302 3.21468 12.76438
# Velocity P-wave (km/s) = 20.73628 5.82054 15.22944
#
# Compressibility (1/GPa) = 0.04816336
#
# Stress axis : x y z
#
# Youngs Moduli (GPa) = 59.45635 65.91981 62.79910
#
# Poissons Ratio (x) = -0.00558 0.05876
# Poissons Ratio (y) = -0.00504 -0.06131
# Poissons Ratio (z) = 0.05563 -0.06436
#
# Static dielectric constant tensor:
#      x y z
#    x 1.798370 0.000000 -0.030370 
#    y 0.000000 1.849170 0.000000 
#    z -0.030370 0.000000 1.808370 
# 
# From -- ./inp_files/26571.got.cif
#   From: 2010.05.17/outbox.cif.g08.bks.cpg/sg8_14_cif.got.tgz:26571.got - 2010.06.03 19:46:02.
