data_PCOD9132054
_publ_section_title
;
Structure prediction by ZEFSAII (Michael W. Deem and Ramdas Pophale) SiO2 
 PCOD9132054
Probable space group: C M
;
_chemical_formula_sum "Si O2"
_cell_formula_units_Z 30
_cell_length_a 14.123654
_cell_length_b 16.142141
_cell_length_c 6.879159
_cell_angle_alpha 90.000000
_cell_angle_beta 131.176431
_cell_angle_gamma 90.000000
_cell_volume 1180.476314
_symmetry_space_group_name_H-M "C M"
_symmetry_group_IT_number 8
_symmetry_cell_setting 'monoclinic'
loop_
_space_group_symop_operation_xyz
x,y,z
x,-y,z
1/2+x,1/2+y,z
1/2+x,1/2-y,z
loop_
_atom_site_type_symbol
_atom_site_label
_atom_site_fract_x
_atom_site_fract_y
_atom_site_fract_z
Si Si1 0.267270 0.091910 0.138420
Si Si2 0.042494 0.685612 0.851461
Si Si3 0.135144 0.656709 0.559909
Si Si4 0.309355 0.722478 0.112831
Si Si5 0.558276 0.330524 0.346079
Si Si6 0.260264 0.500000 0.537235
Si Si7 0.985954 0.872810 0.817783
Si Si8 0.315960 0.905977 0.667466
O O1 0.321291 0.178222 0.128622
O O2 0.288237 0.099566 0.398882
O O3 0.314499 0.000000 0.146685
O O4 0.116518 0.095289 0.902896
O O5 0.051843 0.646629 0.645656
O O6 0.978293 0.775460 0.758697
O O7 0.953888 0.632879 0.869884
O O8 0.191116 0.700443 0.092109
O O9 0.084454 0.732243 0.362077
O O10 0.166297 0.573193 0.494110
O O11 0.261164 0.693036 0.835494
O O12 0.436078 0.670966 0.318384
O O13 0.690531 0.367714 0.590382
O O14 0.515992 0.374357 0.091198
O O15 0.364989 0.427958 0.618171
O O16 0.322506 0.000000 0.734217
#
# Coordination Sequence:
#
# PCOD9132054 Si02
#       8
#     4   4   4   4   4   2   4   4
#     4   9  17  33  57  88 112 154 201 250 290 368
#     4   9  20  39  59  89 117 163 197 260 307 374
#     4  10  23  36  65  88 125 153 212 252 314 354
#     4   9  20  36  57  86 117 160 193 251 315 359
#     4  11  21  39  59  89 123 164 201 254 309 381
#     4  12  20  38  66 102 116 168 218 272 284 386
#     4  10  19  34  67  82 122 158 210 241 313 358
#     4  10  21  33  59  89 116 153 207 249 297 367
#
# _framework density 25.41347
#
# number of rings (size 3 to 8) (size 9 to 14) (size 15 to 20)
#    0.800    1.333    2.000    1.600    1.867    0.000 
#    1.200    0.667    2.933    1.600    0.000    0.000 
#    0.000    0.000    0.000    0.000    0.000    0.000 
#
# Total GULP energy -83522.612926 kJ/mol
# GULP energy per Si atom -5568.174195 kJ/mol
# Density = 2.535563 g / cm^3
# Si number density = 25.413470 Si / 1000 Ang^3
#
#
#
# Elastic Constant Matrix: (Units=GPa)
#
#
# Indices 1 2 3 4 5 6 
#
# 1 133.2702 59.3170 48.4329 0.0000 40.9853 0.0000
# 2 59.3170 166.9517 38.6607 0.0000 44.0221 0.0000
# 3 48.4329 38.6607 67.2649 0.0000 24.4550 0.0000
# 4 0.0000 0.0000 0.0000 12.5511 0.0000 22.8511
# 5 40.9853 44.0221 24.4550 0.0000 57.4644 0.0000
# 6 0.0000 0.0000 0.0000 22.8511 0.0000 51.0056
#
#
#
# Elastic Compliance Matrix: (Units=1/GPa)
#
#
# Indices 1 2 3 4 5 6 
#
# 1 0.011787 -0.001593 -0.005866 0.000000 -0.004690 0.000000
# 2 -0.001593 0.008136 -0.001983 0.000000 -0.004253 0.000000
# 3 -0.005866 -0.001983 0.021480 0.000000 -0.003438 0.000000
# 4 0.000000 0.000000 0.000000 0.432234 0.000000 -0.193646
# 5 -0.004690 -0.004253 -0.003438 0.000000 0.025468 0.000000
# 6 0.000000 0.000000 0.000000 -0.193646 0.000000 0.106361
#
#
# Mechanical properties :
#
#
# Convention : Reuss Voigt Hill
#
# Bulk Modulus (GPa) = 44.40740 73.36756 58.88748
# Shear Modulus (GPa) = 7.91317 38.94263 23.42790
#
# Velocity S-wave (km/s) = 1.76650 3.91879 3.03952
# Velocity P-wave (km/s) = 4.65538 7.02909 5.96157
#
# Compressibility (1/GPa) = 0.02251877
#
# Stress axis : x y z
#
# Youngs Moduli (GPa) = 84.84141 122.90505 46.55404
#
# Poissons Ratio (x) = 0.19574 0.27310
# Poissons Ratio (y) = 0.13512 0.09234
# Poissons Ratio (z) = 0.49771 0.24377
#
# Static dielectric constant tensor:
#      x y z
#    x 2.041350 0.000000 -0.014400 
#    y 0.000000 1.921520 0.000000 
#    z -0.014400 0.000000 2.058520 
# 
# From -- ./inp_files/23231.got.cif
#   From: 2010.05.17/outbox.cif.g08.bks.cpg/sg8_12_cif.got.tgz:23231.got - 2010.06.03 19:46:02.
