data_PCOD9132441
_publ_section_title
;
Structure prediction by ZEFSAII (Michael W. Deem and Ramdas Pophale) SiO2 
 PCOD9132441
Probable space group: C M
;
_chemical_formula_sum "Si O2"
_cell_formula_units_Z 32
_cell_length_a 14.460534
_cell_length_b 8.884434
_cell_length_c 29.133098
_cell_angle_alpha 90.000000
_cell_angle_beta 152.898392
_cell_angle_gamma 90.000000
_cell_volume 1705.123262
_symmetry_space_group_name_H-M "C M"
_symmetry_group_IT_number 8
_symmetry_cell_setting 'monoclinic'
loop_
_space_group_symop_operation_xyz
x,y,z
x,-y,z
1/2+x,1/2+y,z
1/2+x,1/2-y,z
loop_
_atom_site_type_symbol
_atom_site_label
_atom_site_fract_x
_atom_site_fract_y
_atom_site_fract_z
Si Si1 0.720550 0.323462 0.479830
Si Si2 0.331790 0.817522 0.084611
Si Si3 0.785246 0.819612 0.258914
Si Si4 0.691910 0.675406 0.123755
Si Si5 0.217525 0.324621 0.940409
Si Si6 0.993148 0.177531 0.756989
Si Si7 0.071692 0.674802 0.699088
Si Si8 0.610668 0.676998 0.623309
O O1 0.728147 0.500000 0.469871
O O2 0.490072 0.270134 0.375189
O O3 0.832530 0.315726 0.578691
O O4 0.876725 0.230310 0.517124
O O5 0.568761 0.770433 0.184075
O O6 0.247617 0.773380 0.097197
O O7 0.214132 0.743524 0.989998
O O8 0.318825 0.000000 0.074805
O O9 0.794426 0.765665 0.210417
O O10 0.781039 0.000000 0.258341
O O11 0.751800 0.500000 0.153822
O O12 0.451581 0.684390 0.026944
O O13 0.156263 0.500000 0.913007
O O14 0.092387 0.230682 0.848246
O O15 0.100270 0.260685 0.761879
O O16 0.760655 0.232672 0.656927
O O17 0.005399 0.000000 0.756720
O O18 0.132886 0.500000 0.722625
O O19 0.168562 0.773216 0.701206
O O20 0.632272 0.500000 0.626554
#
# Coordination Sequence:
#
# PCOD9132441 Si02
#       8
#     4   4   4   4   4   4   4   4
#     4   8  17  35  55  77 112 149 179 225 275 315
#     4   9  18  35  56  79 107 141 179 219 268 326
#     4   9  17  33  56  79 109 144 179 218 265 319
#     4   9  19  35  54  79 109 139 177 224 269 319
#     4  10  21  36  54  77 108 141 178 227 277 324
#     4  12  23  37  57  81 109 145 187 229 278 331
#     4   9  19  37  56  77 111 146 183 227 271 318
#     4  10  20  36  56  79 107 143 184 227 275 326
#
# _framework density 18.766971000000002
#
# number of rings (size 3 to 8) (size 9 to 14) (size 15 to 20)
#    0.750    1.750    0.000    2.625    0.000    2.500 
#    2.250    3.750    0.000    0.000    0.000    0.000 
#    0.000    0.000    0.000    0.000    0.000    0.000 
#
# Total GULP energy -89137.624836 kJ/mol
# GULP energy per Si atom -5571.101552 kJ/mol
# Density = 1.872426 g / cm^3
# Si number density = 18.766971 Si / 1000 Ang^3
#
#
#
# Elastic Constant Matrix: (Units=GPa)
#
#
# Indices 1 2 3 4 5 6 
#
# 1 66.4065 -3.6069 -12.3662 -0.0004 -12.1814 -0.0001
# 2 -3.6069 48.4303 6.9092 -0.0004 -0.0985 -0.0001
# 3 -12.3662 6.9092 26.7869 -0.0005 -5.6620 -0.0001
# 4 -0.0004 -0.0004 -0.0005 24.3488 0.0001 -4.9039
# 5 -12.1814 -0.0985 -5.6620 0.0001 12.9590 0.0000
# 6 -0.0001 -0.0001 -0.0001 -4.9039 0.0000 26.2272
#
#
#
# Elastic Compliance Matrix: (Units=1/GPa)
#
#
# Indices 1 2 3 4 5 6 
#
# 1 0.023781 -0.000663 0.017488 0.000001 0.029989 0.000000
# 2 -0.000663 0.021528 -0.006562 0.000000 -0.003326 0.000000
# 3 0.017488 -0.006562 0.055706 0.000001 0.040728 0.000000
# 4 0.000001 0.000000 0.000001 0.042677 0.000001 0.007980
# 5 0.029989 -0.003326 0.040728 0.000001 0.123126 0.000000
# 6 0.000000 0.000000 0.000000 0.007980 0.000000 0.039620
#
#
# Mechanical properties :
#
#
# Convention : Reuss Voigt Hill
#
# Bulk Modulus (GPa) = 8.22759 13.72175 10.97467
# Shear Modulus (GPa) = 15.31746 22.75285 19.03515
#
# Velocity S-wave (km/s) = 2.86001 3.48571 3.18825
# Velocity P-wave (km/s) = 3.91149 4.85054 4.40611
#
# Compressibility (1/GPa) = 0.12154230
#
# Stress axis : x y z
#
# Youngs Moduli (GPa) = 42.05109 46.45066 17.95127
#
# Poissons Ratio (x) = 0.03079 -0.31394
# Poissons Ratio (y) = 0.02787 0.11779
# Poissons Ratio (z) = -0.73540 0.30480
#
# Static dielectric constant tensor:
#      x y z
#    x 1.644820 0.000000 0.027670 
#    y 0.000000 1.626320 0.000000 
#    z 0.027670 0.000000 1.682380 
# 
# From -- ./inp_files/21537.got.cif
#   From: 2010.05.17/outbox.cif.g08.bks.cpg/sg8_11_cif.got.tgz:21537.got - 2010.06.03 19:46:02.
