data_PCOD9132320
_publ_section_title
;
Structure prediction by ZEFSAII (Michael W. Deem and Ramdas Pophale) SiO2 
 PCOD9132320
Probable space group: C M
;
_chemical_formula_sum "Si O2"
_cell_formula_units_Z 32
_cell_length_a 29.516481
_cell_length_b 9.739483
_cell_length_c 5.365480
_cell_angle_alpha 90.000000
_cell_angle_beta 101.777547
_cell_angle_gamma 90.000000
_cell_volume 1509.970433
_symmetry_space_group_name_H-M "C M"
_symmetry_group_IT_number 8
_symmetry_cell_setting 'monoclinic'
loop_
_space_group_symop_operation_xyz
x,y,z
x,-y,z
1/2+x,1/2+y,z
1/2+x,1/2-y,z
loop_
_atom_site_type_symbol
_atom_site_label
_atom_site_fract_x
_atom_site_fract_y
_atom_site_fract_z
Si Si1 0.495130 0.340049 0.459590
Si Si2 0.160705 0.651751 0.665443
Si Si3 0.290747 0.164883 0.157586
Si Si4 0.112570 0.847304 0.004999
Si Si5 0.206781 0.152259 0.392571
Si Si6 0.343066 0.166682 0.721007
Si Si7 0.435074 0.659848 0.890720
Si Si8 0.564872 0.846748 0.281986
O O1 0.510944 0.500000 0.465013
O O2 0.468169 0.320058 0.687979
O O3 0.535597 0.229752 0.461020
O O4 0.461628 0.319572 0.182093
O O5 0.171302 0.500000 0.777988
O O6 0.204118 0.726555 0.588040
O O7 0.117998 0.634963 0.425324
O O8 0.138255 0.755169 0.833958
O O9 0.238733 0.192787 0.195190
O O10 0.322636 0.207576 0.428241
O O11 0.293361 0.000000 0.148164
O O12 0.309344 0.211319 0.910940
O O13 0.153558 0.864554 0.253197
O O14 0.069497 0.763719 0.066100
O O15 0.099894 0.000000 0.904577
O O16 0.222776 0.000000 0.502418
O O17 0.392058 0.238159 0.820186
O O18 0.347102 0.000000 0.728544
O O19 0.419801 0.500000 0.866566
O O20 0.547043 0.000000 0.201448
#
# Coordination Sequence:
#
# PCOD9132320 Si02
#       8
#     4   4   4   4   4   4   4   4
#     4  10  22  39  60  86 114 150 194 239 286 346
#     4  10  21  36  54  79 116 153 188 238 292 340
#     4   9  19  34  58  87 116 146 190 242 284 336
#     4  10  20  34  57  82 110 152 197 237 282 342
#     4   9  19  35  55  81 109 149 197 239 283 335
#     4  10  20  36  59  86 114 148 187 235 291 347
#     4  10  22  40  60  84 116 150 187 237 291 347
#     4  10  22  38  55  81 115 150 190 241 293 341
#
# _framework density 21.192466
#
# number of rings (size 3 to 8) (size 9 to 14) (size 15 to 20)
#    0.000    2.250    0.000    1.875    3.500    3.000 
#    0.000    1.250    0.000    0.000    0.000    0.000 
#    0.000    0.000    0.000    0.000    0.000    0.000 
#
# Total GULP energy -89237.249062 kJ/mol
# GULP energy per Si atom -5577.328066 kJ/mol
# Density = 2.114423 g / cm^3
# Si number density = 21.192466 Si / 1000 Ang^3
#
#
#
# Elastic Constant Matrix: (Units=GPa)
#
#
# Indices 1 2 3 4 5 6 
#
# 1 80.5062 37.1011 19.7989 0.0000 -4.9742 0.0000
# 2 37.1011 129.8128 29.3220 0.0000 -21.5468 0.0000
# 3 19.7989 29.3220 83.7817 0.0000 -10.2000 0.0000
# 4 0.0000 0.0000 0.0000 10.8092 0.0000 1.6521
# 5 -4.9742 -21.5468 -10.2000 0.0000 36.6697 0.0000
# 6 0.0000 0.0000 0.0000 1.6521 0.0000 17.7969
#
#
#
# Elastic Compliance Matrix: (Units=1/GPa)
#
#
# Indices 1 2 3 4 5 6 
#
# 1 0.014686 -0.003839 -0.002234 0.000000 -0.000885 0.000000
# 2 -0.003839 0.010059 -0.002026 0.000000 0.004827 0.000000
# 3 -0.002234 -0.002026 0.013446 0.000000 0.002247 0.000000
# 4 0.000000 0.000000 0.000000 0.093845 0.000000 -0.008712
# 5 -0.000885 0.004827 0.002247 0.000000 0.030611 0.000000
# 6 0.000000 0.000000 0.000000 -0.008712 0.000000 0.056998
#
#
# Mechanical properties :
#
#
# Convention : Reuss Voigt Hill
#
# Bulk Modulus (GPa) = 45.47090 51.83829 48.65459
# Shear Modulus (GPa) = 20.56122 26.91374 23.73748
#
# Velocity S-wave (km/s) = 3.11820 3.56753 3.35041
# Velocity P-wave (km/s) = 5.87086 6.44077 6.16241
#
# Compressibility (1/GPa) = 0.02199209
#
# Stress axis : x y z
#
# Youngs Moduli (GPa) = 68.09380 99.40929 74.36980
#
# Poissons Ratio (x) = 0.38168 0.16618
# Poissons Ratio (y) = 0.26144 0.15065
# Poissons Ratio (z) = 0.15216 0.20137
#
# Static dielectric constant tensor:
#      x y z
#    x 1.769110 0.000000 0.038950 
#    y 0.000000 1.828550 0.000000 
#    z 0.038950 0.000000 1.838340 
# 
# From -- ./inp_files/6339.got.cif
#   From: 2010.05.17/outbox.cif.g08.bks.cpg/sg8_4_cif.got.tgz:6339.got - 2010.06.03 19:46:02.
