data_PCOD9132346
_publ_section_title
;
Structure prediction by ZEFSAII (Michael W. Deem and Ramdas Pophale) SiO2 
 PCOD9132346
Probable space group: C M
;
_chemical_formula_sum "Si O2"
_cell_formula_units_Z 32
_cell_length_a 16.248891
_cell_length_b 13.287045
_cell_length_c 21.878926
_cell_angle_alpha 90.000000
_cell_angle_beta 160.234421
_cell_angle_gamma 90.000000
_cell_volume 1597.410620
_symmetry_space_group_name_H-M "C M"
_symmetry_group_IT_number 8
_symmetry_cell_setting 'monoclinic'
loop_
_space_group_symop_operation_xyz
x,y,z
x,-y,z
1/2+x,1/2+y,z
1/2+x,1/2-y,z
loop_
_atom_site_type_symbol
_atom_site_label
_atom_site_fract_x
_atom_site_fract_y
_atom_site_fract_z
Si Si1 0.802150 0.303232 0.792620
Si Si2 0.095269 0.889869 0.190223
Si Si3 0.780753 0.883818 0.468940
Si Si4 0.113978 0.618229 0.593195
Si Si5 0.142386 0.691902 0.146677
Si Si6 0.178447 0.750252 0.514842
Si Si7 0.387089 0.888024 0.086047
Si Si8 0.093019 0.316582 0.877761
O O1 0.545965 0.354074 0.629306
O O2 0.743863 0.186597 0.734760
O O3 0.927905 0.345700 0.819559
O O4 0.988888 0.318115 0.978171
O O5 0.319824 0.872252 0.393323
O O6 0.103783 0.804917 0.145054
O O7 0.134237 0.000000 0.190596
O O8 0.834710 0.881193 0.039594
O O9 0.709120 0.812208 0.474684
O O10 0.583901 0.874957 0.277272
O O11 0.784482 0.000000 0.492027
O O12 0.176262 0.500000 0.637303
O O13 0.160366 0.672523 0.559935
O O14 0.432301 0.684253 0.341663
O O15 0.029364 0.624053 0.121335
O O16 0.418847 0.814886 0.697141
O O17 0.279601 0.000000 0.014960
O O18 0.194872 0.797892 0.956348
#
# Coordination Sequence:
#
# PCOD9132346 Si02
#       8
#     4   4   4   4   4   4   4   4
#     4  11  22  35  55  80 111 146 182 224 269 323
#     4   9  18  35  57  78 105 140 177 220 270 322
#     4  11  22  36  57  83 110 144 186 229 273 324
#     4   9  19  36  58  82 108 139 177 225 276 324
#     4  10  21  37  56  80 111 144 180 225 273 321
#     4  10  20  36  56  80 112 145 180 225 272 322
#     4  10  21  38  59  83 111 142 181 229 277 326
#     4  10  20  35  55  80 110 144 180 221 271 324
#
# _framework density 20.032420999999999
#
# number of rings (size 3 to 8) (size 9 to 14) (size 15 to 20)
#    0.000    2.000    0.000    5.625    0.000    5.500 
#    0.000    0.625    0.000    0.750    0.000    0.000 
#    0.000    0.000    0.000    0.000    0.000    0.000 
#
# Total GULP energy -89328.109244 kJ/mol
# GULP energy per Si atom -5583.006828 kJ/mol
# Density = 1.998683 g / cm^3
# Si number density = 20.032421 Si / 1000 Ang^3
#
#
#
# Elastic Constant Matrix: (Units=GPa)
#
#
# Indices 1 2 3 4 5 6 
#
# 1 74.4656 -4.2582 28.5683 0.0041 -8.5782 0.0031
# 2 -4.2582 24.2504 1.3017 -0.0087 -5.2750 -0.0177
# 3 28.5683 1.3017 111.0949 0.0216 3.9766 0.0022
# 4 0.0041 -0.0087 0.0216 15.4173 0.0073 -6.6120
# 5 -8.5782 -5.2750 3.9766 0.0073 38.3288 0.0073
# 6 0.0031 -0.0177 0.0022 -6.6120 0.0073 9.2931
#
#
#
# Elastic Compliance Matrix: (Units=1/GPa)
#
#
# Indices 1 2 3 4 5 6 
#
# 1 0.015821 0.003994 -0.004277 0.000003 0.004534 0.000002
# 2 0.003994 0.043573 -0.001791 0.000080 0.007076 0.000134
# 3 -0.004277 -0.001791 0.010203 -0.000021 -0.002262 -0.000017
# 4 0.000003 0.000080 -0.000021 0.093346 -0.000017 0.066416
# 5 0.004534 0.007076 -0.002262 -0.000017 0.028313 -0.000022
# 6 0.000002 0.000134 -0.000017 0.066416 -0.000022 0.154862
#
#
# Mechanical properties :
#
#
# Convention : Reuss Voigt Hill
#
# Bulk Modulus (GPa) = 15.27921 29.00383 22.14152
# Shear Modulus (GPa) = 13.43784 24.88776 19.16280
#
# Velocity S-wave (km/s) = 2.59280 3.52856 3.09623
# Velocity P-wave (km/s) = 4.07520 5.57771 4.88457
#
# Compressibility (1/GPa) = 0.06544843
#
# Stress axis : x y z
#
# Youngs Moduli (GPa) = 63.20815 22.94982 98.00808
#
# Poissons Ratio (x) = -0.09166 0.41922
# Poissons Ratio (y) = -0.25245 0.17552
# Poissons Ratio (z) = 0.27037 0.04110
#
# Static dielectric constant tensor:
#      x y z
#    x 1.689490 0.000000 0.028240 
#    y 0.000000 1.715730 -0.000010 
#    z 0.028240 -0.000010 1.726490 
# 
# From -- ./inp_files/13255.got.cif
#   From: 2010.05.17/outbox.cif.g08.bks.cpg/sg8_7_cif.got.tgz:13255.got - 2010.06.03 19:46:02.
