data_PCOD9132663
_publ_section_title
;
Structure prediction by ZEFSAII (Michael W. Deem and Ramdas Pophale) SiO2 
 PCOD9132663
Probable space group: C M
;
_chemical_formula_sum "Si O2"
_cell_formula_units_Z 28
_cell_length_a 10.696829
_cell_length_b 15.483207
_cell_length_c 7.759771
_cell_angle_alpha 90.000000
_cell_angle_beta 69.637718
_cell_angle_gamma 90.000000
_cell_volume 1204.873263
_symmetry_space_group_name_H-M "C M"
_symmetry_group_IT_number 8
_symmetry_cell_setting 'monoclinic'
loop_
_space_group_symop_operation_xyz
x,y,z
x,-y,z
1/2+x,1/2+y,z
1/2+x,1/2-y,z
loop_
_atom_site_type_symbol
_atom_site_label
_atom_site_fract_x
_atom_site_fract_y
_atom_site_fract_z
Si Si1 0.856770 0.227656 0.401780
Si Si2 0.072020 0.099709 0.430916
Si Si3 0.124016 0.592713 0.065120
Si Si4 0.833225 0.231195 0.006851
Si Si5 0.822717 0.591944 0.059900
Si Si6 0.589679 0.240774 0.688335
Si Si7 0.489427 0.899822 0.478981
O O1 0.814181 0.229059 0.222518
O O2 0.743821 0.214868 0.600108
O O3 0.906559 0.323749 0.425078
O O4 0.963591 0.150240 0.365781
O O5 0.212068 0.091527 0.263102
O O6 0.086095 0.172020 0.572518
O O7 0.034500 0.000000 0.494919
O O8 0.173278 0.500000 0.981199
O O9 0.234116 0.662947 0.972665
O O10 0.974082 0.601366 0.060269
O O11 0.106863 0.591707 0.280748
O O12 0.787674 0.325490 0.965374
O O13 0.989943 0.230306 0.887418
O O14 0.814921 0.500000 0.973181
O O15 0.529197 0.152273 0.631618
O O16 0.440660 0.000000 0.523314
#
# Coordination Sequence:
#
# PCOD9132663 Si02
#       7
#     4   4   4   4   4   4   4
#     4  11  22  42  63  94 129 169 205 264 325 378
#     4  10  22  43  67  92 127 169 213 262 321 380
#     4  10  20  38  65  90 121 168 214 258 311 376
#     4  12  23  38  67  95 129 164 214 262 319 382
#     4  10  21  39  66  91 120 169 215 257 314 377
#     4  11  24  40  63  94 127 169 211 259 318 378
#     4  10  20  40  65  88 121 168 214 256 312 377
#
# _framework density 23.238959000000001
#
# number of rings (size 3 to 8) (size 9 to 14) (size 15 to 20)
#    0.000    1.429    4.286    0.857    0.000    5.143 
#    0.000    1.429    0.000    0.000    0.000    0.000 
#    0.000    0.000    0.000    0.000    0.000    0.000 
#
# Total GULP energy -77934.847215 kJ/mol
# GULP energy per Si atom -5566.774801 kJ/mol
# Density = 2.318607 g / cm^3
# Si number density = 23.238959 Si / 1000 Ang^3
#
#
#
# Elastic Constant Matrix: (Units=GPa)
#
#
# Indices 1 2 3 4 5 6 
#
# 1 69.7347 75.5904 21.8415 0.0000 -27.0593 0.0000
# 2 75.5904 230.5864 40.2342 0.0000 -14.2656 0.0000
# 3 21.8415 40.2342 100.7699 0.0000 -18.3298 0.0000
# 4 0.0000 0.0000 0.0000 14.7850 0.0000 -11.9002
# 5 -27.0593 -14.2656 -18.3298 0.0000 21.4234 0.0000
# 6 0.0000 0.0000 0.0000 -11.9002 0.0000 23.1104
#
#
#
# Elastic Compliance Matrix: (Units=1/GPa)
#
#
# Indices 1 2 3 4 5 6 
#
# 1 0.050875 -0.013929 0.005372 0.000000 0.059580 0.000000
# 2 -0.013929 0.008534 -0.003026 0.000000 -0.014499 0.000000
# 3 0.005372 -0.003026 0.012832 0.000000 0.015749 0.000000
# 4 0.000000 0.000000 0.000000 0.115510 0.000000 0.059480
# 5 0.059580 -0.014499 0.015749 0.000000 0.125751 0.000000
# 6 0.000000 0.000000 0.000000 0.059480 0.000000 0.073898
#
#
# Mechanical properties :
#
#
# Convention : Reuss Voigt Hill
#
# Bulk Modulus (GPa) = 20.37691 75.15815 47.76753
# Shear Modulus (GPa) = 11.71167 29.42541 20.56854
#
# Velocity S-wave (km/s) = 2.24736 3.56225 2.97827
# Velocity P-wave (km/s) = 3.93975 7.02361 5.69441
#
# Compressibility (1/GPa) = 0.04907515
#
# Stress axis : x y z
#
# Youngs Moduli (GPa) = 19.65601 117.18011 77.92969
#
# Poissons Ratio (x) = 1.63221 -0.41862
# Poissons Ratio (y) = 0.27379 0.23579
# Poissons Ratio (z) = -0.10559 0.35455
#
# Static dielectric constant tensor:
#      x y z
#    x 1.936680 0.000000 0.016710 
#    y 0.000000 1.927320 0.000000 
#    z 0.016710 0.000000 1.918410 
# 
# From -- ./inp_files/10712.got.cif
#   From: 2010.05.17/outbox.cif.g08.bks.cpg/sg8_6_cif.got.tgz:10712.got - 2010.06.03 19:46:02.
