data_PCOD9132853
_publ_section_title
;
Structure prediction by ZEFSAII (Michael W. Deem and Ramdas Pophale) SiO2 
 PCOD9132853
Probable space group: C M
;
_chemical_formula_sum "Si O2"
_cell_formula_units_Z 32
_cell_length_a 20.044337
_cell_length_b 7.931274
_cell_length_c 9.887370
_cell_angle_alpha 90.000000
_cell_angle_beta 75.492823
_cell_angle_gamma 90.000000
_cell_volume 1521.748753
_symmetry_space_group_name_H-M "C M"
_symmetry_group_IT_number 8
_symmetry_cell_setting 'monoclinic'
loop_
_space_group_symop_operation_xyz
x,y,z
x,-y,z
1/2+x,1/2+y,z
1/2+x,1/2-y,z
loop_
_atom_site_type_symbol
_atom_site_label
_atom_site_fract_x
_atom_site_fract_y
_atom_site_fract_z
Si Si1 0.510650 0.193885 0.483240
Si Si2 0.652680 0.695274 0.358362
Si Si3 0.413087 0.205692 0.302259
Si Si4 0.134238 0.795228 0.059682
Si Si5 0.268408 0.206982 0.502226
Si Si6 0.265765 0.203488 0.815492
Si Si7 0.919975 0.192315 0.766066
Si Si8 0.488002 0.200784 0.002178
O O1 0.580343 0.292966 0.473147
O O2 0.474882 0.263051 0.366944
O O3 0.454041 0.201715 0.628724
O O4 0.530563 0.000000 0.451631
O O5 0.671903 0.500000 0.328225
O O6 0.641997 0.764705 0.211761
O O7 0.710367 0.768793 0.427726
O O8 0.341611 0.259802 0.403457
O O9 0.431522 0.256667 0.141890
O O10 0.413356 0.000000 0.305422
O O11 0.063564 0.736959 0.024458
O O12 0.132112 0.000000 0.061617
O O13 0.201231 0.740788 0.939351
O O14 0.259720 0.261359 0.662136
O O15 0.266914 0.000000 0.505815
O O16 0.340918 0.256392 0.831393
O O17 0.264595 0.000000 0.815663
O O18 0.920759 0.000000 0.720050
O O19 0.968015 0.214236 0.872125
O O20 0.481860 0.000000 0.986126
#
# Coordination Sequence:
#
# PCOD9132853 Si02
#       8
#     4   4   4   4   4   4   4   4
#     4  11  21  40  65  89 118 158 205 256 308 365
#     4  10  21  36  59  91 125 161 200 249 301 357
#     4   9  18  35  63  90 114 150 203 254 296 352
#     4  10  22  38  59  90 128 165 204 249 301 361
#     4   9  18  35  60  88 117 155 201 245 294 354
#     4  10  21  40  63  87 121 165 207 248 299 364
#     4  12  26  42  61  90 124 160 205 260 315 365
#     4  11  23  40  64  91 121 162 209 255 306 366
#
# _framework density 21.028438999999999
#
# number of rings (size 3 to 8) (size 9 to 14) (size 15 to 20)
#    0.000    1.750    2.500    1.875    3.500    0.500 
#    0.000    0.625    0.000    0.000    0.000    0.000 
#    0.000    0.000    0.000    0.000    0.000    0.000 
#
# Total GULP energy -89353.555376 kJ/mol
# GULP energy per Si atom -5584.597211 kJ/mol
# Density = 2.098058 g / cm^3
# Si number density = 21.028439 Si / 1000 Ang^3
#
#
#
# Elastic Constant Matrix: (Units=GPa)
#
#
# Indices 1 2 3 4 5 6 
#
# 1 115.7474 1.1924 24.5962 0.0000 1.7473 0.0000
# 2 1.1924 30.9496 6.1231 0.0000 0.9657 0.0000
# 3 24.5962 6.1231 62.7741 0.0000 -3.9192 0.0000
# 4 0.0000 0.0000 0.0000 7.8137 0.0000 6.4142
# 5 1.7473 0.9657 -3.9192 0.0000 40.0978 0.0000
# 6 0.0000 0.0000 0.0000 6.4142 0.0000 18.4357
#
#
#
# Elastic Compliance Matrix: (Units=1/GPa)
#
#
# Indices 1 2 3 4 5 6 
#
# 1 0.009453 0.000411 -0.003794 0.000000 -0.000793 0.000000
# 2 0.000411 0.033014 -0.003453 0.000000 -0.001151 0.000000
# 3 -0.003794 -0.003453 0.017878 0.000000 0.001996 0.000000
# 4 0.000000 0.000000 0.000000 0.179145 0.000000 -0.062329
# 5 -0.000793 -0.001151 0.001996 0.000000 0.025196 0.000000
# 6 0.000000 0.000000 0.000000 -0.062329 0.000000 0.075929
#
#
# Mechanical properties :
#
#
# Convention : Reuss Voigt Hill
#
# Bulk Modulus (GPa) = 21.42528 30.36605 25.89566
# Shear Modulus (GPa) = 13.51918 25.10675 19.31296
#
# Velocity S-wave (km/s) = 2.53830 3.45910 3.03383
# Velocity P-wave (km/s) = 4.33606 5.51594 4.96120
#
# Compressibility (1/GPa) = 0.04667384
#
# Stress axis : x y z
#
# Youngs Moduli (GPa) = 105.78238 30.29033 55.93475
#
# Poissons Ratio (x) = -0.01245 0.21219
# Poissons Ratio (y) = -0.04348 0.19315
# Poissons Ratio (z) = 0.40130 0.10460
#
# Static dielectric constant tensor:
#      x y z
#    x 1.727180 0.000000 0.004580 
#    y 0.000000 1.767480 0.000000 
#    z 0.004580 0.000000 1.737090 
# 
# From -- ./inp_files/15811.got.cif
#   From: 2010.05.17/outbox.cif.g08.bks.cpg/sg8_8_cif.got.tgz:15811.got - 2010.06.03 19:46:02.
