data_PCOD9132744
_publ_section_title
;
Structure prediction by ZEFSAII (Michael W. Deem and Ramdas Pophale) SiO2 
 PCOD9132744
Probable space group: C M
;
_chemical_formula_sum "Si O2"
_cell_formula_units_Z 26
_cell_length_a 14.498227
_cell_length_b 15.622450
_cell_length_c 8.952779
_cell_angle_alpha 90.000000
_cell_angle_beta 142.577204
_cell_angle_gamma 90.000000
_cell_volume 1232.268432
_symmetry_space_group_name_H-M "C M"
_symmetry_group_IT_number 8
_symmetry_cell_setting 'monoclinic'
loop_
_space_group_symop_operation_xyz
x,y,z
x,-y,z
1/2+x,1/2+y,z
1/2+x,1/2-y,z
loop_
_atom_site_type_symbol
_atom_site_label
_atom_site_fract_x
_atom_site_fract_y
_atom_site_fract_z
Si Si1 0.385980 0.500000 0.364820
Si Si2 0.094386 0.851169 0.710319
Si Si3 0.063194 0.333927 0.372098
Si Si4 0.628260 0.000000 0.258700
Si Si5 0.437162 0.185068 0.643835
Si Si6 0.349490 0.765801 0.862236
Si Si7 0.289397 0.900661 0.228571
Si Si8 0.570858 0.000000 0.854015
O O1 0.481383 0.414213 0.482466
O O2 0.298033 0.500000 0.410800
O O3 0.252245 0.500000 0.073836
O O4 0.239385 0.837486 0.792059
O O5 0.019287 0.761780 0.662637
O O6 0.151048 0.892343 0.937126
O O7 0.936198 0.366427 0.325537
O O8 0.097880 0.414873 0.311743
O O9 0.220924 0.305345 0.653714
O O10 0.980645 0.261822 0.159731
O O11 0.532044 0.000000 0.981732
O O12 0.420667 0.208638 0.795261
O O13 0.279394 0.162866 0.356820
O O14 0.518457 0.092940 0.732800
O O15 0.303761 0.000000 0.288070
#
# Coordination Sequence:
#
# PCOD9132744 Si02
#       8
#     2   4   4   2   4   4   4   2
#     4  10  22  41  63  93 125 169 219 261 322 388
#     4  11  25  42  66  93 130 171 220 266 326 389
#     4  11  22  43  65  94 129 170 221 265 321 391
#     4  10  20  40  67  90 125 177 214 257 333 390
#     4  12  24  42  66  95 132 168 217 274 321 387
#     4  11  25  40  66  97 130 171 217 263 328 386
#     4  11  23  41  66  92 128 170 216 270 322 382
#     4  10  24  39  66  97 128 172 215 266 331 382
#
# _framework density 21.099298999999998
#
# number of rings (size 3 to 8) (size 9 to 14) (size 15 to 20)
#    0.462    0.615    5.385    0.923    4.308    0.615 
#    0.000    0.000    0.000    0.923    0.000    0.000 
#    0.000    0.000    0.000    0.000    0.000    0.000 
#
# Total GULP energy -72448.227819 kJ/mol
# GULP energy per Si atom -5572.940601 kJ/mol
# Density = 2.105128 g / cm^3
# Si number density = 21.099299 Si / 1000 Ang^3
#
#
#
# Elastic Constant Matrix: (Units=GPa)
#
#
# Indices 1 2 3 4 5 6 
#
# 1 44.5019 8.9958 -12.3731 0.0000 -2.6917 0.0000
# 2 8.9958 99.6752 15.7288 0.0000 11.3039 0.0000
# 3 -12.3731 15.7288 29.6632 0.0000 4.2161 0.0000
# 4 0.0000 0.0000 0.0000 32.4711 0.0000 13.6145
# 5 -2.6917 11.3039 4.2161 0.0000 28.4227 0.0000
# 6 0.0000 0.0000 0.0000 13.6145 0.0000 -0.6478
#
#
#
# Elastic Compliance Matrix: (Units=1/GPa)
#
#
# Indices 1 2 3 4 5 6 
#
# 1 0.027425 -0.004922 0.013690 0.000000 0.002524 0.000000
# 2 -0.004922 0.012198 -0.007932 0.000000 -0.004141 0.000000
# 3 0.013690 -0.007932 0.043922 0.000000 -0.002064 0.000000
# 4 0.000000 0.000000 0.000000 0.003139 0.000000 0.065965
# 5 0.002524 -0.004141 -0.002064 0.000000 0.037375 0.000000
# 6 0.000000 0.000000 0.000000 0.065965 0.000000 -0.157329
#
#
# Mechanical properties :
#
#
# Convention : Reuss Voigt Hill
#
# Bulk Modulus (GPa) = 11.73466 22.06036 16.89751
# Shear Modulus (GPa) = -764.82288 22.81514 -371.00387
#
# Velocity S-wave (km/s) = -19.05976 3.29191 -13.27474
# Velocity P-wave (km/s) = 21.88132 4.99271 15.06428
#
# Compressibility (1/GPa) = 0.08521762
#
# Stress axis : x y z
#
# Youngs Moduli (GPa) = 36.46314 81.98001 22.76773
#
# Poissons Ratio (x) = 0.40348 -0.31170
# Poissons Ratio (y) = 0.17946 0.18060
# Poissons Ratio (z) = -0.49920 0.65030
#
# Static dielectric constant tensor:
#      x y z
#    x 1.730320 0.000000 -0.008910 
#    y 0.000000 1.763530 0.000000 
#    z -0.008910 0.000000 1.861480 
# 
# From -- ./inp_files/10583.got.cif
#   From: 2010.05.17/outbox.cif.g08.bks.cpg/sg8_6_cif.got.tgz:10583.got - 2010.06.03 19:46:02.
