data_PCOD9132676
_publ_section_title
;
Structure prediction by ZEFSAII (Michael W. Deem and Ramdas Pophale) SiO2 
 PCOD9132676
Probable space group: C M
;
_chemical_formula_sum "Si O2"
_cell_formula_units_Z 24
_cell_length_a 8.222198
_cell_length_b 13.509729
_cell_length_c 14.776418
_cell_angle_alpha 90.000000
_cell_angle_beta 40.686056
_cell_angle_gamma 90.000000
_cell_volume 1070.025094
_symmetry_space_group_name_H-M "C M"
_symmetry_group_IT_number 8
_symmetry_cell_setting 'monoclinic'
loop_
_space_group_symop_operation_xyz
x,y,z
x,-y,z
1/2+x,1/2+y,z
1/2+x,1/2-y,z
loop_
_atom_site_type_symbol
_atom_site_label
_atom_site_fract_x
_atom_site_fract_y
_atom_site_fract_z
Si Si1 0.260300 0.815175 0.193900
Si Si2 0.793824 0.118015 0.266276
Si Si3 0.973837 0.109210 0.477498
Si Si4 0.141097 0.741672 0.750091
Si Si5 0.487662 0.893429 0.563762
Si Si6 0.686433 0.882928 0.891863
O O1 0.276708 0.695893 0.191840
O O2 0.041505 0.852387 0.218962
O O3 0.199372 0.848493 0.322782
O O4 0.513304 0.863400 0.051308
O O5 0.551719 0.137165 0.433787
O O6 0.800008 0.000000 0.244273
O O7 0.838170 0.178421 0.607015
O O8 0.757437 0.098665 0.494171
O O9 0.033205 0.000000 0.489705
O O10 0.330789 0.828453 0.698842
O O11 0.044503 0.666012 0.865678
O O12 0.927582 0.811527 0.797854
O O13 0.365029 0.000000 0.609707
O O14 0.732861 0.000000 0.860426
#
# Coordination Sequence:
#
# PCOD9132676 Si02
#       6
#     4   4   4   4   4   4
#     4  11  22  43  67  92 130 168 212 261 319 378
#     4  10  21  40  67  95 125 164 211 266 317 365
#     4  10  20  38  67  91 118 165 218 265 309 372
#     4  12  22  42  62  93 129 164 212 264 313 376
#     4   9  18  36  62  90 120 159 208 261 314 365
#     4  12  27  43  63  95 134 172 207 259 326 382
#
# _framework density 22.429379999999998
#
# number of rings (size 3 to 8) (size 9 to 14) (size 15 to 20)
#    0.000    1.333    3.333    4.500    0.000    0.000 
#    0.000    6.667    0.000    0.000    0.000    0.000 
#    0.000    0.000    0.000    0.000    0.000    0.000 
#
# Total GULP energy -66834.928627 kJ/mol
# GULP energy per Si atom -5569.577386 kJ/mol
# Density = 2.237833 g / cm^3
# Si number density = 22.429380 Si / 1000 Ang^3
#
#
#
# Elastic Constant Matrix: (Units=GPa)
#
#
# Indices 1 2 3 4 5 6 
#
# 1 12.5826 27.2992 -1.0538 -0.0006 -3.1963 0.0003
# 2 27.2992 185.5127 50.6929 -0.0004 1.4610 0.0004
# 3 -1.0538 50.6929 82.0657 -0.0013 2.7762 0.0013
# 4 -0.0006 -0.0004 -0.0013 33.5501 0.0009 3.6048
# 5 -3.1963 1.4610 2.7762 0.0009 18.9007 -0.0006
# 6 0.0003 0.0004 0.0013 3.6048 -0.0006 17.8955
#
#
#
# Elastic Compliance Matrix: (Units=1/GPa)
#
#
# Indices 1 2 3 4 5 6 
#
# 1 0.143122 -0.025903 0.017037 0.000003 0.023703 -0.000003
# 2 -0.025903 0.011173 -0.007092 -0.000001 -0.004202 0.000001
# 3 0.017037 -0.007092 0.016752 0.000001 0.000969 -0.000002
# 4 0.000003 -0.000001 0.000001 0.030466 -0.000001 -0.006137
# 5 0.023703 -0.004202 0.000969 -0.000001 0.057099 0.000002
# 6 -0.000003 0.000001 -0.000002 -0.006137 0.000002 0.057116
#
#
# Mechanical properties :
#
#
# Convention : Reuss Voigt Hill
#
# Bulk Modulus (GPa) = 7.18751 48.22640 27.70696
# Shear Modulus (GPa) = 12.68959 27.61744 20.15352
#
# Velocity S-wave (km/s) = 2.38115 3.51280 3.00080
# Velocity P-wave (km/s) = 3.28196 6.16451 4.93824
#
# Compressibility (1/GPa) = 0.13913025
#
# Stress axis : x y z
#
# Youngs Moduli (GPa) = 6.98703 89.49782 59.69284
#
# Poissons Ratio (x) = 2.31830 -1.01697
# Poissons Ratio (y) = 0.18099 0.42337
# Poissons Ratio (z) = -0.11904 0.63476
#
# Static dielectric constant tensor:
#      x y z
#    x 1.896190 0.000000 0.009370 
#    y 0.000000 1.911320 0.000000 
#    z 0.009370 0.000000 1.855120 
# 
# From -- ./inp_files/19844.got.cif
#   From: 2010.05.17/outbox.cif.g08.bks.cpg/sg8_10_cif.got.tgz:19844.got - 2010.06.03 19:46:02.
