data_PCOD9132261
_publ_section_title
;
Structure prediction by ZEFSAII (Michael W. Deem and Ramdas Pophale) SiO2 
 PCOD9132261
Probable space group: C M
;
_chemical_formula_sum "Si O2"
_cell_formula_units_Z 32
_cell_length_a 12.591527
_cell_length_b 13.708725
_cell_length_c 16.397508
_cell_angle_alpha 90.000000
_cell_angle_beta 36.420061
_cell_angle_gamma 90.000000
_cell_volume 1680.431658
_symmetry_space_group_name_H-M "C M"
_symmetry_group_IT_number 8
_symmetry_cell_setting 'monoclinic'
loop_
_space_group_symop_operation_xyz
x,y,z
x,-y,z
1/2+x,1/2+y,z
1/2+x,1/2-y,z
loop_
_atom_site_type_symbol
_atom_site_label
_atom_site_fract_x
_atom_site_fract_y
_atom_site_fract_z
Si Si1 0.346330 0.112727 0.141450
Si Si2 0.917053 0.893870 0.746204
Si Si3 0.438994 0.240318 0.932875
Si Si4 0.008077 0.729104 0.584368
Si Si5 0.619737 0.115511 0.676196
Si Si6 0.045694 0.885640 0.440095
Si Si7 0.662813 0.891751 0.060391
Si Si8 0.707088 0.613242 0.698636
O O1 0.463097 0.120807 0.151679
O O2 0.145121 0.136535 0.293510
O O3 0.355065 0.000000 0.109365
O O4 0.431960 0.177322 0.018305
O O5 0.877744 0.803899 0.713371
O O6 0.109997 0.878282 0.670648
O O7 0.912068 0.000000 0.708204
O O8 0.780428 0.897375 0.904828
O O9 0.497949 0.173029 0.818570
O O10 0.579107 0.329267 0.840142
O O11 0.248272 0.296742 0.048010
O O12 0.114338 0.808921 0.465476
O O13 0.899189 0.661448 0.589597
O O14 0.091437 0.663444 0.604311
O O15 0.830615 0.125258 0.567086
O O16 0.576379 0.000000 0.702480
O O17 0.085501 0.000000 0.432637
O O18 0.681669 0.000000 0.088406
O O19 0.712448 0.500000 0.715332
#
# Coordination Sequence:
#
# PCOD9132261 Si02
#       8
#     4   4   4   4   4   4   4   4
#     4  10  22  39  58  81 113 152 193 232 274 333
#     4   9  17  30  50  79 108 135 174 225 277 327
#     4  11  19  35  60  84 113 145 185 234 289 332
#     4  12  18  34  55  81 110 144 184 229 282 330
#     4  11  23  36  55  86 117 146 188 236 284 336
#     4  10  23  40  57  81 114 153 195 233 275 333
#     4   9  18  33  55  83 110 139 183 233 281 328
#     4  10  20  33  52  83 115 142 176 226 284 337
#
# _framework density 19.042725999999998
#
# number of rings (size 3 to 8) (size 9 to 14) (size 15 to 20)
#    0.000    1.750    3.750    3.000    0.000    1.000 
#    0.000    0.000    0.000    3.000    0.000    0.000 
#    0.000    0.000    0.000    0.000    0.000    0.000 
#
# Total GULP energy -89102.542484 kJ/mol
# GULP energy per Si atom -5568.908905 kJ/mol
# Density = 1.899938 g / cm^3
# Si number density = 19.042726 Si / 1000 Ang^3
#
#
#
# Elastic Constant Matrix: (Units=GPa)
#
#
# Indices 1 2 3 4 5 6 
#
# 1 50.2802 41.3497 15.4416 -0.0001 -5.8886 0.0001
# 2 41.3497 147.0673 28.5375 -0.0002 4.6478 0.0001
# 3 15.4416 28.5375 47.1880 -0.0004 3.3834 0.0002
# 4 -0.0001 -0.0002 -0.0004 19.2215 0.0002 0.8264
# 5 -5.8886 4.6478 3.3834 0.0002 16.3636 -0.0001
# 6 0.0001 0.0001 0.0002 0.8264 -0.0001 29.7102
#
#
#
# Elastic Compliance Matrix: (Units=1/GPa)
#
#
# Indices 1 2 3 4 5 6 
#
# 1 0.029671 -0.007600 -0.006125 0.000000 0.014102 0.000000
# 2 -0.007600 0.009675 -0.003016 0.000000 -0.004859 0.000000
# 3 -0.006125 -0.003016 0.025494 0.000001 -0.006619 0.000000
# 4 0.000000 0.000000 0.000001 0.052087 -0.000001 -0.001449
# 5 0.014102 -0.004859 -0.006619 -0.000001 0.068935 0.000000
# 6 0.000000 0.000000 0.000000 -0.001449 0.000000 0.033699
#
#
# Mechanical properties :
#
#
# Convention : Reuss Voigt Hill
#
# Bulk Modulus (GPa) = 31.88738 46.13256 39.00997
# Shear Modulus (GPa) = 18.97570 23.67284 21.32427
#
# Velocity S-wave (km/s) = 3.16013 3.52965 3.34999
# Velocity P-wave (km/s) = 5.48605 6.39450 5.95762
#
# Compressibility (1/GPa) = 0.03136036
#
# Stress axis : x y z
#
# Youngs Moduli (GPa) = 33.70317 103.35844 39.22415
#
# Poissons Ratio (x) = 0.78547 0.24023
# Poissons Ratio (y) = 0.25613 0.11829
# Poissons Ratio (z) = 0.20642 0.31171
#
# Static dielectric constant tensor:
#      x y z
#    x 1.726480 0.000000 -0.032260 
#    y 0.000000 1.694080 0.000000 
#    z -0.032260 0.000000 1.675240 
# 
# From -- ./inp_files/13149.got.cif
#   From: 2010.05.17/outbox.cif.g08.bks.cpg/sg8_7_cif.got.tgz:13149.got - 2010.06.03 19:46:02.
