data_PCOD9132842
_publ_section_title
;
Structure prediction by ZEFSAII (Michael W. Deem and Ramdas Pophale) SiO2 
 PCOD9132842
Probable space group: C M
;
_chemical_formula_sum "Si O2"
_cell_formula_units_Z 28
_cell_length_a 6.830997
_cell_length_b 30.731683
_cell_length_c 7.228271
_cell_angle_alpha 90.000000
_cell_angle_beta 135.492588
_cell_angle_gamma 90.000000
_cell_volume 1063.711440
_symmetry_space_group_name_H-M "C M"
_symmetry_group_IT_number 8
_symmetry_cell_setting 'monoclinic'
loop_
_space_group_symop_operation_xyz
x,y,z
x,-y,z
1/2+x,1/2+y,z
1/2+x,1/2-y,z
loop_
_atom_site_type_symbol
_atom_site_label
_atom_site_fract_x
_atom_site_fract_y
_atom_site_fract_z
Si Si1 0.732050 0.049108 0.250000
Si Si2 0.931147 0.694469 0.466338
Si Si3 0.730857 0.400528 0.749106
Si Si4 0.902458 0.765303 0.170575
Si Si5 0.073002 0.049108 0.091324
Si Si6 0.873737 0.694473 0.874797
Si Si7 0.574202 0.099471 0.592248
O O1 0.923589 0.081948 0.496141
O O2 0.902502 0.047154 0.170638
O O3 0.731239 0.000000 0.324349
O O4 0.423648 0.066438 0.994881
O O5 0.048427 0.733579 0.419715
O O6 0.605370 0.702616 0.196655
O O7 0.902408 0.696036 0.670545
O O8 0.057266 0.648174 0.501762
O O9 0.747687 0.351822 0.839482
O O10 0.902563 0.397898 0.670711
O O11 0.756456 0.733585 0.921404
O O12 0.699516 0.797379 0.144472
O O13 0.381399 0.066434 0.346492
O O14 0.073816 0.000000 0.016974
O O15 0.881494 0.081952 0.845193
#
# Coordination Sequence:
#
# PCOD9132842 Si02
#       7
#     4   4   4   4   4   4   4
#     4   9  16  28  46  76 110 145 185 232 285 343
#     4  10  21  36  58  81 117 148 198 236 295 342
#     4   9  18  28  50  75 110 148 184 235 284 341
#     4  10  22  38  56  84 110 156 192 244 290 348
#     4   9  16  28  46  76 110 145 185 232 285 343
#     4  10  21  36  58  81 117 148 198 236 295 342
#     4   9  18  28  50  75 110 148 184 235 284 341
#
# _framework density 26.322928000000001
#
# number of rings (size 3 to 8) (size 9 to 14) (size 15 to 20)
#    0.000    2.571    0.000    1.714   10.000    3.429 
#    0.000    0.000    0.000    0.000    0.000    6.000 
#    0.000    0.000    0.000    0.000    0.000    0.000 
#
# Total GULP energy -78220.301628 kJ/mol
# GULP energy per Si atom -5587.164402 kJ/mol
# Density = 2.626302 g / cm^3
# Si number density = 26.322928 Si / 1000 Ang^3
#
#
#
# Elastic Constant Matrix: (Units=GPa)
#
#
# Indices 1 2 3 4 5 6 
#
# 1 65.0505 14.9990 27.6985 0.0000 -0.9679 0.0000
# 2 14.9990 235.3570 98.6563 0.0000 33.2536 0.0000
# 3 27.6985 98.6563 122.6317 0.0000 11.0478 0.0000
# 4 0.0000 0.0000 0.0000 25.1066 0.0000 -9.8112
# 5 -0.9679 33.2536 11.0478 0.0000 69.3805 0.0000
# 6 0.0000 0.0000 0.0000 -9.8112 0.0000 28.4161
#
#
#
# Elastic Compliance Matrix: (Units=1/GPa)
#
#
# Indices 1 2 3 4 5 6 
#
# 1 0.017132 0.000704 -0.004491 0.000000 0.000617 0.000000
# 2 0.000704 0.006817 -0.005428 0.000000 -0.002393 0.000000
# 3 -0.004491 -0.005428 0.013501 0.000000 0.000389 0.000000
# 4 0.000000 0.000000 0.000000 0.046042 0.000000 0.015897
# 5 0.000617 -0.002393 0.000389 0.000000 0.015507 0.000000
# 6 0.000000 0.000000 0.000000 0.015897 0.000000 0.040680
#
#
# Mechanical properties :
#
#
# Convention : Reuss Voigt Hill
#
# Bulk Modulus (GPa) = 52.57885 78.41631 65.49758
# Shear Modulus (GPa) = 30.40440 43.35968 36.88204
#
# Velocity S-wave (km/s) = 3.40230 4.06300 3.74724
# Velocity P-wave (km/s) = 5.95416 7.20176 6.60748
#
# Compressibility (1/GPa) = 0.01901905
#
# Stress axis : x y z
#
# Youngs Moduli (GPa) = 58.37042 146.68269 74.07097
#
# Poissons Ratio (x) = -0.10321 0.33267
# Poissons Ratio (y) = -0.04107 0.40205
# Poissons Ratio (z) = 0.26215 0.79618
#
# Static dielectric constant tensor:
#      x y z
#    x 2.287720 0.000000 0.017660 
#    y 0.000000 1.956700 0.000000 
#    z 0.017660 0.000000 2.172260 
# 
# From -- ./inp_files/9327.got.cif
#   From: 2010.05.17/outbox.cif.g08.bks.cpg/sg8_5_cif.got.tgz:9327.got - 2010.06.03 19:46:02.
