data_PCOD9132799
_publ_section_title
;
Structure prediction by ZEFSAII (Michael W. Deem and Ramdas Pophale) SiO2 
 PCOD9132799
Probable space group: C M
;
_chemical_formula_sum "Si O2"
_cell_formula_units_Z 24
_cell_length_a 5.063226
_cell_length_b 14.054231
_cell_length_c 16.419479
_cell_angle_alpha 90.000000
_cell_angle_beta 108.527805
_cell_angle_gamma 90.000000
_cell_volume 1107.846988
_symmetry_space_group_name_H-M "C M"
_symmetry_group_IT_number 8
_symmetry_cell_setting 'monoclinic'
loop_
_space_group_symop_operation_xyz
x,y,z
x,-y,z
1/2+x,1/2+y,z
1/2+x,1/2-y,z
loop_
_atom_site_type_symbol
_atom_site_label
_atom_site_fract_x
_atom_site_fract_y
_atom_site_fract_z
Si Si1 0.306790 0.692009 0.251080
Si Si2 0.907823 0.188417 0.729154
Si Si3 0.992034 0.500000 0.945450
Si Si4 0.272029 0.615481 0.538125
Si Si5 0.668190 0.613518 0.433306
Si Si6 0.877920 0.000000 0.834960
Si Si7 0.719734 0.182228 0.062289
O O1 0.494652 0.785642 0.249989
O O2 0.481245 0.643892 0.339311
O O3 0.289403 0.644898 0.160524
O O4 0.716244 0.270431 0.748763
O O5 0.795287 0.161536 0.628557
O O6 0.890572 0.094104 0.781288
O O7 0.658200 0.500000 0.916446
O O8 0.104397 0.500000 0.863973
O O9 0.110826 0.595026 0.998815
O O10 0.270325 0.500000 0.547752
O O11 0.527474 0.641416 0.504850
O O12 0.988140 0.644764 0.464537
O O13 0.671856 0.500000 0.432856
O O14 0.485992 0.264012 0.051245
#
# Coordination Sequence:
#
# PCOD9132799 Si02
#       7
#     4   4   2   4   4   2   4
#     4  10  21  37  57  86 127 164 202 263 306 354
#     4  12  26  44  70  96 128 174 210 260 329 381
#     4  12  26  44  76  94 124 178 200 260 344 380
#     4  10  21  40  58  87 130 166 211 267 304 363
#     4  10  21  34  59  88 123 170 210 255 305 359
#     4  12  28  48  66 102 132 154 216 274 314 398
#     4  10  23  43  66  98 133 165 214 265 311 384
#
# _framework density 21.663643
#
# number of rings (size 3 to 8) (size 9 to 14) (size 15 to 20)
#    0.000    1.333    0.833    4.000    1.167    8.000 
#    0.000    0.000    0.000    0.000    0.000    0.000 
#    0.000    0.000    0.000    0.000    0.000    0.000 
#
# Total GULP energy -67141.568832 kJ/mol
# GULP energy per Si atom -5595.130736 kJ/mol
# Density = 2.161434 g / cm^3
# Si number density = 21.663643 Si / 1000 Ang^3
#
#
#
# Elastic Constant Matrix: (Units=GPa)
#
#
# Indices 1 2 3 4 5 6 
#
# 1 70.5105 -14.8285 -16.4267 0.0000 0.9622 0.0000
# 2 -14.8285 74.5135 21.1749 0.0000 -9.9488 0.0000
# 3 -16.4267 21.1749 64.3256 0.0000 -2.4482 0.0000
# 4 0.0000 0.0000 0.0000 51.6312 0.0000 9.6146
# 5 0.9622 -9.9488 -2.4482 0.0000 31.2547 0.0000
# 6 0.0000 0.0000 0.0000 9.6146 0.0000 24.4342
#
#
#
# Elastic Compliance Matrix: (Units=1/GPa)
#
#
# Indices 1 2 3 4 5 6 
#
# 1 0.015391 0.002212 0.003221 0.000000 0.000483 0.000000
# 2 0.002212 0.015736 -0.004440 0.000000 0.004593 0.000000
# 3 0.003221 -0.004440 0.017826 0.000000 -0.000116 0.000000
# 4 0.000000 0.000000 0.000000 0.020900 0.000000 -0.008224
# 5 0.000483 0.004593 -0.000116 0.000000 0.033433 0.000000
# 6 0.000000 0.000000 0.000000 -0.008224 0.000000 0.044162
#
#
# Mechanical properties :
#
#
# Convention : Reuss Voigt Hill
#
# Bulk Modulus (GPa) = 19.63190 21.02099 20.32645
# Shear Modulus (GPa) = 30.78033 36.09269 33.43651
#
# Velocity S-wave (km/s) = 3.77348 4.08615 3.93292
# Velocity P-wave (km/s) = 5.29786 5.65567 5.47969
#
# Compressibility (1/GPa) = 0.05093750
#
# Stress axis : x y z
#
# Youngs Moduli (GPa) = 64.97217 63.55005 56.09923
#
# Poissons Ratio (x) = -0.14058 -0.18067
# Poissons Ratio (y) = -0.14373 0.24909
# Poissons Ratio (z) = -0.20925 0.28217
#
# Static dielectric constant tensor:
#      x y z
#    x 1.754480 0.000000 -0.000240 
#    y 0.000000 1.763310 0.000000 
#    z -0.000240 0.000000 1.773990 
# 
# From -- ./inp_files/24907.got.cif
#   From: 2010.05.17/outbox.cif.g08.bks.cpg/sg8_13_cif.got.tgz:24907.got - 2010.06.03 19:46:02.
