data_PCOD9132115
_publ_section_title
;
Structure prediction by ZEFSAII (Michael W. Deem and Ramdas Pophale) SiO2 
 PCOD9132115
Probable space group: C M
;
_chemical_formula_sum "Si O2"
_cell_formula_units_Z 28
_cell_length_a 19.409701
_cell_length_b 9.215119
_cell_length_c 18.010800
_cell_angle_alpha 90.000000
_cell_angle_beta 157.883290
_cell_angle_gamma 90.000000
_cell_volume 1212.862006
_symmetry_space_group_name_H-M "C M"
_symmetry_group_IT_number 8
_symmetry_cell_setting 'monoclinic'
loop_
_space_group_symop_operation_xyz
x,y,z
x,-y,z
1/2+x,1/2+y,z
1/2+x,1/2-y,z
loop_
_atom_site_type_symbol
_atom_site_label
_atom_site_fract_x
_atom_site_fract_y
_atom_site_fract_z
Si Si1 0.668330 0.834405 0.192180
Si Si2 0.909533 0.158919 0.186084
Si Si3 0.212690 0.671778 0.405801
Si Si4 0.336117 0.828288 0.746743
Si Si5 0.609066 0.761148 0.780520
Si Si6 0.117213 0.156654 0.941510
Si Si7 0.542257 0.824956 0.548139
O O1 0.622603 0.825410 0.233894
O O2 0.830994 0.723070 0.337851
O O3 0.737218 0.000000 0.248337
O O4 0.489873 0.812538 0.964712
O O5 0.768581 0.142355 0.975429
O O6 0.783027 0.233284 0.122199
O O7 0.973671 0.000000 0.271656
O O8 0.071438 0.263288 0.323046
O O9 0.255408 0.500000 0.463160
O O10 0.389631 0.776760 0.572714
O O11 0.430615 0.737816 0.775111
O O12 0.154172 0.751036 0.593979
O O13 0.317658 0.000000 0.713323
O O14 0.635203 0.639733 0.870306
O O15 0.624758 0.758855 0.708016
O O16 0.129640 0.000000 0.989991
O O17 0.561450 0.000000 0.567347
#
# Coordination Sequence:
#
# PCOD9132115 Si02
#       7
#     4   4   4   4   4   4   4
#     4   9  21  39  59  88 121 158 201 246 297 353
#     4  10  21  36  56  86 121 154 190 238 299 356
#     4  10  19  35  61  90 118 153 199 245 294 353
#     4  11  23  41  63  87 123 163 200 248 301 356
#     4   9  22  38  62  89 122 155 196 249 298 348
#     4  10  22  41  63  86 119 160 204 250 298 356
#     4  11  22  38  64  94 122 157 200 246 299 358
#
# _framework density 23.085889000000002
#
# number of rings (size 3 to 8) (size 9 to 14) (size 15 to 20)
#    0.857    1.143    0.000    3.429    0.000    5.714 
#    2.571    0.000    0.000    0.000    0.000    0.000 
#    0.000    0.000    0.000    0.000    0.000    0.000 
#
# Total GULP energy -77954.018826 kJ/mol
# GULP energy per Si atom -5568.144202 kJ/mol
# Density = 2.303334 g / cm^3
# Si number density = 23.085889 Si / 1000 Ang^3
#
#
#
# Elastic Constant Matrix: (Units=GPa)
#
#
# Indices 1 2 3 4 5 6 
#
# 1 86.2262 48.8565 13.5857 0.0001 23.9228 0.0000
# 2 48.8565 115.6709 27.1004 0.0005 25.5158 0.0000
# 3 13.5857 27.1004 98.3998 0.0008 6.2827 0.0003
# 4 0.0001 0.0005 0.0008 -19.6979 0.0002 -8.7418
# 5 23.9228 25.5158 6.2827 0.0002 53.0607 0.0000
# 6 0.0000 0.0000 0.0003 -8.7418 0.0000 1.9748
#
#
#
# Elastic Compliance Matrix: (Units=1/GPa)
#
#
# Indices 1 2 3 4 5 6 
#
# 1 0.016155 -0.005752 -0.000361 0.000000 -0.004475 0.000000
# 2 -0.005752 0.012308 -0.002401 0.000000 -0.003041 0.000000
# 3 -0.000361 -0.002401 0.010872 0.000000 0.000030 0.000000
# 4 0.000000 0.000000 0.000000 -0.017125 0.000000 -0.075806
# 5 -0.004475 -0.003041 0.000030 0.000000 0.022323 0.000000
# 6 0.000000 0.000000 0.000000 -0.075806 0.000000 0.170815
#
#
# Mechanical properties :
#
#
# Convention : Reuss Voigt Hill
#
# Bulk Modulus (GPa) = 44.82895 53.26466 49.04681
# Shear Modulus (GPa) = 20.84971 21.11780 20.98375
#
# Velocity S-wave (km/s) = 3.00848 3.02776 3.01814
# Velocity P-wave (km/s) = 5.61502 5.94522 5.78248
#
# Compressibility (1/GPa) = 0.02230701
#
# Stress axis : x y z
#
# Youngs Moduli (GPa) = 61.90137 81.24722 91.98035
#
# Poissons Ratio (x) = 0.46731 0.03317
# Poissons Ratio (y) = 0.35604 0.22089
# Poissons Ratio (z) = 0.02232 0.19511
#
# Static dielectric constant tensor:
#      x y z
#    x 1.914350 0.000000 -0.073790 
#    y 0.000000 1.892110 0.000000 
#    z -0.073790 0.000000 1.919490 
# 
# From -- ./inp_files/32320.got.cif
#   From: 2010.05.17/outbox.cif.g08.bks.cpg/sg8_17_cif.got.tgz:32320.got - 2010.06.03 19:46:02.
