data_PCOD9132385
_publ_section_title
;
Structure prediction by ZEFSAII (Michael W. Deem and Ramdas Pophale) SiO2 
 PCOD9132385
Probable space group: C M
;
_chemical_formula_sum "Si O2"
_cell_formula_units_Z 32
_cell_length_a 20.447383
_cell_length_b 8.805347
_cell_length_c 20.221518
_cell_angle_alpha 90.000000
_cell_angle_beta 150.169290
_cell_angle_gamma 90.000000
_cell_volume 1811.080674
_symmetry_space_group_name_H-M "C M"
_symmetry_group_IT_number 8
_symmetry_cell_setting 'monoclinic'
loop_
_space_group_symop_operation_xyz
x,y,z
x,-y,z
1/2+x,1/2+y,z
1/2+x,1/2-y,z
loop_
_atom_site_type_symbol
_atom_site_label
_atom_site_fract_x
_atom_site_fract_y
_atom_site_fract_z
Si Si1 0.195540 0.818891 0.103600
Si Si2 0.937717 0.180652 0.057828
Si Si3 0.234936 0.818491 0.366620
Si Si4 0.183451 0.818054 0.595101
Si Si5 0.645629 0.819089 0.422227
Si Si6 0.389492 0.681988 0.384361
Si Si7 0.362385 0.682224 0.138027
Si Si8 0.917857 0.319314 0.900717
O O1 0.294027 0.751412 0.245058
O O2 0.246123 0.755255 0.077992
O O3 0.202843 0.000000 0.111601
O O4 0.049617 0.763829 0.992380
O O5 0.862446 0.217093 0.059912
O O6 0.091876 0.212852 0.207851
O O7 0.926707 0.000000 0.036345
O O8 0.892685 0.269747 0.954025
O O9 0.228728 0.744748 0.433492
O O10 0.343993 0.749308 0.414407
O O11 0.247692 0.000000 0.383134
O O12 0.200916 0.733504 0.541057
O O13 0.296369 0.780690 0.746654
O O14 0.039538 0.780767 0.497757
O O15 0.186256 0.000000 0.585666
O O16 0.500233 0.746253 0.286903
O O17 0.635594 0.000000 0.409564
O O18 0.374749 0.500000 0.371731
O O19 0.362717 0.500000 0.146141
O O20 0.939131 0.500000 0.916668
#
# Coordination Sequence:
#
# PCOD9132385 Si02
#       8
#     4   4   4   4   4   4   4   4
#     4  12  23  36  57  88 119 149 194 244 289 345
#     4   9  19  35  56  83 116 149 187 236 288 341
#     4  10  20  35  57  85 119 151 188 240 289 342
#     4  10  23  41  59  83 118 157 195 237 291 349
#     4  11  21  34  57  87 117 151 193 239 290 346
#     4  11  21  36  60  86 115 150 194 245 289 341
#     4  10  20  36  58  84 116 151 191 241 290 341
#     4  11  23  39  60  84 116 158 196 236 290 349
#
# _framework density 17.669007000000001
#
# number of rings (size 3 to 8) (size 9 to 14) (size 15 to 20)
#    0.000    1.500    2.500    4.500    0.000    4.000 
#    0.000    1.250    0.000    3.000    0.000    0.000 
#    0.000    0.000    0.000    0.000    0.000    0.000 
#
# Total GULP energy -89403.305658 kJ/mol
# GULP energy per Si atom -5587.706604 kJ/mol
# Density = 1.762879 g / cm^3
# Si number density = 17.669007 Si / 1000 Ang^3
#
#
#
# Elastic Constant Matrix: (Units=GPa)
#
#
# Indices 1 2 3 4 5 6 
#
# 1 148.0961 68.1218 67.5240 0.0000 -13.4224 0.0000
# 2 68.1218 88.1632 61.7151 0.0000 -10.4422 0.0000
# 3 67.5240 61.7151 101.1696 0.0000 -8.6723 0.0000
# 4 0.0000 0.0000 0.0000 11.2274 0.0000 -6.0012
# 5 -13.4224 -10.4422 -8.6723 0.0000 25.1337 0.0000
# 6 0.0000 0.0000 0.0000 -6.0012 0.0000 36.4478
#
#
#
# Elastic Compliance Matrix: (Units=1/GPa)
#
#
# Indices 1 2 3 4 5 6 
#
# 1 0.011406 -0.005843 -0.003849 0.000000 0.002336 0.000000
# 2 -0.005843 0.023224 -0.010004 0.000000 0.003077 0.000000
# 3 -0.003849 -0.010004 0.018572 0.000000 0.000197 0.000000
# 4 0.000000 0.000000 0.000000 0.097663 0.000000 0.016080
# 5 0.002336 0.003077 0.000197 0.000000 0.042381 0.000000
# 6 0.000000 0.000000 0.000000 0.016080 0.000000 0.030084
#
#
# Mechanical properties :
#
#
# Convention : Reuss Voigt Hill
#
# Bulk Modulus (GPa) = 72.39631 81.35007 76.87319
# Shear Modulus (GPa) = 18.70375 23.89963 21.30169
#
# Velocity S-wave (km/s) = 3.25709 3.68180 3.47594
# Velocity P-wave (km/s) = 7.43017 8.01344 7.72731
#
# Compressibility (1/GPa) = 0.01381286
#
# Stress axis : x y z
#
# Youngs Moduli (GPa) = 87.66972 43.05818 53.84318
#
# Poissons Ratio (x) = 0.25158 0.20722
# Poissons Ratio (y) = 0.51223 0.53864
# Poissons Ratio (z) = 0.33741 0.43075
#
# Static dielectric constant tensor:
#      x y z
#    x 1.607230 0.000000 -0.004410 
#    y 0.000000 1.587020 0.000000 
#    z -0.004410 0.000000 1.573880 
# 
# From -- ./inp_files/31366.got.cif
#   From: 2010.05.17/outbox.cif.g08.bks.cpg/sg8_16_cif.got.tgz:31366.got - 2010.06.03 19:46:02.
