data_PCOD9132228
_publ_section_title
;
Structure prediction by ZEFSAII (Michael W. Deem and Ramdas Pophale) SiO2 
 PCOD9132228
Probable space group: C M
;
_chemical_formula_sum "Si O2"
_cell_formula_units_Z 28
_cell_length_a 7.334054
_cell_length_b 31.453532
_cell_length_c 6.900578
_cell_angle_alpha 90.000000
_cell_angle_beta 139.043517
_cell_angle_gamma 90.000000
_cell_volume 1043.427230
_symmetry_space_group_name_H-M "C M"
_symmetry_group_IT_number 8
_symmetry_cell_setting 'monoclinic'
loop_
_space_group_symop_operation_xyz
x,y,z
x,-y,z
1/2+x,1/2+y,z
1/2+x,1/2-y,z
loop_
_atom_site_type_symbol
_atom_site_label
_atom_site_fract_x
_atom_site_fract_y
_atom_site_fract_z
Si Si1 0.503710 0.098191 0.475990
Si Si2 0.995596 0.046592 0.971301
Si Si3 0.408181 0.721034 0.719414
Si Si4 0.642499 0.894606 0.131060
Si Si5 0.298361 0.187402 0.324148
Si Si6 0.136674 0.048223 0.626400
Si Si7 0.280469 0.297859 0.171185
O O1 0.584853 0.109158 0.317901
O O2 0.351777 0.139617 0.430576
O O3 0.774563 0.084312 0.809010
O O4 0.290893 0.059142 0.296679
O O5 0.043951 0.044644 0.777408
O O6 0.898979 0.000000 0.956617
O O7 0.104640 0.708189 0.559236
O O8 0.059042 0.792523 0.266674
O O9 0.646478 0.689158 0.992757
O O10 0.540046 0.765695 0.902446
O O11 0.694816 0.847126 0.098396
O O12 0.891599 0.928490 0.316846
O O13 0.385293 0.918549 0.829862
O O14 0.365401 0.286520 0.458155
O O15 0.199153 0.000000 0.614281
#
# Coordination Sequence:
#
# PCOD9132228 Si02
#       7
#     4   4   4   4   4   4   4
#     4  10  19  39  67 104 152 201 262 329 391 479
#     4   9  17  31  61 104 150 201 257 319 394 475
#     4  12  33  55  82 121 160 212 281 343 414 501
#     4  10  21  39  73 106 157 206 262 330 394 484
#     4  12  30  53  85 115 161 216 271 345 416 491
#     4   9  18  34  64 109 154 205 259 319 394 477
#     4  12  32  57  88 119 166 219 278 343 427 485
#
# _framework density 26.834647
#
# number of rings (size 3 to 8) (size 9 to 14) (size 15 to 20)
#    0.000    1.429    1.429    1.714    8.000    8.000 
#    0.000    0.000    0.000    5.143    0.000    0.000 
#    0.000    0.000    0.000    0.000    0.000    0.000 
#
# Total GULP energy -78580.626773 kJ/mol
# GULP energy per Si atom -5612.901912 kJ/mol
# Density = 2.677357 g / cm^3
# Si number density = 26.834647 Si / 1000 Ang^3
#
#
#
# Elastic Constant Matrix: (Units=GPa)
#
#
# Indices 1 2 3 4 5 6 
#
# 1 109.3690 30.3608 41.6280 0.0000 -7.3533 0.0000
# 2 30.3608 216.2955 74.7354 0.0000 9.3112 0.0000
# 3 41.6280 74.7354 211.3641 0.0000 -2.8395 0.0000
# 4 0.0000 0.0000 0.0000 12.4147 0.0000 13.7694
# 5 -7.3533 9.3112 -2.8395 0.0000 52.4651 0.0000
# 6 0.0000 0.0000 0.0000 13.7694 0.0000 33.1703
#
#
#
# Elastic Compliance Matrix: (Units=1/GPa)
#
#
# Indices 1 2 3 4 5 6 
#
# 1 0.010126 -0.000915 -0.001651 0.000000 0.001492 0.000000
# 2 -0.000915 0.005406 -0.001747 0.000000 -0.001182 0.000000
# 3 -0.001651 -0.001747 0.005679 0.000000 0.000386 0.000000
# 4 0.000000 0.000000 0.000000 0.149278 0.000000 -0.061967
# 5 0.001492 -0.001182 0.000386 0.000000 0.019500 0.000000
# 6 0.000000 0.000000 0.000000 -0.061967 0.000000 0.055871
#
#
# Mechanical properties :
#
#
# Convention : Reuss Voigt Hill
#
# Bulk Modulus (GPa) = 79.45734 92.27523 85.86628
# Shear Modulus (GPa) = 19.32874 45.63032 32.47953
#
# Velocity S-wave (km/s) = 2.68673 4.12810 3.48279
# Velocity P-wave (km/s) = 6.26889 7.56193 6.94557
#
# Compressibility (1/GPa) = 0.01258537
#
# Stress axis : x y z
#
# Youngs Moduli (GPa) = 98.75533 184.96623 176.07948
#
# Poissons Ratio (x) = 0.16929 0.29064
# Poissons Ratio (y) = 0.09039 0.30765
# Poissons Ratio (z) = 0.16301 0.32318
#
# Static dielectric constant tensor:
#      x y z
#    x 2.229530 0.000000 -0.047860 
#    y 0.000000 2.029450 0.000000 
#    z -0.047860 0.000000 1.998220 
# 
# From -- ./inp_files/27115.got.cif
#   From: 2010.05.17/outbox.cif.g08.bks.cpg/sg8_14_cif.got.tgz:27115.got - 2010.06.03 19:46:02.
