data_PCOD9132773
_publ_section_title
;
Structure prediction by ZEFSAII (Michael W. Deem and Ramdas Pophale) SiO2 
 PCOD9132773
Probable space group: C M
;
_chemical_formula_sum "Si O2"
_cell_formula_units_Z 28
_cell_length_a 9.059840
_cell_length_b 27.152981
_cell_length_c 4.820858
_cell_angle_alpha 90.000000
_cell_angle_beta 76.008619
_cell_angle_gamma 90.000000
_cell_volume 1150.754774
_symmetry_space_group_name_H-M "C M"
_symmetry_group_IT_number 8
_symmetry_cell_setting 'monoclinic'
loop_
_space_group_symop_operation_xyz
x,y,z
x,-y,z
1/2+x,1/2+y,z
1/2+x,1/2-y,z
loop_
_atom_site_type_symbol
_atom_site_label
_atom_site_fract_x
_atom_site_fract_y
_atom_site_fract_z
Si Si1 0.223500 0.442326 0.737450
Si Si2 0.517348 0.055311 0.339534
Si Si3 0.106949 0.162784 0.160600
Si Si4 0.304700 0.654557 0.012571
Si Si5 0.521338 0.806897 0.452029
Si Si6 0.757127 0.249571 0.715365
Si Si7 0.768527 0.623007 0.622579
O O1 0.283845 0.500000 0.711441
O O2 0.162072 0.427311 0.462228
O O3 0.315407 0.396327 0.832514
O O4 0.074912 0.443361 0.000533
O O5 0.351829 0.078084 0.443868
O O6 0.503703 0.000000 0.445168
O O7 0.182207 0.211180 0.970481
O O8 0.168385 0.118315 0.937764
O O9 0.926335 0.158089 0.205644
O O10 0.171092 0.152878 0.437102
O O11 0.339884 0.704317 0.827134
O O12 0.129916 0.666495 0.184330
O O13 0.623782 0.775159 0.604835
O O14 0.381357 0.771321 0.441843
O O15 0.421855 0.848067 0.650013
#
# Coordination Sequence:
#
# PCOD9132773 Si02
#       7
#     4   4   4   4   4   4   4
#     4  10  22  41  71 108 137 176 236 290 345 416
#     4  10  20  41  71 104 136 174 232 293 345 411
#     4  11  28  44  66  95 146 175 234 276 349 410
#     4  12  26  42  71  96 138 194 223 294 349 407
#     4  11  26  40  68  89 138 176 237 271 348 397
#     4  11  26  44  61 100 131 188 229 290 329 430
#     4  11  24  46  65 102 131 185 223 290 337 421
#
# _framework density 24.331856999999999
#
# number of rings (size 3 to 8) (size 9 to 14) (size 15 to 20)
#    0.000    1.143    2.857    1.714   12.000    0.000 
#    0.000    1.429    0.000    0.000    0.000    0.000 
#    0.000    0.000    0.000    0.000    0.000    0.000 
#
# Total GULP energy -78084.119908 kJ/mol
# GULP energy per Si atom -5577.437136 kJ/mol
# Density = 2.427648 g / cm^3
# Si number density = 24.331857 Si / 1000 Ang^3
#
#
#
# Elastic Constant Matrix: (Units=GPa)
#
#
# Indices 1 2 3 4 5 6 
#
# 1 126.5899 31.7744 19.9068 0.0000 6.7808 0.0000
# 2 31.7744 103.1153 -1.2802 0.0000 5.2594 0.0000
# 3 19.9068 -1.2802 71.9840 0.0000 1.1722 0.0000
# 4 0.0000 0.0000 0.0000 30.6255 0.0000 2.7452
# 5 6.7808 5.2594 1.1722 0.0000 35.2971 0.0000
# 6 0.0000 0.0000 0.0000 2.7452 0.0000 26.2513
#
#
#
# Elastic Compliance Matrix: (Units=1/GPa)
#
#
# Indices 1 2 3 4 5 6 
#
# 1 0.009057 -0.002759 -0.002533 0.000000 -0.001245 0.000000
# 2 -0.002759 0.010615 0.000969 0.000000 -0.001084 0.000000
# 3 -0.002533 0.000969 0.014612 0.000000 -0.000143 0.000000
# 4 0.000000 0.000000 0.000000 0.032961 0.000000 -0.003447
# 5 -0.001245 -0.001084 -0.000143 0.000000 0.028736 0.000000
# 6 0.000000 0.000000 0.000000 -0.003447 0.000000 0.038454
#
#
# Mechanical properties :
#
#
# Convention : Reuss Voigt Hill
#
# Bulk Modulus (GPa) = 39.00359 44.72125 41.86242
# Shear Modulus (GPa) = 32.97538 35.18733 34.08136
#
# Velocity S-wave (km/s) = 3.68535 3.80694 3.74664
# Velocity P-wave (km/s) = 5.84582 6.14356 5.99654
#
# Compressibility (1/GPa) = 0.02563867
#
# Stress axis : x y z
#
# Youngs Moduli (GPa) = 110.41091 94.20344 68.43608
#
# Poissons Ratio (x) = 0.25989 0.17338
# Poissons Ratio (y) = 0.30461 -0.06634
# Poissons Ratio (z) = 0.27972 -0.09132
#
# Static dielectric constant tensor:
#      x y z
#    x 1.991200 0.000000 -0.011290 
#    y 0.000000 2.120220 0.000000 
#    z -0.011290 0.000000 1.950720 
# 
# From -- ./inp_files/1866.got.cif
#   From: 2010.05.17/outbox.cif.g08.bks.cpg/sg8_1_cif.got.tgz:1866.got - 2010.06.03 19:46:02.
