data_PCOD9132376
_publ_section_title
;
Structure prediction by ZEFSAII (Michael W. Deem and Ramdas Pophale) SiO2 
 PCOD9132376
Probable space group: C M
;
_chemical_formula_sum "Si O2"
_cell_formula_units_Z 32
_cell_length_a 14.752350
_cell_length_b 7.903098
_cell_length_c 25.894571
_cell_angle_alpha 90.000000
_cell_angle_beta 150.244757
_cell_angle_gamma 90.000000
_cell_volume 1498.331897
_symmetry_space_group_name_H-M "C M"
_symmetry_group_IT_number 8
_symmetry_cell_setting 'monoclinic'
loop_
_space_group_symop_operation_xyz
x,y,z
x,-y,z
1/2+x,1/2+y,z
1/2+x,1/2-y,z
loop_
_atom_site_type_symbol
_atom_site_label
_atom_site_fract_x
_atom_site_fract_y
_atom_site_fract_z
Si Si1 0.524990 0.804602 0.057640
Si Si2 0.786319 0.705988 0.678916
Si Si3 0.730570 0.197561 0.440325
Si Si4 0.059442 0.694831 0.667049
Si Si5 0.647141 0.802656 0.907441
Si Si6 0.416128 0.300942 0.891125
Si Si7 0.960005 0.206266 0.453176
Si Si8 0.847095 0.196764 0.286916
O O1 0.688688 0.728600 0.172754
O O2 0.569431 0.000000 0.068590
O O3 0.336221 0.793441 0.995768
O O4 0.489570 0.721223 0.984834
O O5 0.775437 0.500000 0.679631
O O6 0.679729 0.788815 0.674141
O O7 0.668910 0.752855 0.570706
O O8 0.996721 0.752020 0.790395
O O9 0.835685 0.255016 0.440572
O O10 0.543160 0.293421 0.356716
O O11 0.871078 0.219048 0.557483
O O12 0.688498 0.000000 0.413688
O O13 0.015969 0.500000 0.658246
O O14 0.206531 0.763362 0.781027
O O15 0.546771 0.781897 0.912843
O O16 0.687079 0.000000 0.918356
O O17 0.408741 0.500000 0.874942
O O18 0.881604 0.272708 0.360750
O O19 0.959398 0.000000 0.450599
O O20 0.795758 0.000000 0.269478
#
# Coordination Sequence:
#
# PCOD9132376 Si02
#       8
#     4   4   4   4   4   4   4   4
#     4  11  24  39  55  80 114 152 196 242 284 331
#     4   8  15  30  54  82 109 138 175 221 275 335
#     4  10  20  35  57  84 112 144 179 221 276 333
#     4   9  17  31  54  83 112 142 178 222 275 335
#     4  10  20  36  59  86 115 146 183 232 288 344
#     4  10  21  38  60  84 112 150 192 235 285 337
#     4   8  16  34  57  78 105 140 174 212 267 331
#     4  10  22  39  56  77 107 146 191 233 272 322
#
# _framework density 21.357082999999999
#
# number of rings (size 3 to 8) (size 9 to 14) (size 15 to 20)
#    0.000    2.500    0.000    2.625    0.000    5.000 
#    0.000    6.875    0.000    0.000    0.000    0.000 
#    0.000    0.000    0.000    0.000    0.000    0.000 
#
# Total GULP energy -89270.657581 kJ/mol
# GULP energy per Si atom -5579.416099 kJ/mol
# Density = 2.130847 g / cm^3
# Si number density = 21.357083 Si / 1000 Ang^3
#
#
#
# Elastic Constant Matrix: (Units=GPa)
#
#
# Indices 1 2 3 4 5 6 
#
# 1 80.9768 -8.1264 57.9730 0.0000 -11.4382 0.0000
# 2 -8.1264 26.8103 4.8727 0.0000 -2.2699 0.0001
# 3 57.9730 4.8727 204.4853 0.0002 -13.3490 0.0000
# 4 0.0000 0.0000 0.0002 16.5250 0.0000 3.6431
# 5 -11.4382 -2.2699 -13.3490 0.0000 31.3864 0.0000
# 6 0.0000 0.0001 0.0000 3.6431 0.0000 20.6049
#
#
#
# Elastic Compliance Matrix: (Units=1/GPa)
#
#
# Indices 1 2 3 4 5 6 
#
# 1 0.016990 0.006393 -0.004664 0.000000 0.004670 0.000000
# 2 0.006393 0.040043 -0.002495 0.000000 0.004165 0.000000
# 3 -0.004664 -0.002495 0.006325 0.000000 0.000810 0.000000
# 4 0.000000 0.000000 0.000000 0.062969 0.000000 -0.011133
# 5 0.004670 0.004165 0.000810 0.000000 0.034209 0.000000
# 6 0.000000 0.000000 0.000000 -0.011133 0.000000 0.050501
#
#
# Mechanical properties :
#
#
# Convention : Reuss Voigt Hill
#
# Bulk Modulus (GPa) = 16.17463 46.85678 31.51571
# Shear Modulus (GPa) = 21.44304 30.87348 26.15826
#
# Velocity S-wave (km/s) = 3.17207 3.80621 3.50352
# Velocity P-wave (km/s) = 4.58322 6.42679 5.58165
#
# Compressibility (1/GPa) = 0.06182520
#
# Stress axis : x y z
#
# Youngs Moduli (GPa) = 58.85955 24.97329 158.10392
#
# Poissons Ratio (x) = -0.15965 0.73742
# Poissons Ratio (y) = -0.37627 0.39442
# Poissons Ratio (z) = 0.27453 0.06230
#
# Static dielectric constant tensor:
#      x y z
#    x 1.762550 0.000000 -0.013640 
#    y 0.000000 1.775240 0.000000 
#    z -0.013640 0.000000 1.803960 
# 
# From -- ./inp_files/26579.got.cif
#   From: 2010.05.17/outbox.cif.g08.bks.cpg/sg8_14_cif.got.tgz:26579.got - 2010.06.03 19:46:02.
