data_PCOD9132064
_publ_section_title
;
Structure prediction by ZEFSAII (Michael W. Deem and Ramdas Pophale) SiO2 
 PCOD9132064
Probable space group: C M
;
_chemical_formula_sum "Si O2"
_cell_formula_units_Z 32
_cell_length_a 14.529294
_cell_length_b 8.575901
_cell_length_c 16.248550
_cell_angle_alpha 90.000000
_cell_angle_beta 116.558161
_cell_angle_gamma 90.000000
_cell_volume 1810.964699
_symmetry_space_group_name_H-M "C M"
_symmetry_group_IT_number 8
_symmetry_cell_setting 'monoclinic'
loop_
_space_group_symop_operation_xyz
x,y,z
x,-y,z
1/2+x,1/2+y,z
1/2+x,1/2-y,z
loop_
_atom_site_type_symbol
_atom_site_label
_atom_site_fract_x
_atom_site_fract_y
_atom_site_fract_z
Si Si1 0.345560 0.311521 0.004880
Si Si2 0.448124 0.185721 0.210011
Si Si3 0.195307 0.309986 0.704379
Si Si4 0.165146 0.186501 0.350859
Si Si5 0.122080 0.312274 0.852854
Si Si6 0.871953 0.813499 0.350858
Si Si7 0.417014 0.312274 0.852857
Si Si8 0.089528 0.311909 0.492812
O O1 0.350665 0.500000 0.015089
O O2 0.395113 0.234126 0.103989
O O3 0.226179 0.267586 0.942905
O O4 0.402969 0.267585 0.942909
O O5 0.563289 0.254373 0.262731
O O6 0.385677 0.254373 0.262728
O O7 0.453340 0.000000 0.220445
O O8 0.195177 0.500000 0.704119
O O9 0.135952 0.260517 0.763537
O O10 0.313821 0.260518 0.763541
O O11 0.142552 0.260065 0.598865
O O12 0.150930 0.249527 0.438043
O O13 0.268331 0.250003 0.350422
O O14 0.165873 0.000000 0.351989
O O15 0.119169 0.500000 0.851158
O O16 0.020064 0.250000 0.853891
O O17 0.973354 0.750466 0.438040
O O18 0.872363 0.000000 0.351991
O O19 0.418228 0.500000 0.851161
O O20 0.087581 0.500000 0.488913
#
# Coordination Sequence:
#
# PCOD9132064 Si02
#       8
#     4   4   4   4   4   4   4   4
#     4   9  19  36  54  73 105 144 176 212 263 317
#     4  11  22  37  57  82 109 138 176 220 269 320
#     4   8  17  34  54  76 106 142 174 210 260 316
#     4  11  22  38  57  79 108 141 179 220 266 317
#     4   9  18  34  54  76 104 139 177 216 260 309
#     4  11  22  38  57  79 108 141 179 220 266 317
#     4   9  18  34  54  76 104 139 177 216 260 309
#     4  10  19  35  57  81 110 142 178 220 268 317
#
# _framework density 17.67014
#
# number of rings (size 3 to 8) (size 9 to 14) (size 15 to 20)
#    0.000    2.250    0.000    6.750    0.000    3.000 
#    0.000    9.375    0.000    0.000    0.000    0.000 
#    0.000    0.000    0.000    0.000    0.000    0.000 
#
# Total GULP energy -89304.726422 kJ/mol
# GULP energy per Si atom -5581.545401 kJ/mol
# Density = 1.762992 g / cm^3
# Si number density = 17.670140 Si / 1000 Ang^3
#
#
#
# Elastic Constant Matrix: (Units=GPa)
#
#
# Indices 1 2 3 4 5 6 
#
# 1 201.3554 55.8711 105.0363 0.0000 -0.0072 0.0000
# 2 55.8711 94.7140 56.2445 0.0000 -0.0024 0.0000
# 3 105.0363 56.2445 188.7225 0.0000 -0.0069 0.0000
# 4 0.0000 0.0000 0.0000 26.7308 0.0000 -0.0005
# 5 -0.0072 -0.0024 -0.0069 0.0000 4.6801 0.0000
# 6 0.0000 0.0000 0.0000 -0.0005 0.0000 36.0100
#
#
#
# Elastic Compliance Matrix: (Units=1/GPa)
#
#
# Indices 1 2 3 4 5 6 
#
# 1 0.007399 -0.002332 -0.003423 0.000000 0.000005 0.000000
# 2 -0.002332 0.013563 -0.002744 0.000000 -0.000001 0.000000
# 3 -0.003423 -0.002744 0.008022 0.000000 0.000005 0.000000
# 4 0.000000 0.000000 0.000000 0.037410 0.000000 0.000001
# 5 0.000005 -0.000001 0.000005 0.000000 0.213669 0.000000
# 6 0.000000 0.000000 0.000000 0.000001 0.000000 0.027770
#
#
# Mechanical properties :
#
#
# Convention : Reuss Voigt Hill
#
# Bulk Modulus (GPa) = 83.43395 102.12171 92.77783
# Shear Modulus (GPa) = 15.20554 31.32686 23.26620
#
# Velocity S-wave (km/s) = 2.93665 4.21511 3.63257
# Velocity P-wave (km/s) = 7.66932 9.03374 8.37935
#
# Compressibility (1/GPa) = 0.01198553
#
# Stress axis : x y z
#
# Youngs Moduli (GPa) = 135.15318 73.72782 124.65947
#
# Poissons Ratio (x) = 0.17192 0.42672
# Poissons Ratio (y) = 0.31516 0.34212
# Poissons Ratio (z) = 0.46264 0.20234
#
# Static dielectric constant tensor:
#      x y z
#    x 1.575490 0.000000 0.000000 
#    y 0.000000 1.599940 0.000000 
#    z 0.000000 0.000000 1.590510 
# 
# From -- ./inp_files/26578.got.cif
#   From: 2010.05.17/outbox.cif.g08.bks.cpg/sg8_14_cif.got.tgz:26578.got - 2010.06.03 19:46:02.
