data_PCOD9132374
_publ_section_title
;
Structure prediction by ZEFSAII (Michael W. Deem and Ramdas Pophale) SiO2 
 PCOD9132374
Probable space group: C M
;
_chemical_formula_sum "Si O2"
_cell_formula_units_Z 28
_cell_length_a 14.149198
_cell_length_b 9.395315
_cell_length_c 20.879250
_cell_angle_alpha 90.000000
_cell_angle_beta 153.085808
_cell_angle_gamma 90.000000
_cell_volume 1256.394287
_symmetry_space_group_name_H-M "C M"
_symmetry_group_IT_number 8
_symmetry_cell_setting 'monoclinic'
loop_
_space_group_symop_operation_xyz
x,y,z
x,-y,z
1/2+x,1/2+y,z
1/2+x,1/2-y,z
loop_
_atom_site_type_symbol
_atom_site_label
_atom_site_fract_x
_atom_site_fract_y
_atom_site_fract_z
Si Si1 0.518230 0.834827 0.244630
Si Si2 0.033839 0.850529 0.921568
Si Si3 0.573981 0.232890 0.811947
Si Si4 0.049717 0.165793 0.132501
Si Si5 0.424711 0.672923 0.309648
Si Si6 0.111075 0.159457 0.554952
Si Si7 0.653259 0.669560 0.718841
O O1 0.579105 0.743282 0.219094
O O2 0.553605 0.746708 0.330646
O O3 0.590994 0.000000 0.289588
O O4 0.267380 0.843056 0.087171
O O5 0.053539 0.848163 0.856417
O O6 0.892047 0.722631 0.859555
O O7 0.935269 0.000000 0.883389
O O8 0.360879 0.149337 0.697295
O O9 0.564213 0.279450 0.732400
O O10 0.804286 0.169363 0.964632
O O11 0.190992 0.262335 0.171252
O O12 0.115176 0.000000 0.172469
O O13 0.424752 0.500000 0.304141
O O14 0.522356 0.723343 0.436372
O O15 0.063383 0.224797 0.596006
O O16 0.025590 0.000000 0.504487
O O17 0.643144 0.500000 0.710809
#
# Coordination Sequence:
#
# PCOD9132374 Si02
#       7
#     4   4   4   4   4   4   4
#     4  10  21  38  60  86 118 155 198 247 297 350
#     4   9  19  34  53  83 118 147 185 239 294 348
#     4  10  20  36  61  87 115 150 194 242 291 344
#     4  11  23  39  62  92 122 154 196 244 296 356
#     4  11  23  40  61  86 122 162 199 243 295 352
#     4   9  21  40  58  83 117 154 196 241 289 343
#     4  10  20  35  57  83 114 152 194 238 288 345
#
# _framework density 22.285997999999999
#
# number of rings (size 3 to 8) (size 9 to 14) (size 15 to 20)
#    0.000    2.000    0.000    3.000    0.000   10.286 
#    0.000    8.571    0.000    0.000    0.000    0.000 
#    0.000    0.000    0.000    0.000    0.000    0.000 
#
# Total GULP energy -78050.372235 kJ/mol
# GULP energy per Si atom -5575.026588 kJ/mol
# Density = 2.223527 g / cm^3
# Si number density = 22.285998 Si / 1000 Ang^3
#
#
#
# Elastic Constant Matrix: (Units=GPa)
#
#
# Indices 1 2 3 4 5 6 
#
# 1 159.4601 43.8252 44.6102 0.0001 -30.1715 -0.0001
# 2 43.8252 109.1666 19.1487 0.0004 -12.9453 0.0000
# 3 44.6102 19.1487 75.8193 0.0031 -11.4407 0.0009
# 4 0.0001 0.0004 0.0031 11.5835 0.0009 -1.8333
# 5 -30.1715 -12.9453 -11.4407 0.0009 47.6836 -0.0001
# 6 -0.0001 0.0000 0.0009 -1.8333 -0.0001 5.9509
#
#
#
# Elastic Compliance Matrix: (Units=1/GPa)
#
#
# Indices 1 2 3 4 5 6 
#
# 1 0.008780 -0.002358 -0.003973 0.000001 0.003962 0.000001
# 2 -0.002358 0.010425 -0.001083 0.000000 0.001078 0.000000
# 3 -0.003973 -0.001083 0.015954 -0.000005 0.001020 -0.000004
# 4 0.000001 0.000000 -0.000005 0.090755 -0.000002 0.027959
# 5 0.003962 0.001078 0.001020 -0.000002 0.024016 -0.000001
# 6 0.000001 0.000000 -0.000004 0.027959 -0.000001 0.176656
#
#
# Mechanical properties :
#
#
# Convention : Reuss Voigt Hill
#
# Bulk Modulus (GPa) = 49.18315 62.17938 55.68127
# Shear Modulus (GPa) = 14.35994 28.83439 21.59716
#
# Velocity S-wave (km/s) = 2.54115 3.60089 3.11640
# Velocity P-wave (km/s) = 5.54319 6.72680 6.16347
#
# Compressibility (1/GPa) = 0.02033217
#
# Stress axis : x y z
#
# Youngs Moduli (GPa) = 113.89021 95.92529 62.67998
#
# Poissons Ratio (x) = 0.22621 0.24901
# Poissons Ratio (y) = 0.26857 0.06786
# Poissons Ratio (z) = 0.45245 0.10385
#
# Static dielectric constant tensor:
#      x y z
#    x 1.849400 0.000000 -0.025010 
#    y 0.000000 1.789470 0.000000 
#    z -0.025010 0.000000 1.877120 
# 
# From -- ./inp_files/30750.got.cif
#   From: 2010.05.17/outbox.cif.g08.bks.cpg/sg8_16_cif.got.tgz:30750.got - 2010.06.03 19:46:02.
