data_PCOD9132849
_publ_section_title
;
Structure prediction by ZEFSAII (Michael W. Deem and Ramdas Pophale) SiO2 
 PCOD9132849
Probable space group: C M
;
_chemical_formula_sum "Si O2"
_cell_formula_units_Z 24
_cell_length_a 19.036177
_cell_length_b 7.406706
_cell_length_c 16.263888
_cell_angle_alpha 90.000000
_cell_angle_beta 37.567105
_cell_angle_gamma 90.000000
_cell_volume 1398.100600
_symmetry_space_group_name_H-M "C M"
_symmetry_group_IT_number 8
_symmetry_cell_setting 'monoclinic'
loop_
_space_group_symop_operation_xyz
x,y,z
x,-y,z
1/2+x,1/2+y,z
1/2+x,1/2-y,z
loop_
_atom_site_type_symbol
_atom_site_label
_atom_site_fract_x
_atom_site_fract_y
_atom_site_fract_z
Si Si1 0.271730 0.500000 0.468670
Si Si2 0.950275 0.000000 0.152170
Si Si3 0.851494 0.781952 0.934108
Si Si4 0.077445 0.789047 0.621188
Si Si5 0.077706 0.283963 0.429226
Si Si6 0.979973 0.000000 0.399164
Si Si7 0.157926 0.000000 0.081463
Si Si8 0.327329 0.708089 0.140615
O O1 0.349405 0.500000 0.313967
O O2 0.187445 0.671170 0.543817
O O3 0.359272 0.500000 0.463403
O O4 0.926079 0.175443 0.116929
O O5 0.070728 0.000000 0.086005
O O6 0.965148 0.734817 0.777370
O O7 0.837859 0.000000 0.940601
O O8 0.740344 0.674457 0.005580
O O9 0.864503 0.721889 0.017691
O O10 0.054172 0.758844 0.546084
O O11 0.099206 0.000000 0.615506
O O12 0.067561 0.500000 0.428201
O O13 0.209036 0.218361 0.287557
O O14 0.998325 0.173574 0.440234
O O15 0.079108 0.000000 0.236786
O O16 0.294700 0.500000 0.152354
#
# Coordination Sequence:
#
# PCOD9132849 Si02
#       8
#     2   2   4   4   4   2   2   4
#     4  11  21  40  54  88 122 144 184 255 284 335
#     4   9  18  34  59  84 112 148 182 234 291 329
#     4  10  21  36  59  85 112 147 196 234 270 344
#     4  11  21  36  63  84 112 156 199 229 285 345
#     4  11  19  36  60  84 110 152 194 239 280 334
#     4  11  24  34  59  90 118 144 192 244 291 339
#     4  11  21  34  60  86 114 150 182 233 302 325
#     4   8  15  33  57  77 105 144 183 228 270 325
#
# _framework density 17.166146999999999
#
# number of rings (size 3 to 8) (size 9 to 14) (size 15 to 20)
#    0.500    1.333    5.000    0.500    0.000    0.667 
#    0.000    4.167    3.667    0.000    0.000    0.000 
#    0.000    0.000    0.000    0.000    0.000    0.000 
#
# Total GULP energy -66831.719844 kJ/mol
# GULP energy per Si atom -5569.309987 kJ/mol
# Density = 1.712708 g / cm^3
# Si number density = 17.166147 Si / 1000 Ang^3
#
#
#
# Elastic Constant Matrix: (Units=GPa)
#
#
# Indices 1 2 3 4 5 6 
#
# 1 164.1241 47.2685 82.3966 0.0000 -6.0135 0.0000
# 2 47.2685 93.3691 39.5890 -0.0001 -10.2515 0.0000
# 3 82.3966 39.5890 127.4764 -0.0001 7.8756 0.0000
# 4 0.0000 -0.0001 -0.0001 5.5878 0.0000 2.1184
# 5 -6.0135 -10.2515 7.8756 0.0000 28.1857 0.0000
# 6 0.0000 0.0000 0.0000 2.1184 0.0000 23.4823
#
#
#
# Elastic Compliance Matrix: (Units=1/GPa)
#
#
# Indices 1 2 3 4 5 6 
#
# 1 0.009732 -0.002145 -0.005804 0.000000 0.002918 0.000000
# 2 -0.002145 0.013761 -0.003224 0.000000 0.005448 0.000000
# 3 -0.005804 -0.003224 0.012970 0.000000 -0.006035 0.000000
# 4 0.000000 0.000000 0.000000 0.185298 0.000000 -0.016716
# 5 0.002918 0.005448 -0.006035 0.000000 0.039769 0.000000
# 6 0.000000 0.000000 0.000000 -0.016716 0.000000 0.044093
#
#
# Mechanical properties :
#
#
# Convention : Reuss Voigt Hill
#
# Bulk Modulus (GPa) = 70.83756 80.38643 75.61200
# Shear Modulus (GPa) = 15.02967 25.83219 20.43093
#
# Velocity S-wave (km/s) = 2.96216 3.88343 3.45365
# Velocity P-wave (km/s) = 7.28386 8.18768 7.74896
#
# Compressibility (1/GPa) = 0.01411680
#
# Stress axis : x y z
#
# Youngs Moduli (GPa) = 102.75719 72.66772 77.09952
#
# Poissons Ratio (x) = 0.15589 0.44751
# Poissons Ratio (y) = 0.22044 0.24854
# Poissons Ratio (z) = 0.59643 0.23425
#
# Static dielectric constant tensor:
#      x y z
#    x 1.569770 0.000000 0.026740 
#    y 0.000000 1.615130 0.000000 
#    z 0.026740 0.000000 1.579330 
# 
# From -- ./inp_files/26495.got.cif
#   From: 2010.05.17/outbox.cif.g08.bks.cpg/sg8_14_cif.got.tgz:26495.got - 2010.06.03 19:46:02.
