data_PCOD9132942
_publ_section_title
;
Structure prediction by ZEFSAII (Michael W. Deem and Ramdas Pophale) SiO2 
 PCOD9132942
Probable space group: C M
;
_chemical_formula_sum "Si O2"
_cell_formula_units_Z 32
_cell_length_a 18.164241
_cell_length_b 15.108851
_cell_length_c 12.614889
_cell_angle_alpha 90.000000
_cell_angle_beta 152.668606
_cell_angle_gamma 90.000000
_cell_volume 1589.548696
_symmetry_space_group_name_H-M "C M"
_symmetry_group_IT_number 8
_symmetry_cell_setting 'monoclinic'
loop_
_space_group_symop_operation_xyz
x,y,z
x,-y,z
1/2+x,1/2+y,z
1/2+x,1/2-y,z
loop_
_atom_site_type_symbol
_atom_site_label
_atom_site_fract_x
_atom_site_fract_y
_atom_site_fract_z
Si Si1 0.220450 0.602986 0.939700
Si Si2 0.940383 0.675297 0.882449
Si Si3 0.839544 0.097281 0.642927
Si Si4 0.490490 0.101300 0.155398
Si Si5 0.351662 0.894491 0.545472
Si Si6 0.750557 0.167436 0.740243
Si Si7 0.166228 0.190854 0.113500
Si Si8 0.902786 0.276977 0.233774
O O1 0.259092 0.500000 0.012204
O O2 0.240392 0.623582 0.840709
O O3 0.034791 0.617727 0.736856
O O4 0.335306 0.677984 0.135649
O O5 0.845786 0.651474 0.654054
O O6 0.881489 0.758870 0.877700
O O7 0.931083 0.600649 0.958881
O O8 0.117268 0.707223 0.073032
O O9 0.676049 0.134575 0.383859
O O10 0.786213 0.094624 0.697392
O O11 0.868740 0.000000 0.636375
O O12 0.003329 0.151200 0.853565
O O13 0.398210 0.165667 0.118940
O O14 0.491902 0.000000 0.197837
O O15 0.229429 0.854794 0.302089
O O16 0.324364 0.000000 0.521016
O O17 0.585288 0.217055 0.503596
O O18 0.299736 0.179810 0.195281
#
# Coordination Sequence:
#
# PCOD9132942 Si02
#       8
#     4   4   4   4   4   4   4   4
#     4  11  22  40  64  94 127 167 213 261 317 377
#     4  11  23  39  63  91 128 165 208 256 317 377
#     4   9  20  37  59  92 121 155 207 262 315 368
#     4  10  22  40  65  91 126 168 207 256 322 387
#     4  11  24  40  63  95 129 168 215 264 315 378
#     4  10  21  38  62  88 124 164 202 256 315 374
#     4  11  23  37  64  90 126 165 210 264 314 372
#     4  11  22  41  63  95 125 164 210 263 317 377
#
# _framework density 20.131499999999999
#
# number of rings (size 3 to 8) (size 9 to 14) (size 15 to 20)
#    0.000    1.500    3.750    1.125    5.250    1.500 
#    0.000    3.750    0.000    0.000    0.000    0.000 
#    0.000    0.000    0.000    0.000    0.000    0.000 
#
# Total GULP energy -89113.547541 kJ/mol
# GULP energy per Si atom -5569.596721 kJ/mol
# Density = 2.008568 g / cm^3
# Si number density = 20.131500 Si / 1000 Ang^3
#
#
#
# Elastic Constant Matrix: (Units=GPa)
#
#
# Indices 1 2 3 4 5 6 
#
# 1 84.1410 11.7953 23.2662 0.0000 -14.0115 0.0000
# 2 11.7953 99.2971 24.9386 0.0000 -3.2512 0.0000
# 3 23.2662 24.9386 48.8068 0.0000 -7.0854 0.0000
# 4 0.0000 0.0000 0.0000 15.8736 0.0000 -5.6043
# 5 -14.0115 -3.2512 -7.0854 0.0000 35.2479 0.0000
# 6 0.0000 0.0000 0.0000 -5.6043 0.0000 19.8086
#
#
#
# Elastic Compliance Matrix: (Units=1/GPa)
#
#
# Indices 1 2 3 4 5 6 
#
# 1 0.014338 -0.000004 -0.006186 0.000000 0.004456 0.000000
# 2 -0.000004 0.011554 -0.005920 0.000000 -0.000126 0.000000
# 3 -0.006186 -0.005920 0.026809 0.000000 0.002384 0.000000
# 4 0.000000 0.000000 0.000000 0.069988 0.000000 0.019801
# 5 0.004456 -0.000126 0.002384 0.000000 0.030609 0.000000
# 6 0.000000 0.000000 0.000000 0.019801 0.000000 0.056085
#
#
# Mechanical properties :
#
#
# Convention : Reuss Voigt Hill
#
# Bulk Modulus (GPa) = 35.11133 39.13832 37.12483
# Shear Modulus (GPa) = 20.56789 25.66902 23.11846
#
# Velocity S-wave (km/s) = 3.19984 3.57468 3.39244
# Velocity P-wave (km/s) = 5.57950 6.04329 5.81602
#
# Compressibility (1/GPa) = 0.02848083
#
# Stress axis : x y z
#
# Youngs Moduli (GPa) = 69.74546 86.55034 37.30091
#
# Poissons Ratio (x) = 0.00031 0.23075
# Poissons Ratio (y) = 0.00025 0.22083
# Poissons Ratio (z) = 0.43146 0.51240
#
# Static dielectric constant tensor:
#      x y z
#    x 1.717380 0.000000 -0.022990 
#    y 0.000000 1.762950 0.000000 
#    z -0.022990 0.000000 1.749740 
# 
# From -- ./inp_files/23353.got.cif
#   From: 2010.05.17/outbox.cif.g08.bks.cpg/sg8_12_cif.got.tgz:23353.got - 2010.06.03 19:46:02.
