data_PCOD9132330
_publ_section_title
;
Structure prediction by ZEFSAII (Michael W. Deem and Ramdas Pophale) SiO2 
 PCOD9132330
Probable space group: C M
;
_chemical_formula_sum "Si O2"
_cell_formula_units_Z 32
_cell_length_a 16.919335
_cell_length_b 13.583200
_cell_length_c 13.511791
_cell_angle_alpha 90.000000
_cell_angle_beta 25.381924
_cell_angle_gamma 90.000000
_cell_volume 1331.071106
_symmetry_space_group_name_H-M "C M"
_symmetry_group_IT_number 8
_symmetry_cell_setting 'monoclinic'
loop_
_space_group_symop_operation_xyz
x,y,z
x,-y,z
1/2+x,1/2+y,z
1/2+x,1/2-y,z
loop_
_atom_site_type_symbol
_atom_site_label
_atom_site_fract_x
_atom_site_fract_y
_atom_site_fract_z
Si Si1 0.846770 0.117696 0.644320
Si Si2 0.586044 0.382302 0.939121
Si Si3 0.245050 0.307620 0.426383
Si Si4 0.540896 0.881803 0.853709
Si Si5 0.342843 0.610486 0.029526
Si Si6 0.187762 0.192368 0.157063
Si Si7 0.589958 0.610484 0.553929
Si Si8 0.891928 0.381803 0.729722
O O1 0.644281 0.149160 0.837578
O O2 0.949900 0.149182 0.627724
O O3 0.989249 0.146163 0.396763
O O4 0.837460 0.000000 0.664668
O O5 0.595314 0.500000 0.918845
O O6 0.482939 0.350828 0.955677
O O7 0.788542 0.350847 0.745850
O O8 0.443570 0.353813 0.186666
O O9 0.241581 0.191681 0.408087
O O10 0.151254 0.333502 0.636857
O O11 0.104636 0.354288 0.504102
O O12 0.556547 0.000000 0.825694
O O13 0.328185 0.854297 0.079331
O O14 0.274579 0.500000 0.130790
O O15 0.191225 0.691694 0.175376
O O16 0.466383 0.603726 0.791740
O O17 0.281561 0.166496 0.946583
O O18 0.658226 0.500000 0.452661
O O19 0.876295 0.500000 0.757719
#
# Coordination Sequence:
#
# PCOD9132330 Si02
#       8
#     4   4   4   4   4   4   4   4
#     4  10  21  36  60  87 113 146 184 231 281 334
#     4  10  21  36  60  87 113 146 184 231 281 334
#     4  11  19  36  58  87 113 147 183 230 285 332
#     4  10  20  34  57  89 118 142 178 232 289 336
#     4  10  21  39  58  79 113 155 193 228 272 326
#     4  11  19  36  58  87 113 147 183 230 285 332
#     4  10  21  39  58  79 113 155 193 228 272 326
#     4  10  20  34  57  89 118 142 178 232 289 336
#
# _framework density 24.040790000000001
#
# number of rings (size 3 to 8) (size 9 to 14) (size 15 to 20)
#    0.000    1.750    2.500    4.500    0.000    3.000 
#    0.000    0.000    0.000    4.500    0.000    0.000 
#    0.000    0.000    0.000    0.000    0.000    0.000 
#
# Total GULP energy -89507.344648 kJ/mol
# GULP energy per Si atom -5594.209041 kJ/mol
# Density = 2.398607 g / cm^3
# Si number density = 24.040790 Si / 1000 Ang^3
#
#
#
# Elastic Constant Matrix: (Units=GPa)
#
#
# Indices 1 2 3 4 5 6 
#
# 1 82.6613 23.8687 18.2961 -0.0010 -15.5388 0.0006
# 2 23.8687 77.3144 -16.2476 -0.0007 1.9857 0.0005
# 3 18.2961 -16.2476 64.4885 -0.0016 -9.2448 0.0010
# 4 -0.0010 -0.0007 -0.0016 14.3513 0.0009 -0.4882
# 5 -15.5388 1.9857 -9.2448 0.0009 35.6823 -0.0007
# 6 0.0006 0.0005 0.0010 -0.4882 -0.0007 37.8346
#
#
#
# Elastic Compliance Matrix: (Units=1/GPa)
#
#
# Indices 1 2 3 4 5 6 
#
# 1 0.016224 -0.006282 -0.005320 0.000000 0.006036 0.000000
# 2 -0.006282 0.016090 0.005521 0.000001 -0.002201 0.000000
# 3 -0.005320 0.005521 0.018726 0.000002 0.002228 0.000000
# 4 0.000000 0.000001 0.000002 0.069711 -0.000001 0.000900
# 5 0.006036 -0.002201 0.002228 -0.000001 0.031353 0.000000
# 6 0.000000 0.000000 0.000000 0.000900 0.000000 0.026442
#
#
# Mechanical properties :
#
#
# Convention : Reuss Voigt Hill
#
# Bulk Modulus (GPa) = 25.72178 30.69986 28.21082
# Shear Modulus (GPa) = 24.54973 30.81009 27.67991
#
# Velocity S-wave (km/s) = 3.19904 3.58379 3.39687
# Velocity P-wave (km/s) = 4.93636 5.47014 5.21009
#
# Compressibility (1/GPa) = 0.03887755
#
# Stress axis : x y z
#
# Youngs Moduli (GPa) = 61.63838 62.14975 53.40094
#
# Poissons Ratio (x) = 0.39040 0.28410
# Poissons Ratio (y) = 0.38719 -0.29480
# Poissons Ratio (z) = 0.32793 -0.34310
#
# Static dielectric constant tensor:
#      x y z
#    x 1.976960 0.000000 0.001680 
#    y 0.000000 1.948780 0.000000 
#    z 0.001680 0.000000 1.839960 
# 
# From -- ./inp_files/27512.got.cif
#   From: 2010.05.17/outbox.cif.g08.bks.cpg/sg8_14_cif.got.tgz:27512.got - 2010.06.03 19:46:02.
