data_PCOD9132845
_publ_section_title
;
Structure prediction by ZEFSAII (Michael W. Deem and Ramdas Pophale) SiO2 
 PCOD9132845
Probable space group: C M
;
_chemical_formula_sum "Si O2"
_cell_formula_units_Z 32
_cell_length_a 15.419086
_cell_length_b 9.097164
_cell_length_c 22.557878
_cell_angle_alpha 90.000000
_cell_angle_beta 147.314675
_cell_angle_gamma 90.000000
_cell_volume 1708.742330
_symmetry_space_group_name_H-M "C M"
_symmetry_group_IT_number 8
_symmetry_cell_setting 'monoclinic'
loop_
_space_group_symop_operation_xyz
x,y,z
x,-y,z
1/2+x,1/2+y,z
1/2+x,1/2-y,z
loop_
_atom_site_type_symbol
_atom_site_label
_atom_site_fract_x
_atom_site_fract_y
_atom_site_fract_z
Si Si1 0.029760 0.670594 0.011520
Si Si2 0.316028 0.175724 0.238199
Si Si3 0.180749 0.323669 0.411729
Si Si4 0.664573 0.177502 0.266065
Si Si5 0.476040 0.823505 0.644120
Si Si6 0.020310 0.324180 0.804991
Si Si7 0.281666 0.823242 0.765995
Si Si8 0.836043 0.669692 0.023886
O O1 0.075634 0.500000 0.028653
O O2 0.187121 0.764440 0.116351
O O3 0.917226 0.717582 0.892627
O O4 0.919867 0.676841 0.007359
O O5 0.497460 0.212427 0.323710
O O6 0.267382 0.247294 0.273372
O O7 0.301806 0.000000 0.233974
O O8 0.200100 0.500000 0.429445
O O9 0.211812 0.288050 0.360373
O O10 0.307789 0.240036 0.525203
O O11 0.671575 0.000000 0.261593
O O12 0.477524 0.220591 0.148884
O O13 0.512970 0.774863 0.732840
O O14 0.618207 0.759083 0.685840
O O15 0.474802 0.000000 0.641641
O O16 0.035188 0.500000 0.814162
O O17 0.858342 0.286829 0.746825
O O18 0.173715 0.259798 0.926950
O O19 0.257440 0.000000 0.756424
O O20 0.798587 0.500000 0.015672
#
# Coordination Sequence:
#
# PCOD9132845 Si02
#       8
#     4   4   4   4   4   4   4   4
#     4   9  18  34  57  84 118 156 190 229 285 348
#     4  10  21  36  58  89 119 149 190 240 288 337
#     4  10  23  42  62  82 113 159 199 234 285 349
#     4   9  20  39  59  83 116 154 193 233 286 347
#     4  11  24  41  59  85 118 150 194 248 290 334
#     4  10  22  37  56  85 117 149 188 236 291 341
#     4  10  21  39  60  83 114 156 196 232 286 351
#     4   9  17  32  57  85 115 149 186 230 283 343
#
# _framework density 18.727224
#
# number of rings (size 3 to 8) (size 9 to 14) (size 15 to 20)
#    0.000    2.250    1.250    1.500    1.750    6.000 
#    0.000    3.750    0.000    0.000    0.000    0.000 
#    0.000    0.000    0.000    0.000    0.000    0.000 
#
# Total GULP energy -89320.825378 kJ/mol
# GULP energy per Si atom -5582.551586 kJ/mol
# Density = 1.868460 g / cm^3
# Si number density = 18.727224 Si / 1000 Ang^3
#
#
#
# Elastic Constant Matrix: (Units=GPa)
#
#
# Indices 1 2 3 4 5 6 
#
# 1 39.7110 19.7827 14.7583 0.0000 18.4235 0.0000
# 2 19.7827 29.3378 32.4069 0.0000 12.7646 0.0000
# 3 14.7583 32.4069 76.9956 0.0000 20.1603 0.0000
# 4 0.0000 0.0000 0.0000 35.5097 0.0000 5.8218
# 5 18.4235 12.7646 20.1603 0.0000 25.7959 0.0000
# 6 0.0000 0.0000 0.0000 5.8218 0.0000 22.3731
#
#
#
# Elastic Compliance Matrix: (Units=1/GPa)
#
#
# Indices 1 2 3 4 5 6 
#
# 1 0.052479 -0.037340 0.013369 0.000000 -0.029452 0.000000
# 2 -0.037340 0.094111 -0.034252 0.000000 0.006868 0.000000
# 3 0.013369 -0.034252 0.028797 0.000000 -0.015105 0.000000
# 4 0.000000 0.000000 0.000000 0.029416 0.000000 -0.007655
# 5 -0.029452 0.006868 -0.015105 0.000000 0.068207 0.000000
# 6 0.000000 0.000000 0.000000 -0.007655 0.000000 0.046688
#
#
# Mechanical properties :
#
#
# Convention : Reuss Voigt Hill
#
# Bulk Modulus (GPa) = 16.96633 31.10448 24.03541
# Shear Modulus (GPa) = 10.96994 22.00884 16.48939
#
# Velocity S-wave (km/s) = 2.42290 3.43189 2.97055
# Velocity P-wave (km/s) = 4.11177 5.68762 4.96265
#
# Compressibility (1/GPa) = 0.05894027
#
# Stress axis : x y z
#
# Youngs Moduli (GPa) = 19.05526 10.62574 34.72630
#
# Poissons Ratio (x) = 0.39677 -0.46425
# Poissons Ratio (y) = 0.71152 1.18944
# Poissons Ratio (z) = -0.25475 0.36395
#
# Static dielectric constant tensor:
#      x y z
#    x 1.655690 0.000000 -0.012950 
#    y 0.000000 1.628310 0.000000 
#    z -0.012950 0.000000 1.623550 
# 
# From -- ./inp_files/28214.got.cif
#   From: 2010.05.17/outbox.cif.g08.bks.cpg/sg8_15_cif.got.tgz:28214.got - 2010.06.03 19:46:02.
