data_PCOD9132533
_publ_section_title
;
Structure prediction by ZEFSAII (Michael W. Deem and Ramdas Pophale) SiO2 
 PCOD9132533
Probable space group: C M
;
_chemical_formula_sum "Si O2"
_cell_formula_units_Z 28
_cell_length_a 9.080838
_cell_length_b 10.187178
_cell_length_c 19.858409
_cell_angle_alpha 90.000000
_cell_angle_beta 47.811072
_cell_angle_gamma 90.000000
_cell_volume 1361.143850
_symmetry_space_group_name_H-M "C M"
_symmetry_group_IT_number 8
_symmetry_cell_setting 'monoclinic'
loop_
_space_group_symop_operation_xyz
x,y,z
x,-y,z
1/2+x,1/2+y,z
1/2+x,1/2-y,z
loop_
_atom_site_type_symbol
_atom_site_label
_atom_site_fract_x
_atom_site_fract_y
_atom_site_fract_z
Si Si1 0.058080 0.355292 0.133990
Si Si2 0.105988 0.149865 0.869863
Si Si3 0.648175 0.226502 0.256046
Si Si4 0.306346 0.150839 0.562551
Si Si5 0.226523 0.352996 0.378463
Si Si6 0.256878 0.152555 0.972373
Si Si7 0.959354 0.352708 0.662523
O O1 0.114748 0.500000 0.090937
O O2 0.133475 0.341835 0.187779
O O3 0.819438 0.337554 0.202164
O O4 0.147825 0.235643 0.063746
O O5 0.129016 0.153111 0.943365
O O6 0.318287 0.173166 0.769474
O O7 0.954856 0.263968 0.896546
O O8 0.045707 0.000000 0.869016
O O9 0.425275 0.277560 0.336745
O O10 0.712153 0.144703 0.301731
O O11 0.518102 0.200975 0.469639
O O12 0.128435 0.246265 0.599665
O O13 0.323585 0.147718 0.637900
O O14 0.278970 0.000000 0.546864
O O15 0.241527 0.500000 0.401170
O O16 0.293255 0.000000 0.979614
O O17 0.044483 0.500000 0.643499
#
# Coordination Sequence:
#
# PCOD9132533 Si02
#       7
#     4   4   4   4   4   4   4
#     4  11  23  39  59  84 113 148 190 234 284 338
#     4  10  22  40  60  84 116 151 188 232 281 334
#     4  10  22  37  58  83 111 149 191 232 280 334
#     4  10  21  36  58  87 116 150 190 232 280 333
#     4  10  20  37  57  81 115 149 186 233 280 329
#     4  11  24  39  59  86 114 148 189 233 283 338
#     4  10  21  38  59  85 117 151 188 232 280 332
#
# _framework density 20.570934000000001
#
# number of rings (size 3 to 8) (size 9 to 14) (size 15 to 20)
#    0.000    1.714    0.000    3.857    0.000    8.000 
#    0.000    3.571    0.000    0.000    0.000    0.000 
#    0.000    0.000    0.000    0.000    0.000    0.000 
#
# Total GULP energy -78158.093767 kJ/mol
# GULP energy per Si atom -5582.720983 kJ/mol
# Density = 2.052411 g / cm^3
# Si number density = 20.570934 Si / 1000 Ang^3
#
#
#
# Elastic Constant Matrix: (Units=GPa)
#
#
# Indices 1 2 3 4 5 6 
#
# 1 65.5845 30.6016 -0.9582 0.0000 -5.1855 0.0000
# 2 30.6016 116.1368 20.3925 0.0000 -21.6785 0.0000
# 3 -0.9582 20.3925 61.9247 0.0000 -1.4015 0.0000
# 4 0.0000 0.0000 0.0000 23.8557 0.0000 0.2177
# 5 -5.1855 -21.6785 -1.4015 0.0000 36.2223 0.0000
# 6 0.0000 0.0000 0.0000 0.2177 0.0000 12.3600
#
#
#
# Elastic Compliance Matrix: (Units=1/GPa)
#
#
# Indices 1 2 3 4 5 6 
#
# 1 0.017601 -0.005057 0.001928 0.000000 -0.000432 0.000000
# 2 -0.005057 0.011764 -0.003813 0.000000 0.006169 0.000000
# 3 0.001928 -0.003813 0.017404 0.000000 -0.001332 0.000000
# 4 0.000000 0.000000 0.000000 0.041926 0.000000 -0.000738
# 5 -0.000432 0.006169 -0.001332 0.000000 0.031186 0.000000
# 6 0.000000 0.000000 0.000000 -0.000738 0.000000 0.080919
#
#
# Mechanical properties :
#
#
# Convention : Reuss Voigt Hill
#
# Bulk Modulus (GPa) = 30.40857 38.19085 34.29971
# Shear Modulus (GPa) = 22.15871 27.39494 24.77683
#
# Velocity S-wave (km/s) = 3.28561 3.65325 3.47430
# Velocity P-wave (km/s) = 5.40445 6.03330 5.72751
#
# Compressibility (1/GPa) = 0.03288547
#
# Stress axis : x y z
#
# Youngs Moduli (GPa) = 56.81469 85.00474 57.45853
#
# Poissons Ratio (x) = 0.42987 -0.11077
# Poissons Ratio (y) = 0.28731 0.21907
# Poissons Ratio (z) = -0.10953 0.32409
#
# Static dielectric constant tensor:
#      x y z
#    x 1.706090 0.000000 -0.001200 
#    y 0.000000 1.729830 0.000000 
#    z -0.001200 0.000000 1.756660 
# 
# From -- ./inp_files/25175.got.cif
#   From: 2010.05.17/outbox.cif.g08.bks.cpg/sg8_13_cif.got.tgz:25175.got - 2010.06.03 19:46:02.
