data_PCOD9132294
_publ_section_title
;
Structure prediction by ZEFSAII (Michael W. Deem and Ramdas Pophale) SiO2 
 PCOD9132294
Probable space group: C M
;
_chemical_formula_sum "Si O2"
_cell_formula_units_Z 32
_cell_length_a 29.385914
_cell_length_b 8.373209
_cell_length_c 12.603668
_cell_angle_alpha 90.000000
_cell_angle_beta 149.935774
_cell_angle_gamma 90.000000
_cell_volume 1553.603564
_symmetry_space_group_name_H-M "C M"
_symmetry_group_IT_number 8
_symmetry_cell_setting 'monoclinic'
loop_
_space_group_symop_operation_xyz
x,y,z
x,-y,z
1/2+x,1/2+y,z
1/2+x,1/2-y,z
loop_
_atom_site_type_symbol
_atom_site_label
_atom_site_fract_x
_atom_site_fract_y
_atom_site_fract_z
Si Si1 0.660100 0.304777 0.543740
Si Si2 0.734902 0.189782 0.145383
Si Si3 0.876502 0.192480 0.606912
Si Si4 0.532737 0.306042 0.780040
Si Si5 0.952680 0.805621 0.166037
Si Si6 0.814053 0.690157 0.708793
Si Si7 0.703738 0.316047 0.857692
Si Si8 0.984837 0.815140 0.459170
O O1 0.661648 0.500000 0.552334
O O2 0.554939 0.259051 0.337108
O O3 0.715310 0.254366 0.551606
O O4 0.710747 0.246606 0.753434
O O5 0.807401 0.251708 0.376620
O O6 0.737092 0.000000 0.154032
O O7 0.635231 0.247705 0.979158
O O8 0.748987 0.236622 0.050876
O O9 0.845900 0.244130 0.660806
O O10 0.976809 0.242558 0.770836
O O11 0.875623 0.000000 0.603145
O O12 0.534766 0.500000 0.778213
O O13 0.479441 0.246995 0.566504
O O14 0.940052 0.746639 0.262331
O O15 0.949019 0.000000 0.160158
O O16 0.882856 0.739811 0.940516
O O17 0.811700 0.500000 0.696128
O O18 0.732653 0.500000 0.914596
O O19 0.594009 0.314654 0.656620
O O20 0.955246 0.000000 0.406025
#
# Coordination Sequence:
#
# PCOD9132294 Si02
#       8
#     4   4   4   4   4   4   4   4
#     4   8  17  35  57  78 104 141 177 209 253 316
#     4  10  20  34  54  83 113 134 164 219 272 304
#     4  10  23  40  54  72 103 143 183 217 255 312
#     4   9  18  36  59  78 102 141 180 208 249 317
#     4   9  17  34  58  79 103 137 173 208 255 317
#     4  11  23  37  53  77 106 135 177 228 267 300
#     4   8  14  30  55  79 105 139 175 204 246 318
#     4   7  12  26  52  80 100 126 167 207 243 300
#
# _framework density 20.597275
#
# number of rings (size 3 to 8) (size 9 to 14) (size 15 to 20)
#    0.000    3.000    0.000    3.000    0.000    3.500 
#    0.000   13.125    0.000    0.000    0.000    0.000 
#    0.000    0.000    0.000    0.000    0.000    0.000 
#
# Total GULP energy -89222.072717 kJ/mol
# GULP energy per Si atom -5576.379545 kJ/mol
# Density = 2.055039 g / cm^3
# Si number density = 20.597275 Si / 1000 Ang^3
#
#
#
# Elastic Constant Matrix: (Units=GPa)
#
#
# Indices 1 2 3 4 5 6 
#
# 1 108.7257 8.5050 -4.8172 0.0000 -1.9469 0.0000
# 2 8.5050 12.8736 -0.8403 0.0000 -1.1347 0.0000
# 3 -4.8172 -0.8403 38.1747 0.0000 -0.8962 0.0000
# 4 0.0000 0.0000 0.0000 22.1529 0.0000 -7.6119
# 5 -1.9469 -1.1347 -0.8962 0.0000 20.3184 0.0000
# 6 0.0000 0.0000 0.0000 -7.6119 0.0000 20.9903
#
#
#
# Elastic Compliance Matrix: (Units=1/GPa)
#
#
# Indices 1 2 3 4 5 6 
#
# 1 0.009752 -0.006315 0.001106 0.000000 0.000631 0.000000
# 2 -0.006315 0.082279 0.001109 0.000000 0.004039 0.000000
# 3 0.001106 0.001109 0.026391 0.000000 0.001332 0.000000
# 4 0.000000 0.000000 0.000000 0.051566 0.000000 0.018700
# 5 0.000631 0.004039 0.001332 0.000000 0.049561 0.000000
# 6 0.000000 0.000000 0.000000 0.018700 0.000000 0.054422
#
#
# Mechanical properties :
#
#
# Convention : Reuss Voigt Hill
#
# Bulk Modulus (GPa) = 9.07255 18.38546 13.72900
# Shear Modulus (GPa) = 15.67839 23.15410 19.41624
#
# Velocity S-wave (km/s) = 2.76196 3.35645 3.07361
# Velocity P-wave (km/s) = 3.81910 4.89556 4.39045
#
# Compressibility (1/GPa) = 0.11022259
#
# Stress axis : x y z
#
# Youngs Moduli (GPa) = 102.54588 12.15380 37.89225
#
# Poissons Ratio (x) = 0.07675 -0.04192
# Poissons Ratio (y) = 0.64755 -0.04203
# Poissons Ratio (z) = -0.11345 -0.01348
#
# Static dielectric constant tensor:
#      x y z
#    x 1.771030 0.000000 0.009350 
#    y 0.000000 1.717190 0.000000 
#    z 0.009350 0.000000 1.744370 
# 
# From -- ./inp_files/24835.got.cif
#   From: 2010.05.17/outbox.cif.g08.bks.cpg/sg8_13_cif.got.tgz:24835.got - 2010.06.03 19:46:02.
