data_PCOD9132913
_publ_section_title
;
Structure prediction by ZEFSAII (Michael W. Deem and Ramdas Pophale) SiO2 
 PCOD9132913
Probable space group: C M
;
_chemical_formula_sum "Si O2"
_cell_formula_units_Z 32
_cell_length_a 14.194309
_cell_length_b 14.979632
_cell_length_c 9.016887
_cell_angle_alpha 90.000000
_cell_angle_beta 132.879053
_cell_angle_gamma 90.000000
_cell_volume 1404.923182
_symmetry_space_group_name_H-M "C M"
_symmetry_group_IT_number 8
_symmetry_cell_setting 'monoclinic'
loop_
_space_group_symop_operation_xyz
x,y,z
x,-y,z
1/2+x,1/2+y,z
1/2+x,1/2-y,z
loop_
_atom_site_type_symbol
_atom_site_label
_atom_site_fract_x
_atom_site_fract_y
_atom_site_fract_z
Si Si1 0.270760 0.603045 0.698550
Si Si2 0.148152 0.099967 0.298684
Si Si3 0.423086 0.103350 0.444604
Si Si4 0.156405 0.720221 0.808769
Si Si5 0.999391 0.396955 0.221762
Si Si6 0.122006 0.900033 0.621640
Si Si7 0.613751 0.779779 0.111552
Si Si8 0.347070 0.396650 0.475716
O O1 0.282607 0.500000 0.751840
O O2 0.262535 0.659886 0.838649
O O3 0.135076 0.614640 0.460156
O O4 0.372282 0.623401 0.676737
O O5 0.296746 0.103159 0.408071
O O6 0.135079 0.115335 0.460162
O O7 0.089224 0.180898 0.145015
O O8 0.098837 0.000000 0.212514
O O9 0.523255 0.176302 0.607364
O O10 0.397871 0.123401 0.243581
O O11 0.474276 0.000000 0.504883
O O12 0.180934 0.819103 0.775310
O O13 0.135078 0.717030 0.960160
O O14 0.987543 0.500000 0.168471
O O15 0.007619 0.340114 0.081666
O O16 0.973412 0.896841 0.512254
O O17 0.171321 0.000000 0.707811
O O18 0.746901 0.823699 0.312955
O O19 0.295880 0.500000 0.415435
#
# Coordination Sequence:
#
# PCOD9132913 Si02
#       8
#     4   4   4   4   4   4   4   4
#     4   8  15  30  52  76 102 132 167 207 253 306
#     4  10  21  38  57  73  97 141 188 216 240 296
#     4   9  18  35  58  79 101 135 176 214 253 303
#     4  11  21  32  52  82 112 134 160 213 272 313
#     4   8  15  30  52  76 102 132 167 207 253 306
#     4  10  21  38  57  73  97 141 188 216 240 296
#     4  11  21  32  52  82 112 134 160 213 272 313
#     4   9  18  35  58  79 101 135 176 214 253 303
#
# _framework density 22.777045999999999
#
# number of rings (size 3 to 8) (size 9 to 14) (size 15 to 20)
#    0.000    2.500    0.000    5.250    0.000    2.500 
#    0.000    5.000    0.000    9.000    0.000    0.000 
#    0.000    0.000    0.000    0.000    0.000    0.000 
#
# Total GULP energy -89333.367847 kJ/mol
# GULP energy per Si atom -5583.335490 kJ/mol
# Density = 2.272520 g / cm^3
# Si number density = 22.777046 Si / 1000 Ang^3
#
#
#
# Elastic Constant Matrix: (Units=GPa)
#
#
# Indices 1 2 3 4 5 6 
#
# 1 170.6955 54.9042 55.5391 0.0000 -62.3785 0.0000
# 2 54.9042 147.6644 87.7288 0.0000 -51.3245 0.0000
# 3 55.5391 87.7288 77.7542 0.0000 -47.3678 0.0000
# 4 0.0000 0.0000 0.0000 2.5498 0.0000 -25.1075
# 5 -62.3785 -51.3245 -47.3678 0.0000 56.9027 0.0000
# 6 0.0000 0.0000 0.0000 -25.1075 0.0000 22.6432
#
#
#
# Elastic Compliance Matrix: (Units=1/GPa)
#
#
# Indices 1 2 3 4 5 6 
#
# 1 0.009869 0.001139 -0.002269 0.000000 0.009958 0.000000
# 2 0.001139 0.020741 -0.024464 0.000000 -0.000408 0.000000
# 3 -0.002269 -0.024464 0.055037 0.000000 0.021261 0.000000
# 4 0.000000 0.000000 0.000000 -0.039541 0.000000 -0.043844
# 5 0.009958 -0.000408 0.021261 0.000000 0.045821 0.000000
# 6 0.000000 0.000000 0.000000 -0.043844 0.000000 -0.004453
#
#
# Mechanical properties :
#
#
# Convention : Reuss Voigt Hill
#
# Bulk Modulus (GPa) = 29.01914 88.05094 58.53504
# Shear Modulus (GPa) = 33.30061 29.61527 31.45794
#
# Velocity S-wave (km/s) = 3.82779 3.60977 3.72038
# Velocity P-wave (km/s) = 5.68367 7.49104 6.64905
#
# Compressibility (1/GPa) = 0.03446002
#
# Stress axis : x y z
#
# Youngs Moduli (GPa) = 101.32675 48.21353 18.16976
#
# Poissons Ratio (x) = -0.05494 0.04122
# Poissons Ratio (y) = -0.11546 0.44451
# Poissons Ratio (z) = 0.22987 1.17951
#
# Static dielectric constant tensor:
#      x y z
#    x 1.932010 0.000000 0.048860 
#    y 0.000000 1.870390 0.000000 
#    z 0.048860 0.000000 1.857200 
# 
# From -- ./inp_files/13247.got.cif
#   From: 2010.05.17/outbox.cif.g08.bks.cpg/sg8_7_cif.got.tgz:13247.got - 2010.06.03 19:46:02.
