data_PCOD9132981
_publ_section_title
;
Structure prediction by ZEFSAII (Michael W. Deem and Ramdas Pophale) SiO2 
 PCOD9132981
Probable space group: C M
;
_chemical_formula_sum "Si O2"
_cell_formula_units_Z 28
_cell_length_a 7.891719
_cell_length_b 18.685267
_cell_length_c 14.209785
_cell_angle_alpha 90.000000
_cell_angle_beta 40.252557
_cell_angle_gamma 90.000000
_cell_volume 1353.933022
_symmetry_space_group_name_H-M "C M"
_symmetry_group_IT_number 8
_symmetry_cell_setting 'monoclinic'
loop_
_space_group_symop_operation_xyz
x,y,z
x,-y,z
1/2+x,1/2+y,z
1/2+x,1/2-y,z
loop_
_atom_site_type_symbol
_atom_site_label
_atom_site_fract_x
_atom_site_fract_y
_atom_site_fract_z
Si Si1 0.311080 0.281360 0.555060
Si Si2 0.345714 0.325931 0.741599
Si Si3 0.807664 0.318886 0.077836
Si Si4 0.835219 0.919508 0.211698
Si Si5 0.092318 0.084219 0.792009
Si Si6 0.666400 0.157559 0.103639
Si Si7 0.601692 0.859330 0.487079
O O1 0.360722 0.330255 0.623727
O O2 0.492020 0.211488 0.481628
O O3 0.333170 0.327348 0.452166
O O4 0.023600 0.244274 0.688012
O O5 0.463408 0.393048 0.746986
O O6 0.054270 0.315770 0.902284
O O7 0.586434 0.369820 0.127411
O O8 0.697598 0.238571 0.126118
O O9 0.935287 0.343913 0.123345
O O10 0.660563 0.890583 0.199432
O O11 0.674671 0.914944 0.376881
O O12 0.919669 0.000000 0.155288
O O13 0.389569 0.109953 0.650425
O O14 0.073430 0.000000 0.818833
O O15 0.927863 0.129865 0.937562
#
# Coordination Sequence:
#
# PCOD9132981 Si02
#       7
#     4   4   4   4   4   4   4
#     4   9  18  36  63  95 115 158 211 273 307 365
#     4   9  18  34  61  92 124 147 206 269 314 362
#     4  11  22  39  70  97 127 166 221 264 318 385
#     4  12  28  44  62  96 138 174 209 266 333 386
#     4  10  21  39  61  89 126 169 207 257 324 381
#     4  11  23  42  71  95 125 168 221 272 318 377
#     4  10  22  38  64  86 129 160 215 255 318 376
#
# _framework density 20.680489999999999
#
# number of rings (size 3 to 8) (size 9 to 14) (size 15 to 20)
#    0.000    1.714    1.429    4.286    4.000    2.857 
#    5.143    1.429    0.000    0.000    0.000    0.000 
#    0.000    0.000    0.000    0.000    0.000    0.000 
#
# Total GULP energy -78156.437514 kJ/mol
# GULP energy per Si atom -5582.602680 kJ/mol
# Density = 2.063342 g / cm^3
# Si number density = 20.680490 Si / 1000 Ang^3
#
#
#
# Elastic Constant Matrix: (Units=GPa)
#
#
# Indices 1 2 3 4 5 6 
#
# 1 84.4576 33.5040 12.3164 0.0000 24.8362 0.0001
# 2 33.5040 118.5407 10.9703 0.0003 15.8984 0.0012
# 3 12.3164 10.9703 43.3225 -0.0003 5.9393 0.0044
# 4 0.0000 0.0003 -0.0003 15.2066 0.0000 -1.7009
# 5 24.8362 15.8984 5.9393 0.0000 25.1919 -0.0014
# 6 0.0001 0.0012 0.0044 -1.7009 -0.0014 9.1816
#
#
#
# Elastic Compliance Matrix: (Units=1/GPa)
#
#
# Indices 1 2 3 4 5 6 
#
# 1 0.017740 -0.002765 -0.002258 0.000000 -0.015212 -0.000001
# 2 -0.002765 0.009754 -0.001254 0.000000 -0.003134 -0.000001
# 3 -0.002258 -0.001254 0.024418 -0.000001 -0.002739 -0.000012
# 4 0.000000 0.000000 -0.000001 0.067153 0.000001 0.012440
# 5 -0.015212 -0.003134 -0.002739 0.000001 0.057316 0.000011
# 6 -0.000001 -0.000001 -0.000012 0.012440 0.000011 0.111218
#
#
# Mechanical properties :
#
#
# Convention : Reuss Voigt Hill
#
# Bulk Modulus (GPa) = 25.40794 39.98912 32.69853
# Shear Modulus (GPa) = 15.96063 22.55135 19.25599
#
# Velocity S-wave (km/s) = 2.78109 3.30580 3.05473
# Velocity P-wave (km/s) = 4.75660 5.82664 5.31860
#
# Compressibility (1/GPa) = 0.03935778
#
# Stress axis : x y z
#
# Youngs Moduli (GPa) = 56.37099 102.52466 40.95390
#
# Poissons Ratio (x) = 0.28345 0.09246
# Poissons Ratio (y) = 0.15585 0.05136
# Poissons Ratio (z) = 0.12727 0.12859
#
# Static dielectric constant tensor:
#      x y z
#    x 1.774460 0.000000 -0.017930 
#    y 0.000000 1.705490 0.000000 
#    z -0.017930 0.000000 1.777210 
# 
# From -- ./inp_files/25482.got.cif
#   From: 2010.05.17/outbox.cif.g08.bks.cpg/sg8_13_cif.got.tgz:25482.got - 2010.06.03 19:46:02.
