data_PCOD9132006
_publ_section_title
;
Structure prediction by ZEFSAII (Michael W. Deem and Ramdas Pophale) SiO2 
 PCOD9132006
Probable space group: C M
;
_chemical_formula_sum "Si O2"
_cell_formula_units_Z 32
_cell_length_a 28.134593
_cell_length_b 9.015777
_cell_length_c 21.309538
_cell_angle_alpha 90.000000
_cell_angle_beta 19.355804
_cell_angle_gamma 90.000000
_cell_volume 1791.489172
_symmetry_space_group_name_H-M "C M"
_symmetry_group_IT_number 8
_symmetry_cell_setting 'monoclinic'
loop_
_space_group_symop_operation_xyz
x,y,z
x,-y,z
1/2+x,1/2+y,z
1/2+x,1/2-y,z
loop_
_atom_site_type_symbol
_atom_site_label
_atom_site_fract_x
_atom_site_fract_y
_atom_site_fract_z
Si Si1 0.212450 0.670653 0.662040
Si Si2 0.926847 0.320734 0.957563
Si Si3 0.801656 0.321882 0.742049
Si Si4 0.953482 0.677104 0.684318
Si Si5 0.295178 0.678198 0.997545
Si Si6 0.964445 0.322461 0.411844
Si Si7 0.038854 0.328465 0.010785
Si Si8 0.791105 0.176864 0.250268
O O1 0.248967 0.500000 0.603840
O O2 0.356419 0.760956 0.494108
O O3 0.125363 0.676175 0.836613
O O4 0.094294 0.721935 0.759088
O O5 0.919530 0.500000 0.968025
O O6 0.863665 0.254574 0.973043
O O7 0.840252 0.254985 0.124562
O O8 0.783330 0.500000 0.761702
O O9 0.880183 0.285659 0.709033
O O10 0.901765 0.277457 0.558180
O O11 0.647685 0.245472 0.924298
O O12 0.934001 0.500000 0.719018
O O13 0.879366 0.767875 0.831682
O O14 0.123568 0.705276 0.470022
O O15 0.300710 0.500000 0.997188
O O16 0.128353 0.724471 0.200366
O O17 0.960270 0.500000 0.414926
O O18 0.010783 0.500000 0.060651
O O19 0.892994 0.240781 0.178115
O O20 0.813030 0.000000 0.217323
#
# Coordination Sequence:
#
# PCOD9132006 Si02
#       8
#     4   4   4   4   4   4   4   4
#     4   8  16  30  50  78 106 131 164 209 258 308
#     4  10  20  35  56  82 109 137 174 217 262 314
#     4   9  17  33  56  78 102 135 173 214 263 315
#     4  10  22  38  54  75 106 142 180 221 264 312
#     4  11  23  37  53  76 107 142 180 219 262 313
#     4   9  18  33  54  79 104 132 170 214 258 309
#     4   9  17  30  50  80 111 134 166 214 263 312
#     4  10  19  34  57  82 107 137 175 218 264 313
#
# _framework density 17.862234999999998
#
# number of rings (size 3 to 8) (size 9 to 14) (size 15 to 20)
#    0.000    2.500    0.000    3.000    0.000    8.000 
#    0.000    3.750    0.000    1.500    0.000    0.000 
#    0.000    0.000    0.000    0.000    0.000    0.000 
#
# Total GULP energy -89244.047306 kJ/mol
# GULP energy per Si atom -5577.752957 kJ/mol
# Density = 1.782158 g / cm^3
# Si number density = 17.862235 Si / 1000 Ang^3
#
#
#
# Elastic Constant Matrix: (Units=GPa)
#
#
# Indices 1 2 3 4 5 6 
#
# 1 75.0771 57.6616 103.0195 0.0000 -35.1922 0.0000
# 2 57.6616 64.0299 66.6893 -0.0008 -17.9038 0.0000
# 3 103.0195 66.6893 110.2611 -0.0005 -34.6421 0.0000
# 4 0.0000 -0.0008 -0.0005 21.5414 0.0000 -2.6516
# 5 -35.1922 -17.9038 -34.6421 0.0000 31.1976 0.0000
# 6 0.0000 0.0000 0.0000 -2.6516 0.0000 29.6736
#
#
#
# Elastic Compliance Matrix: (Units=1/GPa)
#
#
# Indices 1 2 3 4 5 6 
#
# 1 -0.044769 -0.008137 0.045178 0.000001 -0.005005 0.000000
# 2 -0.008137 0.041556 -0.019847 0.000001 -0.007369 0.000000
# 3 0.045178 -0.019847 -0.013368 -0.000001 0.024729 0.000000
# 4 0.000001 0.000001 -0.000001 0.046938 0.000000 0.004194
# 5 -0.005005 -0.007369 0.024729 0.000000 0.049638 0.000000
# 6 0.000000 0.000000 0.000000 0.004194 0.000000 0.034075
#
#
# Mechanical properties :
#
#
# Convention : Reuss Voigt Hill
#
# Bulk Modulus (GPa) = 56.15855 78.23433 67.19644
# Shear Modulus (GPa) = 58.39787 17.94904 38.17346
#
# Velocity S-wave (km/s) = 5.72402 3.17339 4.62790
# Velocity P-wave (km/s) = 8.67145 7.57107 8.13987
#
# Compressibility (1/GPa) = 0.01780673
#
# Stress axis : x y z
#
# Youngs Moduli (GPa) = -22.33706 24.06369 -74.80602
#
# Poissons Ratio (x) = 0.19582 3.37956
# Poissons Ratio (y) = -0.18177 -1.48465
# Poissons Ratio (z) = 1.00914 0.47758
#
# Static dielectric constant tensor:
#      x y z
#    x 1.599680 0.000000 -0.014110 
#    y 0.000000 1.601880 0.000000 
#    z -0.014110 0.000000 1.597160 
# 
# From -- ./inp_files/31060.got.cif
#   From: 2010.05.17/outbox.cif.g08.bks.cpg/sg8_16_cif.got.tgz:31060.got - 2010.06.03 19:46:02.
