data_PCOD9132360
_publ_section_title
;
Structure prediction by ZEFSAII (Michael W. Deem and Ramdas Pophale) SiO2 
 PCOD9132360
Probable space group: C M
;
_chemical_formula_sum "Si O2"
_cell_formula_units_Z 32
_cell_length_a 24.492409
_cell_length_b 9.187133
_cell_length_c 25.526859
_cell_angle_alpha 90.000000
_cell_angle_beta 16.406789
_cell_angle_gamma 90.000000
_cell_volume 1622.401520
_symmetry_space_group_name_H-M "C M"
_symmetry_group_IT_number 8
_symmetry_cell_setting 'monoclinic'
loop_
_space_group_symop_operation_xyz
x,y,z
x,-y,z
1/2+x,1/2+y,z
1/2+x,1/2-y,z
loop_
_atom_site_type_symbol
_atom_site_label
_atom_site_fract_x
_atom_site_fract_y
_atom_site_fract_z
Si Si1 0.893180 0.665777 0.104990
Si Si2 0.318980 0.326372 0.592620
Si Si3 0.073892 0.674226 0.044353
Si Si4 0.987557 0.834771 0.543654
Si Si5 0.411551 0.827195 0.912112
Si Si6 0.700499 0.171494 0.434125
Si Si7 0.426901 0.827170 0.775587
Si Si8 0.188855 0.327203 0.202979
O O1 0.933835 0.500000 0.049444
O O2 0.690210 0.660786 0.324377
O O3 0.848265 0.769020 0.097936
O O4 0.047247 0.711891 0.007183
O O5 0.360271 0.500000 0.550763
O O6 0.332390 0.291941 0.642325
O O7 0.486597 0.239397 0.408716
O O8 0.114133 0.298649 0.754796
O O9 0.066367 0.500000 0.053975
O O10 0.891374 0.741393 0.242997
O O11 0.263526 0.737051 0.896289
O O12 0.032012 0.727407 0.550083
O O13 0.949176 0.000000 0.597813
O O14 0.431131 0.791587 0.832916
O O15 0.370732 0.000000 0.954470
O O16 0.248556 0.737098 0.092043
O O17 0.627035 0.197472 0.560596
O O18 0.732577 0.000000 0.396820
O O19 0.384038 0.000000 0.810012
O O20 0.182569 0.500000 0.208707
#
# Coordination Sequence:
#
# PCOD9132360 Si02
#       8
#     4   4   4   4   4   4   4   4
#     4   8  16  33  55  80 111 148 186 217 260 332
#     4   9  19  37  60  82 107 145 189 227 268 328
#     4  10  21  37  59  85 113 147 184 225 275 329
#     4   8  15  30  53  82 111 140 179 223 272 331
#     4  10  22  41  60  77 105 149 197 233 265 323
#     4  10  20  35  56  83 114 145 181 227 278 330
#     4  10  23  40  57  80 109 146 192 234 273 323
#     4  11  22  35  56  87 118 144 176 228 287 330
#
# _framework density 19.723848
#
# number of rings (size 3 to 8) (size 9 to 14) (size 15 to 20)
#    0.000    2.500    0.000    3.375    0.000    9.000 
#    0.000    6.250    0.000    0.000    0.000    0.000 
#    0.000    0.000    0.000    0.000    0.000    0.000 
#
# Total GULP energy -89367.628984 kJ/mol
# GULP energy per Si atom -5585.476811 kJ/mol
# Density = 1.967896 g / cm^3
# Si number density = 19.723848 Si / 1000 Ang^3
#
#
#
# Elastic Constant Matrix: (Units=GPa)
#
#
# Indices 1 2 3 4 5 6 
#
# 1 59.4387 25.5094 26.8508 0.0067 16.8780 -0.0049
# 2 25.5094 51.1334 42.5492 -0.0019 17.5863 0.0036
# 3 26.8508 42.5492 69.6637 -0.0073 15.4532 0.0070
# 4 0.0067 -0.0019 -0.0073 19.6173 0.0032 -3.3901
# 5 16.8780 17.5863 15.4532 0.0032 35.0145 -0.0022
# 6 -0.0049 0.0036 0.0070 -3.3901 -0.0022 25.1948
#
#
#
# Elastic Compliance Matrix: (Units=1/GPa)
#
#
# Indices 1 2 3 4 5 6 
#
# 1 0.022938 -0.006263 -0.003615 -0.000008 -0.006316 0.000005
# 2 -0.006263 0.045107 -0.023036 -0.000001 -0.009469 -0.000002
# 3 -0.003615 -0.023036 0.029780 0.000009 0.000169 -0.000004
# 4 -0.000008 -0.000001 0.000009 0.052189 -0.000004 0.007022
# 5 -0.006316 -0.009469 0.000169 -0.000004 0.036285 0.000003
# 6 0.000005 -0.000002 -0.000004 0.007022 0.000003 0.040636
#
#
# Mechanical properties :
#
#
# Convention : Reuss Voigt Hill
#
# Bulk Modulus (GPa) = 31.25213 41.11719 36.18466
# Shear Modulus (GPa) = 16.47835 21.65374 19.06605
#
# Velocity S-wave (km/s) = 2.89356 3.31697 3.11247
# Velocity P-wave (km/s) = 5.20027 5.96334 5.59483
#
# Compressibility (1/GPa) = 0.03199781
#
# Stress axis : x y z
#
# Youngs Moduli (GPa) = 43.59491 22.16970 33.57951
#
# Poissons Ratio (x) = 0.13886 0.12138
# Poissons Ratio (y) = 0.27306 0.77352
# Poissons Ratio (z) = 0.15758 0.51069
#
# Static dielectric constant tensor:
#      x y z
#    x 1.697850 0.000000 0.000050 
#    y 0.000000 1.649620 0.000000 
#    z 0.000050 0.000000 1.738070 
# 
# From -- ./inp_files/32378.got.cif
#   From: 2010.05.17/outbox.cif.g08.bks.cpg/sg8_17_cif.got.tgz:32378.got - 2010.06.03 19:46:02.
