data_PCOD9132724
_publ_section_title
;
Structure prediction by ZEFSAII (Michael W. Deem and Ramdas Pophale) SiO2 
 PCOD9132724
Probable space group: C M
;
_chemical_formula_sum "Si O2"
_cell_formula_units_Z 32
_cell_length_a 18.814224
_cell_length_b 13.867460
_cell_length_c 12.170132
_cell_angle_alpha 90.000000
_cell_angle_beta 29.410943
_cell_angle_gamma 90.000000
_cell_volume 1559.272600
_symmetry_space_group_name_H-M "C M"
_symmetry_group_IT_number 8
_symmetry_cell_setting 'monoclinic'
loop_
_space_group_symop_operation_xyz
x,y,z
x,-y,z
1/2+x,1/2+y,z
1/2+x,1/2-y,z
loop_
_atom_site_type_symbol
_atom_site_label
_atom_site_fract_x
_atom_site_fract_y
_atom_site_fract_z
Si Si1 0.253730 0.888511 0.953360
Si Si2 0.686808 0.114871 0.487827
Si Si3 0.724704 0.115080 0.776394
Si Si4 0.448081 0.615593 0.286319
Si Si5 0.380402 0.691441 0.776195
Si Si6 0.694607 0.388192 0.293726
Si Si7 0.849949 0.113446 0.057495
Si Si8 0.495142 0.790208 0.929660
O O1 0.372094 0.806819 0.776799
O O2 0.293778 0.000000 0.875395
O O3 0.206482 0.885596 0.144995
O O4 0.114047 0.855559 0.070842
O O5 0.839186 0.147685 0.338065
O O6 0.565936 0.167840 0.721785
O O7 0.667115 0.000000 0.534940
O O8 0.713168 0.126540 0.323168
O O9 0.863747 0.137537 0.512419
O O10 0.772036 0.144736 0.833593
O O11 0.592521 0.171886 0.898313
O O12 0.697308 0.000000 0.806021
O O13 0.454425 0.500000 0.269016
O O14 0.542006 0.653875 0.537648
O O15 0.329245 0.657960 0.965451
O O16 0.702696 0.500000 0.315944
O O17 0.833177 0.332315 0.153954
O O18 0.980599 0.175905 0.933328
O O19 0.881279 0.000000 0.009991
#
# Coordination Sequence:
#
# PCOD9132724 Si02
#       8
#     4   4   4   4   4   4   4   4
#     4  10  21  38  63  95 127 169 223 268 314 381
#     4   9  20  40  65  93 128 165 213 271 324 385
#     4  10  20  39  68  99 128 166 218 278 324 377
#     4   8  15  34  64  92 120 162 216 267 313 367
#     4  12  24  41  66  98 135 174 214 261 332 403
#     4  11  22  41  67  94 128 172 223 272 317 382
#     4  11  25  41  60  94 138 178 207 259 342 405
#     4  11  23  40  68  99 124 166 229 278 315 372
#
# _framework density 20.522390000000001
#
# number of rings (size 3 to 8) (size 9 to 14) (size 15 to 20)
#    0.000    1.750    2.500    3.000    3.500    0.000 
#    0.000    0.625    0.000    0.000    0.000    0.000 
#    0.000    0.000    0.000    0.000    0.000    0.000 
#
# Total GULP energy -89367.195655 kJ/mol
# GULP energy per Si atom -5585.449728 kJ/mol
# Density = 2.047568 g / cm^3
# Si number density = 20.522390 Si / 1000 Ang^3
#
#
#
# Elastic Constant Matrix: (Units=GPa)
#
#
# Indices 1 2 3 4 5 6 
#
# 1 111.3264 33.8931 41.1288 0.0000 -6.9248 0.0000
# 2 33.8931 137.9687 45.2618 0.0000 -11.1563 0.0000
# 3 41.1288 45.2618 63.4581 0.0000 -9.3975 0.0000
# 4 0.0000 0.0000 0.0000 30.4992 0.0000 -5.7775
# 5 -6.9248 -11.1563 -9.3975 0.0000 36.8807 0.0000
# 6 0.0000 0.0000 0.0000 -5.7775 0.0000 29.0532
#
#
#
# Elastic Compliance Matrix: (Units=1/GPa)
#
#
# Indices 1 2 3 4 5 6 
#
# 1 0.011840 -0.000502 -0.007284 0.000000 0.000215 0.000000
# 2 -0.000502 0.009534 -0.006299 0.000000 0.001185 0.000000
# 3 -0.007284 -0.006299 0.025448 0.000000 0.003211 0.000000
# 4 0.000000 0.000000 0.000000 0.034071 0.000000 0.006775
# 5 0.000215 0.001185 0.003211 0.000000 0.028331 0.000000
# 6 0.000000 0.000000 0.000000 0.006775 0.000000 0.035767
#
#
# Mechanical properties :
#
#
# Convention : Reuss Voigt Hill
#
# Bulk Modulus (GPa) = 53.61524 61.48006 57.54765
# Shear Modulus (GPa) = 27.87412 32.11793 29.99603
#
# Velocity S-wave (km/s) = 3.68942 3.96032 3.82727
# Velocity P-wave (km/s) = 6.65815 7.13686 6.90166
#
# Compressibility (1/GPa) = 0.01865141
#
# Stress axis : x y z
#
# Youngs Moduli (GPa) = 84.46164 104.89233 39.29584
#
# Poissons Ratio (x) = 0.05261 0.28623
# Poissons Ratio (y) = 0.04236 0.24754
# Poissons Ratio (z) = 0.61522 0.66076
#
# Static dielectric constant tensor:
#      x y z
#    x 1.775240 0.000000 0.000850 
#    y 0.000000 1.751060 0.000000 
#    z 0.000850 0.000000 1.722400 
# 
# From -- ./inp_files/23322.got.cif
#   From: 2010.05.17/outbox.cif.g08.bks.cpg/sg8_12_cif.got.tgz:23322.got - 2010.06.03 19:46:02.
