data_PCOD9132875
_publ_section_title
;
Structure prediction by ZEFSAII (Michael W. Deem and Ramdas Pophale) SiO2 
 PCOD9132875
Probable space group: C M
;
_chemical_formula_sum "Si O2"
_cell_formula_units_Z 32
_cell_length_a 12.889562
_cell_length_b 24.484987
_cell_length_c 7.438495
_cell_angle_alpha 90.000000
_cell_angle_beta 36.914710
_cell_angle_gamma 90.000000
_cell_volume 1410.025252
_symmetry_space_group_name_H-M "C M"
_symmetry_group_IT_number 8
_symmetry_cell_setting 'monoclinic'
loop_
_space_group_symop_operation_xyz
x,y,z
x,-y,z
1/2+x,1/2+y,z
1/2+x,1/2-y,z
loop_
_atom_site_type_symbol
_atom_site_label
_atom_site_fract_x
_atom_site_fract_y
_atom_site_fract_z
Si Si1 0.965400 0.684293 0.750000
Si Si2 0.808049 0.801374 0.633520
Si Si3 0.613614 0.634425 0.726632
Si Si4 0.775722 0.937064 0.149780
Si Si5 0.126929 0.793136 0.045704
Si Si6 0.456156 0.937815 0.332110
Si Si7 0.256935 0.761635 0.336915
Si Si8 0.131027 0.407546 0.727927
O O1 0.816368 0.682329 0.814332
O O2 0.138339 0.711409 0.436435
O O3 0.990266 0.627534 0.813819
O O4 0.905282 0.726726 0.988300
O O5 0.676231 0.770134 0.943199
O O6 0.817185 0.761193 0.446898
O O7 0.744173 0.860349 0.666501
O O8 0.012077 0.802744 0.382391
O O9 0.557583 0.670348 0.977770
O O10 0.675254 0.679968 0.499695
O O11 0.447839 0.599650 0.890517
O O12 0.780733 0.597495 0.550000
O O13 0.730940 0.936034 0.425835
O O14 0.809618 0.000000 0.049239
O O15 0.606983 0.918764 0.264992
O O16 0.546007 0.938891 0.010435
O O17 0.410592 0.000000 0.448931
#
# Coordination Sequence:
#
# PCOD9132875 Si02
#       8
#     4   4   4   4   4   4   4   4
#     4  11  22  36  59  93 127 167 212 257 315 381
#     4  10  21  37  57  86 129 168 206 257 314 378
#     4  11  22  44  65  91 131 170 211 270 322 383
#     4  11  25  45  70  97 126 168 219 273 334 387
#     4  11  22  36  59  93 127 167 212 257 315 381
#     4  11  25  45  70  97 126 168 219 273 334 387
#     4  10  21  37  57  86 129 168 206 257 314 378
#     4  11  22  44  65  91 131 170 211 270 322 383
#
# _framework density 22.694628999999999
#
# number of rings (size 3 to 8) (size 9 to 14) (size 15 to 20)
#    0.000    1.250    2.500    4.500    3.500    2.000 
#    0.000    0.000    0.000    4.500    0.000    0.000 
#    0.000    0.000    0.000    0.000    0.000    0.000 
#
# Total GULP energy -89298.304255 kJ/mol
# GULP energy per Si atom -5581.144016 kJ/mol
# Density = 2.264297 g / cm^3
# Si number density = 22.694629 Si / 1000 Ang^3
#
#
#
# Elastic Constant Matrix: (Units=GPa)
#
#
# Indices 1 2 3 4 5 6 
#
# 1 92.0643 38.4419 9.9139 0.0000 -12.9180 0.0000
# 2 38.4419 97.3432 32.2995 0.0000 -15.6521 0.0000
# 3 9.9139 32.2995 71.6783 0.0000 -12.8941 0.0000
# 4 0.0000 0.0000 0.0000 37.0970 0.0000 -2.0631
# 5 -12.9180 -15.6521 -12.8941 0.0000 36.8224 0.0000
# 6 0.0000 0.0000 0.0000 -2.0631 0.0000 26.9616
#
#
#
# Elastic Compliance Matrix: (Units=1/GPa)
#
#
# Indices 1 2 3 4 5 6 
#
# 1 0.013291 -0.005118 0.000977 0.000000 0.002829 0.000000
# 2 -0.005118 0.014474 -0.005369 0.000000 0.002477 0.000000
# 3 0.000977 -0.005369 0.016954 0.000000 0.003998 0.000000
# 4 0.000000 0.000000 0.000000 0.027072 0.000000 0.002072
# 5 0.002829 0.002477 0.003998 0.000000 0.030603 0.000000
# 6 0.000000 0.000000 0.000000 0.002072 0.000000 0.037248
#
#
# Mechanical properties :
#
#
# Convention : Reuss Voigt Hill
#
# Bulk Modulus (GPa) = 38.91110 46.93293 42.92201
# Shear Modulus (GPa) = 29.89941 32.20488 31.05215
#
# Velocity S-wave (km/s) = 3.63363 3.77112 3.70301
# Velocity P-wave (km/s) = 5.89806 6.29975 6.10221
#
# Compressibility (1/GPa) = 0.02569961
#
# Stress axis : x y z
#
# Youngs Moduli (GPa) = 75.24016 69.09080 58.98156
#
# Poissons Ratio (x) = 0.35360 -0.05762
# Poissons Ratio (y) = 0.38507 0.31665
# Poissons Ratio (z) = -0.07350 0.37093
#
# Static dielectric constant tensor:
#      x y z
#    x 1.979620 0.000000 -0.077620 
#    y 0.000000 1.814780 0.000000 
#    z -0.077620 0.000000 1.960940 
# 
# From -- ./inp_files/13817.got.cif
#   From: 2010.05.17/outbox.cif.g08.bks.cpg/sg8_7_cif.got.tgz:13817.got - 2010.06.03 19:46:02.
