data_PCOD9132699
_publ_section_title
;
Structure prediction by ZEFSAII (Michael W. Deem and Ramdas Pophale) SiO2 
 PCOD9132699
Probable space group: C M
;
_chemical_formula_sum "Si O2"
_cell_formula_units_Z 32
_cell_length_a 20.018118
_cell_length_b 8.106941
_cell_length_c 12.372325
_cell_angle_alpha 90.000000
_cell_angle_beta 51.929854
_cell_angle_gamma 90.000000
_cell_volume 1580.693943
_symmetry_space_group_name_H-M "C M"
_symmetry_group_IT_number 8
_symmetry_cell_setting 'monoclinic'
loop_
_space_group_symop_operation_xyz
x,y,z
x,-y,z
1/2+x,1/2+y,z
1/2+x,1/2-y,z
loop_
_atom_site_type_symbol
_atom_site_label
_atom_site_fract_x
_atom_site_fract_y
_atom_site_fract_z
Si Si1 0.407960 0.194582 0.032250
Si Si2 0.719080 0.198011 0.179368
Si Si3 0.882402 0.803943 0.515658
Si Si4 0.049905 0.799520 0.477433
Si Si5 0.194062 0.300651 0.748606
Si Si6 0.451937 0.199501 0.227736
Si Si7 0.049444 0.804744 0.726766
Si Si8 0.641957 0.200538 0.037165
O O1 0.308053 0.226843 0.126152
O O2 0.437029 0.257634 0.120731
O O3 0.425431 0.000000 0.012697
O O4 0.463673 0.267700 0.879510
O O5 0.636869 0.245080 0.332281
O O6 0.726625 0.000000 0.173803
O O7 0.703195 0.253850 0.071657
O O8 0.790149 0.737993 0.640222
O O9 0.892319 0.771191 0.378695
O O10 0.965396 0.740214 0.497394
O O11 0.881260 0.000000 0.536189
O O12 0.047640 0.741960 0.604873
O O13 0.048889 0.000000 0.477075
O O14 0.196626 0.500000 0.749391
O O15 0.129058 0.257162 0.718103
O O16 0.160633 0.240936 0.898107
O O17 0.444664 0.000000 0.236397
O O18 0.547167 0.247289 0.164252
O O19 0.058087 0.000000 0.710524
O O20 0.644547 0.000000 0.031482
#
# Coordination Sequence:
#
# PCOD9132699 Si02
#       8
#     4   4   4   4   4   4   4   4
#     4  11  24  42  63  88 122 160 196 244 305 359
#     4  11  23  39  64  92 119 156 203 248 294 356
#     4  10  22  38  62  90 118 156 200 246 293 351
#     4  10  23  42  60  85 125 164 198 244 301 352
#     4  10  21  40  63  87 119 159 199 242 300 355
#     4  10  20  39  63  84 115 156 196 244 300 353
#     4  11  24  41  62  88 121 160 202 247 295 353
#     4   9  18  37  63  86 113 153 198 245 296 349
#
# _framework density 20.244271999999999
#
# number of rings (size 3 to 8) (size 9 to 14) (size 15 to 20)
#    0.000    1.750    2.500    1.125    3.500    2.500 
#    0.000    1.250    0.000    0.000    0.000    0.000 
#    0.000    0.000    0.000    0.000    0.000    0.000 
#
# Total GULP energy -89325.046131 kJ/mol
# GULP energy per Si atom -5582.815383 kJ/mol
# Density = 2.019820 g / cm^3
# Si number density = 20.244272 Si / 1000 Ang^3
#
#
#
# Elastic Constant Matrix: (Units=GPa)
#
#
# Indices 1 2 3 4 5 6 
#
# 1 85.0241 -1.6724 36.3955 0.0000 2.4585 0.0000
# 2 -1.6724 10.2477 -3.5357 0.0000 3.2856 0.0000
# 3 36.3955 -3.5357 112.1688 0.0000 3.3075 0.0000
# 4 0.0000 0.0000 0.0000 26.9659 0.0000 1.7232
# 5 2.4585 3.2856 3.3075 0.0000 40.2384 0.0000
# 6 0.0000 0.0000 0.0000 1.7232 0.0000 18.8918
#
#
#
# Elastic Compliance Matrix: (Units=1/GPa)
#
#
# Indices 1 2 3 4 5 6 
#
# 1 0.013675 0.000891 -0.004393 0.000000 -0.000547 0.000000
# 2 0.000891 0.101581 0.003167 0.000000 -0.008609 0.000000
# 3 -0.004393 0.003167 0.010465 0.000000 -0.000850 0.000000
# 4 0.000000 0.000000 0.000000 0.037301 0.000000 -0.003402
# 5 -0.000547 -0.008609 -0.000850 0.000000 0.025658 0.000000
# 6 0.000000 0.000000 0.000000 -0.003402 0.000000 0.053243
#
#
# Mechanical properties :
#
#
# Convention : Reuss Voigt Hill
#
# Bulk Modulus (GPa) = 7.99668 29.97950 18.98809
# Shear Modulus (GPa) = 17.58838 28.96941 23.27890
#
# Velocity S-wave (km/s) = 2.95075 3.78695 3.39470
# Velocity P-wave (km/s) = 3.94562 5.82772 4.97646
#
# Compressibility (1/GPa) = 0.12505185
#
# Stress axis : x y z
#
# Youngs Moduli (GPa) = 73.12521 9.84435 95.55287
#
# Poissons Ratio (x) = -0.00878 0.41976
# Poissons Ratio (y) = -0.06519 -0.30257
# Poissons Ratio (z) = 0.32124 -0.03117
#
# Static dielectric constant tensor:
#      x y z
#    x 1.705990 0.000000 0.004310 
#    y 0.000000 1.723470 0.000000 
#    z 0.004310 0.000000 1.694900 
# 
# From -- ./inp_files/23833.got.cif
#   From: 2010.05.17/outbox.cif.g08.bks.cpg/sg8_12_cif.got.tgz:23833.got - 2010.06.03 19:46:02.
