data_PCOD9132923
_publ_section_title
;
Structure prediction by ZEFSAII (Michael W. Deem and Ramdas Pophale) SiO2 
 PCOD9132923
Probable space group: C M
;
_chemical_formula_sum "Si O2"
_cell_formula_units_Z 32
_cell_length_a 13.086696
_cell_length_b 14.152252
_cell_length_c 14.684077
_cell_angle_alpha 90.000000
_cell_angle_beta 33.277270
_cell_angle_gamma 90.000000
_cell_volume 1492.210922
_symmetry_space_group_name_H-M "C M"
_symmetry_group_IT_number 8
_symmetry_cell_setting 'monoclinic'
loop_
_space_group_symop_operation_xyz
x,y,z
x,-y,z
1/2+x,1/2+y,z
1/2+x,1/2-y,z
loop_
_atom_site_type_symbol
_atom_site_label
_atom_site_fract_x
_atom_site_fract_y
_atom_site_fract_z
Si Si1 0.763190 0.257984 0.453800
Si Si2 0.435551 0.609323 0.432802
Si Si3 0.529602 0.101540 0.332168
Si Si4 0.925270 0.201019 0.627527
Si Si5 0.373981 0.681429 0.179580
Si Si6 0.701056 0.607439 0.055450
Si Si7 0.265000 0.892128 0.704607
Si Si8 0.016890 0.278357 0.907806
O O1 0.578332 0.321816 0.589232
O O2 0.775752 0.212249 0.345338
O O3 0.765451 0.175256 0.526098
O O4 0.953808 0.316187 0.324935
O O5 0.391681 0.500000 0.483616
O O6 0.503706 0.662544 0.472623
O O7 0.576164 0.610804 0.241703
O O8 0.727307 0.118911 0.232517
O O9 0.374492 0.102327 0.527653
O O10 0.529588 0.000000 0.286109
O O11 0.890118 0.314716 0.665230
O O12 0.711364 0.166874 0.781011
O O13 0.565449 0.634221 0.072563
O O14 0.421867 0.766665 0.076813
O O15 0.764761 0.500000 0.996286
O O16 0.874662 0.675386 0.944076
O O17 0.078144 0.829155 0.834984
O O18 0.243902 0.000000 0.753635
#
# Coordination Sequence:
#
# PCOD9132923 Si02
#       8
#     4   4   4   4   4   4   4   4
#     4  11  19  37  60  90 116 152 197 245 296 347
#     4  10  21  38  61  89 117 150 198 250 292 341
#     4  11  22  39  62  88 117 151 200 253 296 343
#     4  10  21  38  60  84 121 156 194 240 293 346
#     4  11  20  37  61  86 119 157 194 244 296 348
#     4  10  22  38  61  89 119 155 199 243 292 348
#     4   9  20  39  60  85 119 154 191 244 295 343
#     4  10  22  38  56  87 124 159 188 245 291 354
#
# _framework density 21.444689
#
# number of rings (size 3 to 8) (size 9 to 14) (size 15 to 20)
#    0.750    1.000    2.500    2.625    0.000    5.000 
#    0.000    0.625    0.000    0.750    0.000    0.000 
#    0.000    0.000    0.000    0.000    0.000    0.000 
#
# Total GULP energy -89091.991352 kJ/mol
# GULP energy per Si atom -5568.249459 kJ/mol
# Density = 2.139588 g / cm^3
# Si number density = 21.444689 Si / 1000 Ang^3
#
#
#
# Elastic Constant Matrix: (Units=GPa)
#
#
# Indices 1 2 3 4 5 6 
#
# 1 121.5815 66.0137 27.1544 -0.0003 -38.5653 0.0004
# 2 66.0137 112.3195 15.8599 0.0003 -26.2354 -0.0002
# 3 27.1544 15.8599 53.1673 0.0010 -20.6995 -0.0005
# 4 -0.0003 0.0003 0.0010 17.2760 -0.0005 1.9290
# 5 -38.5653 -26.2354 -20.6995 -0.0005 30.1035 0.0002
# 6 0.0004 -0.0002 -0.0005 1.9290 0.0002 9.8482
#
#
#
# Elastic Compliance Matrix: (Units=1/GPa)
#
#
# Indices 1 2 3 4 5 6 
#
# 1 0.016560 -0.006013 -0.000607 0.000001 0.015557 -0.000001
# 2 -0.006013 0.013378 0.000847 0.000000 0.004538 0.000001
# 3 -0.000607 0.000847 0.025742 -0.000001 0.017661 0.000001
# 4 0.000001 0.000000 -0.000001 0.059178 0.000001 -0.011591
# 5 0.015557 0.004538 0.017661 0.000001 0.069247 -0.000001
# 6 -0.000001 0.000001 0.000001 -0.011591 -0.000001 0.103812
#
#
# Mechanical properties :
#
#
# Convention : Reuss Voigt Hill
#
# Bulk Modulus (GPa) = 22.65896 56.12491 39.39194
# Shear Modulus (GPa) = 15.91475 23.31488 19.61482
#
# Velocity S-wave (km/s) = 2.72716 3.30086 3.02763
# Velocity P-wave (km/s) = 4.52832 6.38407 5.53453
#
# Compressibility (1/GPa) = 0.04413265
#
# Stress axis : x y z
#
# Youngs Moduli (GPa) = 60.38575 74.75109 38.84731
#
# Poissons Ratio (x) = 0.44951 0.02359
# Poissons Ratio (y) = 0.36313 -0.03292
# Poissons Ratio (z) = 0.03668 -0.06334
#
# Static dielectric constant tensor:
#      x y z
#    x 1.797660 0.000000 -0.021400 
#    y 0.000000 1.791460 0.000000 
#    z -0.021400 0.000000 1.872600 
# 
# From -- ./inp_files/26133.got.cif
#   From: 2010.05.17/outbox.cif.g08.bks.cpg/sg8_14_cif.got.tgz:26133.got - 2010.06.03 19:46:02.
