data_PCOD9132255
_publ_section_title
;
Structure prediction by ZEFSAII (Michael W. Deem and Ramdas Pophale) SiO2 
 PCOD9132255
Probable space group: C M
;
_chemical_formula_sum "Si O2"
_cell_formula_units_Z 32
_cell_length_a 22.671861
_cell_length_b 7.463776
_cell_length_c 11.474206
_cell_angle_alpha 90.000000
_cell_angle_beta 50.253013
_cell_angle_gamma 90.000000
_cell_volume 1492.878310
_symmetry_space_group_name_H-M "C M"
_symmetry_group_IT_number 8
_symmetry_cell_setting 'monoclinic'
loop_
_space_group_symop_operation_xyz
x,y,z
x,-y,z
1/2+x,1/2+y,z
1/2+x,1/2-y,z
loop_
_atom_site_type_symbol
_atom_site_label
_atom_site_fract_x
_atom_site_fract_y
_atom_site_fract_z
Si Si1 0.184960 0.793982 0.565200
Si Si2 0.481147 0.283322 0.192105
Si Si3 0.531447 0.792260 0.632386
Si Si4 0.137570 0.781121 0.876578
Si Si5 0.215243 0.782022 0.016681
Si Si6 0.371246 0.780335 0.939403
Si Si7 0.058830 0.216461 0.332517
Si Si8 0.829634 0.707584 0.248493
O O1 0.107518 0.795143 0.588223
O O2 0.166059 0.715534 0.715819
O O3 0.254272 0.711485 0.403555
O O4 0.208255 0.000000 0.559085
O O5 0.478792 0.500000 0.194189
O O6 0.505165 0.227420 0.292178
O O7 0.400478 0.216444 0.247477
O O8 0.550930 0.226578 0.019145
O O9 0.452550 0.719550 0.785765
O O10 0.532305 0.779072 0.491811
O O11 0.537001 0.000000 0.658905
O O12 0.191313 0.727175 0.916727
O O13 0.136265 0.000000 0.876266
O O14 0.298166 0.723635 0.955195
O O15 0.215210 0.000000 0.017562
O O16 0.145638 0.726729 0.190021
O O17 0.373230 0.000000 0.934522
O O18 0.356598 0.718439 0.090075
O O19 0.058834 0.000000 0.334455
O O20 0.810540 0.500000 0.246786
#
# Coordination Sequence:
#
# PCOD9132255 Si02
#       8
#     4   4   4   4   4   4   4   4
#     4  10  20  34  53  75  99 130 169 208 245 292
#     4   9  18  33  53  76 102 132 163 200 249 297
#     4  11  22  33  49  74 102 132 166 207 253 294
#     4   8  15  29  51  77  99 125 164 203 241 290
#     4   8  14  29  53  75  97 127 164 204 242 288
#     4   9  18  31  47  71 102 132 162 201 250 295
#     4   9  18  34  55  75  98 132 169 202 242 295
#     4  10  20  33  51  75 101 132 169 205 244 293
#
# _framework density 21.435103000000002
#
# number of rings (size 3 to 8) (size 9 to 14) (size 15 to 20)
#    0.000    2.750    0.000    3.375    0.000    4.000 
#    0.000    3.125    0.000    2.250    0.000    0.000 
#    0.000    0.000    0.000    0.000    0.000    0.000 
#
# Total GULP energy -89343.953510 kJ/mol
# GULP energy per Si atom -5583.997094 kJ/mol
# Density = 2.138632 g / cm^3
# Si number density = 21.435103 Si / 1000 Ang^3
#
#
#
# Elastic Constant Matrix: (Units=GPa)
#
#
# Indices 1 2 3 4 5 6 
#
# 1 128.1585 -9.6894 106.9087 0.0000 -19.4485 0.0000
# 2 -9.6894 60.7461 1.7283 0.0000 -0.3843 0.0000
# 3 106.9087 1.7283 213.1261 0.0000 2.3442 0.0000
# 4 0.0000 0.0000 0.0000 -14.6485 0.0000 10.7496
# 5 -19.4485 -0.3843 2.3442 0.0000 33.9618 0.0000
# 6 0.0000 0.0000 0.0000 10.7496 0.0000 8.3133
#
#
#
# Elastic Compliance Matrix: (Units=1/GPa)
#
#
# Indices 1 2 3 4 5 6 
#
# 1 0.016646 0.002961 -0.008486 0.000000 0.010152 0.000000
# 2 0.002961 0.016994 -0.001645 0.000000 0.002001 0.000000
# 3 -0.008486 -0.001645 0.009022 0.000000 -0.005501 0.000000
# 4 0.000000 0.000000 0.000000 -0.035028 0.000000 0.045294
# 5 0.010152 0.002001 -0.005501 0.000000 0.035661 0.000000
# 6 0.000000 0.000000 0.000000 0.045294 0.000000 0.061721
#
#
# Mechanical properties :
#
#
# Convention : Reuss Voigt Hill
#
# Bulk Modulus (GPa) = 35.30784 66.65844 50.98314
# Shear Modulus (GPa) = 38.82112 25.73088 32.27600
#
# Velocity S-wave (km/s) = 4.26032 3.46845 3.88461
# Velocity P-wave (km/s) = 6.38029 6.87063 6.62999
#
# Compressibility (1/GPa) = 0.02832232
#
# Stress axis : x y z
#
# Youngs Moduli (GPa) = 60.07518 58.84542 110.83471
#
# Poissons Ratio (x) = -0.17423 0.94050
# Poissons Ratio (y) = -0.17787 0.18232
# Poissons Ratio (z) = 0.50977 0.09680
#
# Static dielectric constant tensor:
#      x y z
#    x 1.724610 0.000000 0.005370 
#    y 0.000000 1.855100 0.000000 
#    z 0.005370 0.000000 1.762750 
# 
# From -- ./inp_files/23854.got.cif
#   From: 2010.05.17/outbox.cif.g08.bks.cpg/sg8_12_cif.got.tgz:23854.got - 2010.06.03 19:46:02.
