data_PCOD9132009
_publ_section_title
;
Structure prediction by ZEFSAII (Michael W. Deem and Ramdas Pophale) SiO2 
 PCOD9132009
Probable space group: C M
;
_chemical_formula_sum "Si O2"
_cell_formula_units_Z 32
_cell_length_a 21.627827
_cell_length_b 8.106822
_cell_length_c 19.375026
_cell_angle_alpha 90.000000
_cell_angle_beta 21.612016
_cell_angle_gamma 90.000000
_cell_volume 1251.211056
_symmetry_space_group_name_H-M "C M"
_symmetry_group_IT_number 8
_symmetry_cell_setting 'monoclinic'
loop_
_space_group_symop_operation_xyz
x,y,z
x,-y,z
1/2+x,1/2+y,z
1/2+x,1/2-y,z
loop_
_atom_site_type_symbol
_atom_site_label
_atom_site_fract_x
_atom_site_fract_y
_atom_site_fract_z
Si Si1 0.710710 0.192288 0.592050
Si Si2 0.470383 0.314216 0.948753
Si Si3 0.508532 0.194249 0.378338
Si Si4 0.041028 0.199602 0.091027
Si Si5 0.547233 0.806154 0.625053
Si Si6 0.208497 0.303051 0.047107
Si Si7 0.240989 0.808212 0.302303
Si Si8 0.788848 0.692905 0.723858
O O1 0.538730 0.203941 0.815563
O O2 0.849003 0.288514 0.492299
O O3 0.670981 0.258018 0.557004
O O4 0.760645 0.000000 0.536054
O O5 0.458996 0.500000 0.933535
O O6 0.624339 0.307567 0.844280
O O7 0.303998 0.278017 0.166487
O O8 0.438714 0.269196 0.522443
O O9 0.535983 0.000000 0.361378
O O10 0.660020 0.258745 0.173947
O O11 0.884261 0.261257 0.209853
O O12 0.039467 0.000000 0.091550
O O13 0.057435 0.261113 0.151486
O O14 0.207192 0.262654 0.877717
O O15 0.367453 0.778555 0.846112
O O16 0.577479 0.735895 0.517299
O O17 0.578858 0.000000 0.585652
O O18 0.231540 0.500000 0.025878
O O19 0.245015 0.000000 0.283815
O O20 0.831351 0.500000 0.693032
#
# Coordination Sequence:
#
# PCOD9132009 Si02
#       8
#     4   4   4   4   4   4   4   4
#     4  10  20  34  56  84 110 140 182 228 272 323
#     4   9  17  32  55  82 112 143 176 218 274 332
#     4   9  18  34  56  80 106 137 176 221 270 324
#     4  10  19  34  57  82 110 144 180 219 270 330
#     4  11  24  40  55  75 109 151 190 229 279 332
#     4  11  23  37  54  78 108 144 187 232 275 322
#     4  11  21  35  58  86 113 141 182 232 276 323
#     4   7  13  28  51  77 102 132 171 213 256 312
#
# _framework density 25.575223000000001
#
# number of rings (size 3 to 8) (size 9 to 14) (size 15 to 20)
#    0.000    2.250    0.000    5.250    0.000    5.000 
#    0.000    1.875    0.000    4.500    0.000    0.000 
#    0.000    0.000    0.000    0.000    0.000    0.000 
#
# Total GULP energy -89478.128879 kJ/mol
# GULP energy per Si atom -5592.383055 kJ/mol
# Density = 2.551701 g / cm^3
# Si number density = 25.575223 Si / 1000 Ang^3
#
#
#
# Elastic Constant Matrix: (Units=GPa)
#
#
# Indices 1 2 3 4 5 6 
#
# 1 97.6361 -1.9742 21.7757 -0.0003 24.4236 0.0001
# 2 -1.9742 52.4030 -5.6621 -0.0011 9.4987 0.0007
# 3 21.7757 -5.6621 173.3851 -0.0005 27.2291 0.0004
# 4 -0.0003 -0.0011 -0.0005 30.9444 0.0004 -0.6831
# 5 24.4236 9.4987 27.2291 0.0004 56.5749 -0.0003
# 6 0.0001 0.0007 0.0004 -0.6831 -0.0003 18.2971
#
#
#
# Elastic Compliance Matrix: (Units=1/GPa)
#
#
# Indices 1 2 3 4 5 6 
#
# 1 0.011645 0.001262 -0.000647 0.000000 -0.004927 0.000000
# 2 0.001262 0.020075 0.001203 0.000001 -0.004494 -0.000001
# 3 -0.000647 0.001203 0.006356 0.000000 -0.002982 0.000000
# 4 0.000000 0.000001 0.000000 0.032343 -0.000001 0.001207
# 5 -0.004927 -0.004494 -0.002982 -0.000001 0.021992 0.000001
# 6 0.000000 -0.000001 0.000000 0.001207 0.000001 0.054698
#
#
# Mechanical properties :
#
#
# Convention : Reuss Voigt Hill
#
# Bulk Modulus (GPa) = 23.97475 39.07812 31.52644
# Shear Modulus (GPa) = 31.77055 41.78227 36.77641
#
# Velocity S-wave (km/s) = 3.52837 4.04629 3.79617
# Velocity P-wave (km/s) = 5.09840 6.09449 5.61856
#
# Compressibility (1/GPa) = 0.04171055
#
# Stress axis : x y z
#
# Youngs Moduli (GPa) = 85.87690 49.81314 157.32255
#
# Poissons Ratio (x) = -0.06286 0.10186
# Poissons Ratio (y) = -0.10837 -0.18924
# Poissons Ratio (z) = 0.05560 -0.05992
#
# Static dielectric constant tensor:
#      x y z
#    x 2.098160 0.000000 -0.083630 
#    y 0.000000 1.896460 0.000000 
#    z -0.083630 0.000000 2.142070 
# 
# From -- ./inp_files/31651.got.cif
#   From: 2010.05.17/outbox.cif.g08.bks.cpg/sg8_16_cif.got.tgz:31651.got - 2010.06.03 19:46:02.
