data_PCOD9132900
_publ_section_title
;
Structure prediction by ZEFSAII (Michael W. Deem and Ramdas Pophale) SiO2 
 PCOD9132900
Probable space group: C M
;
_chemical_formula_sum "Si O2"
_cell_formula_units_Z 32
_cell_length_a 14.615094
_cell_length_b 13.903581
_cell_length_c 10.264881
_cell_angle_alpha 90.000000
_cell_angle_beta 44.317607
_cell_angle_gamma 90.000000
_cell_volume 1457.245280
_symmetry_space_group_name_H-M "C M"
_symmetry_group_IT_number 8
_symmetry_cell_setting 'monoclinic'
loop_
_space_group_symop_operation_xyz
x,y,z
x,-y,z
1/2+x,1/2+y,z
1/2+x,1/2-y,z
loop_
_atom_site_type_symbol
_atom_site_label
_atom_site_fract_x
_atom_site_fract_y
_atom_site_fract_z
Si Si1 0.042010 0.384303 0.125000
Si Si2 0.448558 0.390123 0.359595
Si Si3 0.071165 0.290643 0.357892
Si Si4 0.301647 0.883841 0.721959
Si Si5 0.821538 0.269839 0.215032
Si Si6 0.377264 0.114676 0.920660
Si Si7 0.156123 0.615728 0.724098
Si Si8 0.015230 0.109672 0.984319
O O1 0.016021 0.500000 0.157668
O O2 0.112700 0.347199 0.183534
O O3 0.908509 0.319997 0.240333
O O4 0.125705 0.365050 0.908016
O O5 0.456657 0.500000 0.399169
O O6 0.532300 0.316391 0.355965
O O7 0.297577 0.355151 0.526982
O O8 0.495778 0.391832 0.161727
O O9 0.180035 0.281033 0.359968
O O10 0.937124 0.344042 0.531510
O O11 0.301025 0.850134 0.872457
O O12 0.305404 0.000000 0.713236
O O13 0.162674 0.858282 0.800372
O O14 0.910553 0.188763 0.053746
O O15 0.811452 0.354902 0.120969
O O16 0.528244 0.148055 0.774984
O O17 0.378979 0.000000 0.911157
O O18 0.156870 0.500000 0.711982
O O19 0.993155 0.000000 0.961425
#
# Coordination Sequence:
#
# PCOD9132900 Si02
#       8
#     4   4   4   4   4   4   4   4
#     4  10  22  43  66  92 132 172 210 263 327 387
#     4  10  21  37  61  91 124 160 208 262 315 369
#     4  12  25  37  65  96 128 170 215 260 320 383
#     4  10  23  41  62  90 125 169 210 257 318 382
#     4  11  23  39  63  96 122 162 216 266 318 374
#     4   9  19  36  63  92 121 161 213 259 310 380
#     4   8  17  34  61  91 119 159 204 258 313 364
#     4  10  22  41  62  86 125 165 205 261 318 373
#
# _framework density 21.959239
#
# number of rings (size 3 to 8) (size 9 to 14) (size 15 to 20)
#    0.000    2.000    1.250    2.250    5.250    3.000 
#    0.000    0.000    0.000    0.750    0.000    0.000 
#    0.000    0.000    0.000    0.000    0.000    0.000 
#
# Total GULP energy -89226.696962 kJ/mol
# GULP energy per Si atom -5576.668560 kJ/mol
# Density = 2.190926 g / cm^3
# Si number density = 21.959239 Si / 1000 Ang^3
#
#
#
# Elastic Constant Matrix: (Units=GPa)
#
#
# Indices 1 2 3 4 5 6 
#
# 1 50.5037 15.5912 10.3998 0.0000 -14.3012 0.0000
# 2 15.5912 83.2569 6.9676 0.0000 -15.5514 0.0000
# 3 10.3998 6.9676 78.7658 0.0000 -25.5388 0.0000
# 4 0.0000 0.0000 0.0000 32.8702 0.0000 -7.5077
# 5 -14.3012 -15.5514 -25.5388 0.0000 32.0422 0.0000
# 6 0.0000 0.0000 0.0000 -7.5077 0.0000 14.4205
#
#
#
# Elastic Compliance Matrix: (Units=1/GPa)
#
#
# Indices 1 2 3 4 5 6 
#
# 1 0.023186 -0.002638 0.000151 0.000000 0.009189 0.000000
# 2 -0.002638 0.013597 0.001218 0.000000 0.006393 0.000000
# 3 0.000151 0.001218 0.017236 0.000000 0.014397 0.000000
# 4 0.000000 0.000000 0.000000 0.034529 0.000000 0.017976
# 5 0.009189 0.006393 0.014397 0.000000 0.049887 0.000000
# 6 0.000000 0.000000 0.000000 0.017976 0.000000 0.078705
#
#
# Mechanical properties :
#
#
# Convention : Reuss Voigt Hill
#
# Bulk Modulus (GPa) = 19.42436 30.93816 25.18126
# Shear Modulus (GPa) = 21.11156 27.83778 24.47467
#
# Velocity S-wave (km/s) = 3.10400 3.56434 3.34211
# Velocity P-wave (km/s) = 4.65954 5.57305 5.13664
#
# Compressibility (1/GPa) = 0.05148175
#
# Stress axis : x y z
#
# Youngs Moduli (GPa) = 43.12989 73.54449 58.01813
#
# Poissons Ratio (x) = 0.19403 -0.00878
# Poissons Ratio (y) = 0.11379 -0.07068
# Poissons Ratio (z) = -0.00653 -0.08960
#
# Static dielectric constant tensor:
#      x y z
#    x 1.824440 0.000000 -0.033240 
#    y 0.000000 1.830460 0.000000 
#    z -0.033240 0.000000 1.855000 
# 
# From -- ./inp_files/22226.got.cif
#   From: 2010.05.17/outbox.cif.g08.bks.cpg/sg8_12_cif.got.tgz:22226.got - 2010.06.03 19:46:02.
