data_PCOD9132762
_publ_section_title
;
Structure prediction by ZEFSAII (Michael W. Deem and Ramdas Pophale) SiO2 
 PCOD9132762
Probable space group: C M
;
_chemical_formula_sum "Si O2"
_cell_formula_units_Z 28
_cell_length_a 7.327809
_cell_length_b 27.520409
_cell_length_c 6.400294
_cell_angle_alpha 90.000000
_cell_angle_beta 85.231563
_cell_angle_gamma 90.000000
_cell_volume 1286.243411
_symmetry_space_group_name_H-M "C M"
_symmetry_group_IT_number 8
_symmetry_cell_setting 'monoclinic'
loop_
_space_group_symop_operation_xyz
x,y,z
x,-y,z
1/2+x,1/2+y,z
1/2+x,1/2-y,z
loop_
_atom_site_type_symbol
_atom_site_label
_atom_site_fract_x
_atom_site_fract_y
_atom_site_fract_z
Si Si1 0.706330 0.831532 0.422860
Si Si2 0.132792 0.942002 0.286225
Si Si3 0.950275 0.373306 0.098194
Si Si4 0.777001 0.052415 0.036234
Si Si5 0.936898 0.813981 0.004937
Si Si6 0.558393 0.210621 0.833296
Si Si7 0.959677 0.897272 0.683297
O O1 0.533522 0.849400 0.302240
O O2 0.620106 0.908174 0.027451
O O3 0.616032 0.791218 0.584928
O O4 0.880930 0.818399 0.255158
O O5 0.279973 0.908906 0.151808
O O6 0.113869 0.916037 0.512489
O O7 0.931805 0.938341 0.196774
O O8 0.176623 0.000000 0.289851
O O9 0.297004 0.371972 0.564727
O O10 0.915903 0.330073 0.932638
O O11 0.694668 0.000000 0.084891
O O12 0.884653 0.055831 0.809529
O O13 0.736364 0.808431 0.930523
O O14 0.028003 0.763798 0.928063
O O15 0.012744 0.859250 0.862699
#
# Coordination Sequence:
#
# PCOD9132762 Si02
#       7
#     4   4   4   4   4   4   4
#     4  10  20  41  65  87 130 171 216 261 333 387
#     4  11  25  40  65 101 131 173 225 272 336 395
#     4  11  22  43  65  95 132 171 219 273 328 390
#     4  11  22  42  67  93 132 174 215 271 330 395
#     4  10  22  37  61  92 129 170 218 270 322 390
#     4  10  23  39  62  95 127 171 224 264 333 391
#     4  11  20  42  64  91 129 176 214 267 330 390
#
# _framework density 21.768820000000002
#
# number of rings (size 3 to 8) (size 9 to 14) (size 15 to 20)
#    0.000    1.429    5.714    0.857    0.000   10.286 
#    0.000    0.000    0.000    0.000    0.000    0.000 
#    0.000    0.000    0.000    0.000    0.000    0.000 
#
# Total GULP energy -77956.781735 kJ/mol
# GULP energy per Si atom -5568.341552 kJ/mol
# Density = 2.171927 g / cm^3
# Si number density = 21.768820 Si / 1000 Ang^3
#
#
#
# Elastic Constant Matrix: (Units=GPa)
#
#
# Indices 1 2 3 4 5 6 
#
# 1 47.8535 26.9188 15.3735 0.0000 -4.9168 0.0000
# 2 26.9188 151.0526 63.7529 0.0000 -12.7935 0.0000
# 3 15.3735 63.7529 126.7860 0.0000 -11.9198 0.0000
# 4 0.0000 0.0000 0.0000-2167.9732 0.0000-1583.6094
# 5 -4.9168 -12.7935 -11.9198 0.0000 17.3149 0.0000
# 6 0.0000 0.0000 0.0000-1583.6094 0.0000-1096.2036
#
#
#
# Elastic Compliance Matrix: (Units=1/GPa)
#
#
# Indices 1 2 3 4 5 6 
#
# 1 0.023508 -0.003589 -0.000714 0.000000 0.003532 0.000000
# 2 -0.003589 0.009158 -0.003881 0.000000 0.003076 0.000000
# 3 -0.000714 -0.003881 0.010303 0.000000 0.004023 0.000000
# 4 0.000000 0.000000 0.000000 0.008350 0.000000 -0.012063
# 5 0.003532 0.003076 0.004023 0.000000 0.063799 0.000000
# 6 0.000000 0.000000 0.000000 -0.012063 0.000000 0.016514
#
#
# Mechanical properties :
#
#
# Convention : Reuss Voigt Hill
#
# Bulk Modulus (GPa) = 37.58969 59.75362 48.67166
# Shear Modulus (GPa) = 31.87391 -634.72926 -301.42767
#
# Velocity S-wave (km/s) = 3.83064 -17.09416 -11.77999
# Velocity P-wave (km/s) = 6.07208 19.02905 12.75215
#
# Compressibility (1/GPa) = 0.02660304
#
# Stress axis : x y z
#
# Youngs Moduli (GPa) = 42.53836 109.19162 97.05485
#
# Poissons Ratio (x) = 0.39188 0.06927
# Poissons Ratio (y) = 0.15267 0.37664
# Poissons Ratio (z) = 0.03036 0.42374
#
# Static dielectric constant tensor:
#      x y z
#    x 1.817170 0.000000 -0.066120 
#    y 0.000000 282.225720 0.000000 
#    z -0.066120 0.000000 1.951140 
# 
# From -- ./inp_files/1861.got.cif
#   From: 2010.05.17/outbox.cif.g08.bks.cpg/sg8_1_cif.got.tgz:1861.got - 2010.06.03 19:46:02.
