data_PCOD9132569
_publ_section_title
;
Structure prediction by ZEFSAII (Michael W. Deem and Ramdas Pophale) SiO2 
 PCOD9132569
Probable space group: C M
;
_chemical_formula_sum "Si O2"
_cell_formula_units_Z 28
_cell_length_a 8.875914
_cell_length_b 15.274190
_cell_length_c 8.083007
_cell_angle_alpha 90.000000
_cell_angle_beta 89.801262
_cell_angle_gamma 90.000000
_cell_volume 1095.826041
_symmetry_space_group_name_H-M "C M"
_symmetry_group_IT_number 8
_symmetry_cell_setting 'monoclinic'
loop_
_space_group_symop_operation_xyz
x,y,z
x,-y,z
1/2+x,1/2+y,z
1/2+x,1/2-y,z
loop_
_atom_site_type_symbol
_atom_site_label
_atom_site_fract_x
_atom_site_fract_y
_atom_site_fract_z
Si Si1 0.009790 0.098091 0.861440
Si Si2 0.378177 0.903233 0.564818
Si Si3 0.801440 0.213470 0.052805
Si Si4 0.095949 0.708236 0.373230
Si Si5 0.804097 0.406419 0.051154
Si Si6 0.307586 0.724445 0.693240
Si Si7 0.580450 0.594560 0.366049
O O1 0.942834 0.155058 0.713596
O O2 0.956510 0.000000 0.839778
O O3 0.186076 0.095475 0.898273
O O4 0.927792 0.140797 0.021616
O O5 0.478559 0.869471 0.409128
O O6 0.385871 0.819058 0.681305
O O7 0.204394 0.908368 0.511799
O O8 0.427436 0.000000 0.618814
O O9 0.694753 0.197779 0.207821
O O10 0.874804 0.310413 0.064561
O O11 0.722492 0.214569 0.870434
O O12 0.205919 0.709393 0.533642
O O13 0.019367 0.805428 0.365153
O O14 0.888333 0.500000 0.044874
O O15 0.690612 0.410035 0.206820
O O16 0.494696 0.500000 0.371456
#
# Coordination Sequence:
#
# PCOD9132569 Si02
#       7
#     4   4   4   4   4   4   4
#     4   9  20  38  57  82 118 152 193 240 288 350
#     4  10  21  38  60  88 121 156 198 244 298 355
#     4   9  21  36  61  85 117 153 197 239 294 347
#     4  10  20  37  60  89 118 155 191 247 296 347
#     4   9  17  32  57  84 111 148 192 239 287 337
#     4   9  22  38  59  83 121 153 198 240 288 350
#     4   8  17  35  56  83 116 149 193 241 283 344
#
# _framework density 25.551500000000001
#
# number of rings (size 3 to 8) (size 9 to 14) (size 15 to 20)
#    0.857    2.000    0.000    0.000    2.000    8.571 
#    0.000    0.714    0.000    6.857    0.000    0.000 
#    0.000    0.000    0.000    0.000    0.000    0.000 
#
# Total GULP energy -78161.098376 kJ/mol
# GULP energy per Si atom -5582.935598 kJ/mol
# Density = 2.549334 g / cm^3
# Si number density = 25.551500 Si / 1000 Ang^3
#
#
#
# Elastic Constant Matrix: (Units=GPa)
#
#
# Indices 1 2 3 4 5 6 
#
# 1 70.4395 44.6325 36.5383 0.0000 -10.1050 0.0000
# 2 44.6325 222.3416 13.4214 0.0000 -6.8808 0.0000
# 3 36.5383 13.4214 152.4570 0.0000 -11.9851 0.0000
# 4 0.0000 0.0000 0.0000 26.2169 0.0000 -2.9322
# 5 -10.1050 -6.8808 -11.9851 0.0000 40.4094 0.0000
# 6 0.0000 0.0000 0.0000 -2.9322 0.0000 27.4362
#
#
#
# Elastic Compliance Matrix: (Units=1/GPa)
#
#
# Indices 1 2 3 4 5 6 
#
# 1 0.018880 -0.003458 -0.003988 0.000000 0.002949 0.000000
# 2 -0.003458 0.005173 0.000384 0.000000 0.000130 0.000000
# 3 -0.003988 0.000384 0.007585 0.000000 0.001318 0.000000
# 4 0.000000 0.000000 0.000000 0.038605 0.000000 0.004126
# 5 0.002949 0.000130 0.001318 0.000000 0.025897 0.000000
# 6 0.000000 0.000000 0.000000 0.004126 0.000000 0.036889
#
#
# Mechanical properties :
#
#
# Convention : Reuss Voigt Hill
#
# Bulk Modulus (GPa) = 57.10501 70.49139 63.79820
# Shear Modulus (GPa) = 32.68169 42.18889 37.43529
#
# Velocity S-wave (km/s) = 3.58026 4.06782 3.83180
# Velocity P-wave (km/s) = 6.28399 7.05058 6.67830
#
# Compressibility (1/GPa) = 0.01751160
#
# Stress axis : x y z
#
# Youngs Moduli (GPa) = 52.96738 193.32771 131.84048
#
# Poissons Ratio (x) = 0.66849 0.52584
# Poissons Ratio (y) = 0.18315 -0.05057
# Poissons Ratio (z) = 0.21126 -0.07415
#
# Static dielectric constant tensor:
#      x y z
#    x 1.991160 0.000000 -0.000800 
#    y 0.000000 2.044610 0.000000 
#    z -0.000800 0.000000 2.191640 
# 
# From -- ./inp_files/10489.got.cif
#   From: 2010.05.17/outbox.cif.g08.bks.cpg/sg8_6_cif.got.tgz:10489.got - 2010.06.03 19:46:02.
