data_PCOD9132193
_publ_section_title
;
Structure prediction by ZEFSAII (Michael W. Deem and Ramdas Pophale) SiO2 
 PCOD9132193
Probable space group: C M
;
_chemical_formula_sum "Si O2"
_cell_formula_units_Z 32
_cell_length_a 24.598956
_cell_length_b 8.759800
_cell_length_c 19.830891
_cell_angle_alpha 90.000000
_cell_angle_beta 23.182133
_cell_angle_gamma 90.000000
_cell_volume 1682.167208
_symmetry_space_group_name_H-M "C M"
_symmetry_group_IT_number 8
_symmetry_cell_setting 'monoclinic'
loop_
_space_group_symop_operation_xyz
x,y,z
x,-y,z
1/2+x,1/2+y,z
1/2+x,1/2-y,z
loop_
_atom_site_type_symbol
_atom_site_label
_atom_site_fract_x
_atom_site_fract_y
_atom_site_fract_z
Si Si1 0.122910 0.185943 0.399780
Si Si2 0.099366 0.179388 0.749109
Si Si3 0.662811 0.315428 0.080476
Si Si4 0.340660 0.822994 0.259439
Si Si5 0.308192 0.315319 0.782121
Si Si6 0.796089 0.684745 0.071049
Si Si7 0.127959 0.323654 0.858176
Si Si8 0.861826 0.180922 0.378069
O O1 0.209289 0.232358 0.367136
O O2 0.200933 0.235916 0.242680
O O3 0.964762 0.233048 0.588089
O O4 0.125388 0.000000 0.395786
O O5 0.142373 0.222149 0.776153
O O6 0.223013 0.240637 0.562125
O O7 0.083930 0.000000 0.758370
O O8 0.952046 0.256793 0.901429
O O9 0.665592 0.500000 0.074734
O O10 0.729443 0.267759 0.075646
O O11 0.502417 0.267868 0.255203
O O12 0.747323 0.252735 0.920195
O O13 0.376218 0.723335 0.283331
O O14 0.319911 0.000000 0.304510
O O15 0.468872 0.822521 0.062157
O O16 0.304008 0.500000 0.792626
O O17 0.215493 0.274080 0.823167
O O18 0.799494 0.500000 0.068577
O O19 0.166254 0.500000 0.798244
O O20 0.848803 0.000000 0.402034
#
# Coordination Sequence:
#
# PCOD9132193 Si02
#       8
#     4   4   4   4   4   4   4   4
#     4   9  19  36  61  88 115 154 200 242 290 352
#     4  12  26  41  61  90 122 159 205 255 305 359
#     4  10  23  40  62  89 122 160 200 249 300 357
#     4  10  19  37  62  88 118 155 200 249 297 353
#     4  10  21  37  62  90 120 159 199 242 296 359
#     4  10  21  42  64  86 120 162 204 246 300 361
#     4  10  20  38  64  88 117 158 201 248 302 358
#     4  11  24  41  62  89 122 161 203 249 304 363
#
# _framework density 19.023078999999999
#
# number of rings (size 3 to 8) (size 9 to 14) (size 15 to 20)
#    0.000    1.750    2.500    1.500    3.500    2.000 
#    0.000    0.625    0.000    0.000    0.000    0.000 
#    0.000    0.000    0.000    0.000    0.000    0.000 
#
# Total GULP energy -89356.065657 kJ/mol
# GULP energy per Si atom -5584.754104 kJ/mol
# Density = 1.897978 g / cm^3
# Si number density = 19.023079 Si / 1000 Ang^3
#
#
#
# Elastic Constant Matrix: (Units=GPa)
#
#
# Indices 1 2 3 4 5 6 
#
# 1 83.3681 14.1753 11.3971 -0.0001 -15.7177 0.0000
# 2 14.1753 22.5905 11.8421 -0.0001 -0.3320 0.0001
# 3 11.3971 11.8421 80.2971 -0.0001 -14.2346 0.0000
# 4 -0.0001 -0.0001 -0.0001 20.8229 0.0001 6.5351
# 5 -15.7177 -0.3320 -14.2346 0.0001 30.7555 0.0000
# 6 0.0000 0.0001 0.0000 6.5351 0.0000 27.7275
#
#
#
# Elastic Compliance Matrix: (Units=1/GPa)
#
#
# Indices 1 2 3 4 5 6 
#
# 1 0.015036 -0.009683 0.000695 0.000000 0.007901 0.000000
# 2 -0.009683 0.054467 -0.008096 0.000000 -0.008108 0.000000
# 3 0.000695 -0.008096 0.014812 0.000000 0.007123 0.000000
# 4 0.000000 0.000000 0.000000 0.051860 0.000000 -0.012223
# 5 0.007901 -0.008108 0.007123 0.000000 0.039762 0.000000
# 6 0.000000 0.000000 0.000000 -0.012223 0.000000 0.038946
#
#
# Mechanical properties :
#
#
# Convention : Reuss Voigt Hill
#
# Bulk Modulus (GPa) = 19.94148 29.00942 24.47545
# Shear Modulus (GPa) = 18.81353 25.78395 22.29874
#
# Velocity S-wave (km/s) = 3.14822 3.68557 3.42745
# Velocity P-wave (km/s) = 4.87038 5.77875 5.34390
#
# Compressibility (1/GPa) = 0.05014674
#
# Stress axis : x y z
#
# Youngs Moduli (GPa) = 66.50658 18.35976 67.51361
#
# Poissons Ratio (x) = 0.17778 -0.04689
# Poissons Ratio (y) = 0.64398 0.54656
# Poissons Ratio (z) = -0.04619 0.14863
#
# Static dielectric constant tensor:
#      x y z
#    x 1.647600 0.000000 -0.012100 
#    y 0.000000 1.655680 0.000000 
#    z -0.012100 0.000000 1.642080 
# 
# From -- ./inp_files/31646.got.cif
#   From: 2010.05.17/outbox.cif.g08.bks.cpg/sg8_16_cif.got.tgz:31646.got - 2010.06.03 19:46:02.
