data_PCOD9132956
_publ_section_title
;
Structure prediction by ZEFSAII (Michael W. Deem and Ramdas Pophale) SiO2 
 PCOD9132956
Probable space group: C M
;
_chemical_formula_sum "Si O2"
_cell_formula_units_Z 32
_cell_length_a 14.866163
_cell_length_b 8.783631
_cell_length_c 11.025125
_cell_angle_alpha 90.000000
_cell_angle_beta 79.487108
_cell_angle_gamma 90.000000
_cell_volume 1415.482470
_symmetry_space_group_name_H-M "C M"
_symmetry_group_IT_number 8
_symmetry_cell_setting 'monoclinic'
loop_
_space_group_symop_operation_xyz
x,y,z
x,-y,z
1/2+x,1/2+y,z
1/2+x,1/2-y,z
loop_
_atom_site_type_symbol
_atom_site_label
_atom_site_fract_x
_atom_site_fract_y
_atom_site_fract_z
Si Si1 0.573480 0.322787 0.809040
Si Si2 0.313817 0.320613 0.363905
Si Si3 0.244730 0.678755 0.872309
Si Si4 0.649669 0.679726 0.275736
Si Si5 0.401577 0.825346 0.956902
Si Si6 0.034196 0.821264 0.550647
Si Si7 0.336513 0.179295 0.611597
Si Si8 0.983926 0.675871 0.205285
O O1 0.589773 0.500000 0.829565
O O2 0.640120 0.224949 0.876311
O O3 0.469073 0.279216 0.861714
O O4 0.588597 0.294434 0.662452
O O5 0.301851 0.500000 0.379732
O O6 0.247163 0.254586 0.277542
O O7 0.294952 0.236979 0.495221
O O8 0.417452 0.280212 0.302047
O O9 0.253452 0.500000 0.888199
O O10 0.298825 0.766712 0.964491
O O11 0.294252 0.732652 0.735918
O O12 0.658613 0.500000 0.249968
O O13 0.594498 0.701937 0.416506
O O14 0.586326 0.761173 0.192149
O O15 0.406883 0.000000 0.913183
O O16 0.441608 0.818199 0.081870
O O17 0.944190 0.718010 0.575913
O O18 0.005292 0.000000 0.559393
O O19 0.321100 0.000000 0.630161
O O20 0.980559 0.500000 0.247783
#
# Coordination Sequence:
#
# PCOD9132956 Si02
#       8
#     4   4   4   4   4   4   4   4
#     4  11  23  41  67  97 132 168 210 260 318 384
#     4  12  25  42  66  96 132 170 214 263 317 379
#     4  12  25  42  66  96 132 170 214 263 317 379
#     4  11  23  41  67  97 132 168 210 260 318 384
#     4  11  25  45  67  93 127 168 217 269 321 378
#     4  10  21  38  63  96 130 166 205 254 317 386
#     4  12  23  38  65  96 132 170 209 258 319 384
#     4  11  25  45  67  93 127 168 217 269 321 378
#
# _framework density 22.607130999999999
#
# number of rings (size 3 to 8) (size 9 to 14) (size 15 to 20)
#    0.000    0.750    2.500    5.625    0.000    5.000 
#    0.000    0.000    0.000    0.000    0.000    0.000 
#    0.000    0.000    0.000    0.000    0.000    0.000 
#
# Total GULP energy -89632.315599 kJ/mol
# GULP energy per Si atom -5602.019725 kJ/mol
# Density = 2.255568 g / cm^3
# Si number density = 22.607131 Si / 1000 Ang^3
#
#
#
# Elastic Constant Matrix: (Units=GPa)
#
#
# Indices 1 2 3 4 5 6 
#
# 1 100.5745 18.2734 1.7426 0.0000 31.4288 0.0000
# 2 18.2734 79.8458 12.6612 0.0000 19.6910 0.0000
# 3 1.7426 12.6612 53.1191 0.0000 21.0152 0.0000
# 4 0.0000 0.0000 0.0000 24.7720 0.0000 5.7741
# 5 31.4288 19.6910 21.0152 0.0000 39.4157 0.0000
# 6 0.0000 0.0000 0.0000 5.7741 0.0000 40.7431
#
#
#
# Elastic Compliance Matrix: (Units=1/GPa)
#
#
# Indices 1 2 3 4 5 6 
#
# 1 0.014291 -0.000684 0.005154 0.000000 -0.013801 0.000000
# 2 -0.000684 0.014340 -0.000985 0.000000 -0.006093 0.000000
# 3 0.005154 -0.000985 0.025755 0.000000 -0.017350 0.000000
# 4 0.000000 0.000000 0.000000 0.041747 0.000000 -0.005916
# 5 -0.013801 -0.006093 -0.017350 0.000000 0.048669 0.000000
# 6 0.000000 0.000000 0.000000 -0.005916 0.000000 0.025383
#
#
# Mechanical properties :
#
#
# Convention : Reuss Voigt Hill
#
# Bulk Modulus (GPa) = 16.29841 33.21041 24.75441
# Shear Modulus (GPa) = 27.22329 34.37697 30.80013
#
# Velocity S-wave (km/s) = 3.47391 3.90375 3.69509
# Velocity P-wave (km/s) = 4.82864 5.91956 5.40171
#
# Compressibility (1/GPa) = 0.06135567
#
# Stress axis : x y z
#
# Youngs Moduli (GPa) = 69.97571 69.73741 38.82699
#
# Poissons Ratio (x) = 0.04772 -0.20013
# Poissons Ratio (y) = 0.04789 0.03824
# Poissons Ratio (z) = -0.36068 0.06869
#
# Static dielectric constant tensor:
#      x y z
#    x 1.826410 0.000000 0.010370 
#    y 0.000000 1.747910 0.000000 
#    z 0.010370 0.000000 1.860040 
# 
# From -- ./inp_files/21384.got.cif
#   From: 2010.05.17/outbox.cif.g08.bks.cpg/sg8_11_cif.got.tgz:21384.got - 2010.06.03 19:46:02.
