data_PCOD9132154
_publ_section_title
;
Structure prediction by ZEFSAII (Michael W. Deem and Ramdas Pophale) SiO2 
 PCOD9132154
Probable space group: C M
;
_chemical_formula_sum "Si O2"
_cell_formula_units_Z 22
_cell_length_a 16.177782
_cell_length_b 13.826302
_cell_length_c 7.235883
_cell_angle_alpha 90.000000
_cell_angle_beta 146.700755
_cell_angle_gamma 90.000000
_cell_volume 888.583482
_symmetry_space_group_name_H-M "C M"
_symmetry_group_IT_number 8
_symmetry_cell_setting 'monoclinic'
loop_
_space_group_symop_operation_xyz
x,y,z
x,-y,z
1/2+x,1/2+y,z
1/2+x,1/2-y,z
loop_
_atom_site_type_symbol
_atom_site_label
_atom_site_fract_x
_atom_site_fract_y
_atom_site_fract_z
Si Si1 0.713660 0.500000 0.822240
Si Si2 0.898077 0.000000 0.391204
Si Si3 0.162433 0.000000 0.142852
Si Si4 0.207266 0.615687 0.636208
Si Si5 0.181157 0.350814 0.138851
Si Si6 0.883552 0.303220 0.022033
Si Si7 0.347568 0.169418 0.540364
O O1 0.530261 0.500000 0.486484
O O2 0.777051 0.397003 0.866928
O O3 0.750203 0.500000 0.110208
O O4 0.787309 0.912021 0.207227
O O5 0.993531 0.000000 0.763676
O O6 0.224782 0.090363 0.364177
O O7 0.222844 0.500000 0.707348
O O8 0.203867 0.621576 0.400632
O O9 0.322043 0.694571 0.939770
O O10 0.045698 0.660651 0.393587
O O11 0.248094 0.243777 0.241158
O O12 0.007043 0.363031 0.757358
O O13 0.902989 0.290990 0.837997
#
# Coordination Sequence:
#
# PCOD9132154 Si02
#       7
#     2   2   2   4   4   4   4
#     4  10  23  42  59  88 140 176 204 260 325 388
#     4  10  21  36  57  86 132 166 194 262 311 382
#     4  10  22  36  58  92 116 172 208 246 322 368
#     4  10  20  39  69  97 126 164 215 279 317 375
#     4  10  19  36  61  95 127 152 212 270 322 367
#     4  10  21  42  67  92 133 166 215 267 326 377
#     4  10  20  36  67  94 113 165 209 271 313 375
#
# _framework density 24.758507999999999
#
# number of rings (size 3 to 8) (size 9 to 14) (size 15 to 20)
#    0.545    1.455    1.818    2.182    2.545    1.455 
#    4.909    0.000    4.000    0.000    0.000    0.000 
#    0.000    0.000    0.000    0.000    0.000    0.000 
#
# Total GULP energy -61279.584807 kJ/mol
# GULP energy per Si atom -5570.871346 kJ/mol
# Density = 2.470216 g / cm^3
# Si number density = 24.758508 Si / 1000 Ang^3
#
#
#
# Elastic Constant Matrix: (Units=GPa)
#
#
# Indices 1 2 3 4 5 6 
#
# 1 87.3944 10.3918 20.4725 0.0000 5.5929 0.0000
# 2 10.3918 161.6250 17.0059 0.0000 20.9202 0.0000
# 3 20.4725 17.0059 47.8920 0.0000 24.4970 0.0000
# 4 0.0000 0.0000 0.0000 36.1593 0.0000 0.5470
# 5 5.5929 20.9202 24.4970 0.0000 45.2681 0.0000
# 6 0.0000 0.0000 0.0000 0.5470 0.0000 48.9103
#
#
#
# Elastic Compliance Matrix: (Units=1/GPa)
#
#
# Indices 1 2 3 4 5 6 
#
# 1 0.012861 -0.000421 -0.006409 0.000000 0.002074 0.000000
# 2 -0.000421 0.006635 -0.000877 0.000000 -0.002540 0.000000
# 3 -0.006409 -0.000877 0.032244 0.000000 -0.016252 0.000000
# 4 0.000000 0.000000 0.000000 0.027660 0.000000 -0.000309
# 5 0.002074 -0.002540 -0.016252 0.000000 0.031803 0.000000
# 6 0.000000 0.000000 0.000000 -0.000309 0.000000 0.020449
#
#
# Mechanical properties :
#
#
# Convention : Reuss Voigt Hill
#
# Bulk Modulus (GPa) = 27.52797 43.62799 35.57798
# Shear Modulus (GPa) = 31.41177 42.67027 37.04102
#
# Velocity S-wave (km/s) = 3.56578 4.15596 3.87213
# Velocity P-wave (km/s) = 5.30055 6.37879 5.86450
#
# Compressibility (1/GPa) = 0.03632669
#
# Stress axis : x y z
#
# Youngs Moduli (GPa) = 77.75406 150.71026 31.01305
#
# Poissons Ratio (x) = 0.06345 0.19876
# Poissons Ratio (y) = 0.03273 0.02720
# Poissons Ratio (z) = 0.49833 0.13218
#
# Static dielectric constant tensor:
#      x y z
#    x 2.024630 0.000000 -0.018310 
#    y 0.000000 1.957310 0.000000 
#    z -0.018310 0.000000 1.949290 
# 
# From -- ./inp_files/15145.got.cif
#   From: 2010.05.17/outbox.cif.g08.bks.cpg/sg8_8_cif.got.tgz:15145.got - 2010.06.03 19:46:02.
