data_PCOD9132379
_publ_section_title
;
Structure prediction by ZEFSAII (Michael W. Deem and Ramdas Pophale) SiO2 
 PCOD9132379
Probable space group: C M
;
_chemical_formula_sum "Si O2"
_cell_formula_units_Z 32
_cell_length_a 20.971405
_cell_length_b 8.874867
_cell_length_c 12.480804
_cell_angle_alpha 90.000000
_cell_angle_beta 128.079801
_cell_angle_gamma 90.000000
_cell_volume 1828.482568
_symmetry_space_group_name_H-M "C M"
_symmetry_group_IT_number 8
_symmetry_cell_setting 'monoclinic'
loop_
_space_group_symop_operation_xyz
x,y,z
x,-y,z
1/2+x,1/2+y,z
1/2+x,1/2-y,z
loop_
_atom_site_type_symbol
_atom_site_label
_atom_site_fract_x
_atom_site_fract_y
_atom_site_fract_z
Si Si1 0.564600 0.320349 0.711230
Si Si2 0.261499 0.179361 0.442804
Si Si3 0.670092 0.820540 0.999651
Si Si4 0.508857 0.818926 0.436521
Si Si5 0.912464 0.820512 0.707355
Si Si6 0.820414 0.680619 0.262680
Si Si7 0.035809 0.180426 0.017206
Si Si8 0.585019 0.819831 0.286029
O O1 0.575467 0.500000 0.726027
O O2 0.635544 0.241346 0.851885
O O3 0.554919 0.260960 0.581477
O O4 0.481059 0.285460 0.688983
O O5 0.331309 0.232297 0.596165
O O6 0.292897 0.216497 0.355508
O O7 0.176972 0.261285 0.375985
O O8 0.249898 0.000000 0.436539
O O9 0.665493 0.000000 0.998120
O O10 0.759599 0.763370 0.119685
O O11 0.610703 0.751230 0.028918
O O12 0.413960 0.777804 0.343694
O O13 0.545878 0.781000 0.359662
O O14 0.514313 0.000000 0.457071
O O15 0.897000 0.000000 0.687037
O O16 0.955383 0.785197 0.864924
O O17 0.812643 0.500000 0.240516
O O18 0.037747 0.245025 0.138075
O O19 0.046339 0.000000 0.029001
O O20 0.583631 0.000000 0.272214
#
# Coordination Sequence:
#
# PCOD9132379 Si02
#       8
#     4   4   4   4   4   4   4   4
#     4  10  20  35  57  84 115 149 185 230 283 333
#     4  11  21  34  58  85 113 147 187 235 280 330
#     4  11  21  33  56  86 115 147 187 233 280 331
#     4  10  22  40  59  82 114 151 189 231 280 335
#     4   9  19  34  55  83 113 143 183 234 282 328
#     4  10  20  36  57  83 114 146 189 237 279 327
#     4  10  20  36  56  82 115 149 186 232 283 332
#     4  11  23  38  58  83 115 152 188 230 281 338
#
# _framework density 17.500851999999998
#
# number of rings (size 3 to 8) (size 9 to 14) (size 15 to 20)
#    0.000    1.750    2.500    3.375    0.000    4.500 
#    0.000    1.250    0.000    3.000    0.000    0.000 
#    0.000    0.000    0.000    0.000    0.000    0.000 
#
# Total GULP energy -89367.317611 kJ/mol
# GULP energy per Si atom -5585.457351 kJ/mol
# Density = 1.746102 g / cm^3
# Si number density = 17.500852 Si / 1000 Ang^3
#
#
#
# Elastic Constant Matrix: (Units=GPa)
#
#
# Indices 1 2 3 4 5 6 
#
# 1 97.5240 49.7819 69.5701 0.0000 -9.1314 0.0000
# 2 49.7819 63.8529 70.5960 0.0000 -5.9657 0.0000
# 3 69.5701 70.5960 165.5544 0.0000 -11.0931 0.0000
# 4 0.0000 0.0000 0.0000 37.1408 0.0000 -0.2792
# 5 -9.1314 -5.9657 -11.0931 0.0000 24.2634 0.0000
# 6 0.0000 0.0000 0.0000 -0.2792 0.0000 21.4229
#
#
#
# Elastic Compliance Matrix: (Units=1/GPa)
#
#
# Indices 1 2 3 4 5 6 
#
# 1 0.017952 -0.010595 -0.002834 0.000000 0.002855 0.000000
# 2 -0.010595 0.035941 -0.010882 0.000000 -0.000126 0.000000
# 3 -0.002834 -0.010882 0.011988 0.000000 0.001739 0.000000
# 4 0.000000 0.000000 0.000000 0.026927 0.000000 0.000351
# 5 0.002855 -0.000126 0.001739 0.000000 0.043053 0.000000
# 6 0.000000 0.000000 0.000000 0.000351 0.000000 0.046684
#
#
# Mechanical properties :
#
#
# Convention : Reuss Voigt Hill
#
# Bulk Modulus (GPa) = 57.94609 78.53634 68.24121
# Shear Modulus (GPa) = 21.10420 25.69765 23.40092
#
# Velocity S-wave (km/s) = 3.47637 3.83608 3.66065
# Velocity P-wave (km/s) = 7.02110 8.03703 7.54618
#
# Compressibility (1/GPa) = 0.01725742
#
# Stress axis : x y z
#
# Youngs Moduli (GPa) = 55.70553 27.82353 83.41550
#
# Poissons Ratio (x) = 0.29480 0.23643
# Poissons Ratio (y) = 0.59021 0.90773
# Poissons Ratio (z) = 0.15789 0.30278
#
# Static dielectric constant tensor:
#      x y z
#    x 1.571480 0.000000 -0.001770 
#    y 0.000000 1.583550 0.000000 
#    z -0.001770 0.000000 1.591050 
# 
# From -- ./inp_files/23734.got.cif
#   From: 2010.05.17/outbox.cif.g08.bks.cpg/sg8_12_cif.got.tgz:23734.got - 2010.06.03 19:46:02.
