data_PCOD9132473
_publ_section_title
;
Structure prediction by ZEFSAII (Michael W. Deem and Ramdas Pophale) SiO2 
 PCOD9132473
Probable space group: C M
;
_chemical_formula_sum "Si O2"
_cell_formula_units_Z 28
_cell_length_a 7.686857
_cell_length_b 19.065344
_cell_length_c 11.487707
_cell_angle_alpha 90.000000
_cell_angle_beta 134.358334
_cell_angle_gamma 90.000000
_cell_volume 1203.708912
_symmetry_space_group_name_H-M "C M"
_symmetry_group_IT_number 8
_symmetry_cell_setting 'monoclinic'
loop_
_space_group_symop_operation_xyz
x,y,z
x,-y,z
1/2+x,1/2+y,z
1/2+x,1/2-y,z
loop_
_atom_site_type_symbol
_atom_site_label
_atom_site_fract_x
_atom_site_fract_y
_atom_site_fract_z
Si Si1 0.221880 0.920268 0.246310
Si Si2 0.891992 0.084587 0.409263
Si Si3 0.766400 0.155654 0.977249
Si Si4 0.436373 0.081771 0.656927
Si Si5 0.401293 0.079143 0.064863
Si Si6 0.185054 0.641155 0.552986
Si Si7 0.549871 0.698651 0.878193
O O1 0.283554 0.927810 0.138759
O O2 0.408033 0.859775 0.375937
O O3 0.259238 0.000000 0.313739
O O4 0.947616 0.894318 0.131881
O O5 0.163010 0.107334 0.500799
O O6 0.671585 0.106596 0.221484
O O7 0.830378 0.108832 0.512174
O O8 0.879743 0.000000 0.402942
O O9 0.531835 0.115721 0.819866
O O10 0.685393 0.231362 0.981139
O O11 0.913859 0.174143 0.929357
O O12 0.629111 0.095032 0.642679
O O13 0.421236 0.000000 0.669160
O O14 0.403365 0.000000 0.014898
O O15 0.238190 0.137987 0.927265
O O16 0.345686 0.704796 0.680476
#
# Coordination Sequence:
#
# PCOD9132473 Si02
#       7
#     4   4   4   4   4   4   4
#     4   9  17  35  62  85 108 145 192 238 283 333
#     4   9  18  34  58  87 115 142 181 237 288 333
#     4  10  22  39  55  81 116 153 190 230 284 344
#     4  10  20  36  59  86 114 148 190 237 284 333
#     4   8  16  34  58  83 109 146 190 230 281 336
#     4  10  20  36  59  85 113 148 189 237 282 337
#     4  10  22  38  57  81 115 154 188 233 284 340
#
# _framework density 23.261437000000001
#
# number of rings (size 3 to 8) (size 9 to 14) (size 15 to 20)
#    0.000    2.571    0.000    2.571    2.000    4.571 
#    5.143    2.857    0.000    0.000    0.000    0.000 
#    0.000    0.000    0.000    0.000    0.000    0.000 
#
# Total GULP energy -78023.726980 kJ/mol
# GULP energy per Si atom -5573.123356 kJ/mol
# Density = 2.320849 g / cm^3
# Si number density = 23.261437 Si / 1000 Ang^3
#
#
#
# Elastic Constant Matrix: (Units=GPa)
#
#
# Indices 1 2 3 4 5 6 
#
# 1 101.1532 7.2270 7.5967 0.0000 15.4281 0.0000
# 2 7.2270 35.1616 20.1659 0.0000 15.6105 0.0000
# 3 7.5967 20.1659 76.9877 0.0000 20.0866 0.0000
# 4 0.0000 0.0000 0.0000 21.1382 0.0000 6.8047
# 5 15.4281 15.6105 20.0866 0.0000 22.6035 0.0000
# 6 0.0000 0.0000 0.0000 6.8047 0.0000 18.5172
#
#
#
# Elastic Compliance Matrix: (Units=1/GPa)
#
#
# Indices 1 2 3 4 5 6 
#
# 1 0.011153 0.001306 0.001014 0.000000 -0.009415 0.000000
# 2 0.001306 0.042328 -0.004370 0.000000 -0.026241 0.000000
# 3 0.001014 -0.004370 0.017480 0.000000 -0.013208 0.000000
# 4 0.000000 0.000000 0.000000 0.053655 0.000000 -0.019717
# 5 -0.009415 -0.026241 -0.013208 0.000000 0.080527 0.000000
# 6 0.000000 0.000000 0.000000 -0.019717 0.000000 0.061250
#
#
# Mechanical properties :
#
#
# Convention : Reuss Voigt Hill
#
# Bulk Modulus (GPa) = 14.95628 31.47571 23.21600
# Shear Modulus (GPa) = 17.07780 24.33930 20.70855
#
# Velocity S-wave (km/s) = 2.71249 3.23822 2.98695
# Velocity P-wave (km/s) = 4.03160 5.24806 4.67952
#
# Compressibility (1/GPa) = 0.06686154
#
# Stress axis : x y z
#
# Youngs Moduli (GPa) = 89.66532 23.62505 57.20972
#
# Poissons Ratio (x) = -0.03086 -0.05801
# Poissons Ratio (y) = -0.11714 0.24998
# Poissons Ratio (z) = -0.09091 0.10323
#
# Static dielectric constant tensor:
#      x y z
#    x 1.910390 0.000000 -0.001230 
#    y 0.000000 1.855970 0.000000 
#    z -0.001230 0.000000 1.976340 
# 
# From -- ./inp_files/25628.got.cif
#   From: 2010.05.17/outbox.cif.g08.bks.cpg/sg8_13_cif.got.tgz:25628.got - 2010.06.03 19:46:02.
