data_PCOD9132123
_publ_section_title
;
Structure prediction by ZEFSAII (Michael W. Deem and Ramdas Pophale) SiO2 
 PCOD9132123
Probable space group: C M
;
_chemical_formula_sum "Si O2"
_cell_formula_units_Z 28
_cell_length_a 5.357973
_cell_length_b 28.184270
_cell_length_c 9.090006
_cell_angle_alpha 90.000000
_cell_angle_beta 54.767542
_cell_angle_gamma 90.000000
_cell_volume 1121.235649
_symmetry_space_group_name_H-M "C M"
_symmetry_group_IT_number 8
_symmetry_cell_setting 'monoclinic'
loop_
_space_group_symop_operation_xyz
x,y,z
x,-y,z
1/2+x,1/2+y,z
1/2+x,1/2-y,z
loop_
_atom_site_type_symbol
_atom_site_label
_atom_site_fract_x
_atom_site_fract_y
_atom_site_fract_z
Si Si1 0.125000 0.897908 0.621830
Si Si2 0.716459 0.053035 0.522465
Si Si3 0.776183 0.444487 0.118060
Si Si4 0.862122 0.271059 0.179138
Si Si5 0.155725 0.133612 0.927345
Si Si6 0.510654 0.134648 0.238723
Si Si7 0.866685 0.267306 0.774605
O O1 0.371000 0.937493 0.590833
O O2 0.347090 0.864693 0.450521
O O3 0.863448 0.913864 0.598035
O O4 0.016903 0.877561 0.812956
O O5 0.936221 0.057275 0.305011
O O6 0.747772 0.000000 0.569215
O O7 0.858654 0.500000 0.069902
O O8 0.974129 0.417067 0.175195
O O9 0.780179 0.412692 0.969444
O O10 0.039261 0.252188 0.260464
O O11 0.841141 0.327470 0.194083
O O12 0.610192 0.243124 0.969216
O O13 0.378287 0.177507 0.817827
O O14 0.861749 0.149632 0.120466
O O15 0.187823 0.241502 0.683938
#
# Coordination Sequence:
#
# PCOD9132123 Si02
#       7
#     4   4   4   4   4   4   4
#     4  11  26  41  64  99 127 174 215 267 334 383
#     4  10  22  45  66  89 131 173 219 275 323 380
#     4  10  23  41  68  97 128 178 225 265 327 392
#     4  10  19  35  65  93 120 170 215 257 327 382
#     4  12  24  41  69  95 133 173 218 274 328 389
#     4  11  23  43  67  92 137 172 218 274 325 389
#     4  10  20  36  63  93 124 168 212 260 328 379
#
# _framework density 24.972446999999999
#
# number of rings (size 3 to 8) (size 9 to 14) (size 15 to 20)
#    0.000    1.429    4.286    2.143    2.000    2.286 
#    0.000    1.429    0.000    0.000    0.000    0.000 
#    0.000    0.000    0.000    0.000    0.000    0.000 
#
# Total GULP energy -78262.049742 kJ/mol
# GULP energy per Si atom -5590.146410 kJ/mol
# Density = 2.491561 g / cm^3
# Si number density = 24.972447 Si / 1000 Ang^3
#
#
#
# Elastic Constant Matrix: (Units=GPa)
#
#
# Indices 1 2 3 4 5 6 
#
# 1 130.6237 33.6320 19.4784 0.0000 15.6565 0.0000
# 2 33.6320 135.1822 16.6919 0.0000 18.1846 0.0000
# 3 19.4784 16.6919 92.8620 0.0000 7.0381 0.0000
# 4 0.0000 0.0000 0.0000 7.3991 0.0000 5.8283
# 5 15.6565 18.1846 7.0381 0.0000 29.1221 0.0000
# 6 0.0000 0.0000 0.0000 5.8283 0.0000 32.6349
#
#
#
# Elastic Compliance Matrix: (Units=1/GPa)
#
#
# Indices 1 2 3 4 5 6 
#
# 1 0.008648 -0.001539 -0.001281 0.000000 -0.003379 0.000000
# 2 -0.001539 0.008459 -0.000876 0.000000 -0.004243 0.000000
# 3 -0.001281 -0.000876 0.011308 0.000000 -0.001497 0.000000
# 4 0.000000 0.000000 0.000000 0.157277 0.000000 -0.028088
# 5 -0.003379 -0.004243 -0.001497 0.000000 0.039166 0.000000
# 6 0.000000 0.000000 0.000000 -0.028088 0.000000 0.035658
#
#
# Mechanical properties :
#
#
# Convention : Reuss Voigt Hill
#
# Bulk Modulus (GPa) = 47.56708 55.36362 51.46535
# Shear Modulus (GPa) = 18.18733 33.08893 25.63813
#
# Velocity S-wave (km/s) = 2.70162 3.64403 3.20762
# Velocity P-wave (km/s) = 5.36851 6.31849 5.86277
#
# Compressibility (1/GPa) = 0.02102294
#
# Stress axis : x y z
#
# Youngs Moduli (GPa) = 115.63636 118.21403 88.43009
#
# Poissons Ratio (x) = 0.18191 0.11330
# Poissons Ratio (y) = 0.17794 0.07748
# Poissons Ratio (z) = 0.14816 0.10358
#
# Static dielectric constant tensor:
#      x y z
#    x 2.054960 0.000000 0.062890 
#    y 0.000000 1.982830 0.000000 
#    z 0.062890 0.000000 1.998290 
# 
# From -- ./inp_files/7086.got.cif
#   From: 2010.05.17/outbox.cif.g08.bks.cpg/sg8_4_cif.got.tgz:7086.got - 2010.06.03 19:46:02.
