data_PCOD9132451
_publ_section_title
;
Structure prediction by ZEFSAII (Michael W. Deem and Ramdas Pophale) SiO2 
 PCOD9132451
Probable space group: C M
;
_chemical_formula_sum "Si O2"
_cell_formula_units_Z 32
_cell_length_a 12.212174
_cell_length_b 16.753444
_cell_length_c 16.452923
_cell_angle_alpha 90.000000
_cell_angle_beta 152.806655
_cell_angle_gamma 90.000000
_cell_volume 1538.336099
_symmetry_space_group_name_H-M "C M"
_symmetry_group_IT_number 8
_symmetry_cell_setting 'monoclinic'
loop_
_space_group_symop_operation_xyz
x,y,z
x,-y,z
1/2+x,1/2+y,z
1/2+x,1/2-y,z
loop_
_atom_site_type_symbol
_atom_site_label
_atom_site_fract_x
_atom_site_fract_y
_atom_site_fract_z
Si Si1 0.494710 0.903977 0.872190
Si Si2 0.951336 0.299274 0.995783
Si Si3 0.712807 0.405993 0.950648
Si Si4 0.253693 0.156118 0.157442
Si Si5 0.742762 0.841241 0.557714
Si Si6 0.014627 0.409035 0.562188
Si Si7 0.502748 0.817440 0.716152
Si Si8 0.002852 0.088984 0.151120
O O1 0.388286 0.851645 0.874807
O O2 0.409654 0.870593 0.729372
O O3 0.464481 0.000000 0.863931
O O4 0.775079 0.877775 0.048209
O O5 0.943370 0.361637 0.064455
O O6 0.746305 0.235121 0.885585
O O7 0.188477 0.248733 0.131784
O O8 0.744882 0.500000 0.979010
O O9 0.490359 0.388153 0.741607
O O10 0.671036 0.369145 0.012873
O O11 0.531316 0.132035 0.356947
O O12 0.103026 0.115753 0.130389
O O13 0.620054 0.848894 0.565211
O O14 0.811737 0.752513 0.576337
O O15 0.104865 0.500000 0.608588
O O16 0.058390 0.376479 0.679719
O O17 0.731214 0.409928 0.359873
O O18 0.916941 0.000000 0.077957
#
# Coordination Sequence:
#
# PCOD9132451 Si02
#       8
#     4   4   4   4   4   4   4   4
#     4  11  22  38  60  86 121 160 199 249 306 363
#     4  11  23  39  62  89 123 162 203 252 309 368
#     4  11  24  43  66  92 125 168 211 254 310 377
#     4  11  22  40  67  93 123 162 209 258 310 367
#     4  10  24  38  62  93 127 156 204 263 312 356
#     4  10  20  36  57  85 118 152 195 249 304 355
#     4  11  21  38  60  90 116 159 206 250 302 367
#     4   9  20  36  58  88 119 153 197 251 303 355
#
# _framework density 20.801697000000001
#
# number of rings (size 3 to 8) (size 9 to 14) (size 15 to 20)
#    0.000    1.500    1.250    4.500    1.750    2.500 
#    0.000    0.000    0.000    3.000    0.000    0.000 
#    0.000    0.000    0.000    0.000    0.000    0.000 
#
# Total GULP energy -89084.658374 kJ/mol
# GULP energy per Si atom -5567.791148 kJ/mol
# Density = 2.075435 g / cm^3
# Si number density = 20.801697 Si / 1000 Ang^3
#
#
#
# Elastic Constant Matrix: (Units=GPa)
#
#
# Indices 1 2 3 4 5 6 
#
# 1 61.8496 29.5970 10.6826 -0.0210 -8.8539 -0.0174
# 2 29.5970 73.0506 21.0954 -0.0003 -1.3938 0.0063
# 3 10.6826 21.0954 48.6317 0.0064 0.6074 0.0124
# 4 -0.0210 -0.0003 0.0064 17.6097 0.0067 -5.3849
# 5 -8.8539 -1.3938 0.6074 0.0067 20.7693 0.0018
# 6 -0.0174 0.0063 0.0124 -5.3849 0.0018 36.1851
#
#
#
# Elastic Compliance Matrix: (Units=1/GPa)
#
#
# Indices 1 2 3 4 5 6 
#
# 1 0.021555 -0.008195 -0.001288 0.000028 0.008676 0.000016
# 2 -0.008195 0.018798 -0.006328 -0.000008 -0.002047 -0.000006
# 3 -0.001288 -0.006328 0.023612 -0.000012 -0.001664 -0.000009
# 4 0.000028 -0.000008 -0.000012 0.059494 -0.000008 0.008854
# 5 0.008676 -0.002047 -0.001664 -0.000008 0.051758 0.000001
# 6 0.000016 -0.000006 -0.000009 0.008854 0.000001 0.028953
#
#
# Mechanical properties :
#
#
# Convention : Reuss Voigt Hill
#
# Bulk Modulus (GPa) = 30.92118 34.03132 32.47625
# Shear Modulus (GPa) = 20.27792 23.05662 21.66727
#
# Velocity S-wave (km/s) = 3.12560 3.33288 3.23090
# Velocity P-wave (km/s) = 5.28421 5.58625 5.43732
#
# Compressibility (1/GPa) = 0.03234030
#
# Stress axis : x y z
#
# Youngs Moduli (GPa) = 46.39384 53.19705 42.35217
#
# Poissons Ratio (x) = 0.43598 0.05455
# Poissons Ratio (y) = 0.38022 0.26802
# Poissons Ratio (z) = 0.05976 0.33665
#
# Static dielectric constant tensor:
#      x y z
#    x 1.744280 0.000000 0.020510 
#    y 0.000000 1.760150 0.000000 
#    z 0.020510 0.000000 1.816600 
# 
# From -- ./inp_files/26269.got.cif
#   From: 2010.05.17/outbox.cif.g08.bks.cpg/sg8_14_cif.got.tgz:26269.got - 2010.06.03 19:46:02.
