data_PCOD9132076
_publ_section_title
;
Structure prediction by ZEFSAII (Michael W. Deem and Ramdas Pophale) SiO2 
 PCOD9132076
Probable space group: C M
;
_chemical_formula_sum "Si O2"
_cell_formula_units_Z 32
_cell_length_a 23.387890
_cell_length_b 14.501219
_cell_length_c 8.470249
_cell_angle_alpha 90.000000
_cell_angle_beta 144.918105
_cell_angle_gamma 90.000000
_cell_volume 1651.080369
_symmetry_space_group_name_H-M "C M"
_symmetry_group_IT_number 8
_symmetry_cell_setting 'monoclinic'
loop_
_space_group_symop_operation_xyz
x,y,z
x,-y,z
1/2+x,1/2+y,z
1/2+x,1/2-y,z
loop_
_atom_site_type_symbol
_atom_site_label
_atom_site_fract_x
_atom_site_fract_y
_atom_site_fract_z
Si Si1 0.201550 0.278053 0.796370
Si Si2 0.788610 0.745372 0.649145
Si Si3 0.652304 0.107432 0.201288
Si Si4 0.551762 0.106586 0.628827
Si Si5 0.170912 0.896019 0.909530
Si Si6 0.869145 0.298103 0.360112
Si Si7 0.485883 0.235887 0.945776
Si Si8 0.130896 0.108066 0.179205
O O1 0.244957 0.267418 0.721702
O O2 0.124487 0.358376 0.656508
O O3 0.147353 0.183189 0.730258
O O4 0.297982 0.281035 0.129265
O O5 0.747967 0.828535 0.446874
O O6 0.906620 0.735034 0.906418
O O7 0.735464 0.652591 0.467440
O O8 0.668510 0.000000 0.272417
O O9 0.613058 0.115948 0.932702
O O10 0.565321 0.153063 0.112096
O O11 0.454042 0.168335 0.432485
O O12 0.524415 0.000000 0.547925
O O13 0.149592 0.000000 0.811178
O O14 0.289716 0.881205 0.203780
O O15 0.121893 0.878066 0.969234
O O16 0.919919 0.272380 0.638108
O O17 0.548394 0.329822 0.077476
O O18 0.125231 0.000000 0.199397
#
# Coordination Sequence:
#
# PCOD9132076 Si02
#       8
#     4   4   4   4   4   4   4   4
#     4  10  22  34  53  82 116 146 175 219 274 326
#     4  11  21  37  54  79 115 151 175 217 270 330
#     4   9  20  36  59  84 106 136 185 232 272 313
#     4  10  19  36  60  84 105 139 184 231 270 315
#     4   9  17  34  56  79 106 135 178 226 268 308
#     4   9  18  33  57  80 110 134 179 226 270 311
#     4  10  19  35  58  81 110 140 184 225 271 317
#     4  10  21  37  58  83 106 141 185 230 268 316
#
# _framework density 19.381250000000001
#
# number of rings (size 3 to 8) (size 9 to 14) (size 15 to 20)
#    0.750    1.500    1.250    3.375    0.000    4.500 
#    0.000    0.625    0.000    0.750    0.000    0.000 
#    0.000    0.000    0.000    0.000    0.000    0.000 
#
# Total GULP energy -89197.456180 kJ/mol
# GULP energy per Si atom -5574.841011 kJ/mol
# Density = 1.933714 g / cm^3
# Si number density = 19.381250 Si / 1000 Ang^3
#
#
#
# Elastic Constant Matrix: (Units=GPa)
#
#
# Indices 1 2 3 4 5 6 
#
# 1 100.4825 21.2055 -1.7803 0.0000 16.9867 0.0000
# 2 21.2055 83.9037 3.4874 0.0000 10.3010 0.0000
# 3 -1.7803 3.4874 17.8955 0.0000 5.1453 0.0000
# 4 0.0000 0.0000 0.0000 8.6220 0.0000 0.4193
# 5 16.9867 10.3010 5.1453 0.0000 20.9003 0.0000
# 6 0.0000 0.0000 0.0000 0.4193 0.0000 11.6122
#
#
#
# Elastic Compliance Matrix: (Units=1/GPa)
#
#
# Indices 1 2 3 4 5 6 
#
# 1 0.012145 -0.002031 0.004471 0.000000 -0.009971 0.000000
# 2 -0.002031 0.013035 -0.001474 0.000000 -0.004410 0.000000
# 3 0.004471 -0.001474 0.061824 0.000000 -0.018127 0.000000
# 4 0.000000 0.000000 0.000000 0.116186 0.000000 -0.004195
# 5 -0.009971 -0.004410 -0.018127 0.000000 0.062586 0.000000
# 6 0.000000 0.000000 0.000000 -0.004195 0.000000 0.086268
#
#
# Mechanical properties :
#
#
# Convention : Reuss Voigt Hill
#
# Bulk Modulus (GPa) = 11.24419 27.56743 19.40581
# Shear Modulus (GPa) = 13.16627 20.18483 16.67555
#
# Velocity S-wave (km/s) = 2.60922 3.23067 2.93643
# Velocity P-wave (km/s) = 3.85896 5.30763 4.64018
#
# Compressibility (1/GPa) = 0.08893479
#
# Stress axis : x y z
#
# Youngs Moduli (GPa) = 82.33547 76.71914 16.17498
#
# Poissons Ratio (x) = 0.15584 -0.07232
# Poissons Ratio (y) = 0.16725 0.02384
# Poissons Ratio (z) = -0.36811 0.11309
#
# Static dielectric constant tensor:
#      x y z
#    x 1.702200 0.000000 -0.013240 
#    y 0.000000 1.650520 0.000000 
#    z -0.013240 0.000000 1.701000 
# 
# From -- ./inp_files/13113.got.cif
#   From: 2010.05.17/outbox.cif.g08.bks.cpg/sg8_7_cif.got.tgz:13113.got - 2010.06.03 19:46:02.
