data_PCOD9132363
_publ_section_title
;
Structure prediction by ZEFSAII (Michael W. Deem and Ramdas Pophale) SiO2 
 PCOD9132363
Probable space group: C M
;
_chemical_formula_sum "Si O2"
_cell_formula_units_Z 32
_cell_length_a 25.089933
_cell_length_b 8.224665
_cell_length_c 14.527216
_cell_angle_alpha 90.000000
_cell_angle_beta 29.990072
_cell_angle_gamma 90.000000
_cell_volume 1498.441352
_symmetry_space_group_name_H-M "C M"
_symmetry_group_IT_number 8
_symmetry_cell_setting 'monoclinic'
loop_
_space_group_symop_operation_xyz
x,y,z
x,-y,z
1/2+x,1/2+y,z
1/2+x,1/2-y,z
loop_
_atom_site_type_symbol
_atom_site_label
_atom_site_fract_x
_atom_site_fract_y
_atom_site_fract_z
Si Si1 0.282410 0.303916 0.317370
Si Si2 0.900356 0.814369 0.665835
Si Si3 0.059711 0.693558 0.176267
Si Si4 0.832627 0.696414 0.447257
Si Si5 0.374762 0.302018 0.995409
Si Si6 0.554279 0.192997 0.585893
Si Si7 0.738264 0.689945 0.772643
Si Si8 0.708242 0.810943 0.104597
O O1 0.279088 0.500000 0.323629
O O2 0.304934 0.246378 0.386009
O O3 0.168423 0.245190 0.449392
O O4 0.369596 0.256786 0.109994
O O5 0.852315 0.711001 0.654011
O O6 0.805992 0.807630 0.884502
O O7 0.005230 0.760567 0.564113
O O8 0.909890 0.000000 0.621434
O O9 0.047955 0.500000 0.207888
O O10 0.948474 0.759298 0.305805
O O11 0.149453 0.718745 0.964236
O O12 0.108892 0.763452 0.197929
O O13 0.835156 0.500000 0.446578
O O14 0.750920 0.748760 0.649298
O O15 0.378192 0.500000 0.982617
O O16 0.470914 0.233039 0.792019
O O17 0.264265 0.245056 0.111934
O O18 0.561241 0.000000 0.563632
O O19 0.710863 0.500000 0.814519
O O20 0.682589 0.000000 0.162116
#
# Coordination Sequence:
#
# PCOD9132363 Si02
#       8
#     4   4   4   4   4   4   4   4
#     4  10  23  39  55  77 108 146 189 230 271 319
#     4   9  17  32  55  83 112 144 176 213 267 331
#     4   9  18  35  57  80 106 142 179 216 270 332
#     4  10  23  39  55  77 108 146 189 230 271 319
#     4   9  18  35  57  80 106 142 179 216 270 332
#     4  10  20  35  56  84 112 140 177 226 275 321
#     4  10  20  35  56  84 112 140 177 226 275 321
#     4   7  12  26  51  77 100 126 164 207 253 313
#
# _framework density 21.355525
#
# number of rings (size 3 to 8) (size 9 to 14) (size 15 to 20)
#    0.000    2.750    0.000    2.625    0.000    5.000 
#    0.000    8.750    0.000    0.000    0.000    0.000 
#    0.000    0.000    0.000    0.000    0.000    0.000 
#
# Total GULP energy -89282.147953 kJ/mol
# GULP energy per Si atom -5580.134247 kJ/mol
# Density = 2.130692 g / cm^3
# Si number density = 21.355525 Si / 1000 Ang^3
#
#
#
# Elastic Constant Matrix: (Units=GPa)
#
#
# Indices 1 2 3 4 5 6 
#
# 1 81.7593 0.6459 32.3460 0.0001 22.4022 -0.0001
# 2 0.6459 14.7648 -5.6252 -0.0002 0.2202 0.0001
# 3 32.3460 -5.6252 53.8064 -0.0001 9.8315 0.0000
# 4 0.0001 -0.0002 -0.0001 16.0600 0.0001 -0.1871
# 5 22.4022 0.2202 9.8315 0.0001 39.2468 0.0000
# 6 -0.0001 0.0001 0.0000 -0.1871 0.0000 31.1168
#
#
#
# Elastic Compliance Matrix: (Units=1/GPa)
#
#
# Indices 1 2 3 4 5 6 
#
# 1 0.018452 -0.004540 -0.010110 0.000000 -0.007974 0.000000
# 2 -0.004540 0.071863 0.010314 0.000001 -0.000396 0.000000
# 3 -0.010110 0.010314 0.025882 0.000000 -0.000771 0.000000
# 4 0.000000 0.000001 0.000000 0.062271 0.000000 0.000374
# 5 -0.007974 -0.000396 -0.000771 0.000000 0.030227 0.000000
# 6 0.000000 0.000000 0.000000 0.000374 0.000000 0.032139
#
#
# Mechanical properties :
#
#
# Convention : Reuss Voigt Hill
#
# Bulk Modulus (GPa) = 9.30012 22.78489 16.04251
# Shear Modulus (GPa) = 17.52261 25.48231 21.50246
#
# Velocity S-wave (km/s) = 2.86758 3.45808 3.17658
# Velocity P-wave (km/s) = 3.91514 5.16110 4.58068
#
# Compressibility (1/GPa) = 0.10752548
#
# Stress axis : x y z
#
# Youngs Moduli (GPa) = 54.19607 13.91539 38.63707
#
# Poissons Ratio (x) = 0.06318 0.39061
# Poissons Ratio (y) = 0.24605 -0.39852
# Poissons Ratio (z) = 0.54791 -0.14353
#
# Static dielectric constant tensor:
#      x y z
#    x 1.784050 0.000000 -0.008080 
#    y 0.000000 1.751480 0.000000 
#    z -0.008080 0.000000 1.815570 
# 
# From -- ./inp_files/28319.got.cif
#   From: 2010.05.17/outbox.cif.g08.bks.cpg/sg8_15_cif.got.tgz:28319.got - 2010.06.03 19:46:02.
