data_PCOD9132632
_publ_section_title
;
Structure prediction by ZEFSAII (Michael W. Deem and Ramdas Pophale) SiO2 
 PCOD9132632
Probable space group: C M
;
_chemical_formula_sum "Si O2"
_cell_formula_units_Z 24
_cell_length_a 14.853104
_cell_length_b 8.275810
_cell_length_c 8.209231
_cell_angle_alpha 90.000000
_cell_angle_beta 100.761309
_cell_angle_gamma 90.000000
_cell_volume 991.344404
_symmetry_space_group_name_H-M "C M"
_symmetry_group_IT_number 8
_symmetry_cell_setting 'monoclinic'
loop_
_space_group_symop_operation_xyz
x,y,z
x,-y,z
1/2+x,1/2+y,z
1/2+x,1/2-y,z
loop_
_atom_site_type_symbol
_atom_site_label
_atom_site_fract_x
_atom_site_fract_y
_atom_site_fract_z
Si Si1 0.701190 0.309519 0.971870
Si Si2 0.130945 0.186699 0.453034
Si Si3 0.801272 0.811579 0.690102
Si Si4 0.367123 0.804376 0.232706
Si Si5 0.536852 0.812175 0.101667
Si Si6 0.470410 0.192858 0.594541
O O1 0.711462 0.500000 0.942198
O O2 0.747703 0.215681 0.840262
O O3 0.764277 0.264867 0.149535
O O4 0.597545 0.271740 0.985223
O O5 0.234402 0.224576 0.537692
O O6 0.091045 0.292943 0.292471
O O7 0.066758 0.222450 0.589035
O O8 0.122643 0.000000 0.401739
O O9 0.903364 0.737824 0.719337
O O10 0.806955 0.000000 0.655349
O O11 0.436881 0.746624 0.115440
O O12 0.408723 0.751863 0.417833
O O13 0.373107 0.000000 0.237155
O O14 0.529907 0.000000 0.056261
O O15 0.484847 0.000000 0.597183
#
# Coordination Sequence:
#
# PCOD9132632 Si02
#       6
#     4   4   4   4   4   4
#     4  11  22  38  58  84 117 156 196 240 290 347
#     4  11  22  39  62  89 117 153 199 247 293 346
#     4  12  25  40  57  84 120 160 200 244 295 351
#     4   8  18  36  60  84 111 146 186 230 286 345
#     4  10  20  38  61  87 116 151 193 241 291 346
#     4  10  20  39  64  90 117 150 192 244 297 351
#
# _framework density 24.20955
#
# number of rings (size 3 to 8) (size 9 to 14) (size 15 to 20)
#    0.000    1.667    0.000    6.500    0.000    2.667 
#    0.000   14.167    0.000    0.000    0.000    0.000 
#    0.000    0.000    0.000    0.000    0.000    0.000 
#
# Total GULP energy -67147.760219 kJ/mol
# GULP energy per Si atom -5595.646685 kJ/mol
# Density = 2.415445 g / cm^3
# Si number density = 24.209550 Si / 1000 Ang^3
#
#
#
# Elastic Constant Matrix: (Units=GPa)
#
#
# Indices 1 2 3 4 5 6 
#
# 1 142.8149 6.0246 -1.1969 0.0000 -22.6397 0.0000
# 2 6.0246 70.5017 -17.4081 0.0000 -2.2528 0.0000
# 3 -1.1969 -17.4081 58.7232 0.0000 -14.8794 0.0000
# 4 0.0000 0.0000 0.0000 24.8947 0.0000 -10.2171
# 5 -22.6397 -2.2528 -14.8794 0.0000 40.0493 0.0000
# 6 0.0000 0.0000 0.0000 -10.2171 0.0000 31.4508
#
#
#
# Elastic Compliance Matrix: (Units=1/GPa)
#
#
# Indices 1 2 3 4 5 6 
#
# 1 0.007797 -0.000177 0.001348 0.000000 0.004899 0.000000
# 2 -0.000177 0.015600 0.005319 0.000000 0.002754 0.000000
# 3 0.001348 0.005319 0.020866 0.000000 0.008813 0.000000
# 4 0.000000 0.000000 0.000000 0.046349 0.000000 0.015057
# 5 0.004899 0.002754 0.008813 0.000000 0.031168 0.000000
# 6 0.000000 0.000000 0.000000 0.015057 0.000000 0.036687
#
#
# Mechanical properties :
#
#
# Convention : Reuss Voigt Hill
#
# Bulk Modulus (GPa) = 17.46942 27.43100 22.45021
# Shear Modulus (GPa) = 30.38222 38.25365 34.31794
#
# Velocity S-wave (km/s) = 3.54640 3.97937 3.76910
# Velocity P-wave (km/s) = 4.89906 5.69816 5.31366
#
# Compressibility (1/GPa) = 0.05724288
#
# Stress axis : x y z
#
# Youngs Moduli (GPa) = 128.24829 64.10069 47.92405
#
# Poissons Ratio (x) = 0.01135 -0.06459
# Poissons Ratio (y) = 0.02270 -0.25489
# Poissons Ratio (z) = -0.17283 -0.34093
#
# Static dielectric constant tensor:
#      x y z
#    x 1.906910 0.000000 -0.017300 
#    y 0.000000 1.811480 0.000000 
#    z -0.017300 0.000000 2.009920 
# 
# From -- ./inp_files/12074.got.cif
#   From: 2010.05.17/outbox.cif.g08.bks.cpg/sg8_7_cif.got.tgz:12074.got - 2010.06.03 19:46:02.
