data_PCOD9132761
_publ_section_title
;
Structure prediction by ZEFSAII (Michael W. Deem and Ramdas Pophale) SiO2 
 PCOD9132761
Probable space group: C M
;
_chemical_formula_sum "Si O2"
_cell_formula_units_Z 32
_cell_length_a 10.608182
_cell_length_b 25.142792
_cell_length_c 4.982207
_cell_angle_alpha 90.000000
_cell_angle_beta 87.259464
_cell_angle_gamma 90.000000
_cell_volume 1327.331021
_symmetry_space_group_name_H-M "C M"
_symmetry_group_IT_number 8
_symmetry_cell_setting 'monoclinic'
loop_
_space_group_symop_operation_xyz
x,y,z
x,-y,z
1/2+x,1/2+y,z
1/2+x,1/2-y,z
loop_
_atom_site_type_symbol
_atom_site_label
_atom_site_fract_x
_atom_site_fract_y
_atom_site_fract_z
Si Si1 0.145940 0.558188 0.163640
Si Si2 0.805693 0.307357 0.739947
Si Si3 0.648372 0.631468 0.382304
Si Si4 0.579683 0.560564 0.876666
Si Si5 0.765660 0.801617 0.615569
Si Si6 0.111474 0.234999 0.200871
Si Si7 0.810866 0.921225 0.641511
Si Si8 0.529526 0.835379 0.029307
O O1 0.082903 0.500000 0.198973
O O2 0.263802 0.558498 0.357981
O O3 0.198667 0.564286 0.857184
O O4 0.067912 0.613381 0.202000
O O5 0.772789 0.334422 0.457621
O O6 0.851446 0.246365 0.713611
O O7 0.905612 0.345529 0.869255
O O8 0.681640 0.294712 0.940986
O O9 0.644635 0.591662 0.629540
O O10 0.561453 0.684008 0.366064
O O11 0.611918 0.594783 0.135796
O O12 0.620268 0.500000 0.912164
O O13 0.435446 0.559753 0.782118
O O14 0.706610 0.773792 0.358095
O O15 0.827381 0.858683 0.590341
O O16 0.646843 0.817003 0.824826
O O17 0.004031 0.278587 0.168921
#
# Coordination Sequence:
#
# PCOD9132761 Si02
#       8
#     4   4   4   4   4   4   4   4
#     4  11  22  42  64  93 135 170 218 273 318 389
#     4  10  22  40  66  95 137 171 209 272 329 392
#     4  11  24  43  64  94 133 167 224 267 325 382
#     4  12  25  43  68  95 130 177 221 269 330 391
#     4   9  21  37  61 100 132 165 211 266 327 396
#     4  10  20  41  64  97 134 170 216 266 331 392
#     4  11  23  41  66  98 128 169 213 270 335 390
#     4  10  22  39  65  98 133 173 219 263 331 392
#
# _framework density 24.108530999999999
#
# number of rings (size 3 to 8) (size 9 to 14) (size 15 to 20)
#    0.000    1.500    2.500    2.250    1.750    3.000 
#    0.000    1.250    0.000    0.000    0.000    0.000 
#    0.000    0.000    0.000    0.000    0.000    0.000 
#
# Total GULP energy -89104.929135 kJ/mol
# GULP energy per Si atom -5569.058071 kJ/mol
# Density = 2.405366 g / cm^3
# Si number density = 24.108531 Si / 1000 Ang^3
#
#
#
# Elastic Constant Matrix: (Units=GPa)
#
#
# Indices 1 2 3 4 5 6 
#
# 1 41.9036 40.1028 22.0183 0.0000 4.0663 0.0000
# 2 40.1028 228.1686 64.4924 0.0000 21.2296 0.0000
# 3 22.0183 64.4924 131.3912 0.0000 23.4027 0.0000
# 4 0.0000 0.0000 0.0000 17.8011 0.0000 -8.0364
# 5 4.0663 21.2296 23.4027 0.0000 28.9296 0.0000
# 6 0.0000 0.0000 0.0000 -8.0364 0.0000 13.2657
#
#
#
# Elastic Compliance Matrix: (Units=1/GPa)
#
#
# Indices 1 2 3 4 5 6 
#
# 1 0.029607 -0.004493 -0.003040 0.000000 0.001595 0.000000
# 2 -0.004493 0.005872 -0.001722 0.000000 -0.002284 0.000000
# 3 -0.003040 -0.001722 0.010123 0.000000 -0.006498 0.000000
# 4 0.000000 0.000000 0.000000 0.077323 0.000000 0.046843
# 5 0.001595 -0.002284 -0.006498 0.000000 0.041275 0.000000
# 6 0.000000 0.000000 0.000000 0.046843 0.000000 0.103760
#
#
# Mechanical properties :
#
#
# Convention : Reuss Voigt Hill
#
# Bulk Modulus (GPa) = 36.91296 72.74339 54.82817
# Shear Modulus (GPa) = 16.92044 30.32262 23.62153
#
# Velocity S-wave (km/s) = 2.65211 3.55033 3.13357
# Velocity P-wave (km/s) = 4.97219 6.85896 5.99032
#
# Compressibility (1/GPa) = 0.02709076
#
# Stress axis : x y z
#
# Youngs Moduli (GPa) = 33.77619 170.30800 98.78369
#
# Poissons Ratio (x) = 0.76514 0.30033
# Poissons Ratio (y) = 0.15175 0.17014
# Poissons Ratio (z) = 0.10269 0.29334
#
# Static dielectric constant tensor:
#      x y z
#    x 2.022050 0.000000 -0.029380 
#    y 0.000000 2.098390 0.000000 
#    z -0.029380 0.000000 2.096100 
# 
# From -- ./inp_files/3177.got.cif
#   From: 2010.05.17/outbox.cif.g08.bks.cpg/sg8_2_cif.got.tgz:3177.got - 2010.06.03 19:46:02.
