data_PCOD9132080
_publ_section_title
;
Structure prediction by ZEFSAII (Michael W. Deem and Ramdas Pophale) SiO2 
 PCOD9132080
Probable space group: C M
;
_chemical_formula_sum "Si O2"
_cell_formula_units_Z 32
_cell_length_a 33.363278
_cell_length_b 8.161788
_cell_length_c 12.817335
_cell_angle_alpha 90.000000
_cell_angle_beta 26.765585
_cell_angle_gamma 90.000000
_cell_volume 1571.786517
_symmetry_space_group_name_H-M "C M"
_symmetry_group_IT_number 8
_symmetry_cell_setting 'monoclinic'
loop_
_space_group_symop_operation_xyz
x,y,z
x,-y,z
1/2+x,1/2+y,z
1/2+x,1/2-y,z
loop_
_atom_site_type_symbol
_atom_site_label
_atom_site_fract_x
_atom_site_fract_y
_atom_site_fract_z
Si Si1 0.400660 0.807150 0.003730
Si Si2 0.703128 0.802943 0.192432
Si Si3 0.536128 0.688677 0.994820
Si Si4 0.164616 0.308599 0.869255
Si Si5 0.348123 0.805628 0.346682
Si Si6 0.085160 0.700713 0.271817
Si Si7 0.600326 0.807298 0.628196
Si Si8 0.892606 0.698208 0.787672
O O1 0.349721 0.738682 0.223419
O O2 0.377485 0.000000 0.050133
O O3 0.504853 0.797184 0.791842
O O4 0.387938 0.737289 0.918047
O O5 0.638987 0.746247 0.249156
O O6 0.671563 0.741975 0.379671
O O7 0.695382 0.000000 0.215022
O O8 0.803648 0.753359 0.937938
O O9 0.541129 0.500000 0.012992
O O10 0.584942 0.788870 0.971508
O O11 0.589508 0.717344 0.762669
O O12 0.433833 0.735065 0.208068
O O13 0.185588 0.500000 0.832448
O O14 0.254170 0.226126 0.618600
O O15 0.131270 0.243593 0.058290
O O16 0.364258 0.000000 0.302374
O O17 0.085640 0.500000 0.269248
O O18 0.983202 0.753179 0.522279
O O19 0.616673 0.000000 0.612072
O O20 0.895447 0.500000 0.785040
#
# Coordination Sequence:
#
# PCOD9132080 Si02
#       8
#     4   4   4   4   4   4   4   4
#     4   8  15  31  57  82 111 148 186 228 284 347
#     4  10  20  36  58  86 115 150 191 238 293 349
#     4  11  23  39  59  87 121 159 199 246 297 350
#     4  11  23  40  62  88 117 159 205 247 293 350
#     4  10  21  39  61  89 120 157 197 244 298 353
#     4   9  20  40  62  81 113 156 197 236 286 350
#     4   9  17  34  59  84 116 155 191 236 293 355
#     4  10  19  35  58  85 113 150 192 235 288 348
#
# _framework density 20.358999000000001
#
# number of rings (size 3 to 8) (size 9 to 14) (size 15 to 20)
#    0.000    2.250    1.250    2.625    1.750    1.500 
#    0.000    8.125    0.000    0.000    0.000    0.000 
#    0.000    0.000    0.000    0.000    0.000    0.000 
#
# Total GULP energy -89322.209429 kJ/mol
# GULP energy per Si atom -5582.638089 kJ/mol
# Density = 2.031266 g / cm^3
# Si number density = 20.358999 Si / 1000 Ang^3
#
#
#
# Elastic Constant Matrix: (Units=GPa)
#
#
# Indices 1 2 3 4 5 6 
#
# 1 30.5412 -6.7308 28.9179 0.0000 9.3644 0.0000
# 2 -6.7308 15.6398 -0.9328 0.0000 2.7464 0.0000
# 3 28.9179 -0.9328 136.1956 0.0000 8.5745 0.0000
# 4 0.0000 0.0000 0.0000 25.6211 0.0000 -7.4988
# 5 9.3644 2.7464 8.5745 0.0000 24.2812 0.0000
# 6 0.0000 0.0000 0.0000 -7.4988 0.0000 6.8585
#
#
#
# Elastic Compliance Matrix: (Units=1/GPa)
#
#
# Indices 1 2 3 4 5 6 
#
# 1 0.054341 0.026365 -0.010074 0.000000 -0.020382 0.000000
# 2 0.026365 0.078142 -0.003954 0.000000 -0.017610 0.000000
# 3 -0.010074 -0.003954 0.009390 0.000000 0.001017 0.000000
# 4 0.000000 0.000000 0.000000 0.057398 0.000000 0.062757
# 5 -0.020382 -0.017610 0.001017 0.000000 0.050678 0.000000
# 6 0.000000 0.000000 0.000000 0.062757 0.000000 0.214420
#
#
# Mechanical properties :
#
#
# Convention : Reuss Voigt Hill
#
# Bulk Modulus (GPa) = 6.00433 24.98725 15.49579
# Shear Modulus (GPa) = 10.09668 22.09365 16.09517
#
# Velocity S-wave (km/s) = 2.22937 3.29782 2.81475
# Velocity P-wave (km/s) = 3.09555 5.17694 4.26516
#
# Compressibility (1/GPa) = 0.16654640
#
# Stress axis : x y z
#
# Youngs Moduli (GPa) = 18.40221 12.79718 106.49236
#
# Poissons Ratio (x) = -0.33739 1.07284
# Poissons Ratio (y) = -0.48517 0.42107
# Poissons Ratio (z) = 0.18539 0.05060
#
# Static dielectric constant tensor:
#      x y z
#    x 1.710830 0.000000 0.019750 
#    y 0.000000 1.719110 0.000000 
#    z 0.019750 0.000000 1.715550 
# 
# From -- ./inp_files/24803.got.cif
#   From: 2010.05.17/outbox.cif.g08.bks.cpg/sg8_13_cif.got.tgz:24803.got - 2010.06.03 19:46:02.
