data_PCOD9132285
_publ_section_title
;
Structure prediction by ZEFSAII (Michael W. Deem and Ramdas Pophale) SiO2 
 PCOD9132285
Probable space group: C M
;
_chemical_formula_sum "Si O2"
_cell_formula_units_Z 28
_cell_length_a 21.900455
_cell_length_b 13.044191
_cell_length_c 27.065492
_cell_angle_alpha 90.000000
_cell_angle_beta 12.053909
_cell_angle_gamma 90.000000
_cell_volume 1614.667524
_symmetry_space_group_name_H-M "C M"
_symmetry_group_IT_number 8
_symmetry_cell_setting 'monoclinic'
loop_
_space_group_symop_operation_xyz
x,y,z
x,-y,z
1/2+x,1/2+y,z
1/2+x,1/2-y,z
loop_
_atom_site_type_symbol
_atom_site_label
_atom_site_fract_x
_atom_site_fract_y
_atom_site_fract_z
Si Si1 0.056820 0.720259 0.777600
Si Si2 0.554397 0.382935 0.111194
Si Si3 0.600347 0.878657 0.182447
Si Si4 0.597759 0.121338 0.852064
Si Si5 0.143384 0.117058 0.923679
Si Si6 0.598800 0.271544 0.517542
Si Si7 0.141604 0.720257 0.256621
O O1 0.118173 0.656787 0.778994
O O2 0.349418 0.750038 0.517027
O O3 0.842692 0.655407 0.911666
O O4 0.873588 0.819589 0.941062
O O5 0.485847 0.500000 0.180503
O O6 0.300114 0.303898 0.326083
O O7 0.598102 0.381273 0.018041
O O8 0.311689 0.839826 0.382501
O O9 0.579247 0.842964 0.256020
O O10 0.633340 0.000000 0.152923
O O11 0.885996 0.160260 0.652432
O O12 0.564854 0.000000 0.881607
O O13 0.324541 0.180386 0.093431
O O14 0.397568 0.196254 0.709021
O O15 0.212781 0.000000 0.853779
O O16 0.855763 0.155185 0.122428
#
# Coordination Sequence:
#
# PCOD9132285 Si02
#       7
#     4   4   4   4   4   4   4
#     4  10  21  37  55  79 110 140 176 220 263 314
#     4  10  20  34  54  78 104 138 177 217 263 311
#     4  10  21  36  56  80 106 140 178 217 265 316
#     4  10  21  36  56  80 106 140 178 217 265 316
#     4  10  20  34  54  78 104 138 177 217 263 311
#     4  10  20  36  54  76 108 138 174 220 262 310
#     4  10  21  37  55  79 110 140 176 220 263 314
#
# _framework density 17.341031000000001
#
# number of rings (size 3 to 8) (size 9 to 14) (size 15 to 20)
#    0.000    2.000    0.000    3.429    0.000    2.286 
#    0.000    7.143    0.000    9.429    0.000    0.000 
#    0.000    0.000    0.000    0.000    0.000    0.000 
#
# Total GULP energy -78194.574231 kJ/mol
# GULP energy per Si atom -5585.326731 kJ/mol
# Density = 1.730156 g / cm^3
# Si number density = 17.341031 Si / 1000 Ang^3
#
#
#
# Elastic Constant Matrix: (Units=GPa)
#
#
# Indices 1 2 3 4 5 6 
#
# 1 130.7845 71.5543 58.7453 -7.9446 -6.7195 118.0963
# 2 71.5543 168.0092 54.2802 9.3268 -10.6040 -140.2459
# 3 58.7453 54.2802 105.5552 5.7979 -1.1974 -79.9550
# 4 -7.9446 9.3268 5.7979 48.8096 5.6436 -573.6853
# 5 -6.7195 -10.6040 -1.1974 5.6436 22.4617 -84.2235
# 6 118.0963 -140.2459 -79.9550 -573.6853 -84.2235 8786.9924
#
#
#
# Elastic Compliance Matrix: (Units=1/GPa)
#
#
# Indices 1 2 3 4 5 6 
#
# 1 0.012261 -0.003761 -0.005086 0.000560 0.000623 -0.000229
# 2 -0.003761 0.008649 -0.002159 -0.000144 0.003607 0.000194
# 3 -0.005086 -0.002159 0.013514 -0.000744 -0.001273 0.000096
# 4 0.000560 -0.000144 -0.000744 0.088128 -0.000591 0.005731
# 5 0.000623 0.003607 -0.001273 -0.000591 0.048220 0.000461
# 6 -0.000229 0.000194 0.000096 0.005731 0.000461 0.000499
#
#
# Mechanical properties :
#
#
# Convention : Reuss Voigt Hill
#
# Bulk Modulus (GPa) = 80.57017 85.94538 83.25778
# Shear Modulus (GPa) = 25.32673 1786.30401 905.81537
#
# Velocity S-wave (km/s) = 3.82581 32.13003 22.87986
# Velocity P-wave (km/s) = 8.12888 37.76402 27.31483
#
# Compressibility (1/GPa) = 0.01241154
#
# Stress axis : x y z
#
# Youngs Moduli (GPa) = 81.55876 115.62059 73.99896
#
# Poissons Ratio (x) = 0.43487 0.37639
# Poissons Ratio (y) = 0.30676 0.15973
# Poissons Ratio (z) = 0.41484 0.24957
#
# Static dielectric constant tensor:
#      x y z
#    x 1.564690 0.000340 -0.007810 
#    y 0.000340 1.559530 0.000440 
#    z -0.007810 0.000440 1.566050 
# 
# From -- ./inp_files/29841.got.cif
#   From: 2010.05.17/outbox.cif.g08.bks.cpg/sg8_15_cif.got.tgz:29841.got - 2010.06.03 19:46:02.
