data_PCOD9132039
_publ_section_title
;
Structure prediction by ZEFSAII (Michael W. Deem and Ramdas Pophale) SiO2 
 PCOD9132039
Probable space group: C M
;
_chemical_formula_sum "Si O2"
_cell_formula_units_Z 24
_cell_length_a 24.618922
_cell_length_b 8.739463
_cell_length_c 18.452958
_cell_angle_alpha 90.000000
_cell_angle_beta 19.190703
_cell_angle_gamma 90.000000
_cell_volume 1305.080163
_symmetry_space_group_name_H-M "C M"
_symmetry_group_IT_number 8
_symmetry_cell_setting 'monoclinic'
loop_
_space_group_symop_operation_xyz
x,y,z
x,-y,z
1/2+x,1/2+y,z
1/2+x,1/2-y,z
loop_
_atom_site_type_symbol
_atom_site_label
_atom_site_fract_x
_atom_site_fract_y
_atom_site_fract_z
Si Si1 0.849470 0.816907 0.429340
Si Si2 0.534481 0.317407 0.744326
Si Si3 0.349856 0.817825 0.590462
Si Si4 0.672985 0.182180 0.944301
Si Si5 0.387069 0.824692 0.795248
Si Si6 0.694031 0.324692 0.181267
O O1 0.686663 0.761037 0.592154
O O2 0.841613 0.751079 0.520500
O O3 0.858081 0.000000 0.420624
O O4 0.008230 0.750752 0.187373
O O5 0.544670 0.500000 0.734135
O O6 0.520385 0.259085 0.678468
O O7 0.360424 0.259093 0.998337
O O8 0.209578 0.750172 0.819278
O O9 0.525855 0.765940 0.402379
O O10 0.340623 0.000000 0.599075
O O11 0.824803 0.234062 0.804575
O O12 0.662785 0.000000 0.954893
O O13 0.432914 0.000000 0.720673
O O14 0.231754 0.830771 0.047054
O O15 0.682403 0.500000 0.221625
#
# Coordination Sequence:
#
# PCOD9132039 Si02
#       6
#     4   4   4   4   4   4
#     4  12  23  40  61  86 122 160 196 244 297 354
#     4  10  19  34  59  88 116 156 198 238 293 354
#     4  12  24  39  61  90 120 157 200 246 295 351
#     4  12  24  39  61  90 120 157 200 246 295 351
#     4   9  18  35  58  85 115 150 192 237 288 342
#     4   9  18  35  58  85 115 150 192 237 288 342
#
# _framework density 18.389675
#
# number of rings (size 3 to 8) (size 9 to 14) (size 15 to 20)
#    1.000    0.333    1.667    6.500    0.000    0.000 
#    0.000    1.667    0.000    0.000    0.000    0.000 
#    0.000    0.000    0.000    0.000    0.000    0.000 
#
# Total GULP energy -66927.169472 kJ/mol
# GULP energy per Si atom -5577.264123 kJ/mol
# Density = 1.834782 g / cm^3
# Si number density = 18.389675 Si / 1000 Ang^3
#
#
#
# Elastic Constant Matrix: (Units=GPa)
#
#
# Indices 1 2 3 4 5 6 
#
# 1 98.1166 69.3214 84.4032 0.0000 -2.7227 0.0000
# 2 69.3214 227.5621 68.9485 0.0000 1.2578 0.0000
# 3 84.4032 68.9485 96.9779 0.0000 1.1984 0.0000
# 4 0.0000 0.0000 0.0000 30.8958 0.0000 -4.5199
# 5 -2.7227 1.2578 1.1984 0.0000 31.3077 0.0000
# 6 0.0000 0.0000 0.0000 -4.5199 0.0000 31.6304
#
#
#
# Elastic Compliance Matrix: (Units=1/GPa)
#
#
# Indices 1 2 3 4 5 6 
#
# 1 0.042170 -0.002211 -0.035193 0.000000 0.005103 0.000000
# 2 -0.002211 0.005717 -0.002136 0.000000 -0.000340 0.000000
# 3 -0.035193 -0.002136 0.042517 0.000000 -0.004602 0.000000
# 4 0.000000 0.000000 0.000000 0.033058 0.000000 0.004724
# 5 0.005103 -0.000340 -0.004602 0.000000 0.032575 0.000000
# 6 0.000000 0.000000 0.000000 0.004724 0.000000 0.032290
#
#
# Mechanical properties :
#
#
# Convention : Reuss Voigt Hill
#
# Bulk Modulus (GPa) = 88.31166 96.44476 92.37821
# Shear Modulus (GPa) = 18.43781 32.09900 25.26841
#
# Velocity S-wave (km/s) = 3.16985 4.18244 3.71085
# Velocity P-wave (km/s) = 7.84372 8.71106 8.28874
#
# Compressibility (1/GPa) = 0.01132353
#
# Stress axis : x y z
#
# Youngs Moduli (GPa) = 23.71346 174.91531 23.52011
#
# Poissons Ratio (x) = 0.38679 0.82774
# Poissons Ratio (y) = 0.05244 0.05024
# Poissons Ratio (z) = 0.83455 0.37360
#
# Static dielectric constant tensor:
#      x y z
#    x 1.637270 0.000000 0.002760 
#    y 0.000000 1.609110 0.000000 
#    z 0.002760 0.000000 1.637740 
# 
# From -- ./inp_files/31593.got.cif
#   From: 2010.05.17/outbox.cif.g08.bks.cpg/sg8_16_cif.got.tgz:31593.got - 2010.06.03 19:46:02.
