data_PCOD9132045
_publ_section_title
;
Structure prediction by ZEFSAII (Michael W. Deem and Ramdas Pophale) SiO2 
 PCOD9132045
Probable space group: C M
;
_chemical_formula_sum "Si O2"
_cell_formula_units_Z 32
_cell_length_a 22.074612
_cell_length_b 7.636154
_cell_length_c 21.787165
_cell_angle_alpha 90.000000
_cell_angle_beta 160.002888
_cell_angle_gamma 90.000000
_cell_volume 1255.914329
_symmetry_space_group_name_H-M "C M"
_symmetry_group_IT_number 8
_symmetry_cell_setting 'monoclinic'
loop_
_space_group_symop_operation_xyz
x,y,z
x,-y,z
1/2+x,1/2+y,z
1/2+x,1/2-y,z
loop_
_atom_site_type_symbol
_atom_site_label
_atom_site_fract_x
_atom_site_fract_y
_atom_site_fract_z
Si Si1 0.771390 0.211345 0.142670
Si Si2 0.960703 0.213209 0.613334
Si Si3 0.332253 0.799899 0.934308
Si Si4 0.384829 0.789313 0.794452
Si Si5 0.418623 0.287364 0.155432
Si Si6 0.785084 0.293354 0.564820
Si Si7 0.700893 0.796665 0.268257
Si Si8 0.510459 0.801961 0.476720
O O1 0.784370 0.255622 0.083193
O O2 0.940297 0.280834 0.340282
O O3 0.781317 0.000000 0.155935
O O4 0.586341 0.271628 0.996630
O O5 0.942143 0.269402 0.665597
O O6 0.790441 0.280587 0.414199
O O7 0.962497 0.000000 0.613423
O O8 0.136826 0.279869 0.747187
O O9 0.376280 0.794382 0.049392
O O10 0.507501 0.720133 0.069888
O O11 0.310347 0.000000 0.891289
O O12 0.332650 0.722233 0.676767
O O13 0.216052 0.748921 0.676069
O O14 0.397214 0.000000 0.805079
O O15 0.419888 0.500000 0.148886
O O16 0.608069 0.226274 0.363048
O O17 0.753988 0.500000 0.544509
O O18 0.858967 0.797188 0.370107
O O19 0.661361 0.000000 0.243383
O O20 0.492764 0.000000 0.479360
#
# Coordination Sequence:
#
# PCOD9132045 Si02
#       8
#     4   4   4   4   4   4   4   4
#     4  10  21  40  65  89 117 158 203 241 285 349
#     4  10  21  37  59  87 117 151 191 235 286 343
#     4  10  21  37  59  87 117 151 191 235 286 343
#     4  10  21  40  65  89 117 158 203 241 285 349
#     4  10  19  34  60  90 120 152 189 233 285 345
#     4  10  19  34  60  90 120 152 189 233 285 345
#     4  10  22  41  60  79 111 154 204 246 283 340
#     4  12  26  41  60  87 121 154 194 250 307 352
#
# _framework density 25.479445999999999
#
# number of rings (size 3 to 8) (size 9 to 14) (size 15 to 20)
#    0.000    1.750    2.500    1.875    0.000    5.000 
#    0.000    2.500    0.000    0.000    0.000    0.000 
#    0.000    0.000    0.000    0.000    0.000    0.000 
#
# Total GULP energy -89451.245927 kJ/mol
# GULP energy per Si atom -5590.702870 kJ/mol
# Density = 2.542145 g / cm^3
# Si number density = 25.479446 Si / 1000 Ang^3
#
#
#
# Elastic Constant Matrix: (Units=GPa)
#
#
# Indices 1 2 3 4 5 6 
#
# 1 99.3891 -7.7972 10.3170 0.0001 27.0172 0.0002
# 2 -7.7972 60.9818 4.7145 -0.0006 1.8209 0.0009
# 3 10.3170 4.7145 132.7211 -0.0029 41.6886 0.0010
# 4 0.0001 -0.0006 -0.0029 -4.6822 -0.0003 6.8963
# 5 27.0172 1.8209 41.6886 -0.0003 50.8876 0.0001
# 6 0.0002 0.0009 0.0010 6.8963 0.0001 20.7308
#
#
#
# Elastic Compliance Matrix: (Units=1/GPa)
#
#
# Indices 1 2 3 4 5 6 
#
# 1 0.012125 0.001670 0.001399 -0.000001 -0.007643 0.000000
# 2 0.001670 0.016674 -0.000345 -0.000002 -0.001201 0.000000
# 3 0.001399 -0.000345 0.010324 -0.000004 -0.009188 0.000001
# 4 -0.000001 -0.000002 -0.000004 -0.143342 0.000003 0.047684
# 5 -0.007643 -0.001201 -0.009188 0.000003 0.031279 -0.000001
# 6 0.000000 0.000000 0.000001 0.047684 -0.000001 0.032375
#
#
# Mechanical properties :
#
#
# Convention : Reuss Voigt Hill
#
# Bulk Modulus (GPa) = 22.43543 34.17339 28.30441
# Shear Modulus (GPa) = -160.48337 32.44442 -64.01948
#
# Velocity S-wave (km/s) = -7.94495 3.57228 -5.01802
# Velocity P-wave (km/s) = 8.67977 5.51871 4.73721
#
# Compressibility (1/GPa) = 0.04457235
#
# Stress axis : x y z
#
# Youngs Moduli (GPa) = 82.47445 59.97205 96.85968
#
# Poissons Ratio (x) = -0.10018 -0.13550
# Poissons Ratio (y) = -0.13776 0.03341
# Poissons Ratio (z) = -0.11538 0.02069
#
# Static dielectric constant tensor:
#      x y z
#    x 2.067350 0.000000 0.031370 
#    y 0.000000 2.006580 0.000000 
#    z 0.031370 0.000000 2.040140 
# 
# From -- ./inp_files/32397.got.cif
#   From: 2010.05.17/outbox.cif.g08.bks.cpg/sg8_17_cif.got.tgz:32397.got - 2010.06.03 19:46:02.
