data_PCOD9132803
_publ_section_title
;
Structure prediction by ZEFSAII (Michael W. Deem and Ramdas Pophale) SiO2 
 PCOD9132803
Probable space group: C M
;
_chemical_formula_sum "Si O2"
_cell_formula_units_Z 32
_cell_length_a 14.507821
_cell_length_b 9.091833
_cell_length_c 28.355832
_cell_angle_alpha 90.000000
_cell_angle_beta 151.141675
_cell_angle_gamma 90.000000
_cell_volume 1805.195614
_symmetry_space_group_name_H-M "C M"
_symmetry_group_IT_number 8
_symmetry_cell_setting 'monoclinic'
loop_
_space_group_symop_operation_xyz
x,y,z
x,-y,z
1/2+x,1/2+y,z
1/2+x,1/2-y,z
loop_
_atom_site_type_symbol
_atom_site_label
_atom_site_fract_x
_atom_site_fract_y
_atom_site_fract_z
Si Si1 0.319120 0.322583 0.117310
Si Si2 0.584115 0.325143 0.148898
Si Si3 0.213963 0.829823 0.695184
Si Si4 0.438041 0.674749 0.977342
Si Si5 0.459639 0.323633 0.284528
Si Si6 0.337946 0.175373 0.508152
Si Si7 0.405274 0.329643 0.629425
Si Si8 0.531557 0.675682 0.787638
O O1 0.293988 0.500000 0.104461
O O2 0.448045 0.277592 0.130692
O O3 0.424084 0.285291 0.213800
O O4 0.113344 0.245729 0.027271
O O5 0.614901 0.500000 0.167597
O O6 0.788066 0.246397 0.237512
O O7 0.485268 0.299745 0.053927
O O8 0.406150 0.740591 0.773834
O O9 0.038600 0.756103 0.587643
O O10 0.123509 0.824043 0.707106
O O11 0.241510 0.000000 0.694875
O O12 0.428699 0.500000 0.965148
O O13 0.237347 0.750613 0.877058
O O14 0.447294 0.500000 0.282712
O O15 0.665798 0.280101 0.397001
O O16 0.295079 0.228275 0.542710
O O17 0.363733 0.000000 0.518088
O O18 0.343099 0.500000 0.596921
O O19 0.413236 0.286923 0.687082
O O20 0.548459 0.500000 0.797886
#
# Coordination Sequence:
#
# PCOD9132803 Si02
#       8
#     4   4   4   4   4   4   4   4
#     4   9  18  36  56  76 102 138 175 210 254 311
#     4   9  19  35  55  77 104 137 174 211 255 311
#     4   9  19  36  53  74 104 139 175 217 257 302
#     4  10  21  35  52  78 107 135 169 217 264 308
#     4   9  18  33  54  78 107 136 171 214 256 304
#     4   9  17  33  54  77 108 141 172 216 264 304
#     4   8  19  36  52  72 102 137 175 215 257 307
#     4  11  21  36  56  78 102 139 179 216 263 313
#
# _framework density 17.726610999999998
#
# number of rings (size 3 to 8) (size 9 to 14) (size 15 to 20)
#    0.750    2.000    0.000    1.125    0.000    4.000 
#    2.250    5.000    0.000    0.000    0.000    0.000 
#    0.000    0.000    0.000    0.000    0.000    0.000 
#
# Total GULP energy -89085.513264 kJ/mol
# GULP energy per Si atom -5567.844579 kJ/mol
# Density = 1.768626 g / cm^3
# Si number density = 17.726611 Si / 1000 Ang^3
#
#
#
# Elastic Constant Matrix: (Units=GPa)
#
#
# Indices 1 2 3 4 5 6 
#
# 1 76.7840 18.5211 6.4616 0.0000 14.8754 0.0000
# 2 18.5211 40.0347 24.5727 0.0000 2.9466 0.0000
# 3 6.4616 24.5727 50.6812 -0.0001 14.2488 0.0000
# 4 0.0000 0.0000 -0.0001 28.2005 0.0000 5.9908
# 5 14.8754 2.9466 14.2488 0.0000 16.0736 0.0000
# 6 0.0000 0.0000 0.0000 5.9908 0.0000 24.9437
#
#
#
# Elastic Compliance Matrix: (Units=1/GPa)
#
#
# Indices 1 2 3 4 5 6 
#
# 1 0.021099 -0.015479 0.012663 0.000000 -0.027914 0.000000
# 2 -0.015479 0.048641 -0.030809 0.000000 0.032719 0.000000
# 3 0.012663 -0.030809 0.046301 0.000000 -0.047115 0.000000
# 4 0.000000 0.000000 0.000000 0.037367 0.000000 -0.008975
# 5 -0.027914 0.032719 -0.047115 0.000000 0.123815 0.000000
# 6 0.000000 0.000000 0.000000 -0.008975 0.000000 0.042246
#
#
# Mechanical properties :
#
#
# Convention : Reuss Voigt Hill
#
# Bulk Modulus (GPa) = 20.49558 29.62341 25.05949
# Shear Modulus (GPa) = 12.40748 21.70652 17.05700
#
# Velocity S-wave (km/s) = 2.64850 3.50311 3.10534
# Velocity P-wave (km/s) = 4.57601 5.75412 5.19855
#
# Compressibility (1/GPa) = 0.04879102
#
# Stress axis : x y z
#
# Youngs Moduli (GPa) = 47.39473 20.55873 21.59799
#
# Poissons Ratio (x) = 0.31822 -0.27349
# Poissons Ratio (y) = 0.73361 0.66541
# Poissons Ratio (z) = -0.60015 0.63339
#
# Static dielectric constant tensor:
#      x y z
#    x 1.604480 0.000000 -0.011190 
#    y 0.000000 1.593790 0.000000 
#    z -0.011190 0.000000 1.593520 
# 
# From -- ./inp_files/26414.got.cif
#   From: 2010.05.17/outbox.cif.g08.bks.cpg/sg8_14_cif.got.tgz:26414.got - 2010.06.03 19:46:02.
