data_PCOD9132236
_publ_section_title
;
Structure prediction by ZEFSAII (Michael W. Deem and Ramdas Pophale) SiO2 
 PCOD9132236
Probable space group: C M
;
_chemical_formula_sum "Si O2"
_cell_formula_units_Z 22
_cell_length_a 6.992551
_cell_length_b 13.799348
_cell_length_c 9.972797
_cell_angle_alpha 90.000000
_cell_angle_beta 100.964054
_cell_angle_gamma 90.000000
_cell_volume 944.736377
_symmetry_space_group_name_H-M "C M"
_symmetry_group_IT_number 8
_symmetry_cell_setting 'monoclinic'
loop_
_space_group_symop_operation_xyz
x,y,z
x,-y,z
1/2+x,1/2+y,z
1/2+x,1/2-y,z
loop_
_atom_site_type_symbol
_atom_site_label
_atom_site_fract_x
_atom_site_fract_y
_atom_site_fract_z
Si Si1 0.067040 0.365378 0.180410
Si Si2 0.023667 0.164145 0.525536
Si Si3 0.021580 0.855845 0.221585
Si Si4 0.068400 0.500000 0.945041
Si Si5 0.218575 0.000000 0.727027
Si Si6 0.536496 0.500000 0.998104
Si Si7 0.069301 0.390244 0.484016
O O1 0.297993 0.386707 0.211463
O O2 0.997035 0.393966 0.319225
O O3 0.028890 0.253106 0.175033
O O4 0.005583 0.411873 0.033146
O O5 0.099786 0.142135 0.384059
O O6 0.804626 0.123149 0.511678
O O7 0.011769 0.282721 0.536451
O O8 0.152907 0.097866 0.641006
O O9 0.100351 0.913534 0.105542
O O10 0.945145 0.500000 0.795268
O O11 0.300089 0.500000 0.952836
O O12 0.117314 0.000000 0.860225
O O13 0.025722 0.500000 0.530052
#
# Coordination Sequence:
#
# PCOD9132236 Si02
#       7
#     4   4   4   2   2   2   4
#     4   9  18  35  64  96 128 163 220 286 343 395
#     4  10  22  43  67 101 135 183 226 287 353 409
#     4   9  19  37  68  93 125 168 224 284 339 397
#     4  10  22  42  62  98 134 178 222 276 350 416
#     4  12  25  45  65  97 151 184 230 282 342 438
#     4  10  23  43  65  97 129 188 224 282 350 398
#     4  10  19  42  71  96 134 176 230 293 346 402
#
# _framework density 23.286919999999999
#
# number of rings (size 3 to 8) (size 9 to 14) (size 15 to 20)
#    0.000    2.182    1.818    0.545    5.091    0.000 
#    8.182    0.000    0.000    2.182    0.000    0.000 
#    0.000    0.000    0.000    0.000    0.000    0.000 
#
# Total GULP energy -61365.051213 kJ/mol
# GULP energy per Si atom -5578.641019 kJ/mol
# Density = 2.323392 g / cm^3
# Si number density = 23.286920 Si / 1000 Ang^3
#
#
#
# Elastic Constant Matrix: (Units=GPa)
#
#
# Indices 1 2 3 4 5 6 
#
# 1 66.0293 6.6824 35.2065 0.0000 1.7384 0.0000
# 2 6.6824 212.2257 100.0158 0.0000 -0.5160 0.0000
# 3 35.2065 100.0158 176.2558 0.0000 5.4199 0.0000
# 4 0.0000 0.0000 0.0000 53.2533 0.0000 -1.9646
# 5 1.7384 -0.5160 5.4199 0.0000 42.6739 0.0000
# 6 0.0000 0.0000 0.0000 -1.9646 0.0000 26.1388
#
#
#
# Elastic Compliance Matrix: (Units=1/GPa)
#
#
# Indices 1 2 3 4 5 6 
#
# 1 0.017284 0.001475 -0.004285 0.000000 -0.000142 0.000000
# 2 0.001475 0.006570 -0.004039 0.000000 0.000532 0.000000
# 3 -0.004285 -0.004039 0.008852 0.000000 -0.000999 0.000000
# 4 0.000000 0.000000 0.000000 0.018830 0.000000 0.001415
# 5 -0.000142 0.000532 -0.000999 0.000000 0.023573 0.000000
# 6 0.000000 0.000000 0.000000 0.001415 0.000000 0.038364
#
#
# Mechanical properties :
#
#
# Convention : Reuss Voigt Hill
#
# Bulk Modulus (GPa) = 52.61005 82.03558 67.32281
# Shear Modulus (GPa) = 37.45090 45.25361 41.35226
#
# Velocity S-wave (km/s) = 4.01463 4.41308 4.21856
# Velocity P-wave (km/s) = 6.64311 7.82762 7.25956
#
# Compressibility (1/GPa) = 0.01900777
#
# Stress axis : x y z
#
# Youngs Moduli (GPa) = 57.85713 152.19679 112.96531
#
# Poissons Ratio (x) = -0.22446 0.48405
# Poissons Ratio (y) = -0.08533 0.45630
# Poissons Ratio (z) = 0.24791 0.61477
#
# Static dielectric constant tensor:
#      x y z
#    x 1.991410 0.000000 0.007620 
#    y 0.000000 1.902010 0.000000 
#    z 0.007620 0.000000 1.822610 
# 
# From -- ./inp_files/7773.got.cif
#   From: 2010.05.17/outbox.cif.g08.bks.cpg/sg8_4_cif.got.tgz:7773.got - 2010.06.03 19:46:02.
