data_PCOD9132660
_publ_section_title
;
Structure prediction by ZEFSAII (Michael W. Deem and Ramdas Pophale) SiO2 
 PCOD9132660
Probable space group: C M
;
_chemical_formula_sum "Si O2"
_cell_formula_units_Z 32
_cell_length_a 10.432096
_cell_length_b 16.368307
_cell_length_c 15.814903
_cell_angle_alpha 90.000000
_cell_angle_beta 34.582219
_cell_angle_gamma 90.000000
_cell_volume 1532.763957
_symmetry_space_group_name_H-M "C M"
_symmetry_group_IT_number 8
_symmetry_cell_setting 'monoclinic'
loop_
_space_group_symop_operation_xyz
x,y,z
x,-y,z
1/2+x,1/2+y,z
1/2+x,1/2-y,z
loop_
_atom_site_type_symbol
_atom_site_label
_atom_site_fract_x
_atom_site_fract_y
_atom_site_fract_z
Si Si1 0.353540 0.670177 0.829910
Si Si2 0.744425 0.905783 0.725438
Si Si3 0.553673 0.186761 0.598800
Si Si4 0.007997 0.753785 0.284931
Si Si5 0.489325 0.719302 0.106374
Si Si6 0.804450 0.404935 0.604448
Si Si7 0.250295 0.093994 0.429931
Si Si8 0.821340 0.594617 0.861303
O O1 0.256635 0.602900 0.818958
O O2 0.440222 0.740220 0.715593
O O3 0.561805 0.630068 0.765421
O O4 0.164202 0.708087 0.990909
O O5 0.512758 0.866615 0.819935
O O6 0.988694 0.879953 0.556629
O O7 0.728359 0.000000 0.709512
O O8 0.475339 0.163406 0.546689
O O9 0.453377 0.108370 0.702042
O O10 0.817217 0.206137 0.448757
O O11 0.243454 0.743341 0.205449
O O12 0.011439 0.800819 0.193675
O O13 0.914074 0.664073 0.309052
O O14 0.591921 0.644043 0.997027
O O15 0.843749 0.500000 0.605857
O O16 0.787414 0.404898 0.511566
O O17 0.282232 0.000000 0.384466
O O18 0.778885 0.500000 0.900721
#
# Coordination Sequence:
#
# PCOD9132660 Si02
#       8
#     4   4   4   4   4   4   4   4
#     4  10  21  37  64  88 120 163 217 263 312 379
#     4   9  17  34  63  90 114 154 209 266 315 365
#     4  11  23  35  67  91 122 159 218 271 312 366
#     4  12  24  41  60  95 131 168 215 259 334 388
#     4  11  27  39  61  92 131 172 205 258 332 402
#     4  10  20  38  64  96 120 159 217 274 321 368
#     4   9  19  36  61  90 123 165 209 263 324 381
#     4  10  23  42  64  90 123 166 216 266 320 385
#
# _framework density 20.877317000000001
#
# number of rings (size 3 to 8) (size 9 to 14) (size 15 to 20)
#    0.000    1.750    2.500    3.000    8.750    0.500 
#    0.000    2.500    0.000    3.750    0.000    0.000 
#    0.000    0.000    0.000    0.000    0.000    0.000 
#
# Total GULP energy -89141.041884 kJ/mol
# GULP energy per Si atom -5571.315118 kJ/mol
# Density = 2.082980 g / cm^3
# Si number density = 20.877317 Si / 1000 Ang^3
#
#
#
# Elastic Constant Matrix: (Units=GPa)
#
#
# Indices 1 2 3 4 5 6 
#
# 1 68.7919 5.7543 30.6082 0.0015 -18.3877 0.0025
# 2 5.7543 63.9712 17.6020 0.0292 -7.9957 -0.0067
# 3 30.6082 17.6020 94.3519 0.0240 -11.1503 -0.0048
# 4 0.0015 0.0292 0.0240 15.3472 -0.0061 -1.6196
# 5 -18.3877 -7.9957 -11.1503 -0.0061 30.0645 0.0001
# 6 0.0025 -0.0067 -0.0048 -1.6196 0.0001 27.8405
#
#
#
# Elastic Compliance Matrix: (Units=1/GPa)
#
#
# Indices 1 2 3 4 5 6 
#
# 1 0.019561 0.000985 -0.005318 0.000008 0.010253 -0.000002
# 2 0.000985 0.016865 -0.002996 -0.000026 0.003977 0.000002
# 3 -0.005318 -0.002996 0.012973 -0.000014 0.000762 0.000001
# 4 0.000008 -0.000026 -0.000014 0.065561 0.000007 0.003814
# 5 0.010253 0.003977 0.000762 0.000007 0.040873 0.000000
# 6 -0.000002 0.000002 0.000001 0.003814 0.000000 0.036141
#
#
# Mechanical properties :
#
#
# Convention : Reuss Voigt Hill
#
# Bulk Modulus (GPa) = 28.78396 37.22711 33.00553
# Shear Modulus (GPa) = 22.91365 26.19382 24.55373
#
# Velocity S-wave (km/s) = 3.31651 3.54595 3.43315
# Velocity P-wave (km/s) = 5.33692 5.88516 5.61773
#
# Compressibility (1/GPa) = 0.03474157
#
# Stress axis : x y z
#
# Youngs Moduli (GPa) = 51.12235 59.29511 77.08497
#
# Poissons Ratio (x) = -0.05842 0.40992
# Poissons Ratio (y) = -0.05037 0.23094
# Poissons Ratio (z) = 0.27185 0.17764
#
# Static dielectric constant tensor:
#      x y z
#    x 1.920900 0.000000 0.040870 
#    y 0.000000 1.792830 0.000000 
#    z 0.040870 0.000000 1.781200 
# 
# From -- ./inp_files/28930.got.cif
#   From: 2010.05.17/outbox.cif.g08.bks.cpg/sg8_15_cif.got.tgz:28930.got - 2010.06.03 19:46:02.
