data_PCOD9132584
_publ_section_title
;
Structure prediction by ZEFSAII (Michael W. Deem and Ramdas Pophale) SiO2 
 PCOD9132584
Probable space group: C M
;
_chemical_formula_sum "Si O2"
_cell_formula_units_Z 20
_cell_length_a 13.888122
_cell_length_b 9.850737
_cell_length_c 18.298396
_cell_angle_alpha 90.000000
_cell_angle_beta 20.524775
_cell_angle_gamma 90.000000
_cell_volume 877.712946
_symmetry_space_group_name_H-M "C M"
_symmetry_group_IT_number 8
_symmetry_cell_setting 'monoclinic'
loop_
_space_group_symop_operation_xyz
x,y,z
x,-y,z
1/2+x,1/2+y,z
1/2+x,1/2-y,z
loop_
_atom_site_type_symbol
_atom_site_label
_atom_site_fract_x
_atom_site_fract_y
_atom_site_fract_z
Si Si1 0.559520 0.652603 0.386890
Si Si2 0.251007 0.848404 0.513824
Si Si3 0.314699 0.845802 0.760960
Si Si4 0.484141 0.349675 0.148527
Si Si5 0.779861 0.740298 0.081326
O O1 0.485622 0.500000 0.461656
O O2 0.307939 0.750585 0.542892
O O3 0.729091 0.646844 0.189129
O O4 0.755254 0.733750 0.302631
O O5 0.550378 0.853790 0.263093
O O6 0.052195 0.763545 0.602877
O O7 0.153753 0.000000 0.599722
O O8 0.411013 0.000000 0.679510
O O9 0.157612 0.846180 0.950624
O O10 0.084545 0.798396 0.867399
O O11 0.356803 0.500000 0.242875
O O12 0.681278 0.327410 0.077130
#
# Coordination Sequence:
#
# PCOD9132584 Si02
#       5
#     4   4   4   4   4
#     4   9  19  35  59  85 113 151 192 234 286 343
#     4  10  21  39  61  85 118 157 195 241 291 342
#     4  10  21  39  61  86 118 155 194 241 292 346
#     4  10  20  37  62  88 118 153 192 241 294 344
#     4   9  21  38  63  84 115 156 193 241 287 347
#
# _framework density 22.786493
#
# number of rings (size 3 to 8) (size 9 to 14) (size 15 to 20)
#    1.200    1.200    0.000    2.400    0.000    5.600 
#    3.600    0.000    0.000    0.000    0.000    0.000 
#    0.000    0.000    0.000    0.000    0.000    0.000 
#
# Total GULP energy -55777.701378 kJ/mol
# GULP energy per Si atom -5577.770138 kJ/mol
# Density = 2.273463 g / cm^3
# Si number density = 22.786493 Si / 1000 Ang^3
#
#
#
# Elastic Constant Matrix: (Units=GPa)
#
#
# Indices 1 2 3 4 5 6 
#
# 1 122.0656 40.4398 30.8071 -0.0074 -19.4626 -0.0001
# 2 40.4398 219.3470 57.4476 0.0085 -38.2848 -0.0043
# 3 30.8071 57.4476 95.2909 0.0047 -34.4299 -0.0101
# 4 -0.0074 0.0085 0.0047 19.4946 -0.0053 -7.6208
# 5 -19.4626 -38.2848 -34.4299 -0.0053 43.6644 -0.0021
# 6 -0.0001 -0.0043 -0.0101 -7.6208 -0.0021 10.7507
#
#
#
# Elastic Compliance Matrix: (Units=1/GPa)
#
#
# Indices 1 2 3 4 5 6 
#
# 1 0.009243 -0.000909 -0.001734 0.000006 0.001956 0.000003
# 2 -0.000909 0.005808 -0.002117 -0.000002 0.003018 0.000000
# 3 -0.001734 -0.002117 0.015915 0.000007 0.009920 0.000021
# 4 0.000006 -0.000002 0.000007 0.070959 0.000018 0.050301
# 5 0.001956 0.003018 0.009920 0.000018 0.034242 0.000030
# 6 0.000003 0.000000 0.000021 0.050301 0.000030 0.128674
#
#
# Mechanical properties :
#
#
# Convention : Reuss Voigt Hill
#
# Bulk Modulus (GPa) = 46.62611 77.12137 61.87374
# Shear Modulus (GPa) = 17.76142 35.31588 26.53865
#
# Velocity S-wave (km/s) = 2.79493 3.94110 3.41642
# Velocity P-wave (km/s) = 5.56077 7.39110 6.54028
#
# Compressibility (1/GPa) = 0.02144721
#
# Stress axis : x y z
#
# Youngs Moduli (GPa) = 108.19286 172.18486 62.83229
#
# Poissons Ratio (x) = 0.15644 0.10893
# Poissons Ratio (y) = 0.09830 0.13303
# Poissons Ratio (z) = 0.18756 0.36454
#
# Static dielectric constant tensor:
#      x y z
#    x 1.866460 0.000010 0.033270 
#    y 0.000010 1.843260 0.000020 
#    z 0.033270 0.000020 1.876490 
# 
# From -- ./inp_files/14361.got.cif
#   From: 2010.05.17/outbox.cif.g08.bks.cpg/sg8_8_cif.got.tgz:14361.got - 2010.06.03 19:46:02.
