data_PCOD9132604
_publ_section_title
;
Structure prediction by ZEFSAII (Michael W. Deem and Ramdas Pophale) SiO2 
 PCOD9132604
Probable space group: C M
;
_chemical_formula_sum "Si O2"
_cell_formula_units_Z 28
_cell_length_a 9.441245
_cell_length_b 15.037936
_cell_length_c 12.460222
_cell_angle_alpha 90.000000
_cell_angle_beta 47.888042
_cell_angle_gamma 90.000000
_cell_volume 1312.354389
_symmetry_space_group_name_H-M "C M"
_symmetry_group_IT_number 8
_symmetry_cell_setting 'monoclinic'
loop_
_space_group_symop_operation_xyz
x,y,z
x,-y,z
1/2+x,1/2+y,z
1/2+x,1/2-y,z
loop_
_atom_site_type_symbol
_atom_site_label
_atom_site_fract_x
_atom_site_fract_y
_atom_site_fract_z
Si Si1 0.604990 0.290971 0.444380
Si Si2 0.710284 0.396310 0.180507
Si Si3 0.243863 0.595196 0.068610
Si Si4 0.319722 0.224853 0.942795
Si Si5 0.708695 0.287298 0.630518
Si Si6 0.191580 0.096116 0.824933
Si Si7 0.778201 0.900111 0.308471
O O1 0.693395 0.351858 0.306332
O O2 0.656908 0.319925 0.538255
O O3 0.377438 0.284654 0.542484
O O4 0.679033 0.189365 0.399268
O O5 0.763167 0.500000 0.157470
O O6 0.500167 0.392920 0.230573
O O7 0.841073 0.335698 0.037498
O O8 0.151091 0.500000 0.086701
O O9 0.246153 0.602543 0.196171
O O10 0.193740 0.688993 0.040289
O O11 0.465745 0.588083 0.923445
O O12 0.521561 0.249690 0.785604
O O13 0.218353 0.166616 0.904479
O O14 0.778045 0.367301 0.671385
O O15 0.269003 0.000000 0.817459
O O16 0.715633 0.000000 0.375892
#
# Coordination Sequence:
#
# PCOD9132604 Si02
#       7
#     4   4   4   4   4   4   4
#     4  12  23  44  64  96 138 175 217 273 338 397
#     4  11  23  40  68  99 131 174 223 280 338 392
#     4   9  18  33  59  95 125 162 214 269 325 383
#     4  11  20  38  66  95 133 171 224 274 330 388
#     4  11  25  41  64  95 134 179 221 267 336 395
#     4  10  20  37  64  92 125 170 221 265 319 396
#     4  10  20  37  64  96 128 167 219 268 325 397
#
# _framework density 21.335702000000001
#
# number of rings (size 3 to 8) (size 9 to 14) (size 15 to 20)
#    0.000    1.429    5.714    0.429    0.000    1.143 
#    0.000    1.429    0.000   15.429    0.000    0.000 
#    0.000    0.000    0.000    0.000    0.000    0.000 
#
# Total GULP energy -78132.606770 kJ/mol
# GULP energy per Si atom -5580.900484 kJ/mol
# Density = 2.128714 g / cm^3
# Si number density = 21.335702 Si / 1000 Ang^3
#
#
#
# Elastic Constant Matrix: (Units=GPa)
#
#
# Indices 1 2 3 4 5 6 
#
# 1 68.9563 34.3137 34.2977 0.0000 29.0945 0.0000
# 2 34.3137 164.5204 42.8513 0.0000 28.5183 0.0000
# 3 34.2977 42.8513 82.6159 0.0001 34.5897 0.0000
# 4 0.0000 0.0000 0.0001 18.3674 0.0000 6.6414
# 5 29.0945 28.5183 34.5897 0.0000 37.4944 0.0000
# 6 0.0000 0.0000 0.0000 6.6414 0.0000 30.1469
#
#
#
# Elastic Compliance Matrix: (Units=1/GPa)
#
#
# Indices 1 2 3 4 5 6 
#
# 1 0.022426 -0.001591 -0.002779 0.000000 -0.013628 0.000000
# 2 -0.001591 0.007389 -0.002177 0.000000 -0.002377 0.000000
# 3 -0.002779 -0.002177 0.020840 0.000000 -0.015414 0.000000
# 4 0.000000 0.000000 0.000000 0.059157 0.000000 -0.013032
# 5 -0.013628 -0.002377 -0.015414 0.000000 0.053273 0.000000
# 6 0.000000 0.000000 0.000000 -0.013032 0.000000 0.036042
#
#
# Mechanical properties :
#
#
# Convention : Reuss Voigt Hill
#
# Bulk Modulus (GPa) = 26.62284 59.89089 43.25686
# Shear Modulus (GPa) = 22.24775 30.84372 26.54573
#
# Velocity S-wave (km/s) = 3.23266 3.80628 3.53114
# Velocity P-wave (km/s) = 5.14185 6.88830 6.07813
#
# Compressibility (1/GPa) = 0.03756173
#
# Stress axis : x y z
#
# Youngs Moduli (GPa) = 44.59120 135.33255 47.98383
#
# Poissons Ratio (x) = 0.21535 0.13335
# Poissons Ratio (y) = 0.07095 0.10444
# Poissons Ratio (z) = 0.12392 0.29457
#
# Static dielectric constant tensor:
#      x y z
#    x 1.806280 0.000000 -0.028670 
#    y 0.000000 1.851930 0.000000 
#    z -0.028670 0.000000 1.782020 
# 
# From -- ./inp_files/18827.got.cif
#   From: 2010.05.17/outbox.cif.g08.bks.cpg/sg8_10_cif.got.tgz:18827.got - 2010.06.03 19:46:02.
