data_PCOD9132367
_publ_section_title
;
Structure prediction by ZEFSAII (Michael W. Deem and Ramdas Pophale) SiO2 
 PCOD9132367
Probable space group: C M
;
_chemical_formula_sum "Si O2"
_cell_formula_units_Z 28
_cell_length_a 11.696276
_cell_length_b 19.541307
_cell_length_c 17.662119
_cell_angle_alpha 90.000000
_cell_angle_beta 159.626103
_cell_angle_gamma 90.000000
_cell_volume 1405.413710
_symmetry_space_group_name_H-M "C M"
_symmetry_group_IT_number 8
_symmetry_cell_setting 'monoclinic'
loop_
_space_group_symop_operation_xyz
x,y,z
x,-y,z
1/2+x,1/2+y,z
1/2+x,1/2-y,z
loop_
_atom_site_type_symbol
_atom_site_label
_atom_site_fract_x
_atom_site_fract_y
_atom_site_fract_z
Si Si1 0.332070 0.812363 0.975750
Si Si2 0.107425 0.702336 0.587774
Si Si3 0.358653 0.790190 0.276470
Si Si4 0.248994 0.344573 0.384189
Si Si5 0.274463 0.149825 0.520703
Si Si6 0.370563 0.920597 0.735700
Si Si7 0.626806 0.080918 0.053982
O O1 0.975573 0.798783 0.786685
O O2 0.503599 0.744967 0.046468
O O3 0.551677 0.835640 0.183660
O O4 0.359172 0.872661 0.931298
O O5 0.888781 0.680350 0.379516
O O6 0.988458 0.778383 0.535833
O O7 0.037845 0.656575 0.617598
O O8 0.495315 0.839176 0.296089
O O9 0.602742 0.723900 0.425597
O O10 0.496671 0.407669 0.532576
O O11 0.407958 0.122623 0.682753
O O12 0.976448 0.101893 0.306353
O O13 0.419033 0.000000 0.748338
O O14 0.602402 0.901461 0.949969
O O15 0.567926 0.000000 0.025986
#
# Coordination Sequence:
#
# PCOD9132367 Si02
#       7
#     4   4   4   4   4   4   4
#     4  10  20  36  57  88 116 161 190 243 304 347
#     4  10  20  35  56  87 120 152 194 242 300 349
#     4   9  19  36  55  83 122 147 191 241 300 351
#     4  10  20  36  57  89 119 155 196 241 297 352
#     4  10  20  38  57  85 119 155 193 243 292 349
#     4  11  21  37  64  88 115 159 205 242 288 352
#     4  10  21  38  62  84 112 157 203 242 293 352
#
# _framework density 19.922958999999999
#
# number of rings (size 3 to 8) (size 9 to 14) (size 15 to 20)
#    0.000    2.000    4.286    1.286    0.000    6.857 
#    2.571    1.429    0.000    1.714    0.000    0.000 
#    0.000    0.000    0.000    0.000    0.000    0.000 
#
# Total GULP energy -78176.290963 kJ/mol
# GULP energy per Si atom -5584.020783 kJ/mol
# Density = 1.987761 g / cm^3
# Si number density = 19.922959 Si / 1000 Ang^3
#
#
#
# Elastic Constant Matrix: (Units=GPa)
#
#
# Indices 1 2 3 4 5 6 
#
# 1 157.6308 47.2395 35.4812 0.0514 4.6811 0.0111
# 2 47.2395 35.2489 21.0184 0.0083 -10.1961 0.0385
# 3 35.4812 21.0184 57.9996 0.1359 2.6871 0.0798
# 4 0.0514 0.0083 0.1359 16.6760 0.0605 -5.0823
# 5 4.6811 -10.1961 2.6871 0.0605 39.8475 0.0206
# 6 0.0111 0.0385 0.0798 -5.0823 0.0206 25.6439
#
#
#
# Elastic Compliance Matrix: (Units=1/GPa)
#
#
# Indices 1 2 3 4 5 6 
#
# 1 0.011765 -0.016926 -0.000801 0.000008 -0.005659 0.000029
# 2 -0.016926 0.065183 -0.014176 0.000048 0.019623 -0.000053
# 3 -0.000801 -0.014176 0.023105 -0.000186 -0.005091 -0.000083
# 4 0.000008 0.000048 -0.000186 0.063823 -0.000080 0.012650
# 5 -0.005659 0.019623 -0.005091 -0.000080 0.031125 -0.000052
# 6 0.000029 -0.000053 -0.000083 0.012650 -0.000052 0.041503
#
#
# Mechanical properties :
#
#
# Convention : Reuss Voigt Hill
#
# Bulk Modulus (GPa) = 27.58915 50.92861 39.25888
# Shear Modulus (GPa) = 16.00547 26.24283 21.12415
#
# Velocity S-wave (km/s) = 2.83745 3.63328 3.25974
# Velocity P-wave (km/s) = 4.96113 6.57414 5.82375
#
# Compressibility (1/GPa) = 0.03624613
#
# Stress axis : x y z
#
# Youngs Moduli (GPa) = 84.99911 15.34145 43.28014
#
# Poissons Ratio (x) = 0.25967 0.03467
# Poissons Ratio (y) = 1.43871 0.61354
# Poissons Ratio (z) = 0.06810 0.21748
#
# Static dielectric constant tensor:
#      x y z
#    x 1.727030 -0.000020 -0.016220 
#    y -0.000020 1.690910 -0.000010 
#    z -0.016220 -0.000010 1.745200 
# 
# From -- ./inp_files/11408.got.cif
#   From: 2010.05.17/outbox.cif.g08.bks.cpg/sg8_6_cif.got.tgz:11408.got - 2010.06.03 19:46:02.
