data_PCOD9132733
_publ_section_title
;
Structure prediction by ZEFSAII (Michael W. Deem and Ramdas Pophale) SiO2 
 PCOD9132733
Probable space group: C M
;
_chemical_formula_sum "Si O2"
_cell_formula_units_Z 20
_cell_length_a 5.393563
_cell_length_b 20.504326
_cell_length_c 7.360127
_cell_angle_alpha 90.000000
_cell_angle_beta 102.214231
_cell_angle_gamma 90.000000
_cell_volume 795.541103
_symmetry_space_group_name_H-M "C M"
_symmetry_group_IT_number 8
_symmetry_cell_setting 'monoclinic'
loop_
_space_group_symop_operation_xyz
x,y,z
x,-y,z
1/2+x,1/2+y,z
1/2+x,1/2-y,z
loop_
_atom_site_type_symbol
_atom_site_label
_atom_site_fract_x
_atom_site_fract_y
_atom_site_fract_z
Si Si1 0.489310 0.212682 0.439020
Si Si2 0.972711 0.674487 0.022865
Si Si3 0.944595 0.852461 0.912708
Si Si4 0.160756 0.574262 0.571189
Si Si5 0.842696 0.073272 0.207040
O O1 0.772150 0.243460 0.497128
O O2 0.459329 0.211028 0.213479
O O3 0.486256 0.138210 0.512725
O O4 0.072742 0.601729 0.095984
O O5 0.708804 0.671202 0.878726
O O6 0.208360 0.693840 0.928046
O O7 0.826492 0.909157 0.772582
O O8 0.024531 0.879346 0.125127
O O9 0.053884 0.500000 0.560318
O O10 0.340712 0.577266 0.421652
O O11 0.884951 0.000000 0.158395
#
# Coordination Sequence:
#
# PCOD9132733 Si02
#       5
#     4   4   4   4   4
#     4  11  24  46  73 101 140 185 235 289 348 419
#     4   9  21  39  64  90 128 177 225 274 337 395
#     4  10  20  40  63  99 130 176 225 286 331 410
#     4  10  22  43  71 106 142 184 232 287 350 418
#     4   8  18  36  60  92 128 174 220 272 333 396
#
# _framework density 25.140122999999999
#
# number of rings (size 3 to 8) (size 9 to 14) (size 15 to 20)
#    1.200    1.200    0.000    1.800    0.000    3.200 
#    3.600    9.000    0.000    0.000    0.000    0.000 
#    0.000    0.000    0.000    0.000    0.000    0.000 
#
# Total GULP energy -55746.707921 kJ/mol
# GULP energy per Si atom -5574.670792 kJ/mol
# Density = 2.508290 g / cm^3
# Si number density = 25.140123 Si / 1000 Ang^3
#
#
#
# Elastic Constant Matrix: (Units=GPa)
#
#
# Indices 1 2 3 4 5 6 
#
# 1 156.8695 35.1716 27.0599 0.0000 13.7839 0.0000
# 2 35.1716 148.1575 21.7085 0.0000 -1.6926 0.0000
# 3 27.0599 21.7085 86.0537 0.0000 -12.0741 0.0000
# 4 0.0000 0.0000 0.0000 38.9606 0.0000 -4.5018
# 5 13.7839 -1.6926 -12.0741 0.0000 21.7714 0.0000
# 6 0.0000 0.0000 0.0000 -4.5018 0.0000 6.0410
#
#
#
# Elastic Compliance Matrix: (Units=1/GPa)
#
#
# Indices 1 2 3 4 5 6 
#
# 1 0.007825 -0.001491 -0.003032 0.000000 -0.006752 0.000000
# 2 -0.001491 0.007297 -0.001258 0.000000 0.000813 0.000000
# 3 -0.003032 -0.001258 0.014256 0.000000 0.009728 0.000000
# 4 0.000000 0.000000 0.000000 0.028085 0.000000 0.020930
# 5 -0.006752 0.000813 0.009728 0.000000 0.055665 0.000000
# 6 0.000000 0.000000 0.000000 0.020930 0.000000 0.181133
#
#
# Mechanical properties :
#
#
# Convention : Reuss Voigt Hill
#
# Bulk Modulus (GPa) = 56.12419 62.10674 59.11547
# Shear Modulus (GPa) = 16.03789 33.83066 24.93427
#
# Velocity S-wave (km/s) = 2.52849 3.67234 3.15272
# Velocity P-wave (km/s) = 5.55854 6.53753 6.06781
#
# Compressibility (1/GPa) = 0.01781763
#
# Stress axis : x y z
#
# Youngs Moduli (GPa) = 127.79243 137.04207 70.14415
#
# Poissons Ratio (x) = 0.20427 0.21267
# Poissons Ratio (y) = 0.19048 0.08824
# Poissons Ratio (z) = 0.38746 0.17240
#
# Static dielectric constant tensor:
#      x y z
#    x 1.990950 0.000000 -0.001120 
#    y 0.000000 1.996960 0.000000 
#    z -0.001120 0.000000 1.986550 
# 
# From -- ./inp_files/6747.got.cif
#   From: 2010.05.17/outbox.cif.g08.bks.cpg/sg8_4_cif.got.tgz:6747.got - 2010.06.03 19:46:02.
