data_PCOD9132226
_publ_section_title
;
Structure prediction by ZEFSAII (Michael W. Deem and Ramdas Pophale) SiO2 
 PCOD9132226
Probable space group: C M
;
_chemical_formula_sum "Si O2"
_cell_formula_units_Z 30
_cell_length_a 7.942284
_cell_length_b 18.519262
_cell_length_c 10.231493
_cell_angle_alpha 90.000000
_cell_angle_beta 120.706474
_cell_angle_gamma 90.000000
_cell_volume 1293.906225
_symmetry_space_group_name_H-M "C M"
_symmetry_group_IT_number 8
_symmetry_cell_setting 'monoclinic'
loop_
_space_group_symop_operation_xyz
x,y,z
x,-y,z
1/2+x,1/2+y,z
1/2+x,1/2-y,z
loop_
_atom_site_type_symbol
_atom_site_label
_atom_site_fract_x
_atom_site_fract_y
_atom_site_fract_z
Si Si1 0.781440 0.155713 0.660550
Si Si2 0.571969 0.223909 0.241427
Si Si3 0.314695 0.860604 0.307591
Si Si4 0.420465 0.181062 0.701633
Si Si5 0.512974 0.414945 0.993628
Si Si6 0.650993 0.500000 0.374989
Si Si7 0.239881 0.331311 0.052698
Si Si8 0.043157 0.920178 0.565857
O O1 0.563001 0.156158 0.638144
O O2 0.849154 0.237158 0.660743
O O3 0.918294 0.123867 0.832651
O O4 0.856410 0.108129 0.568563
O O5 0.513627 0.177155 0.342209
O O6 0.699680 0.293998 0.328218
O O7 0.386018 0.262692 0.098151
O O8 0.675070 0.174350 0.175759
O O9 0.290756 0.935949 0.369496
O O10 0.207797 0.877628 0.125108
O O11 0.558725 0.176510 0.883738
O O12 0.230426 0.131785 0.649348
O O13 0.539584 0.500000 0.985139
O O14 0.361198 0.400887 0.053318
O O15 0.523665 0.437779 0.404916
O O16 0.100638 0.000000 0.642395
#
# Coordination Sequence:
#
# PCOD9132226 Si02
#       8
#     4   4   4   4   4   2   4   4
#     4  11  21  38  65  98 124 161 206 252 321 376
#     4   9  18  34  61  97 114 159 197 245 302 377
#     4  10  19  39  66  82 127 156 202 253 303 353
#     4  11  20  36  66  93 128 163 201 260 305 377
#     4  10  20  33  58  93 129 162 190 237 313 392
#     4  10  24  48  56  82 122 164 208 262 306 352
#     4   9  18  31  55  91 132 144 190 242 306 370
#     4  10  25  43  61  86 126 165 211 261 306 372
#
# _framework density 23.185607999999998
#
# number of rings (size 3 to 8) (size 9 to 14) (size 15 to 20)
#    0.400    1.600    2.000    3.600    1.867    2.667 
#    3.600    0.000   14.667    0.000    0.000    0.000 
#    0.000    0.000    0.000    0.000    0.000    0.000 
#
# Total GULP energy -83513.077778 kJ/mol
# GULP energy per Si atom -5567.538519 kJ/mol
# Density = 2.313284 g / cm^3
# Si number density = 23.185608 Si / 1000 Ang^3
#
#
#
# Elastic Constant Matrix: (Units=GPa)
#
#
# Indices 1 2 3 4 5 6 
#
# 1 124.0832 76.7751 30.4282 0.0000 -25.9419 0.0000
# 2 76.7751 158.2788 42.6476 0.0000 -27.4812 0.0000
# 3 30.4282 42.6476 62.0929 0.0000 -3.9137 0.0000
# 4 0.0000 0.0000 0.0000 33.9424 0.0000 -17.5863
# 5 -25.9419 -27.4812 -3.9137 0.0000 34.7843 0.0000
# 6 0.0000 0.0000 0.0000 -17.5863 0.0000 42.1662
#
#
#
# Elastic Compliance Matrix: (Units=1/GPa)
#
#
# Indices 1 2 3 4 5 6 
#
# 1 0.012652 -0.004396 -0.002825 0.000000 0.005645 0.000000
# 2 -0.004396 0.010521 -0.004789 0.000000 0.004495 0.000000
# 3 -0.002825 -0.004789 0.020553 0.000000 -0.003578 0.000000
# 4 0.000000 0.000000 0.000000 0.037583 0.000000 0.015675
# 5 0.005645 0.004495 -0.003578 0.000000 0.036107 0.000000
# 6 0.000000 0.000000 0.000000 0.015675 0.000000 0.030253
#
#
# Mechanical properties :
#
#
# Convention : Reuss Voigt Hill
#
# Bulk Modulus (GPa) = 50.74408 71.57296 61.15852
# Shear Modulus (GPa) = 28.04940 35.15219 31.60079
#
# Velocity S-wave (km/s) = 3.48196 3.89796 3.69582
# Velocity P-wave (km/s) = 6.17243 7.15510 6.68185
#
# Compressibility (1/GPa) = 0.01970673
#
# Stress axis : x y z
#
# Youngs Moduli (GPa) = 79.04001 95.04941 48.65497
#
# Poissons Ratio (x) = 0.41780 0.13745
# Poissons Ratio (y) = 0.34743 0.23300
# Poissons Ratio (z) = 0.22329 0.45517
#
# Static dielectric constant tensor:
#      x y z
#    x 1.886710 0.000000 0.007990 
#    y 0.000000 1.803280 0.000000 
#    z 0.007990 0.000000 2.005870 
# 
# From -- ./inp_files/19035.got.cif
#   From: 2010.05.17/outbox.cif.g08.bks.cpg/sg8_10_cif.got.tgz:19035.got - 2010.06.03 19:46:02.
