data_PCOD9132954
_publ_section_title
;
Structure prediction by ZEFSAII (Michael W. Deem and Ramdas Pophale) SiO2 
 PCOD9132954
Probable space group: C M
;
_chemical_formula_sum "Si O2"
_cell_formula_units_Z 32
_cell_length_a 13.158881
_cell_length_b 13.878271
_cell_length_c 10.961749
_cell_angle_alpha 90.000000
_cell_angle_beta 45.229950
_cell_angle_gamma 90.000000
_cell_volume 1421.199981
_symmetry_space_group_name_H-M "C M"
_symmetry_group_IT_number 8
_symmetry_cell_setting 'monoclinic'
loop_
_space_group_symop_operation_xyz
x,y,z
x,-y,z
1/2+x,1/2+y,z
1/2+x,1/2-y,z
loop_
_atom_site_type_symbol
_atom_site_label
_atom_site_fract_x
_atom_site_fract_y
_atom_site_fract_z
Si Si1 0.676170 0.101863 0.255650
Si Si2 0.231388 0.806437 0.591805
Si Si3 0.083893 0.785399 0.073974
Si Si4 0.577823 0.688316 0.348664
Si Si5 0.885541 0.722485 0.704333
Si Si6 0.161520 0.391572 0.548874
Si Si7 0.859801 0.387847 0.243091
Si Si8 0.988189 0.892319 0.914644
O O1 0.589316 0.197411 0.311763
O O2 0.719904 0.104320 0.361205
O O3 0.601081 0.000000 0.296487
O O4 0.818073 0.106894 0.056434
O O5 0.307061 0.827577 0.654895
O O6 0.292231 0.870524 0.433311
O O7 0.243329 0.692888 0.550557
O O8 0.063483 0.825293 0.752875
O O9 0.053888 0.840750 0.227872
O O10 0.991046 0.687753 0.129479
O O11 0.251956 0.760297 0.908177
O O12 0.033676 0.855228 0.008382
O O13 0.471898 0.691198 0.557228
O O14 0.730610 0.646532 0.262858
O O15 0.000705 0.649128 0.664461
O O16 0.165831 0.500000 0.596339
O O17 0.895837 0.500000 0.191571
O O18 0.041334 0.000000 0.848963
#
# Coordination Sequence:
#
# PCOD9132954 Si02
#       8
#     4   4   4   4   4   4   4   4
#     4   9  18  35  62  90 120 164 218 264 320 393
#     4  11  21  41  66  97 139 176 216 282 335 392
#     4  11  24  42  66  94 134 179 218 279 332 399
#     4  11  22  42  65  97 132 172 217 280 337 389
#     4  10  23  40  67  96 134 170 224 274 328 391
#     4  10  21  40  69  98 130 176 225 269 329 402
#     4  12  25  44  67  97 135 180 223 272 347 405
#     4  10  21  38  63  93 126 173 224 268 325 397
#
# _framework density 22.516183999999999
#
# number of rings (size 3 to 8) (size 9 to 14) (size 15 to 20)
#    0.000    1.500    5.000    0.375    1.750    3.500 
#    0.000    6.250    0.000    0.000    0.000    0.000 
#    0.000    0.000    0.000    0.000    0.000    0.000 
#
# Total GULP energy -89207.075596 kJ/mol
# GULP energy per Si atom -5575.442225 kJ/mol
# Density = 2.246494 g / cm^3
# Si number density = 22.516184 Si / 1000 Ang^3
#
#
#
# Elastic Constant Matrix: (Units=GPa)
#
#
# Indices 1 2 3 4 5 6 
#
# 1 56.2674 1.4423 8.1904 0.0000 5.4768 0.0000
# 2 1.4423 70.9287 0.6789 0.0000 6.7477 0.0000
# 3 8.1904 0.6789 114.7676 0.0000 -19.6757 0.0000
# 4 0.0000 0.0000 0.0000 18.8925 0.0000 -0.3755
# 5 5.4768 6.7477 -19.6757 0.0000 37.1551 0.0000
# 6 0.0000 0.0000 0.0000 -0.3755 0.0000 7.7051
#
#
#
# Elastic Compliance Matrix: (Units=1/GPa)
#
#
# Indices 1 2 3 4 5 6 
#
# 1 0.018423 0.000001 -0.001958 0.000000 -0.003753 0.000000
# 2 0.000001 0.014382 -0.000586 0.000000 -0.002923 0.000000
# 3 -0.001958 -0.000586 0.009815 0.000000 0.005593 0.000000
# 4 0.000000 0.000000 0.000000 0.052983 0.000000 0.002582
# 5 -0.003753 -0.002923 0.005593 0.000000 0.030960 0.000000
# 6 0.000000 0.000000 0.000000 0.002582 0.000000 0.129910
#
#
# Mechanical properties :
#
#
# Convention : Reuss Voigt Hill
#
# Bulk Modulus (GPa) = 26.64263 29.17631 27.90947
# Shear Modulus (GPa) = 18.24351 28.19400 23.21876
#
# Velocity S-wave (km/s) = 2.84956 3.54243 3.21472
# Velocity P-wave (km/s) = 4.76288 5.45141 5.11873
#
# Compressibility (1/GPa) = 0.03753384
#
# Stress axis : x y z
#
# Youngs Moduli (GPa) = 54.28130 69.53002 101.88163
#
# Poissons Ratio (x) = -0.00008 0.19949
# Poissons Ratio (y) = -0.00006 0.05972
# Poissons Ratio (z) = 0.10629 0.04076
#
# Static dielectric constant tensor:
#      x y z
#    x 1.907150 0.000000 -0.014320 
#    y 0.000000 1.825960 0.000000 
#    z -0.014320 0.000000 1.914750 
# 
# From -- ./inp_files/22229.got.cif
#   From: 2010.05.17/outbox.cif.g08.bks.cpg/sg8_12_cif.got.tgz:22229.got - 2010.06.03 19:46:02.
