data_PCOD9132620
_publ_section_title
;
Structure prediction by ZEFSAII (Michael W. Deem and Ramdas Pophale) SiO2 
 PCOD9132620
Probable space group: C M
;
_chemical_formula_sum "Si O2"
_cell_formula_units_Z 30
_cell_length_a 5.215045
_cell_length_b 33.536404
_cell_length_c 7.278990
_cell_angle_alpha 90.000000
_cell_angle_beta 92.245702
_cell_angle_gamma 90.000000
_cell_volume 1272.072899
_symmetry_space_group_name_H-M "C M"
_symmetry_group_IT_number 8
_symmetry_cell_setting 'monoclinic'
loop_
_space_group_symop_operation_xyz
x,y,z
x,-y,z
1/2+x,1/2+y,z
1/2+x,1/2-y,z
loop_
_atom_site_type_symbol
_atom_site_label
_atom_site_fract_x
_atom_site_fract_y
_atom_site_fract_z
Si Si1 0.067280 0.063970 0.157540
Si Si2 0.869015 0.271374 0.834738
Si Si3 0.706465 0.929487 0.451432
Si Si4 0.399540 0.862625 0.265765
Si Si5 0.867551 0.272720 0.282020
Si Si6 0.896878 0.500000 0.389514
Si Si7 0.069957 0.642225 0.854119
Si Si8 0.565556 0.593835 0.770743
O O1 0.159345 0.108977 0.210923
O O2 0.268337 0.034457 0.253258
O O3 0.803680 0.055378 0.254623
O O4 0.046420 0.063195 0.939327
O O5 0.578046 0.260988 0.774917
O O6 0.981156 0.314339 0.786039
O O7 0.862703 0.271019 0.058364
O O8 0.572247 0.887393 0.411651
O O9 0.959172 0.924865 0.581675
O O10 0.527972 0.964401 0.518509
O O11 0.327708 0.818812 0.330841
O O12 0.549640 0.857899 0.076351
O O13 0.642125 0.244410 0.345493
O O14 0.850836 0.611419 0.781097
O O15 0.354043 0.628404 0.808157
#
# Coordination Sequence:
#
# PCOD9132620 Si02
#       8
#     4   4   4   4   4   2   4   4
#     4  10  22  43  65  94 128 166 212 265 317 386
#     4   9  16  28  52  83 119 162 208 262 317 368
#     4  11  23  42  67  94 127 170 211 261 323 383
#     4   9  20  36  63  88 129 171 213 265 320 372
#     4   9  18  29  51  89 123 160 215 262 309 371
#     4  10  24  44  66  98 128 166 210 264 322 388
#     4  10  20  38  58  93 127 164 219 265 313 379
#     4  11  24  39  66  95 126 166 213 260 312 379
#
# _framework density 23.583552999999998
#
# number of rings (size 3 to 8) (size 9 to 14) (size 15 to 20)
#    0.000    2.133    1.333    1.200    5.600    3.733 
#    0.000    1.333    0.000    4.800    0.000    0.000 
#    0.000    0.000    0.000    0.000    0.000    0.000 
#
# Total GULP energy -83623.516012 kJ/mol
# GULP energy per Si atom -5574.901067 kJ/mol
# Density = 2.352988 g / cm^3
# Si number density = 23.583553 Si / 1000 Ang^3
#
#
#
# Elastic Constant Matrix: (Units=GPa)
#
#
# Indices 1 2 3 4 5 6 
#
# 1 74.5848 14.4937 3.0338 0.0000 9.8975 0.0000
# 2 14.4937 128.9780 2.3789 0.0000 7.9404 0.0000
# 3 3.0338 2.3789 68.7296 0.0000 -4.2623 0.0000
# 4 0.0000 0.0000 0.0000 36.9813 0.0000 -154.9793
# 5 9.8975 7.9404 -4.2623 0.0000 26.3841 0.0000
# 6 0.0000 0.0000 0.0000 -154.9793 0.0000 897.9135
#
#
#
# Elastic Compliance Matrix: (Units=1/GPa)
#
#
# Indices 1 2 3 4 5 6 
#
# 1 0.014378 -0.001282 -0.000910 0.000000 -0.005155 0.000000
# 2 -0.001282 0.008026 -0.000345 0.000000 -0.001990 0.000000
# 3 -0.000910 -0.000345 0.014778 0.000000 0.002832 0.000000
# 4 0.000000 0.000000 0.000000 0.097733 0.000000 0.016869
# 5 -0.005155 -0.001990 0.002832 0.000000 0.040892 0.000000
# 6 0.000000 0.000000 0.000000 0.016869 0.000000 0.004025
#
#
# Mechanical properties :
#
#
# Convention : Reuss Voigt Hill
#
# Bulk Modulus (GPa) = 31.14392 34.67835 32.91114
# Shear Modulus (GPa) = 25.56146 209.08152 117.32149
#
# Velocity S-wave (km/s) = 3.29579 9.42593 7.06082
# Velocity P-wave (km/s) = 5.26473 11.54125 8.96989
#
# Compressibility (1/GPa) = 0.03210899
#
# Stress axis : x y z
#
# Youngs Moduli (GPa) = 69.55240 124.59247 67.67032
#
# Poissons Ratio (x) = 0.15967 0.06158
# Poissons Ratio (y) = 0.08913 0.02332
# Poissons Ratio (z) = 0.06329 0.04294
#
# Static dielectric constant tensor:
#      x y z
#    x 1.905980 0.000000 -0.034690 
#    y 0.000000 1.751120 0.000000 
#    z -0.034690 0.000000 1.924400 
# 
# From -- ./inp_files/7193.got.cif
#   From: 2010.05.17/outbox.cif.g08.bks.cpg/sg8_4_cif.got.tgz:7193.got - 2010.06.03 19:46:02.
