data_PCOD9132864
_publ_section_title
;
Structure prediction by ZEFSAII (Michael W. Deem and Ramdas Pophale) SiO2 
 PCOD9132864
Probable space group: C M
;
_chemical_formula_sum "Si O2"
_cell_formula_units_Z 32
_cell_length_a 29.579544
_cell_length_b 7.537810
_cell_length_c 7.993625
_cell_angle_alpha 90.000000
_cell_angle_beta 138.719054
_cell_angle_gamma 90.000000
_cell_volume 1175.874607
_symmetry_space_group_name_H-M "C M"
_symmetry_group_IT_number 8
_symmetry_cell_setting 'monoclinic'
loop_
_space_group_symop_operation_xyz
x,y,z
x,-y,z
1/2+x,1/2+y,z
1/2+x,1/2-y,z
loop_
_atom_site_type_symbol
_atom_site_label
_atom_site_fract_x
_atom_site_fract_y
_atom_site_fract_z
Si Si1 0.440410 0.216980 0.976760
Si Si2 0.813156 0.290069 0.438468
Si Si3 0.898265 0.212366 0.344000
Si Si4 0.556144 0.206156 0.066901
Si Si5 0.684022 0.789993 0.250440
Si Si6 0.028512 0.205511 0.550174
Si Si7 0.772889 0.209922 0.805175
Si Si8 0.144402 0.214369 0.645028
O O1 0.362770 0.276510 0.726506
O O2 0.442752 0.000000 0.987877
O O3 0.485445 0.282171 0.941607
O O4 0.478990 0.285154 0.247501
O O5 0.810782 0.500000 0.441941
O O6 0.855927 0.245193 0.393289
O O7 0.734642 0.232208 0.235832
O O8 0.975883 0.282756 0.541619
O O9 0.903635 0.000000 0.339550
O O10 0.846787 0.285241 0.058190
O O11 0.606806 0.280881 0.063478
O O12 0.603660 0.220716 0.366535
O O13 0.543683 0.000000 0.999974
O O14 0.731130 0.713590 0.532456
O O15 0.676676 0.000000 0.255850
O O16 0.100085 0.283807 0.680209
O O17 0.040931 0.000000 0.620177
O O18 0.721914 0.232037 0.822063
O O19 0.780575 0.000000 0.798837
O O20 0.142144 0.000000 0.644052
#
# Coordination Sequence:
#
# PCOD9132864 Si02
#       8
#     4   4   4   4   4   4   4   4
#     4   9  18  33  53  76 101 129 162 202 247 293
#     4  11  23  35  48  72 104 133 164 205 251 294
#     4  10  21  37  53  69  96 135 174 206 238 286
#     4   8  15  30  51  73  98 128 164 202 238 286
#     4   9  17  32  55  77  97 126 163 203 245 291
#     4   9  18  33  54  78 100 126 164 205 244 291
#     4   9  18  33  54  77  98 127 168 205 239 289
#     4   9  16  27  48  78 106 126 151 198 254 296
#
# _framework density 27.213784
#
# number of rings (size 3 to 8) (size 9 to 14) (size 15 to 20)
#    0.000    2.750    0.000    2.250    0.000    5.500 
#    0.000    1.250    0.000    4.500    0.000    0.000 
#    0.000    0.000    0.000    0.000    0.000    0.000 
#
# Total GULP energy -89443.832156 kJ/mol
# GULP energy per Si atom -5590.239510 kJ/mol
# Density = 2.715184 g / cm^3
# Si number density = 27.213784 Si / 1000 Ang^3
#
#
#
# Elastic Constant Matrix: (Units=GPa)
#
#
# Indices 1 2 3 4 5 6 
#
# 1 203.7577 1.7146 35.0965 0.0000 32.5455 0.0000
# 2 1.7146 107.1038 14.1210 0.0000 4.0952 0.0000
# 3 35.0965 14.1210 99.3456 0.0000 36.6766 0.0000
# 4 0.0000 0.0000 0.0000 19.9754 0.0000 -1.7791
# 5 32.5455 4.0952 36.6766 0.0000 66.2962 0.0000
# 6 0.0000 0.0000 0.0000 -1.7791 0.0000 21.4750
#
#
#
# Elastic Compliance Matrix: (Units=1/GPa)
#
#
# Indices 1 2 3 4 5 6 
#
# 1 0.005435 0.000148 -0.001197 0.000000 -0.002015 0.000000
# 2 0.000148 0.009521 -0.001460 0.000000 0.000147 0.000000
# 3 -0.001197 -0.001460 0.013127 0.000000 -0.006584 0.000000
# 4 0.000000 0.000000 0.000000 0.050434 0.000000 0.004178
# 5 -0.002015 0.000147 -0.006584 0.000000 0.019706 0.000000
# 6 0.000000 0.000000 0.000000 0.004178 0.000000 0.046912
#
#
# Mechanical properties :
#
#
# Convention : Reuss Voigt Hill
#
# Bulk Modulus (GPa) = 43.35618 56.89683 50.12651
# Shear Modulus (GPa) = 31.67741 45.50101 38.58921
#
# Velocity S-wave (km/s) = 3.41548 4.09343 3.76972
# Velocity P-wave (km/s) = 5.61429 6.57984 6.11615
#
# Compressibility (1/GPa) = 0.02306476
#
# Stress axis : x y z
#
# Youngs Moduli (GPa) = 184.00788 105.02860 76.17826
#
# Poissons Ratio (x) = -0.01553 0.09119
# Poissons Ratio (y) = -0.02721 0.11121
# Poissons Ratio (z) = 0.22028 0.15332
#
# Static dielectric constant tensor:
#      x y z
#    x 2.307020 0.000000 -0.027080 
#    y 0.000000 2.025370 0.000000 
#    z -0.027080 0.000000 2.199400 
# 
# From -- ./inp_files/15829.got.cif
#   From: 2010.05.17/outbox.cif.g08.bks.cpg/sg8_8_cif.got.tgz:15829.got - 2010.06.03 19:46:02.
