data_PCOD9132195
_publ_section_title
;
Structure prediction by ZEFSAII (Michael W. Deem and Ramdas Pophale) SiO2 
 PCOD9132195
Probable space group: C M
;
_chemical_formula_sum "Si O2"
_cell_formula_units_Z 32
_cell_length_a 11.737951
_cell_length_b 15.351605
_cell_length_c 15.366316
_cell_angle_alpha 90.000000
_cell_angle_beta 28.666805
_cell_angle_gamma 90.000000
_cell_volume 1328.309711
_symmetry_space_group_name_H-M "C M"
_symmetry_group_IT_number 8
_symmetry_cell_setting 'monoclinic'
loop_
_space_group_symop_operation_xyz
x,y,z
x,-y,z
1/2+x,1/2+y,z
1/2+x,1/2-y,z
loop_
_atom_site_type_symbol
_atom_site_label
_atom_site_fract_x
_atom_site_fract_y
_atom_site_fract_z
Si Si1 0.501480 0.844429 0.534070
Si Si2 0.578069 0.641589 0.525590
Si Si3 0.124167 0.407067 0.730150
Si Si4 0.394276 0.859007 0.060604
Si Si5 0.842798 0.899205 0.862911
Si Si6 0.010755 0.368366 0.328184
Si Si7 0.874664 0.165923 0.412455
Si Si8 0.489287 0.337441 0.946674
O O1 0.552386 0.738967 0.501863
O O2 0.459579 0.879451 0.464995
O O3 0.742630 0.875452 0.418358
O O4 0.264472 0.861450 0.749721
O O5 0.377036 0.589779 0.609944
O O6 0.485644 0.642186 0.686968
O O7 0.834331 0.598324 0.370786
O O8 0.071194 0.500000 0.724194
O O9 0.176102 0.337987 0.620583
O O10 0.941203 0.388660 0.929821
O O11 0.574247 0.899629 0.008371
O O12 0.467606 0.756934 0.005874
O O13 0.124339 0.878452 0.266529
O O14 0.887918 0.840287 0.916363
O O15 0.916931 0.000000 0.829009
O O16 0.960861 0.265186 0.343729
O O17 0.285691 0.392541 0.131283
#
# Coordination Sequence:
#
# PCOD9132195 Si02
#       8
#     4   4   4   4   4   4   4   4
#     4  11  20  39  62  90 127 159 213 269 309 373
#     4  10  19  37  62  88 127 161 206 260 322 375
#     4  11  22  38  61  90 126 165 207 262 326 381
#     4  10  22  39  61  93 128 170 217 264 320 385
#     4  11  23  40  65  98 133 167 211 275 336 385
#     4  10  21  36  61  96 121 163 215 267 313 377
#     4  10  23  36  60  92 125 165 214 262 313 383
#     4  11  22  37  66  93 127 170 215 267 321 379
#
# _framework density 24.090768000000001
#
# number of rings (size 3 to 8) (size 9 to 14) (size 15 to 20)
#    0.000    1.500    5.000    1.500    3.500    5.000 
#    0.000    1.250    0.000    0.000    0.000    0.000 
#    0.000    0.000    0.000    0.000    0.000    0.000 
#
# Total GULP energy -89213.169543 kJ/mol
# GULP energy per Si atom -5575.823096 kJ/mol
# Density = 2.403594 g / cm^3
# Si number density = 24.090768 Si / 1000 Ang^3
#
#
#
# Elastic Constant Matrix: (Units=GPa)
#
#
# Indices 1 2 3 4 5 6 
#
# 1 68.4283 -17.5588 11.3682 0.0593 -7.4787 -0.0095
# 2 -17.5588 47.4260 -10.7002 -0.0740 1.6964 0.0018
# 3 11.3682 -10.7002 117.3100 -0.0038 -10.3758 -0.0079
# 4 0.0593 -0.0740 -0.0038 -274.5478 0.0177 15.4761
# 5 -7.4787 1.6964 -10.3758 0.0177 42.2149 0.0034
# 6 -0.0095 0.0018 -0.0079 15.4761 0.0034 -12.1263
#
#
#
# Elastic Compliance Matrix: (Units=1/GPa)
#
#
# Indices 1 2 3 4 5 6 
#
# 1 0.016524 0.005837 -0.000849 0.000002 0.002484 -0.000009
# 2 0.005837 0.023597 0.001630 -0.000006 0.000486 -0.000009
# 3 -0.000849 0.001630 0.008930 -0.000001 0.001979 -0.000006
# 4 0.000002 -0.000006 -0.000001 -0.003925 0.000002 -0.005009
# 5 0.002484 0.000486 0.001979 0.000002 0.024595 0.000007
# 6 -0.000009 -0.000009 -0.000006 -0.005009 0.000007 -0.088858
#
#
# Mechanical properties :
#
#
# Convention : Reuss Voigt Hill
#
# Bulk Modulus (GPa) = 16.05455 22.15364 19.10410
# Shear Modulus (GPa) = -430.70980 -32.22150 -231.46565
#
# Velocity S-wave (km/s) = -13.38560 -3.66116 -9.81271
# Velocity P-wave (km/s) = 15.23878 2.94215 10.97444
#
# Compressibility (1/GPa) = 0.06228762
#
# Stress axis : x y z
#
# Youngs Moduli (GPa) = 60.51698 42.37829 111.97697
#
# Poissons Ratio (x) = -0.24738 0.09509
# Poissons Ratio (y) = -0.35326 -0.18249
# Poissons Ratio (z) = 0.05139 -0.06906
#
# Static dielectric constant tensor:
#      x y z
#    x 1.972100 0.000040 -0.050050 
#    y 0.000040 2.010170 -0.000050 
#    z -0.050050 -0.000050 2.002090 
# 
# From -- ./inp_files/26259.got.cif
#   From: 2010.05.17/outbox.cif.g08.bks.cpg/sg8_14_cif.got.tgz:26259.got - 2010.06.03 19:46:02.
