data_PCOD9132770
_publ_section_title
;
Structure prediction by ZEFSAII (Michael W. Deem and Ramdas Pophale) SiO2 
 PCOD9132770
Probable space group: C M
;
_chemical_formula_sum "Si O2"
_cell_formula_units_Z 32
_cell_length_a 11.992658
_cell_length_b 15.569721
_cell_length_c 9.305254
_cell_angle_alpha 90.000000
_cell_angle_beta 128.608876
_cell_angle_gamma 90.000000
_cell_volume 1357.722934
_symmetry_space_group_name_H-M "C M"
_symmetry_group_IT_number 8
_symmetry_cell_setting 'monoclinic'
loop_
_space_group_symop_operation_xyz
x,y,z
x,-y,z
1/2+x,1/2+y,z
1/2+x,1/2-y,z
loop_
_atom_site_type_symbol
_atom_site_label
_atom_site_fract_x
_atom_site_fract_y
_atom_site_fract_z
Si Si1 0.047600 0.338051 0.650330
Si Si2 0.812807 0.905671 0.336915
Si Si3 0.609511 0.650792 0.603247
Si Si4 0.563909 0.393872 0.033704
Si Si5 0.023219 0.395673 0.960151
Si Si6 0.777986 0.594336 0.972693
Si Si7 0.228588 0.176157 0.423250
Si Si8 0.278076 0.640438 0.624558
O O1 0.116928 0.243729 0.685567
O O2 0.149081 0.389889 0.623364
O O3 0.040441 0.362866 0.811741
O O4 0.881542 0.338790 0.474222
O O5 0.802534 0.912519 0.500238
O O6 0.950775 0.850839 0.414963
O O7 0.834406 0.000000 0.290592
O O8 0.667559 0.870203 0.157460
O O9 0.641485 0.587865 0.758137
O O10 0.709390 0.621265 0.553190
O O11 0.557335 0.500000 0.038374
O O12 0.600067 0.348641 0.214330
O O13 0.704128 0.368435 0.053151
O O14 0.421102 0.360385 0.837842
O O15 0.011610 0.500000 0.944854
O O16 0.895599 0.363596 0.962494
O O17 0.834687 0.500000 0.057351
O O18 0.237007 0.268915 0.510985
#
# Coordination Sequence:
#
# PCOD9132770 Si02
#       8
#     4   4   4   4   4   4   4   4
#     4  11  24  45  65  98 139 179 224 285 349 409
#     4  11  23  42  67  97 136 181 227 278 341 412
#     4  11  22  43  67  95 131 181 230 276 338 413
#     4  11  25  45  73 106 139 183 239 291 345 415
#     4  10  24  42  67 100 134 177 225 280 345 410
#     4  10  20  41  69  96 131 178 226 282 341 406
#     4  11  25  45  67 102 138 183 230 288 349 413
#     4  11  25  45  67 100 140 184 229 288 350 416
#
# _framework density 23.568873
#
# number of rings (size 3 to 8) (size 9 to 14) (size 15 to 20)
#    0.000    1.250    3.750    0.750    3.500    4.500 
#    0.000    0.000    0.000    0.000    0.000    0.000 
#    0.000    0.000    0.000    0.000    0.000    0.000 
#
# Total GULP energy -89143.621681 kJ/mol
# GULP energy per Si atom -5571.476355 kJ/mol
# Density = 2.351523 g / cm^3
# Si number density = 23.568873 Si / 1000 Ang^3
#
#
#
# Elastic Constant Matrix: (Units=GPa)
#
#
# Indices 1 2 3 4 5 6 
#
# 1 151.5145 4.6748 23.8303 0.0000 -9.4642 0.0000
# 2 4.6748 53.4358 23.7245 0.0000 -2.6484 0.0000
# 3 23.8303 23.7245 135.7107 0.0000 -6.0074 0.0000
# 4 0.0000 0.0000 0.0000 32.3200 0.0000 -26.0342
# 5 -9.4642 -2.6484 -6.0074 0.0000 32.2924 0.0000
# 6 0.0000 0.0000 0.0000 -26.0342 0.0000 49.6297
#
#
#
# Elastic Compliance Matrix: (Units=1/GPa)
#
#
# Indices 1 2 3 4 5 6 
#
# 1 0.006891 -0.000012 -0.001128 0.000000 0.001809 0.000000
# 2 -0.000012 0.020322 -0.003506 0.000000 0.001011 0.000000
# 3 -0.001128 -0.003506 0.008220 0.000000 0.000911 0.000000
# 4 0.000000 0.000000 0.000000 0.053581 0.000000 0.028107
# 5 0.001809 0.001011 0.000911 0.000000 0.031750 0.000000
# 6 0.000000 0.000000 0.000000 0.028107 0.000000 0.034893
#
#
# Mechanical properties :
#
#
# Convention : Reuss Voigt Hill
#
# Bulk Modulus (GPa) = 38.25477 49.45778 43.85628
# Shear Modulus (GPa) = 28.79161 42.07718 35.43439
#
# Velocity S-wave (km/s) = 3.49892 4.22985 3.88163
# Velocity P-wave (km/s) = 5.70873 6.69966 6.22395
#
# Compressibility (1/GPa) = 0.02614053
#
# Stress axis : x y z
#
# Youngs Moduli (GPa) = 145.12176 49.20857 121.65720
#
# Poissons Ratio (x) = 0.00061 0.13720
# Poissons Ratio (y) = 0.00181 0.42648
# Poissons Ratio (z) = 0.16366 0.17251
#
# Static dielectric constant tensor:
#      x y z
#    x 1.929100 0.000000 0.021480 
#    y 0.000000 2.043460 0.000000 
#    z 0.021480 0.000000 1.870290 
# 
# From -- ./inp_files/11463.got.cif
#   From: 2010.05.17/outbox.cif.g08.bks.cpg/sg8_6_cif.got.tgz:11463.got - 2010.06.03 19:46:02.
