data_PCOD9132511
_publ_section_title
;
Structure prediction by ZEFSAII (Michael W. Deem and Ramdas Pophale) SiO2 
 PCOD9132511
Probable space group: C M
;
_chemical_formula_sum "Si O2"
_cell_formula_units_Z 32
_cell_length_a 8.667206
_cell_length_b 28.552359
_cell_length_c 11.420725
_cell_angle_alpha 90.000000
_cell_angle_beta 34.114942
_cell_angle_gamma 90.000000
_cell_volume 1585.131604
_symmetry_space_group_name_H-M "C M"
_symmetry_group_IT_number 8
_symmetry_cell_setting 'monoclinic'
loop_
_space_group_symop_operation_xyz
x,y,z
x,-y,z
1/2+x,1/2+y,z
1/2+x,1/2-y,z
loop_
_atom_site_type_symbol
_atom_site_label
_atom_site_fract_x
_atom_site_fract_y
_atom_site_fract_z
Si Si1 0.189210 0.289161 0.739080
Si Si2 0.480665 0.865844 0.473880
Si Si3 0.080798 0.447130 0.238149
Si Si4 0.395881 0.806208 0.144178
Si Si5 0.317567 0.363022 0.496381
Si Si6 0.287118 0.781228 0.460227
Si Si7 0.939053 0.945839 0.578117
Si Si8 0.346223 0.388727 0.873107
O O1 0.127310 0.337557 0.712843
O O2 0.248608 0.253742 0.594238
O O3 0.474090 0.296122 0.629857
O O4 0.967882 0.279086 0.978857
O O5 0.581426 0.912484 0.346975
O O6 0.664645 0.857448 0.470689
O O7 0.480862 0.822582 0.384286
O O8 0.155471 0.871278 0.703387
O O9 0.152053 0.500000 0.224627
O O10 0.769377 0.446194 0.384205
O O11 0.271953 0.426295 0.018261
O O12 0.387416 0.772362 0.263445
O O13 0.107243 0.834565 0.315129
O O14 0.626122 0.846601 0.015892
O O15 0.364531 0.415800 0.510308
O O16 0.838899 0.915930 0.753493
O O17 0.844676 0.000000 0.637389
#
# Coordination Sequence:
#
# PCOD9132511 Si02
#       8
#     4   4   4   4   4   4   4   4
#     4  11  23  42  65  91 130 162 215 267 315 386
#     4  11  23  39  63  91 133 164 204 271 317 373
#     4  10  20  37  63  91 121 168 218 260 314 382
#     4  11  21  42  69  89 123 171 209 263 316 380
#     4  11  23  40  61  93 130 167 210 260 327 375
#     4  11  23  42  63  96 125 164 216 263 323 381
#     4  10  20  36  62  91 125 167 213 267 316 373
#     4  11  18  40  65  90 119 165 216 257 313 378
#
# _framework density 20.187597
#
# number of rings (size 3 to 8) (size 9 to 14) (size 15 to 20)
#    0.000    1.250    5.000    2.625    0.000    4.000 
#    0.000    0.000    0.000    0.000    0.000    0.000 
#    0.000    0.000    0.000    0.000    0.000    0.000 
#
# Total GULP energy -89262.252477 kJ/mol
# GULP energy per Si atom -5578.890780 kJ/mol
# Density = 2.014165 g / cm^3
# Si number density = 20.187597 Si / 1000 Ang^3
#
#
#
# Elastic Constant Matrix: (Units=GPa)
#
#
# Indices 1 2 3 4 5 6 
#
# 1 141.1565 42.8661 42.3107 0.0000 11.3379 0.0000
# 2 42.8661 76.8037 24.3131 0.0000 13.5890 0.0000
# 3 42.3107 24.3131 95.8996 0.0000 25.7031 0.0000
# 4 0.0000 0.0000 0.0000 28.1094 0.0000 5.3918
# 5 11.3379 13.5890 25.7031 0.0000 23.3433 0.0000
# 6 0.0000 0.0000 0.0000 5.3918 0.0000 25.1584
#
#
#
# Elastic Compliance Matrix: (Units=1/GPa)
#
#
# Indices 1 2 3 4 5 6 
#
# 1 0.009328 -0.004435 -0.003502 0.000000 0.001908 0.000000
# 2 -0.004435 0.016901 -0.000381 0.000000 -0.007265 0.000000
# 3 -0.003502 -0.000381 0.016391 0.000000 -0.016125 0.000000
# 4 0.000000 0.000000 0.000000 0.037100 0.000000 -0.007951
# 5 0.001908 -0.007265 -0.016125 0.000000 0.063897 0.000000
# 6 0.000000 0.000000 0.000000 -0.007951 0.000000 0.041452
#
#
# Mechanical properties :
#
#
# Convention : Reuss Voigt Hill
#
# Bulk Modulus (GPa) = 38.48491 59.20440 48.84465
# Shear Modulus (GPa) = 23.76784 28.94688 26.35736
#
# Velocity S-wave (km/s) = 3.43497 3.79079 3.61726
# Velocity P-wave (km/s) = 5.90230 6.96785 6.45709
#
# Compressibility (1/GPa) = 0.02598421
#
# Stress axis : x y z
#
# Youngs Moduli (GPa) = 107.20817 59.16639 61.00779
#
# Poissons Ratio (x) = 0.26239 0.21366
# Poissons Ratio (y) = 0.47545 0.02325
# Poissons Ratio (z) = 0.37547 0.02255
#
# Static dielectric constant tensor:
#      x y z
#    x 1.693470 0.000000 0.026310 
#    y 0.000000 1.760730 0.000000 
#    z 0.026310 0.000000 1.746830 
# 
# From -- ./inp_files/2007.got.cif
#   From: 2010.05.17/outbox.cif.g08.bks.cpg/sg8_2_cif.got.tgz:2007.got - 2010.06.03 19:46:02.
