data_PCOD9132198
_publ_section_title
;
Structure prediction by ZEFSAII (Michael W. Deem and Ramdas Pophale) SiO2 
 PCOD9132198
Probable space group: C M
;
_chemical_formula_sum "Si O2"
_cell_formula_units_Z 32
_cell_length_a 13.385772
_cell_length_b 14.707226
_cell_length_c 17.704799
_cell_angle_alpha 90.000000
_cell_angle_beta 158.658793
_cell_angle_gamma 90.000000
_cell_volume 1268.447667
_symmetry_space_group_name_H-M "C M"
_symmetry_group_IT_number 8
_symmetry_cell_setting 'monoclinic'
loop_
_space_group_symop_operation_xyz
x,y,z
x,-y,z
1/2+x,1/2+y,z
1/2+x,1/2-y,z
loop_
_atom_site_type_symbol
_atom_site_label
_atom_site_fract_x
_atom_site_fract_y
_atom_site_fract_z
Si Si1 0.894230 0.899446 0.048720
Si Si2 0.306895 0.209264 0.259135
Si Si3 0.505152 0.176055 0.642793
Si Si4 0.884552 0.376905 0.774102
Si Si5 0.813062 0.165207 0.704897
Si Si6 0.994790 0.099576 0.357787
Si Si7 0.331235 0.101697 0.128401
Si Si8 0.953436 0.894829 0.596755
O O1 0.119788 0.822367 0.196634
O O2 0.013729 0.000000 0.121197
O O3 0.687009 0.872737 0.834871
O O4 0.699164 0.902576 0.983883
O O5 0.603749 0.164676 0.487633
O O6 0.301919 0.316869 0.244765
O O7 0.234980 0.167180 0.127999
O O8 0.637817 0.145306 0.656940
O O9 0.198498 0.137052 0.436399
O O10 0.498267 0.286179 0.652588
O O11 0.887235 0.269511 0.767359
O O12 0.695472 0.408334 0.571653
O O13 0.720615 0.403203 0.732292
O O14 0.103193 0.114609 0.902796
O O15 0.877527 0.000000 0.261458
O O16 0.656557 0.113936 0.344150
O O17 0.296403 0.000000 0.132586
O O18 0.933097 0.000000 0.618269
#
# Coordination Sequence:
#
# PCOD9132198 Si02
#       8
#     4   4   4   4   4   4   4   4
#     4  11  22  40  68  97 135 179 223 282 345 397
#     4  11  23  42  65 101 139 177 223 280 338 403
#     4  10  19  37  63  93 128 175 224 276 333 398
#     4   9  20  38  65  97 126 174 231 276 331 401
#     4  10  23  39  66  97 134 179 224 278 332 400
#     4  10  20  38  64  93 131 179 224 278 338 395
#     4  11  23  41  67  98 138 182 222 274 344 405
#     4  10  20  37  64  94 133 181 223 276 339 401
#
# _framework density 25.227685000000001
#
# number of rings (size 3 to 8) (size 9 to 14) (size 15 to 20)
#    0.000    1.750    2.500    2.625    0.000    4.500 
#    0.000    0.625    0.000    0.750    0.000    0.000 
#    0.000    0.000    0.000    0.000    0.000    0.000 
#
# Total GULP energy -89263.428534 kJ/mol
# GULP energy per Si atom -5578.964283 kJ/mol
# Density = 2.517027 g / cm^3
# Si number density = 25.227685 Si / 1000 Ang^3
#
#
#
# Elastic Constant Matrix: (Units=GPa)
#
#
# Indices 1 2 3 4 5 6 
#
# 1 48.4835 10.2372 24.4352 -0.0637 20.8978 -0.0590
# 2 10.2372 162.4243 20.3787 -0.0187 17.7461 -0.0516
# 3 24.4352 20.3787 91.4081 0.0119 10.5195 -0.0365
# 4 -0.0637 -0.0187 0.0119 18.5483 0.0071 -16.9667
# 5 20.8978 17.7461 10.5195 0.0071 42.1358 -0.0154
# 6 -0.0590 -0.0516 -0.0365 -16.9667 -0.0154 -2.1574
#
#
#
# Elastic Compliance Matrix: (Units=1/GPa)
#
#
# Indices 1 2 3 4 5 6 
#
# 1 0.029470 0.000391 -0.006449 -0.000055 -0.013171 -0.000181
# 2 0.000391 0.006580 -0.001267 -0.000013 -0.002649 -0.000025
# 3 -0.006449 -0.001267 0.012887 -0.000006 0.000515 0.000029
# 4 -0.000055 -0.000013 -0.000006 0.006580 0.000014 -0.051745
# 5 -0.013171 -0.002649 0.000515 0.000014 0.031252 0.000081
# 6 -0.000181 -0.000025 0.000029 -0.051745 0.000081 -0.056568
#
#
# Mechanical properties :
#
#
# Convention : Reuss Voigt Hill
#
# Bulk Modulus (GPa) = 29.16564 45.82426 37.49495
# Shear Modulus (GPa) = 88.83953 28.18964 58.51459
#
# Velocity S-wave (km/s) = 5.94067 3.34639 4.82130
# Velocity P-wave (km/s) = 7.65777 5.75629 6.77408
#
# Compressibility (1/GPa) = 0.03428692
#
# Stress axis : x y z
#
# Youngs Moduli (GPa) = 33.93271 151.96596 77.59658
#
# Poissons Ratio (x) = -0.05937 0.50045
# Poissons Ratio (y) = -0.01326 0.09829
# Poissons Ratio (z) = 0.21885 0.19249
#
# Static dielectric constant tensor:
#      x y z
#    x 2.057790 0.000000 -0.007990 
#    y 0.000000 1.964980 -0.000060 
#    z -0.007990 -0.000060 2.049190 
# 
# From -- ./inp_files/30942.got.cif
#   From: 2010.05.17/outbox.cif.g08.bks.cpg/sg8_16_cif.got.tgz:30942.got - 2010.06.03 19:46:02.
