data_PCOD9132889
_publ_section_title
;
Structure prediction by ZEFSAII (Michael W. Deem and Ramdas Pophale) SiO2 
 PCOD9132889
Probable space group: C M
;
_chemical_formula_sum "Si O2"
_cell_formula_units_Z 32
_cell_length_a 12.225578
_cell_length_b 20.937910
_cell_length_c 11.145441
_cell_angle_alpha 90.000000
_cell_angle_beta 144.519932
_cell_angle_gamma 90.000000
_cell_volume 1655.930618
_symmetry_space_group_name_H-M "C M"
_symmetry_group_IT_number 8
_symmetry_cell_setting 'monoclinic'
loop_
_space_group_symop_operation_xyz
x,y,z
x,-y,z
1/2+x,1/2+y,z
1/2+x,1/2-y,z
loop_
_atom_site_type_symbol
_atom_site_label
_atom_site_fract_x
_atom_site_fract_y
_atom_site_fract_z
Si Si1 0.751200 0.151884 0.819610
Si Si2 0.674959 0.813555 0.289199
Si Si3 0.189734 0.153825 0.615068
Si Si4 0.549245 0.203002 0.428058
Si Si5 0.318774 0.571901 0.282977
Si Si6 0.625559 0.699886 0.078266
Si Si7 0.092794 0.787598 0.764246
Si Si8 0.527840 0.073006 0.805097
O O1 0.690168 0.158208 0.626550
O O2 0.680418 0.217778 0.818770
O O3 0.638072 0.096904 0.785648
O O4 0.977851 0.155451 0.017000
O O5 0.536350 0.807315 0.275767
O O6 0.710066 0.885553 0.282480
O O7 0.607004 0.771354 0.116364
O O8 0.877292 0.789073 0.522101
O O9 0.125579 0.224624 0.514616
O O10 0.200496 0.163515 0.769793
O O11 0.368506 0.122988 0.708343
O O12 0.013997 0.107649 0.433064
O O13 0.344450 0.187528 0.297233
O O14 0.352449 0.500000 0.353016
O O15 0.188596 0.572141 0.050108
O O16 0.593023 0.698979 0.906141
O O17 0.454404 0.000000 0.727429
#
# Coordination Sequence:
#
# PCOD9132889 Si02
#       8
#     4   4   4   4   4   4   4   4
#     4  11  23  37  61  87 126 159 204 255 312 370
#     4  11  21  38  58  92 126 159 202 250 313 375
#     4  10  22  39  64  91 126 159 203 265 310 368
#     4  11  23  36  59  98 122 153 206 249 321 380
#     4  10  22  39  60  88 120 163 209 251 302 368
#     4  12  22  36  60  91 124 164 187 260 322 362
#     4  10  21  37  59  94 124 153 200 256 319 374
#     4  11  25  42  63  89 123 172 219 254 303 375
#
# _framework density 19.324480000000001
#
# number of rings (size 3 to 8) (size 9 to 14) (size 15 to 20)
#    0.000    1.250    5.000    2.625    8.750    0.000 
#    0.000    0.625    0.000    0.750    0.000    0.000 
#    0.000    0.000    0.000    0.000    0.000    0.000 
#
# Total GULP energy -89272.863694 kJ/mol
# GULP energy per Si atom -5579.553981 kJ/mol
# Density = 1.928050 g / cm^3
# Si number density = 19.324480 Si / 1000 Ang^3
#
#
#
# Elastic Constant Matrix: (Units=GPa)
#
#
# Indices 1 2 3 4 5 6 
#
# 1 108.7735 41.5936 30.3624 0.0000 6.2746 0.0000
# 2 41.5936 68.3552 32.7150 0.0000 0.2647 0.0000
# 3 30.3624 32.7150 63.3964 0.0000 7.9189 0.0000
# 4 0.0000 0.0000 0.0000 17.2675 0.0000 4.0243
# 5 6.2746 0.2647 7.9189 0.0000 33.2689 0.0000
# 6 0.0000 0.0000 0.0000 4.0243 0.0000 16.8562
#
#
#
# Elastic Compliance Matrix: (Units=1/GPa)
#
#
# Indices 1 2 3 4 5 6 
#
# 1 0.012412 -0.006379 -0.002439 0.000000 -0.001710 0.000000
# 2 -0.006379 0.022878 -0.009151 0.000000 0.003199 0.000000
# 3 -0.002439 -0.009151 0.022259 0.000000 -0.004765 0.000000
# 4 0.000000 0.000000 0.000000 0.061324 0.000000 -0.014641
# 5 -0.001710 0.003199 -0.004765 0.000000 0.031489 0.000000
# 6 0.000000 0.000000 0.000000 -0.014641 0.000000 0.062821
#
#
# Mechanical properties :
#
#
# Convention : Reuss Voigt Hill
#
# Bulk Modulus (GPa) = 46.27001 49.98523 48.12762
# Shear Modulus (GPa) = 19.50648 22.53545 21.02096
#
# Velocity S-wave (km/s) = 3.18058 3.41861 3.30174
# Velocity P-wave (km/s) = 6.12240 6.44244 6.28446
#
# Compressibility (1/GPa) = 0.02161227
#
# Stress axis : x y z
#
# Youngs Moduli (GPa) = 80.56717 43.71037 44.92485
#
# Poissons Ratio (x) = 0.27881 0.10959
# Poissons Ratio (y) = 0.51390 0.41109
# Poissons Ratio (z) = 0.19653 0.39998
#
# Static dielectric constant tensor:
#      x y z
#    x 1.732790 0.000000 0.023680 
#    y 0.000000 1.657000 0.000000 
#    z 0.023680 0.000000 1.739630 
# 
# From -- ./inp_files/20858.got.cif
#   From: 2010.05.17/outbox.cif.g08.bks.cpg/sg8_11_cif.got.tgz:20858.got - 2010.06.03 19:46:02.
