data_PCOD9132546
_publ_section_title
;
Structure prediction by ZEFSAII (Michael W. Deem and Ramdas Pophale) SiO2 
 PCOD9132546
Probable space group: C M
;
_chemical_formula_sum "Si O2"
_cell_formula_units_Z 24
_cell_length_a 13.904092
_cell_length_b 14.490856
_cell_length_c 9.701057
_cell_angle_alpha 90.000000
_cell_angle_beta 151.043329
_cell_angle_gamma 90.000000
_cell_volume 946.311091
_symmetry_space_group_name_H-M "C M"
_symmetry_group_IT_number 8
_symmetry_cell_setting 'monoclinic'
loop_
_space_group_symop_operation_xyz
x,y,z
x,-y,z
1/2+x,1/2+y,z
1/2+x,1/2-y,z
loop_
_atom_site_type_symbol
_atom_site_label
_atom_site_fract_x
_atom_site_fract_y
_atom_site_fract_z
Si Si1 0.472360 0.098284 0.760750
Si Si2 0.371200 0.102052 0.313456
Si Si3 0.913588 0.105710 0.651084
Si Si4 0.986125 0.191256 0.441940
Si Si5 0.881319 0.247474 0.823626
Si Si6 0.499596 0.400832 0.191137
O O1 0.459046 0.106956 0.579287
O O2 0.530905 0.186197 0.925981
O O3 0.236656 0.092870 0.500596
O O4 0.563093 0.000000 0.913792
O O5 0.428486 0.203405 0.333728
O O6 0.435495 0.000000 0.338819
O O7 0.132399 0.100521 0.997385
O O8 0.942959 0.151218 0.537897
O O9 0.794476 0.178503 0.596540
O O10 0.839229 0.000000 0.551555
O O11 0.222656 0.194699 0.711961
O O12 0.905205 0.125498 0.219280
O O13 0.968005 0.179239 0.044155
O O14 0.423524 0.500000 0.046955
#
# Coordination Sequence:
#
# PCOD9132546 Si02
#       6
#     4   4   4   4   4   4
#     4   9  18  35  59  83 110 151 193 233 286 349
#     4  10  20  37  59  83 116 155 192 235 292 353
#     4  11  22  39  63  87 117 159 203 239 289 361
#     4  11  23  38  58  92 120 151 195 253 294 341
#     4  11  21  36  62  90 113 154 199 248 289 347
#     4  10  20  37  59  83 116 154 192 236 294 353
#
# _framework density 25.361637999999999
#
# number of rings (size 3 to 8) (size 9 to 14) (size 15 to 20)
#    0.000    1.667    3.333    2.000    0.000    2.000 
#    0.000    0.833    0.000    7.000    0.000    0.000 
#    0.000    0.000    0.000    0.000    0.000    0.000 
#
# Total GULP energy -67020.734694 kJ/mol
# GULP energy per Si atom -5585.061225 kJ/mol
# Density = 2.530391 g / cm^3
# Si number density = 25.361638 Si / 1000 Ang^3
#
#
#
# Elastic Constant Matrix: (Units=GPa)
#
#
# Indices 1 2 3 4 5 6 
#
# 1 64.2833 20.6510 25.2403 0.0000 -22.3308 0.0000
# 2 20.6510 164.2907 36.5890 0.0000 -21.1962 0.0000
# 3 25.2403 36.5890 85.3083 0.0000 -15.6798 0.0000
# 4 0.0000 0.0000 0.0000 33.6851 0.0000 -3.2470
# 5 -22.3308 -21.1962 -15.6798 0.0000 26.8874 0.0000
# 6 0.0000 0.0000 0.0000 -3.2470 0.0000 34.7982
#
#
#
# Elastic Compliance Matrix: (Units=1/GPa)
#
#
# Indices 1 2 3 4 5 6 
#
# 1 0.022846 0.000137 -0.003708 0.000000 0.016920 0.000000
# 2 0.000137 0.007150 -0.002296 0.000000 0.004411 0.000000
# 3 -0.003708 -0.002296 0.014455 0.000000 0.003539 0.000000
# 4 0.000000 0.000000 0.000000 0.029956 0.000000 0.002795
# 5 0.016920 0.004411 0.003539 0.000000 0.056786 0.000000
# 6 0.000000 0.000000 0.000000 0.002795 0.000000 0.028998
#
#
# Mechanical properties :
#
#
# Convention : Reuss Voigt Hill
#
# Bulk Modulus (GPa) = 30.56680 53.20477 41.88579
# Shear Modulus (GPa) = 27.34762 34.50093 30.92428
#
# Velocity S-wave (km/s) = 3.28732 3.69231 3.49568
# Velocity P-wave (km/s) = 5.14657 6.26111 5.73100
#
# Compressibility (1/GPa) = 0.03271523
#
# Stress axis : x y z
#
# Youngs Moduli (GPa) = 43.77200 139.85788 69.18075
#
# Poissons Ratio (x) = -0.01918 0.25655
# Poissons Ratio (y) = -0.00600 0.15887
# Poissons Ratio (z) = 0.16232 0.32118
#
# Static dielectric constant tensor:
#      x y z
#    x 2.014600 0.000000 0.057160 
#    y 0.000000 2.081220 0.000000 
#    z 0.057160 0.000000 2.044010 
# 
# From -- ./inp_files/10518.got.cif
#   From: 2010.05.17/outbox.cif.g08.bks.cpg/sg8_6_cif.got.tgz:10518.got - 2010.06.03 19:46:02.
