data_PCOD9132544
_publ_section_title
;
Structure prediction by ZEFSAII (Michael W. Deem and Ramdas Pophale) SiO2 
 PCOD9132544
Probable space group: C M
;
_chemical_formula_sum "Si O2"
_cell_formula_units_Z 24
_cell_length_a 18.839452
_cell_length_b 9.108572
_cell_length_c 20.435894
_cell_angle_alpha 90.000000
_cell_angle_beta 22.829563
_cell_angle_gamma 90.000000
_cell_volume 1360.611281
_symmetry_space_group_name_H-M "C M"
_symmetry_group_IT_number 8
_symmetry_cell_setting 'monoclinic'
loop_
_space_group_symop_operation_xyz
x,y,z
x,-y,z
1/2+x,1/2+y,z
1/2+x,1/2-y,z
loop_
_atom_site_type_symbol
_atom_site_label
_atom_site_fract_x
_atom_site_fract_y
_atom_site_fract_z
Si Si1 0.525140 0.673284 0.446950
Si Si2 0.473493 0.325294 0.751021
Si Si3 0.335854 0.332941 0.245666
Si Si4 0.457779 0.167026 0.630502
Si Si5 0.362610 0.674980 0.441839
Si Si6 0.135369 0.823262 0.091763
O O1 0.521170 0.500000 0.463342
O O2 0.733016 0.732713 0.280224
O O3 0.411928 0.758309 0.599869
O O4 0.448400 0.701711 0.440445
O O5 0.471868 0.500000 0.752943
O O6 0.414990 0.263011 0.729544
O O7 0.675773 0.263727 0.592562
O O8 0.327648 0.258105 0.925461
O O9 0.358855 0.500000 0.202002
O O10 0.517882 0.282005 0.126816
O O11 0.179919 0.339390 0.435137
O O12 0.390204 0.000000 0.693723
O O13 0.323231 0.500000 0.469540
O O14 0.511612 0.712321 0.259760
O O15 0.160791 0.000000 0.068545
#
# Coordination Sequence:
#
# PCOD9132544 Si02
#       6
#     4   4   4   4   4   4
#     4   9  17  30  56  86 110 142 182 227 276 324
#     4  12  24  35  55  86 114 144 186 235 278 321
#     4   8  16  32  56  79 103 142 184 219 268 326
#     4   9  17  34  56  78 106 142 182 220 270 328
#     4  10  20  38  60  81 112 152 185 221 276 335
#     4  10  20  37  59  80 107 148 191 226 272 334
#
# _framework density 17.639130999999999
#
# number of rings (size 3 to 8) (size 9 to 14) (size 15 to 20)
#    1.000    1.333    1.667    2.000    0.000    2.667 
#    0.000    1.667    0.000    6.000    0.000    0.000 
#    0.000    0.000    0.000    0.000    0.000    0.000 
#
# Total GULP energy -66804.368952 kJ/mol
# GULP energy per Si atom -5567.030746 kJ/mol
# Density = 1.759898 g / cm^3
# Si number density = 17.639131 Si / 1000 Ang^3
#
#
#
# Elastic Constant Matrix: (Units=GPa)
#
#
# Indices 1 2 3 4 5 6 
#
# 1 102.5440 71.4801 50.9372 -0.0001 9.8821 0.0000
# 2 71.4801 101.1327 63.5243 0.0020 0.9098 -0.0003
# 3 50.9372 63.5243 106.6093 0.0014 -2.7705 -0.0002
# 4 -0.0001 0.0020 0.0014 17.1159 -0.0002 -1.7726
# 5 9.8821 0.9098 -2.7705 -0.0002 9.7165 0.0000
# 6 0.0000 -0.0003 -0.0002 -1.7726 0.0000 26.6984
#
#
#
# Elastic Compliance Matrix: (Units=1/GPa)
#
#
# Indices 1 2 3 4 5 6 
#
# 1 0.023847 -0.014534 -0.003354 0.000002 -0.023849 0.000000
# 2 -0.014534 0.024832 -0.007585 -0.000002 0.010294 0.000000
# 3 -0.003354 -0.007585 0.015725 0.000000 0.008605 0.000000
# 4 0.000002 -0.000002 0.000000 0.058830 -0.000001 0.003906
# 5 -0.023849 0.010294 0.008605 -0.000001 0.128663 0.000000
# 6 0.000000 0.000000 0.000000 0.003906 0.000000 0.037715
#
#
# Mechanical properties :
#
#
# Convention : Reuss Voigt Hill
#
# Bulk Modulus (GPa) = 74.29349 75.79659 75.04504
# Shear Modulus (GPa) = 14.49087 18.99578 16.74332
#
# Velocity S-wave (km/s) = 2.86932 3.28519 3.08428
# Velocity P-wave (km/s) = 7.29297 7.57984 7.43779
#
# Compressibility (1/GPa) = 0.01346013
#
# Stress axis : x y z
#
# Youngs Moduli (GPa) = 41.93323 40.27011 63.59145
#
# Poissons Ratio (x) = 0.58530 0.21326
# Poissons Ratio (y) = 0.60947 0.48232
# Poissons Ratio (z) = 0.14062 0.30544
#
# Static dielectric constant tensor:
#      x y z
#    x 1.601160 0.000000 0.001140 
#    y 0.000000 1.592050 0.000000 
#    z 0.001140 0.000000 1.617140 
# 
# From -- ./inp_files/15499.got.cif
#   From: 2010.05.17/outbox.cif.g08.bks.cpg/sg8_8_cif.got.tgz:15499.got - 2010.06.03 19:46:02.
