data_PCOD9132814
_publ_section_title
;
Structure prediction by ZEFSAII (Michael W. Deem and Ramdas Pophale) SiO2 
 PCOD9132814
Probable space group: C M
;
_chemical_formula_sum "Si O2"
_cell_formula_units_Z 28
_cell_length_a 22.174150
_cell_length_b 10.264631
_cell_length_c 5.747668
_cell_angle_alpha 90.000000
_cell_angle_beta 80.046655
_cell_angle_gamma 90.000000
_cell_volume 1288.533350
_symmetry_space_group_name_H-M "C M"
_symmetry_group_IT_number 8
_symmetry_cell_setting 'monoclinic'
loop_
_space_group_symop_operation_xyz
x,y,z
x,-y,z
1/2+x,1/2+y,z
1/2+x,1/2-y,z
loop_
_atom_site_type_symbol
_atom_site_label
_atom_site_fract_x
_atom_site_fract_y
_atom_site_fract_z
Si Si1 0.998380 0.641151 0.537460
Si Si2 0.703645 0.152862 0.399982
Si Si3 0.144027 0.660216 0.944611
Si Si4 0.043159 0.849809 0.838601
Si Si5 0.326349 0.643362 0.553842
Si Si6 0.932769 0.231000 0.198250
Si Si7 0.863520 0.357456 0.864812
O O1 0.028871 0.500000 0.549329
O O2 0.977883 0.667094 0.290234
O O3 0.932527 0.637357 0.710579
O O4 0.035804 0.763204 0.609614
O O5 0.678871 0.197192 0.163508
O O6 0.776269 0.169289 0.388742
O O7 0.690980 0.000000 0.400092
O O8 0.676717 0.191967 0.673023
O O9 0.132717 0.500000 0.955416
O O10 0.086379 0.758241 0.967156
O O11 0.062974 0.000000 0.795232
O O12 0.975191 0.849760 0.997259
O O13 0.312495 0.500000 0.660894
O O14 0.395311 0.646255 0.407510
O O15 0.325254 0.752250 0.750731
O O16 0.879598 0.312246 0.110450
O O17 0.836070 0.500000 0.869575
#
# Coordination Sequence:
#
# PCOD9132814 Si02
#       7
#     4   4   4   4   4   4   4
#     4   9  19  36  57  82 115 159 207 251 298 364
#     4   9  21  41  68  95 122 160 220 274 313 365
#     4  10  22  43  67  93 121 166 222 270 311 368
#     4  11  24  39  58  90 129 163 200 256 321 389
#     4  10  21  37  62  92 123 160 201 258 318 375
#     4  10  21  35  60  91 125 160 204 249 316 378
#     4   9  19  35  54  83 121 160 200 246 301 369
#
# _framework density 21.730129000000002
#
# number of rings (size 3 to 8) (size 9 to 14) (size 15 to 20)
#    0.000    2.286    0.000    1.286    4.000    8.571 
#    0.000    1.429    0.000    0.000    0.000    0.000 
#    0.000    0.000    0.000    0.000    0.000    0.000 
#
# Total GULP energy -77965.804523 kJ/mol
# GULP energy per Si atom -5568.986037 kJ/mol
# Density = 2.168067 g / cm^3
# Si number density = 21.730129 Si / 1000 Ang^3
#
#
#
# Elastic Constant Matrix: (Units=GPa)
#
#
# Indices 1 2 3 4 5 6 
#
# 1 70.0333 40.9119 32.8255 0.0000 15.4598 0.0000
# 2 40.9119 163.2772 46.5042 0.0000 30.2882 0.0000
# 3 32.8255 46.5042 99.9389 0.0000 25.9279 0.0000
# 4 0.0000 0.0000 0.0000 9.9510 0.0000 7.9650
# 5 15.4598 30.2882 25.9279 0.0000 47.7134 0.0000
# 6 0.0000 0.0000 0.0000 7.9650 0.0000 22.6164
#
#
#
# Elastic Compliance Matrix: (Units=1/GPa)
#
#
# Indices 1 2 3 4 5 6 
#
# 1 0.018427 -0.003112 -0.004154 0.000000 -0.001738 0.000000
# 2 -0.003112 0.008014 -0.001919 0.000000 -0.003036 0.000000
# 3 -0.004154 -0.001919 0.013502 0.000000 -0.004773 0.000000
# 4 0.000000 0.000000 0.000000 0.139939 0.000000 -0.049283
# 5 -0.001738 -0.003036 -0.004773 0.000000 0.026042 0.000000
# 6 0.000000 0.000000 0.000000 -0.049283 0.000000 0.061572
#
#
# Mechanical properties :
#
#
# Convention : Reuss Voigt Hill
#
# Bulk Modulus (GPa) = 46.35305 63.74807 55.05056
# Shear Modulus (GPa) = 17.06146 30.25667 23.65906
#
# Velocity S-wave (km/s) = 2.80510 3.73551 3.30323
# Velocity P-wave (km/s) = 5.64526 6.92859 6.31959
#
# Compressibility (1/GPa) = 0.02157355
#
# Stress axis : x y z
#
# Youngs Moduli (GPa) = 54.26720 124.77916 74.06430
#
# Poissons Ratio (x) = 0.38829 0.30763
# Poissons Ratio (y) = 0.16887 0.14216
# Poissons Ratio (z) = 0.22540 0.23951
#
# Static dielectric constant tensor:
#      x y z
#    x 1.837350 0.000000 -0.058810 
#    y 0.000000 1.782480 0.000000 
#    z -0.058810 0.000000 1.914610 
# 
# From -- ./inp_files/5389.got.cif
#   From: 2010.05.17/outbox.cif.g08.bks.cpg/sg8_3_cif.got.tgz:5389.got - 2010.06.03 19:46:02.
