data_PCOD9132443
_publ_section_title
;
Structure prediction by ZEFSAII (Michael W. Deem and Ramdas Pophale) SiO2 
 PCOD9132443
Probable space group: C M
;
_chemical_formula_sum "Si O2"
_cell_formula_units_Z 32
_cell_length_a 14.590759
_cell_length_b 8.883828
_cell_length_c 28.484517
_cell_angle_alpha 90.000000
_cell_angle_beta 28.271330
_cell_angle_gamma 90.000000
_cell_volume 1748.808277
_symmetry_space_group_name_H-M "C M"
_symmetry_group_IT_number 8
_symmetry_cell_setting 'monoclinic'
loop_
_space_group_symop_operation_xyz
x,y,z
x,-y,z
1/2+x,1/2+y,z
1/2+x,1/2-y,z
loop_
_atom_site_type_symbol
_atom_site_label
_atom_site_fract_x
_atom_site_fract_y
_atom_site_fract_z
Si Si1 0.428760 0.824151 0.680390
Si Si2 0.354765 0.680086 0.059220
Si Si3 0.757443 0.174797 0.463870
Si Si4 0.175634 0.821563 0.405183
Si Si5 0.459665 0.320248 0.205659
Si Si6 0.600345 0.319113 0.039165
Si Si7 0.996398 0.820835 0.890426
Si Si8 0.305068 0.177586 0.537374
O O1 0.532265 0.819256 0.582740
O O2 0.210399 0.767792 0.779672
O O3 0.582996 0.732941 0.642306
O O4 0.428989 0.000000 0.694980
O O5 0.314798 0.500000 0.081042
O O6 0.154759 0.769099 0.144374
O O7 0.481515 0.727152 0.046754
O O8 0.466217 0.704264 0.959765
O O9 0.776378 0.245994 0.404702
O O10 0.855365 0.270624 0.461164
O O11 0.816974 0.000000 0.438485
O O12 0.284497 0.762850 0.309938
O O13 0.955422 0.764142 0.501998
O O14 0.183679 0.000000 0.404842
O O15 0.434286 0.500000 0.220020
O O16 0.491906 0.276972 0.136609
O O17 0.613955 0.500000 0.032411
O O18 0.816409 0.254188 0.945282
O O19 0.986916 0.000000 0.886387
O O20 0.322413 0.000000 0.535067
#
# Coordination Sequence:
#
# PCOD9132443 Si02
#       8
#     4   4   4   4   4   4   4   4
#     4   8  17  35  55  77 112 148 179 225 274 318
#     4   9  18  35  56  79 107 140 178 220 268 326
#     4   9  19  37  56  77 110 143 181 228 273 321
#     4  12  23  37  57  81 108 145 189 229 277 330
#     4  10  21  36  54  77 108 141 177 226 278 325
#     4   9  19  35  54  79 109 139 177 223 267 321
#     4   9  17  33  56  79 109 144 177 217 268 320
#     4  10  20  36  56  79 109 146 184 226 273 321
#
# _framework density 18.298173999999999
#
# number of rings (size 3 to 8) (size 9 to 14) (size 15 to 20)
#    0.750    1.750    0.000    2.625    0.000    2.500 
#    2.250    3.750    0.000    0.000    0.000    0.000 
#    0.000    0.000    0.000    0.000    0.000    0.000 
#
# Total GULP energy -89137.149700 kJ/mol
# GULP energy per Si atom -5571.071856 kJ/mol
# Density = 1.825653 g / cm^3
# Si number density = 18.298174 Si / 1000 Ang^3
#
#
#
# Elastic Constant Matrix: (Units=GPa)
#
#
# Indices 1 2 3 4 5 6 
#
# 1 75.3642 2.3755 -2.1948 0.0001 -5.8410 0.0000
# 2 2.3755 52.5368 12.7143 0.0000 1.2994 0.0000
# 3 -2.1948 12.7143 43.9496 0.0000 -6.2625 0.0001
# 4 0.0001 0.0000 0.0000 26.4694 0.0000 -4.7761
# 5 -5.8410 1.2994 -6.2625 0.0000 10.5274 0.0000
# 6 0.0000 0.0000 0.0001 -4.7761 0.0000 23.8534
#
#
#
# Elastic Compliance Matrix: (Units=1/GPa)
#
#
# Indices 1 2 3 4 5 6 
#
# 1 0.014124 -0.001475 0.002485 0.000000 0.009497 0.000000
# 2 -0.001475 0.021051 -0.007266 0.000000 -0.007739 0.000000
# 3 0.002485 -0.007266 0.027647 0.000000 0.018722 0.000000
# 4 0.000000 0.000000 0.000000 0.039196 0.000000 0.007848
# 5 0.009497 -0.007739 0.018722 0.000000 0.112352 0.000000
# 6 0.000000 0.000000 0.000000 0.007848 0.000000 0.043494
#
#
# Mechanical properties :
#
#
# Convention : Reuss Voigt Hill
#
# Bulk Modulus (GPa) = 19.87676 21.96005 20.91841
# Shear Modulus (GPa) = 17.41279 22.76710 20.08994
#
# Velocity S-wave (km/s) = 3.08817 3.53119 3.31708
# Velocity P-wave (km/s) = 4.85819 5.35285 5.11151
#
# Compressibility (1/GPa) = 0.05031002
#
# Stress axis : x y z
#
# Youngs Moduli (GPa) = 70.80248 47.50389 36.16982
#
# Poissons Ratio (x) = 0.07007 -0.08989
# Poissons Ratio (y) = 0.10443 0.26282
# Poissons Ratio (z) = -0.17596 0.34518
#
# Static dielectric constant tensor:
#      x y z
#    x 1.627960 0.000000 0.002740 
#    y 0.000000 1.609660 0.000000 
#    z 0.002740 0.000000 1.643520 
# 
# From -- ./inp_files/28388.got.cif
#   From: 2010.05.17/outbox.cif.g08.bks.cpg/sg8_15_cif.got.tgz:28388.got - 2010.06.03 19:46:02.
