data_PCOD9132393
_publ_section_title
;
Structure prediction by ZEFSAII (Michael W. Deem and Ramdas Pophale) SiO2 
 PCOD9132393
Probable space group: C M
;
_chemical_formula_sum "Si O2"
_cell_formula_units_Z 30
_cell_length_a 5.049570
_cell_length_b 31.347830
_cell_length_c 8.803213
_cell_angle_alpha 90.000000
_cell_angle_beta 62.625644
_cell_angle_gamma 90.000000
_cell_volume 1237.446574
_symmetry_space_group_name_H-M "C M"
_symmetry_group_IT_number 8
_symmetry_cell_setting 'monoclinic'
loop_
_space_group_symop_operation_xyz
x,y,z
x,-y,z
1/2+x,1/2+y,z
1/2+x,1/2-y,z
loop_
_atom_site_type_symbol
_atom_site_label
_atom_site_fract_x
_atom_site_fract_y
_atom_site_fract_z
Si Si1 0.860720 0.000000 0.036240
Si Si2 0.671075 0.074793 0.918952
Si Si3 0.403082 0.220810 0.697547
Si Si4 0.297832 0.725054 0.291086
Si Si5 0.753355 0.858957 0.142287
Si Si6 0.557421 0.434375 0.220453
Si Si7 0.659657 0.387948 0.465133
Si Si8 0.005316 0.627600 0.680080
O O1 0.842416 0.036463 0.178978
O O2 0.904480 0.038166 0.895438
O O3 0.556008 0.090010 0.787414
O O4 0.760606 0.118897 0.977344
O O5 0.383581 0.052999 0.076070
O O6 0.105494 0.246815 0.739800
O O7 0.371695 0.172904 0.770378
O O8 0.575736 0.213439 0.489721
O O9 0.125229 0.765505 0.267044
O O10 0.312245 0.689778 0.157720
O O11 0.424882 0.868269 0.295924
O O12 0.979098 0.886958 0.184073
O O13 0.567243 0.431266 0.399431
O O14 0.352141 0.362049 0.548239
O O15 0.805734 0.389139 0.592981
#
# Coordination Sequence:
#
# PCOD9132393 Si02
#       8
#     2   4   4   4   4   4   4   4
#     4  10  22  46  68 100 126 170 220 258 332 410
#     4  10  25  41  71  93 133 175 211 260 335 403
#     4  10  20  35  57  89 127 172 220 267 320 376
#     4  10  21  32  57  91 126 166 218 275 315 357
#     4  10  21  41  64  96 126 174 221 264 316 392
#     4  10  21  43  72  94 126 169 218 266 321 397
#     4  11  22  39  68  96 130 166 221 271 316 378
#     4  12  24  41  65  99 135 175 215 272 327 383
#
# _framework density 24.243473999999999
#
# number of rings (size 3 to 8) (size 9 to 14) (size 15 to 20)
#    0.000    1.600    2.667    1.200   11.200    0.000 
#    0.000    2.667    0.000    0.000    0.000    0.000 
#    0.000    0.000    0.000    0.000    0.000    0.000 
#
# Total GULP energy -83508.900343 kJ/mol
# GULP energy per Si atom -5567.260023 kJ/mol
# Density = 2.418829 g / cm^3
# Si number density = 24.243474 Si / 1000 Ang^3
#
#
#
# Elastic Constant Matrix: (Units=GPa)
#
#
# Indices 1 2 3 4 5 6 
#
# 1 111.3959 8.8903 32.1456 0.0000 37.1046 0.0000
# 2 8.8903 91.9035 32.5489 0.0000 28.8722 0.0000
# 3 32.1456 32.5489 57.3615 0.0000 26.6101 0.0000
# 4 0.0000 0.0000 0.0000 13.2837 0.0000 33.3655
# 5 37.1046 28.8722 26.6101 0.0000 49.1288 0.0000
# 6 0.0000 0.0000 0.0000 33.3655 0.0000 132.1520
#
#
#
# Elastic Compliance Matrix: (Units=1/GPa)
#
#
# Indices 1 2 3 4 5 6 
#
# 1 0.013258 0.003429 -0.005069 0.000000 -0.009283 0.000000
# 2 0.003429 0.015533 -0.007078 0.000000 -0.007885 0.000000
# 3 -0.005069 -0.007078 0.027493 0.000000 -0.006903 0.000000
# 4 0.000000 0.000000 0.000000 0.205776 0.000000 -0.051954
# 5 -0.009283 -0.007885 -0.006903 0.000000 0.035738 0.000000
# 6 0.000000 0.000000 0.000000 -0.051954 0.000000 0.020684
#
#
# Mechanical properties :
#
#
# Convention : Reuss Voigt Hill
#
# Bulk Modulus (GPa) = 25.74175 45.31449 35.52812
# Shear Modulus (GPa) = 14.33205 51.38464 32.85835
#
# Velocity S-wave (km/s) = 2.43404 4.60882 3.68550
# Velocity P-wave (km/s) = 4.30586 6.85957 5.72687
#
# Compressibility (1/GPa) = 0.03884740
#
# Stress axis : x y z
#
# Youngs Moduli (GPa) = 75.42518 64.37877 36.37314
#
# Poissons Ratio (x) = -0.22076 0.18439
# Poissons Ratio (y) = -0.25864 0.25745
# Poissons Ratio (z) = 0.38237 0.45567
#
# Static dielectric constant tensor:
#      x y z
#    x 2.020000 0.000000 -0.022950 
#    y 0.000000 1.828910 0.000000 
#    z -0.022950 0.000000 2.044870 
# 
# From -- ./inp_files/7188.got.cif
#   From: 2010.05.17/outbox.cif.g08.bks.cpg/sg8_4_cif.got.tgz:7188.got - 2010.06.03 19:46:02.
