data_PCOD9132024
_publ_section_title
;
Structure prediction by ZEFSAII (Michael W. Deem and Ramdas Pophale) SiO2 
 PCOD9132024
Probable space group: C M
;
_chemical_formula_sum "Si O2"
_cell_formula_units_Z 32
_cell_length_a 20.627540
_cell_length_b 8.201917
_cell_length_c 21.603461
_cell_angle_alpha 90.000000
_cell_angle_beta 23.747747
_cell_angle_gamma 90.000000
_cell_volume 1471.903396
_symmetry_space_group_name_H-M "C M"
_symmetry_group_IT_number 8
_symmetry_cell_setting 'monoclinic'
loop_
_space_group_symop_operation_xyz
x,y,z
x,-y,z
1/2+x,1/2+y,z
1/2+x,1/2-y,z
loop_
_atom_site_type_symbol
_atom_site_label
_atom_site_fract_x
_atom_site_fract_y
_atom_site_fract_z
Si Si1 0.663530 0.185704 0.541470
Si Si2 0.877941 0.315388 0.691198
Si Si3 0.448998 0.313298 0.833173
Si Si4 0.859197 0.686613 0.263830
Si Si5 0.860593 0.815656 0.581073
Si Si6 0.697296 0.685527 0.960541
Si Si7 0.212555 0.198930 0.260616
Si Si8 0.496242 0.810485 0.920047
O O1 0.509961 0.183371 0.629612
O O2 0.603467 0.250323 0.659680
O O3 0.777407 0.300110 0.402142
O O4 0.723229 0.000000 0.494689
O O5 0.870527 0.500000 0.671984
O O6 0.909055 0.187367 0.611118
O O7 0.719267 0.273704 0.868793
O O8 0.470335 0.500000 0.832792
O O9 0.418168 0.207023 0.920599
O O10 0.301382 0.296747 0.914564
O O11 0.907228 0.500000 0.209637
O O12 0.755881 0.741241 0.294194
O O13 0.012365 0.799564 0.135345
O O14 0.678809 0.741309 0.747059
O O15 0.027967 0.745270 0.405695
O O16 0.840147 0.000000 0.574771
O O17 0.754871 0.500000 0.918892
O O18 0.206060 0.000000 0.262173
O O19 0.362872 0.254258 0.085727
O O20 0.522445 0.000000 0.914040
#
# Coordination Sequence:
#
# PCOD9132024 Si02
#       8
#     4   4   4   4   4   4   4   4
#     4  10  20  36  58  84 117 156 191 233 296 359
#     4   9  18  32  53  81 114 148 187 235 290 351
#     4  11  23  41  61  82 111 152 202 255 302 348
#     4  11  20  34  58  92 125 152 191 244 297 352
#     4  10  19  34  58  85 115 156 198 239 296 357
#     4  10  21  37  57  84 117 155 196 240 298 366
#     4   9  19  35  57  89 122 153 195 243 292 358
#     4  10  21  39  60  81 115 160 204 245 293 361
#
# _framework density 21.740556999999999
#
# number of rings (size 3 to 8) (size 9 to 14) (size 15 to 20)
#    0.000    2.000    1.250    3.750    0.000    4.000 
#    2.250    1.875    0.000    0.000    0.000    0.000 
#    0.000    0.000    0.000    0.000    0.000    0.000 
#
# Total GULP energy -89087.666082 kJ/mol
# GULP energy per Si atom -5567.979130 kJ/mol
# Density = 2.169107 g / cm^3
# Si number density = 21.740557 Si / 1000 Ang^3
#
#
#
# Elastic Constant Matrix: (Units=GPa)
#
#
# Indices 1 2 3 4 5 6 
#
# 1 25.9208 0.4263 20.4464 0.0000 10.8944 0.0000
# 2 0.4263 36.8568 6.3155 0.0005 -3.9001 -0.0002
# 3 20.4464 6.3155 132.2240 0.0000 0.0318 0.0001
# 4 0.0000 0.0005 0.0000 17.5088 0.0000 2.9074
# 5 10.8944 -3.9001 0.0318 0.0000 30.6374 0.0000
# 6 0.0000 -0.0002 0.0001 2.9074 0.0000 19.0312
#
#
#
# Elastic Compliance Matrix: (Units=1/GPa)
#
#
# Indices 1 2 3 4 5 6 
#
# 1 0.052997 -0.001229 -0.008132 0.000000 -0.018993 0.000000
# 2 -0.001229 0.027761 -0.001137 -0.000001 0.003972 0.000000
# 3 -0.008132 -0.001137 0.008874 0.000000 0.002738 0.000000
# 4 0.000000 -0.000001 0.000000 0.058601 0.000000 -0.008953
# 5 -0.018993 0.003972 0.002738 0.000000 0.039897 0.000000
# 6 0.000000 0.000000 0.000000 -0.008953 0.000000 0.053913
#
#
# Mechanical properties :
#
#
# Convention : Reuss Voigt Hill
#
# Bulk Modulus (GPa) = 14.56962 27.70866 21.13914
# Shear Modulus (GPa) = 17.48759 24.62303 21.05531
#
# Velocity S-wave (km/s) = 2.83923 3.36904 3.11542
# Velocity P-wave (km/s) = 4.17905 5.28268 4.76294
#
# Compressibility (1/GPa) = 0.06863596
#
# Stress axis : x y z
#
# Youngs Moduli (GPa) = 18.86916 36.02130 112.68837
#
# Poissons Ratio (x) = 0.04428 0.91636
# Poissons Ratio (y) = 0.02320 0.12811
# Poissons Ratio (z) = 0.15344 0.04095
#
# Static dielectric constant tensor:
#      x y z
#    x 1.786950 0.000000 -0.017280 
#    y 0.000000 1.767160 0.000000 
#    z -0.017280 0.000000 1.912350 
# 
# From -- ./inp_files/32391.got.cif
#   From: 2010.05.17/outbox.cif.g08.bks.cpg/sg8_17_cif.got.tgz:32391.got - 2010.06.03 19:46:02.
