data_PCOD9132647
_publ_section_title
;
Structure prediction by ZEFSAII (Michael W. Deem and Ramdas Pophale) SiO2 
 PCOD9132647
Probable space group: C M
;
_chemical_formula_sum "Si O2"
_cell_formula_units_Z 32
_cell_length_a 14.323370
_cell_length_b 8.620190
_cell_length_c 14.079332
_cell_angle_alpha 90.000000
_cell_angle_beta 118.898836
_cell_angle_gamma 90.000000
_cell_volume 1521.904927
_symmetry_space_group_name_H-M "C M"
_symmetry_group_IT_number 8
_symmetry_cell_setting 'monoclinic'
loop_
_space_group_symop_operation_xyz
x,y,z
x,-y,z
1/2+x,1/2+y,z
1/2+x,1/2-y,z
loop_
_atom_site_type_symbol
_atom_site_label
_atom_site_fract_x
_atom_site_fract_y
_atom_site_fract_z
Si Si1 0.646560 0.814598 0.361680
Si Si2 0.283361 0.181662 0.855193
Si Si3 0.582419 0.681963 0.137425
Si Si4 0.507305 0.685349 0.901626
Si Si5 0.372458 0.316828 0.508706
Si Si6 0.062483 0.318204 0.724822
Si Si7 0.359722 0.816134 0.093632
Si Si8 0.410889 0.185730 0.322922
O O1 0.649946 0.755756 0.254980
O O2 0.751299 0.761879 0.469922
O O3 0.532489 0.775594 0.350972
O O4 0.650902 0.000000 0.360221
O O5 0.384577 0.277506 0.868228
O O6 0.172576 0.231513 0.755009
O O7 0.304481 0.000000 0.849472
O O8 0.276933 0.203915 0.967218
O O9 0.605265 0.500000 0.146193
O O10 0.461305 0.715121 0.112891
O O11 0.578958 0.738572 0.026981
O O12 0.521248 0.500000 0.897230
O O13 0.533527 0.770712 0.817730
O O14 0.381017 0.500000 0.532503
O O15 0.464309 0.230988 0.610878
O O16 0.386548 0.281972 0.404184
O O17 0.081127 0.500000 0.726613
O O18 0.338388 0.782971 0.193673
O O19 0.391005 0.000000 0.107445
O O20 0.404532 0.000000 0.339853
#
# Coordination Sequence:
#
# PCOD9132647 Si02
#       8
#     4   4   4   4   4   4   4   4
#     4   9  20  38  59  82 114 152 185 225 283 341
#     4  10  20  38  63  90 119 153 191 236 289 345
#     4   9  17  30  55  88 118 146 182 227 277 335
#     4  10  21  39  61  88 121 155 190 235 288 344
#     4  11  24  41  58  80 110 147 194 245 289 338
#     4  12  26  42  59  82 113 154 201 247 290 340
#     4   8  16  32  56  84 117 151 182 221 278 343
#     4   9  18  36  59  84 114 148 183 224 280 344
#
# _framework density 21.026281000000001
#
# number of rings (size 3 to 8) (size 9 to 14) (size 15 to 20)
#    0.000    2.250    0.000    3.375    0.000    7.000 
#    0.000    7.500    0.000    0.000    0.000    0.000 
#    0.000    0.000    0.000    0.000    0.000    0.000 
#
# Total GULP energy -89331.107868 kJ/mol
# GULP energy per Si atom -5583.194242 kJ/mol
# Density = 2.097842 g / cm^3
# Si number density = 21.026281 Si / 1000 Ang^3
#
#
#
# Elastic Constant Matrix: (Units=GPa)
#
#
# Indices 1 2 3 4 5 6 
#
# 1 35.9686 -6.1517 8.4080 0.0000 11.0045 0.0000
# 2 -6.1517 19.5757 5.8654 0.0000 2.8684 0.0000
# 3 8.4080 5.8654 66.8935 0.0000 27.3286 0.0000
# 4 0.0000 0.0000 0.0000 32.5273 0.0000 -6.0095
# 5 11.0045 2.8684 27.3286 0.0000 34.8687 0.0000
# 6 0.0000 0.0000 0.0000 -6.0095 0.0000 18.3417
#
#
#
# Elastic Compliance Matrix: (Units=1/GPa)
#
#
# Indices 1 2 3 4 5 6 
#
# 1 0.033452 0.012361 -0.000824 0.000000 -0.010929 0.000000
# 2 0.012361 0.057055 -0.004480 0.000000 -0.005084 0.000000
# 3 -0.000824 -0.004480 0.022343 0.000000 -0.016883 0.000000
# 4 0.000000 0.000000 0.000000 0.032724 0.000000 0.010722
# 5 -0.010929 -0.005084 -0.016883 0.000000 0.045778 0.000000
# 6 0.000000 0.000000 0.000000 0.010722 0.000000 0.058033
#
#
# Mechanical properties :
#
#
# Convention : Reuss Voigt Hill
#
# Bulk Modulus (GPa) = 7.87620 15.40901 11.64261
# Shear Modulus (GPa) = 18.01198 24.76862 21.39030
#
# Velocity S-wave (km/s) = 2.93002 3.43590 3.19299
# Velocity P-wave (km/s) = 3.89881 4.80468 4.37525
#
# Compressibility (1/GPa) = 0.12696475
#
# Stress axis : x y z
#
# Youngs Moduli (GPa) = 29.89344 17.52692 44.75722
#
# Poissons Ratio (x) = -0.21664 0.03687
# Poissons Ratio (y) = -0.36950 0.20049
# Poissons Ratio (z) = 0.02462 0.07851
#
# Static dielectric constant tensor:
#      x y z
#    x 1.798060 0.000000 0.019430 
#    y 0.000000 1.706180 0.000000 
#    z 0.019430 0.000000 1.767250 
# 
# From -- ./inp_files/26565.got.cif
#   From: 2010.05.17/outbox.cif.g08.bks.cpg/sg8_14_cif.got.tgz:26565.got - 2010.06.03 19:46:02.
