data_PCOD9132077
_publ_section_title
;
Structure prediction by ZEFSAII (Michael W. Deem and Ramdas Pophale) SiO2 
 PCOD9132077
Probable space group: C M
;
_chemical_formula_sum "Si O2"
_cell_formula_units_Z 32
_cell_length_a 15.802154
_cell_length_b 7.691703
_cell_length_c 23.384584
_cell_angle_alpha 90.000000
_cell_angle_beta 31.684831
_cell_angle_gamma 90.000000
_cell_volume 1492.902735
_symmetry_space_group_name_H-M "C M"
_symmetry_group_IT_number 8
_symmetry_cell_setting 'monoclinic'
loop_
_space_group_symop_operation_xyz
x,y,z
x,-y,z
1/2+x,1/2+y,z
1/2+x,1/2-y,z
loop_
_atom_site_type_symbol
_atom_site_label
_atom_site_fract_x
_atom_site_fract_y
_atom_site_fract_z
Si Si1 0.671800 0.286321 0.735820
Si Si2 0.978429 0.714152 0.346588
Si Si3 0.265249 0.197827 0.371510
Si Si4 0.317998 0.293771 0.900094
Si Si5 0.330941 0.711469 0.119275
Si Si6 0.947045 0.701163 0.493245
Si Si7 0.150545 0.209905 0.876973
Si Si8 0.494144 0.297580 0.144897
O O1 0.674284 0.500000 0.734897
O O2 0.496116 0.231628 0.813958
O O3 0.698574 0.230464 0.786135
O O4 0.810904 0.224176 0.613072
O O5 0.981137 0.500000 0.344243
O O6 0.827893 0.770795 0.395252
O O7 0.147674 0.771644 0.221397
O O8 0.965409 0.775698 0.419175
O O9 0.119166 0.292431 0.425029
O O10 0.421067 0.199846 0.240623
O O11 0.211467 0.000000 0.410655
O O12 0.316612 0.500000 0.908644
O O13 0.262413 0.257745 0.866732
O O14 0.180520 0.222302 0.021499
O O15 0.329338 0.500000 0.117698
O O16 0.398102 0.759607 0.143278
O O17 0.467791 0.770270 0.996459
O O18 0.901882 0.500000 0.510329
O O19 0.147420 0.000000 0.878065
O O20 0.458628 0.500000 0.174622
#
# Coordination Sequence:
#
# PCOD9132077 Si02
#       8
#     4   4   4   4   4   4   4   4
#     4   9  20  36  59  82 105 151 198 229 267 336
#     4   9  18  32  54  80 106 145 184 221 276 338
#     4  11  22  34  55  87 113 140 184 238 288 325
#     4  10  20  35  56  86 115 142 185 237 279 320
#     4   8  14  28  53  77 101 139 180 214 259 330
#     4  10  20  40  60  76 108 152 197 229 269 337
#     4   9  18  34  55  80 111 147 187 224 277 340
#     4  10  19  35  58  82 113 152 185 220 277 342
#
# _framework density 21.434753000000001
#
# number of rings (size 3 to 8) (size 9 to 14) (size 15 to 20)
#    0.000    2.500    1.250    1.875    1.750    1.000 
#    0.000    5.625    0.000    0.000    0.000    0.000 
#    0.000    0.000    0.000    0.000    0.000    0.000 
#
# Total GULP energy -89307.249940 kJ/mol
# GULP energy per Si atom -5581.703121 kJ/mol
# Density = 2.138597 g / cm^3
# Si number density = 21.434753 Si / 1000 Ang^3
#
#
#
# Elastic Constant Matrix: (Units=GPa)
#
#
# Indices 1 2 3 4 5 6 
#
# 1 82.9324 -8.3492 43.6015 -0.0001 -11.8756 0.0000
# 2 -8.3492 35.6518 -7.7150 0.0000 -0.9910 0.0000
# 3 43.6015 -7.7150 99.7688 -0.0002 -5.3324 0.0000
# 4 -0.0001 0.0000 -0.0002 11.2798 0.0000 -4.7261
# 5 -11.8756 -0.9910 -5.3324 0.0000 14.3774 0.0000
# 6 0.0000 0.0000 0.0000 -4.7261 0.0000 15.8110
#
#
#
# Elastic Compliance Matrix: (Units=1/GPa)
#
#
# Indices 1 2 3 4 5 6 
#
# 1 0.017729 0.003010 -0.006857 0.000000 0.012308 0.000000
# 2 0.003010 0.029152 0.001203 0.000000 0.004942 0.000000
# 3 -0.006857 0.001203 0.013074 0.000000 -0.000732 0.000000
# 4 0.000000 0.000000 0.000000 0.101347 0.000000 0.030294
# 5 0.012308 0.004942 -0.000732 0.000000 0.079789 0.000000
# 6 0.000000 0.000000 0.000000 0.030294 0.000000 0.072302
#
#
# Mechanical properties :
#
#
# Convention : Reuss Voigt Hill
#
# Bulk Modulus (GPa) = 18.29303 30.38082 24.33693
# Shear Modulus (GPa) = 14.84107 21.01468 17.92788
#
# Velocity S-wave (km/s) = 2.63417 3.13453 2.89518
# Velocity P-wave (km/s) = 4.21955 5.22540 4.74918
#
# Compressibility (1/GPa) = 0.05466562
#
# Stress axis : x y z
#
# Youngs Moduli (GPa) = 56.40571 34.30338 76.48850
#
# Poissons Ratio (x) = -0.10326 0.52450
# Poissons Ratio (y) = -0.16978 -0.09201
# Poissons Ratio (z) = 0.38679 -0.04126
#
# Static dielectric constant tensor:
#      x y z
#    x 1.767460 0.000000 0.011000 
#    y 0.000000 1.790470 0.000000 
#    z 0.011000 0.000000 1.764290 
# 
# From -- ./inp_files/24816.got.cif
#   From: 2010.05.17/outbox.cif.g08.bks.cpg/sg8_13_cif.got.tgz:24816.got - 2010.06.03 19:46:02.
