data_PCOD9132230
_publ_section_title
;
Structure prediction by ZEFSAII (Michael W. Deem and Ramdas Pophale) SiO2 
 PCOD9132230
Probable space group: C M
;
_chemical_formula_sum "Si O2"
_cell_formula_units_Z 28
_cell_length_a 8.932610
_cell_length_b 32.414275
_cell_length_c 5.394040
_cell_angle_alpha 90.000000
_cell_angle_beta 133.388547
_cell_angle_gamma 90.000000
_cell_volume 1134.987764
_symmetry_space_group_name_H-M "C M"
_symmetry_group_IT_number 8
_symmetry_cell_setting 'monoclinic'
loop_
_space_group_symop_operation_xyz
x,y,z
x,-y,z
1/2+x,1/2+y,z
1/2+x,1/2-y,z
loop_
_atom_site_type_symbol
_atom_site_label
_atom_site_fract_x
_atom_site_fract_y
_atom_site_fract_z
Si Si1 0.197390 0.000000 0.361941
Si Si2 0.573826 0.091393 0.294763
Si Si3 0.980755 0.792702 0.671948
Si Si4 0.972652 0.500000 0.171573
Si Si5 0.000688 0.083081 0.310985
Si Si6 0.539873 0.880710 0.751479
Si Si7 0.218386 0.707549 0.878918
Si Si8 0.042838 0.119613 0.864321
O O1 0.056585 0.039924 0.248300
O O2 0.355123 0.000000 0.774104
O O3 0.319824 0.000000 0.238880
O O4 0.445809 0.100171 0.397576
O O5 0.787011 0.116664 0.567666
O O6 0.455610 0.108877 0.923779
O O7 0.602604 0.042255 0.320681
O O8 0.825234 0.790728 0.730538
O O9 0.106865 0.834763 0.855739
O O10 0.105194 0.750456 0.802075
O O11 0.875721 0.797784 0.285268
O O12 0.076082 0.086841 0.679525
O O13 0.757543 0.093720 0.031520
O O14 0.085787 0.115032 0.204406
O O15 0.574849 0.832670 0.742733
#
# Coordination Sequence:
#
# PCOD9132230 Si02
#       8
#     2   4   4   2   4   4   4   4
#     4  12  26  42  56  94 136 164 206 268 332 386
#     4  10  20  38  66  86 120 163 210 261 310 379
#     4  12  23  43  68 100 139 172 225 287 334 397
#     4  12  26  42  56  94 136 164 206 268 332 386
#     4  10  20  38  66  86 120 163 210 261 310 379
#     4  10  19  39  68  88 114 163 219 262 304 386
#     4  12  23  43  68 100 139 172 225 287 334 397
#     4  10  19  39  68  88 114 163 219 262 304 386
#
# _framework density 24.669871000000001
#
# number of rings (size 3 to 8) (size 9 to 14) (size 15 to 20)
#    0.000    1.143    5.714    2.571    0.000    4.571 
#    0.000    8.571    0.000    0.000    0.000    0.000 
#    0.000    0.000    0.000    0.000    0.000    0.000 
#
# Total GULP energy -78264.234324 kJ/mol
# GULP energy per Si atom -5590.302452 kJ/mol
# Density = 2.461372 g / cm^3
# Si number density = 24.669871 Si / 1000 Ang^3
#
#
#
# Elastic Constant Matrix: (Units=GPa)
#
#
# Indices 1 2 3 4 5 6 
#
# 1 100.4926 -8.8219 4.5514 0.0000 -20.3151 0.0000
# 2 -8.8219 152.9680 -11.2807 0.0000 -3.3831 0.0000
# 3 4.5514 -11.2807 122.2507 0.0000 -45.8891 0.0000
# 4 0.0000 0.0000 0.0000 35.3437 0.0000 -8.2383
# 5 -20.3151 -3.3831 -45.8891 0.0000 39.3561 0.0000
# 6 0.0000 0.0000 0.0000 -8.2383 0.0000 38.7692
#
#
#
# Elastic Compliance Matrix: (Units=1/GPa)
#
#
# Indices 1 2 3 4 5 6 
#
# 1 0.012018 0.001192 0.003609 0.000000 0.010514 0.000000
# 2 0.001192 0.006816 0.001841 0.000000 0.003348 0.000000
# 3 0.003609 0.001841 0.015959 0.000000 0.020630 0.000000
# 4 0.000000 0.000000 0.000000 0.029768 0.000000 0.006326
# 5 0.010514 0.003348 0.020630 0.000000 0.055178 0.000000
# 6 0.000000 0.000000 0.000000 0.006326 0.000000 0.027138
#
#
# Mechanical properties :
#
#
# Convention : Reuss Voigt Hill
#
# Bulk Modulus (GPa) = 20.79983 38.28989 29.54486
# Shear Modulus (GPa) = 33.41848 48.77797 41.09823
#
# Velocity S-wave (km/s) = 3.68452 4.45143 4.08601
# Velocity P-wave (km/s) = 5.15272 6.47880 5.85343
#
# Compressibility (1/GPa) = 0.04807731
#
# Stress axis : x y z
#
# Youngs Moduli (GPa) = 83.21118 146.71614 62.65987
#
# Poissons Ratio (x) = -0.17485 -0.22615
# Poissons Ratio (y) = -0.09917 -0.11538
# Poissons Ratio (z) = -0.30033 -0.27015
#
# Static dielectric constant tensor:
#      x y z
#    x 2.069040 0.000000 0.035350 
#    y 0.000000 1.965530 0.000000 
#    z 0.035350 0.000000 2.068070 
# 
# From -- ./inp_files/1879.got.cif
#   From: 2010.05.17/outbox.cif.g08.bks.cpg/sg8_1_cif.got.tgz:1879.got - 2010.06.03 19:46:02.
