data_PCOD9132716
_publ_section_title
;
Structure prediction by ZEFSAII (Michael W. Deem and Ramdas Pophale) SiO2 
 PCOD9132716
Probable space group: C M
;
_chemical_formula_sum "Si O2"
_cell_formula_units_Z 26
_cell_length_a 23.862097
_cell_length_b 7.462708
_cell_length_c 9.514587
_cell_angle_alpha 90.000000
_cell_angle_beta 142.493617
_cell_angle_gamma 90.000000
_cell_volume 1031.585362
_symmetry_space_group_name_H-M "C M"
_symmetry_group_IT_number 8
_symmetry_cell_setting 'monoclinic'
loop_
_space_group_symop_operation_xyz
x,y,z
x,-y,z
1/2+x,1/2+y,z
1/2+x,1/2-y,z
loop_
_atom_site_type_symbol
_atom_site_label
_atom_site_fract_x
_atom_site_fract_y
_atom_site_fract_z
Si Si1 0.071550 0.500000 0.406510
Si Si2 0.879095 0.708995 0.857646
Si Si3 0.282498 0.299802 0.131428
Si Si4 0.159977 0.202557 0.374408
Si Si5 0.917484 0.716305 0.625034
Si Si6 0.954008 0.798164 0.297661
Si Si7 0.617726 0.783285 0.964440
O O1 0.108010 0.344376 0.367207
O O2 0.035652 0.657594 0.445971
O O3 0.907683 0.500000 0.942173
O O4 0.769616 0.718740 0.621704
O O5 0.923442 0.765782 0.799612
O O6 0.914706 0.810839 0.061438
O O7 0.266069 0.500000 0.039600
O O8 0.331402 0.306031 0.380682
O O9 0.364285 0.219766 0.201576
O O10 0.185995 0.213107 0.979812
O O11 0.144761 0.228441 0.177009
O O12 0.132446 0.000000 0.356922
O O13 0.904814 0.500000 0.596098
O O14 0.011438 0.765320 0.734946
O O15 0.974334 0.000000 0.387712
O O16 0.623894 0.000000 0.973167
#
# Coordination Sequence:
#
# PCOD9132716 Si02
#       7
#     2   4   4   4   4   4   4
#     4  12  24  44  66  94 134 180 224 284 346 390
#     4  10  21  40  65 103 137 176 226 279 334 409
#     4  10  23  43  63  96 136 177 224 275 334 415
#     4  11  23  39  66 103 138 173 229 285 336 403
#     4  10  21  37  67  97 129 173 223 275 336 399
#     4  11  25  44  68  97 136 183 229 275 341 411
#     4  10  20  39  66  97 136 177 222 279 341 404
#
# _framework density 25.203923
#
# number of rings (size 3 to 8) (size 9 to 14) (size 15 to 20)
#    0.000    1.538    3.077    1.385    4.308    1.231 
#    2.769    0.000    0.000    0.000    0.000    0.000 
#    0.000    0.000    0.000    0.000    0.000    0.000 
#
# Total GULP energy -72522.377775 kJ/mol
# GULP energy per Si atom -5578.644444 kJ/mol
# Density = 2.514656 g / cm^3
# Si number density = 25.203923 Si / 1000 Ang^3
#
#
#
# Elastic Constant Matrix: (Units=GPa)
#
#
# Indices 1 2 3 4 5 6 
#
# 1 186.4842 56.8917 2.3591 0.0000 13.0141 0.0000
# 2 56.8917 140.5828 19.1010 0.0000 14.0970 0.0000
# 3 2.3591 19.1010 48.2618 0.0000 4.5953 0.0000
# 4 0.0000 0.0000 0.0000 11.4344 0.0000 -15.3827
# 5 13.0141 14.0970 4.5953 0.0000 29.8123 0.0000
# 6 0.0000 0.0000 0.0000 -15.3827 0.0000 18.4325
#
#
#
# Elastic Compliance Matrix: (Units=1/GPa)
#
#
# Indices 1 2 3 4 5 6 
#
# 1 0.006220 -0.002462 0.000830 0.000000 -0.001679 0.000000
# 2 -0.002462 0.008793 -0.003112 0.000000 -0.002604 0.000000
# 3 0.000830 -0.003112 0.022131 0.000000 -0.002302 0.000000
# 4 0.000000 0.000000 0.000000 -0.712752 0.000000 -0.594820
# 5 -0.001679 -0.002604 -0.002302 0.000000 0.035862 0.000000
# 6 0.000000 0.000000 0.000000 -0.594820 0.000000 -0.442149
#
#
# Mechanical properties :
#
#
# Convention : Reuss Voigt Hill
#
# Bulk Modulus (GPa) = 36.15710 59.11473 47.63591
# Shear Modulus (GPa) = -4.70283 31.73432 13.51574
#
# Velocity S-wave (km/s) = -1.36747 3.55223 2.31823
# Velocity P-wave (km/s) = 3.44727 6.35059 5.10948
#
# Compressibility (1/GPa) = 0.02765709
#
# Stress axis : x y z
#
# Youngs Moduli (GPa) = 160.77094 113.72275 45.18627
#
# Poissons Ratio (x) = 0.27993 -0.03751
# Poissons Ratio (y) = 0.39575 0.14062
# Poissons Ratio (z) = -0.13345 0.35390
#
# Static dielectric constant tensor:
#      x y z
#    x 1.989750 0.000000 0.023890 
#    y 0.000000 1.978060 0.000000 
#    z 0.023890 0.000000 2.071960 
# 
# From -- ./inp_files/15937.got.cif
#   From: 2010.05.17/outbox.cif.g08.bks.cpg/sg8_8_cif.got.tgz:15937.got - 2010.06.03 19:46:02.
