data_PCOD9132432
_publ_section_title
;
Structure prediction by ZEFSAII (Michael W. Deem and Ramdas Pophale) SiO2 
 PCOD9132432
Probable space group: C M
;
_chemical_formula_sum "Si O2"
_cell_formula_units_Z 32
_cell_length_a 5.425312
_cell_length_b 31.655773
_cell_length_c 7.381349
_cell_angle_alpha 90.000000
_cell_angle_beta 103.743925
_cell_angle_gamma 90.000000
_cell_volume 1231.393468
_symmetry_space_group_name_H-M "C M"
_symmetry_group_IT_number 8
_symmetry_cell_setting 'monoclinic'
loop_
_space_group_symop_operation_xyz
x,y,z
x,-y,z
1/2+x,1/2+y,z
1/2+x,1/2-y,z
loop_
_atom_site_type_symbol
_atom_site_label
_atom_site_fract_x
_atom_site_fract_y
_atom_site_fract_z
Si Si1 0.327500 0.244016 0.970060
Si Si2 0.319008 0.369008 0.512183
Si Si3 0.688316 0.774420 0.556005
Si Si4 0.058036 0.452987 0.546974
Si Si5 0.520379 0.631495 0.172393
Si Si6 0.425509 0.454599 0.966694
Si Si7 0.474455 0.153628 0.985188
Si Si8 0.236103 0.915276 0.751781
O O1 0.610220 0.253941 0.079507
O O2 0.267065 0.271570 0.783043
O O3 0.344804 0.196469 0.900094
O O4 0.182029 0.324189 0.507855
O O5 0.151227 0.411577 0.454711
O O6 0.524134 0.364108 0.387688
O O7 0.495907 0.383509 0.709650
O O8 0.420756 0.749955 0.497816
O O9 0.068624 0.500000 0.466981
O O10 0.225074 0.455064 0.763518
O O11 0.781613 0.441199 0.577835
O O12 0.785989 0.640401 0.118183
O O13 0.270524 0.659662 0.080623
O O14 0.425890 0.584520 0.101791
O O15 0.410901 0.500000 0.055254
O O16 0.690457 0.447938 0.904629
O O17 0.457715 0.117312 0.833086
#
# Coordination Sequence:
#
# PCOD9132432 Si02
#       8
#     4   4   4   4   4   4   4   4
#     4  10  20  35  62  93 123 155 222 273 317 376
#     4  11  26  41  68  96 145 176 220 281 343 408
#     4  10  23  40  65  98 129 170 224 271 333 396
#     4  10  21  38  67  99 131 173 232 284 332 393
#     4  11  25  43  64  98 135 183 214 268 344 403
#     4   9  19  38  61  92 130 173 226 278 326 391
#     4  11  23  42  66  93 129 174 226 271 325 398
#     4  10  20  37  67  95 125 176 226 280 331 383
#
# _framework density 25.986823000000001
#
# number of rings (size 3 to 8) (size 9 to 14) (size 15 to 20)
#    0.000    1.750    1.250    2.625    7.000    1.000 
#    0.000    3.750    0.000    0.000    0.000    0.000 
#    0.000    0.000    0.000    0.000    0.000    0.000 
#
# Total GULP energy -89328.923119 kJ/mol
# GULP energy per Si atom -5583.057695 kJ/mol
# Density = 2.592768 g / cm^3
# Si number density = 25.986823 Si / 1000 Ang^3
#
#
#
# Elastic Constant Matrix: (Units=GPa)
#
#
# Indices 1 2 3 4 5 6 
#
# 1 144.6848 49.4789 14.2232 0.0000 -23.3382 0.0000
# 2 49.4789 181.5280 25.7053 0.0000 -19.4876 0.0000
# 3 14.2232 25.7053 50.3908 0.0000 -9.1031 0.0000
# 4 0.0000 0.0000 0.0000 4.0587 0.0000 -1.6494
# 5 -23.3382 -19.4876 -9.1031 0.0000 36.6103 0.0000
# 6 0.0000 0.0000 0.0000 -1.6494 0.0000 23.9374
#
#
#
# Elastic Compliance Matrix: (Units=1/GPa)
#
#
# Indices 1 2 3 4 5 6 
#
# 1 0.008234 -0.001697 -0.000705 0.000000 0.004170 0.000000
# 2 -0.001697 0.006518 -0.002528 0.000000 0.001759 0.000000
# 3 -0.000705 -0.002528 0.021997 0.000000 0.003674 0.000000
# 4 0.000000 0.000000 0.000000 0.253481 0.000000 0.017466
# 5 0.004170 0.001759 0.003674 0.000000 0.031823 0.000000
# 6 0.000000 0.000000 0.000000 0.017466 0.000000 0.042979
#
#
# Mechanical properties :
#
#
# Convention : Reuss Voigt Hill
#
# Bulk Modulus (GPa) = 37.18987 61.71315 49.45151
# Shear Modulus (GPa) = 13.02571 32.06770 22.54670
#
# Velocity S-wave (km/s) = 2.24127 3.51664 2.94874
# Velocity P-wave (km/s) = 4.58692 6.34732 5.53752
#
# Compressibility (1/GPa) = 0.02688904
#
# Stress axis : x y z
#
# Youngs Moduli (GPa) = 121.45007 153.41766 45.45988
#
# Poissons Ratio (x) = 0.26031 0.03206
# Poissons Ratio (y) = 0.20607 0.11494
# Poissons Ratio (z) = 0.08564 0.38788
#
# Static dielectric constant tensor:
#      x y z
#    x 2.191710 0.000000 0.014000 
#    y 0.000000 2.033900 0.000000 
#    z 0.014000 0.000000 2.022570 
# 
# From -- ./inp_files/7115.got.cif
#   From: 2010.05.17/outbox.cif.g08.bks.cpg/sg8_4_cif.got.tgz:7115.got - 2010.06.03 19:46:02.
