data_PCOD9132182
_publ_section_title
;
Structure prediction by ZEFSAII (Michael W. Deem and Ramdas Pophale) SiO2 
 PCOD9132182
Probable space group: C M
;
_chemical_formula_sum "Si O2"
_cell_formula_units_Z 32
_cell_length_a 12.005056
_cell_length_b 14.354359
_cell_length_c 18.886370
_cell_angle_alpha 90.000000
_cell_angle_beta 153.110094
_cell_angle_gamma 90.000000
_cell_volume 1471.978810
_symmetry_space_group_name_H-M "C M"
_symmetry_group_IT_number 8
_symmetry_cell_setting 'monoclinic'
loop_
_space_group_symop_operation_xyz
x,y,z
x,-y,z
1/2+x,1/2+y,z
1/2+x,1/2-y,z
loop_
_atom_site_type_symbol
_atom_site_label
_atom_site_fract_x
_atom_site_fract_y
_atom_site_fract_z
Si Si1 0.466420 0.397086 0.928700
Si Si2 0.960375 0.893507 0.295582
Si Si3 0.456726 0.396206 0.599934
Si Si4 0.546359 0.849781 0.483336
Si Si5 0.812444 0.848174 0.363333
Si Si6 0.300923 0.257747 0.083402
Si Si7 0.019857 0.322112 0.625601
Si Si8 0.531928 0.601169 0.123952
O O1 0.514103 0.500000 0.927221
O O2 0.175736 0.378825 0.771504
O O3 0.573284 0.310303 0.947375
O O4 0.597508 0.389689 0.079142
O O5 0.230056 0.846331 0.458420
O O6 0.828444 0.897171 0.296920
O O7 0.811994 0.827594 0.156857
O O8 0.988285 0.000000 0.285395
O O9 0.573611 0.500000 0.680710
O O10 0.377852 0.399609 0.472720
O O11 0.564710 0.289127 0.662590
O O12 0.237258 0.385541 0.533349
O O13 0.497899 0.738915 0.456813
O O14 0.612799 0.864963 0.602874
O O15 0.277564 0.889213 0.309982
O O16 0.543425 0.806149 0.224411
O O17 0.341362 0.321184 0.038332
O O18 0.420951 0.500000 0.071177
#
# Coordination Sequence:
#
# PCOD9132182 Si02
#       8
#     4   4   4   4   4   4   4   4
#     4  11  26  44  64  90 128 174 212 258 321 382
#     4  12  22  38  67  98 128 166 210 265 321 375
#     4  11  21  36  62  93 125 165 210 260 316 370
#     4  10  19  37  66  92 128 165 212 262 306 372
#     4  10  19  37  59  96 130 159 205 268 319 362
#     4  11  21  40  63  92 127 167 215 262 309 373
#     4  11  24  43  63  96 134 164 213 265 318 378
#     4  10  20  37  62  93 124 164 211 254 312 378
#
# _framework density 21.739443000000001
#
# number of rings (size 3 to 8) (size 9 to 14) (size 15 to 20)
#    0.000    1.250    5.000    3.750    0.000    4.500 
#    0.000    1.250    0.000    0.000    0.000    0.000 
#    0.000    0.000    0.000    0.000    0.000    0.000 
#
# Total GULP energy -89164.268447 kJ/mol
# GULP energy per Si atom -5572.766778 kJ/mol
# Density = 2.168996 g / cm^3
# Si number density = 21.739443 Si / 1000 Ang^3
#
#
#
# Elastic Constant Matrix: (Units=GPa)
#
#
# Indices 1 2 3 4 5 6 
#
# 1 92.0976 23.0005 6.6695 0.0014 -6.1954 -0.0002
# 2 23.0005 147.3769 19.2819 0.0021 8.4580 0.0006
# 3 6.6695 19.2819 39.0157 0.0076 -2.9905 0.0027
# 4 0.0014 0.0021 0.0076 3.7814 0.0019 1.2827
# 5 -6.1954 8.4580 -2.9905 0.0019 11.3941 0.0000
# 6 -0.0002 0.0006 0.0027 1.2827 0.0000 -0.5309
#
#
#
# Elastic Compliance Matrix: (Units=1/GPa)
#
#
# Indices 1 2 3 4 5 6 
#
# 1 0.012003 -0.002304 -0.000288 -0.000002 0.008161 -0.000014
# 2 -0.002304 0.008194 -0.004304 0.000007 -0.008465 0.000006
# 3 -0.000288 -0.004304 0.028616 -0.000059 0.010549 -0.000001
# 4 -0.000002 0.000007 -0.000059 0.145344 -0.000046 0.351140
# 5 0.008161 -0.008465 0.010549 -0.000046 0.101255 -0.000072
# 6 -0.000014 0.000006 -0.000001 0.351140 -0.000072 -1.035201
#
#
# Mechanical properties :
#
#
# Convention : Reuss Voigt Hill
#
# Bulk Modulus (GPa) = 28.55457 41.82156 35.18807
# Shear Modulus (GPa) = -6.99963 18.23148 5.61593
#
# Velocity S-wave (km/s) = -1.79632 2.89906 1.60901
# Velocity P-wave (km/s) = 2.97675 5.52137 4.43546
#
# Compressibility (1/GPa) = 0.03502067
#
# Stress axis : x y z
#
# Youngs Moduli (GPa) = 83.31030 122.04228 34.94576
#
# Poissons Ratio (x) = 0.28119 0.01005
# Poissons Ratio (y) = 0.19195 0.15042
# Poissons Ratio (z) = 0.02396 0.52533
#
# Static dielectric constant tensor:
#      x y z
#    x 1.827940 0.000000 -0.010620 
#    y 0.000000 1.860780 0.000000 
#    z -0.010620 0.000000 1.774700 
# 
# From -- ./inp_files/28881.got.cif
#   From: 2010.05.17/outbox.cif.g08.bks.cpg/sg8_15_cif.got.tgz:28881.got - 2010.06.03 19:46:02.
