data_PCOD9132857
_publ_section_title
;
Structure prediction by ZEFSAII (Michael W. Deem and Ramdas Pophale) SiO2 
 PCOD9132857
Probable space group: C M
;
_chemical_formula_sum "Si O2"
_cell_formula_units_Z 26
_cell_length_a 23.194483
_cell_length_b 8.021843
_cell_length_c 9.100850
_cell_angle_alpha 90.000000
_cell_angle_beta 135.082142
_cell_angle_gamma 90.000000
_cell_volume 1195.645116
_symmetry_space_group_name_H-M "C M"
_symmetry_group_IT_number 8
_symmetry_cell_setting 'monoclinic'
loop_
_space_group_symop_operation_xyz
x,y,z
x,-y,z
1/2+x,1/2+y,z
1/2+x,1/2-y,z
loop_
_atom_site_type_symbol
_atom_site_label
_atom_site_fract_x
_atom_site_fract_y
_atom_site_fract_z
Si Si1 0.455940 0.500000 0.550990
Si Si2 0.157014 0.692967 0.576728
Si Si3 0.556310 0.186779 0.651265
Si Si4 0.498296 0.500000 0.944434
Si Si5 0.124657 0.697048 0.176745
Si Si6 0.918013 0.000000 0.124513
Si Si7 0.735499 0.810064 0.124920
Si Si8 0.317291 0.179413 0.998984
O O1 0.504560 0.326638 0.633090
O O2 0.431978 0.500000 0.329909
O O3 0.432624 0.500000 0.687884
O O4 0.177981 0.500000 0.654552
O O5 0.073134 0.730053 0.511239
O O6 0.145109 0.701504 0.384104
O O7 0.228792 0.809528 0.762627
O O8 0.523455 0.000000 0.605294
O O9 0.647862 0.189071 0.883590
O O10 0.554862 0.334377 0.026654
O O11 0.471071 0.500000 0.068152
O O12 0.105193 0.500000 0.103197
O O13 0.206077 0.744233 0.231544
O O14 0.867178 0.829455 0.021368
O O15 0.767195 0.000000 0.188917
O O16 0.797756 0.709043 0.136876
O O17 0.356004 0.000000 0.047162
#
# Coordination Sequence:
#
# PCOD9132857 Si02
#       8
#     2   4   4   2   4   2   4   4
#     4  12  24  40  68  90 122 184 216 254 314 380
#     4   9  18  35  60  94 130 160 197 262 337 381
#     4   9  18  33  58  92 125 153 200 262 322 378
#     4  12  26  42  68  96 134 170 215 264 308 404
#     4  10  21  36  61 102 132 156 195 270 343 377
#     4  12  28  50  58  88 136 182 227 254 302 380
#     4   9  17  35  62  92 129 150 191 272 326 377
#     4  11  23  41  64  85 120 175 221 263 309 376
#
# _framework density 21.745581999999999
#
# number of rings (size 3 to 8) (size 9 to 14) (size 15 to 20)
#    0.000    1.846    3.077    1.846    6.462    1.231 
#    2.769    0.000    0.000    0.000    0.000    0.000 
#    0.000    0.000    0.000    0.000    0.000    0.000 
#
# Total GULP energy -72370.016433 kJ/mol
# GULP energy per Si atom -5566.924341 kJ/mol
# Density = 2.169609 g / cm^3
# Si number density = 21.745582 Si / 1000 Ang^3
#
#
#
# Elastic Constant Matrix: (Units=GPa)
#
#
# Indices 1 2 3 4 5 6 
#
# 1 104.8153 43.1375 17.1556 0.0000 -35.8956 0.0000
# 2 43.1375 126.1507 11.4212 0.0000 3.1045 0.0000
# 3 17.1556 11.4212 49.0877 0.0000 -29.9588 0.0000
# 4 0.0000 0.0000 0.0000 24.1912 0.0000 9.5234
# 5 -35.8956 3.1045 -29.9588 0.0000 33.9774 0.0000
# 6 0.0000 0.0000 0.0000 9.5234 0.0000 25.5804
#
#
#
# Elastic Compliance Matrix: (Units=1/GPa)
#
#
# Indices 1 2 3 4 5 6 
#
# 1 0.031913 -0.015127 0.029849 0.000000 0.061416 0.000000
# 2 -0.015127 0.015715 -0.019485 0.000000 -0.034597 0.000000
# 3 0.029849 -0.019485 0.075358 0.000000 0.099760 0.000000
# 4 0.000000 0.000000 0.000000 0.048436 0.000000 -0.018033
# 5 0.061416 -0.034597 0.099760 0.000000 0.185437 0.000000
# 6 0.000000 0.000000 0.000000 -0.018033 0.000000 0.045806
#
#
# Mechanical properties :
#
#
# Convention : Reuss Voigt Hill
#
# Bulk Modulus (GPa) = 8.81354 47.05358 27.93356
# Shear Modulus (GPa) = 11.11086 30.63907 20.87497
#
# Velocity S-wave (km/s) = 2.26287 3.75771 3.10169
# Velocity P-wave (km/s) = 3.29989 6.36493 5.06960
#
# Compressibility (1/GPa) = 0.11346176
#
# Stress axis : x y z
#
# Youngs Moduli (GPa) = 31.33475 63.63310 13.27006
#
# Poissons Ratio (x) = 0.96256 -0.39610
# Poissons Ratio (y) = 0.47399 0.25856
# Poissons Ratio (z) = -0.93531 1.23986
#
# Static dielectric constant tensor:
#      x y z
#    x 1.823590 0.000000 -0.015000 
#    y 0.000000 1.780500 0.000000 
#    z -0.015000 0.000000 1.885610 
# 
# From -- ./inp_files/14431.got.cif
#   From: 2010.05.17/outbox.cif.g08.bks.cpg/sg8_8_cif.got.tgz:14431.got - 2010.06.03 19:46:02.
