data_PCOD9132049
_publ_section_title
;
Structure prediction by ZEFSAII (Michael W. Deem and Ramdas Pophale) SiO2 
 PCOD9132049
Probable space group: C M
;
_chemical_formula_sum "Si O2"
_cell_formula_units_Z 28
_cell_length_a 5.714325
_cell_length_b 32.472155
_cell_length_c 7.443739
_cell_angle_alpha 90.000000
_cell_angle_beta 58.211565
_cell_angle_gamma 90.000000
_cell_volume 1174.047372
_symmetry_space_group_name_H-M "C M"
_symmetry_group_IT_number 8
_symmetry_cell_setting 'monoclinic'
loop_
_space_group_symop_operation_xyz
x,y,z
x,-y,z
1/2+x,1/2+y,z
1/2+x,1/2-y,z
loop_
_atom_site_type_symbol
_atom_site_label
_atom_site_fract_x
_atom_site_fract_y
_atom_site_fract_z
Si Si1 0.727920 0.412713 0.510070
Si Si2 0.411512 0.000000 0.857799
Si Si3 0.220110 0.638584 0.240120
Si Si4 0.391090 0.262224 0.678363
Si Si5 0.252017 0.268713 0.194690
Si Si6 0.234893 0.646223 0.660595
Si Si7 0.267541 0.908198 0.922735
Si Si8 0.085456 0.000000 0.600871
O O1 0.436981 0.391344 0.613524
O O2 0.797978 0.412676 0.693670
O O3 0.701011 0.459344 0.461893
O O4 0.941118 0.385714 0.312790
O O5 0.337498 0.045795 0.966064
O O6 0.750114 0.000000 0.720726
O O7 0.224565 0.000000 0.746617
O O8 0.247871 0.683275 0.141779
O O9 0.203596 0.648742 0.459001
O O10 0.467532 0.607586 0.098067
O O11 0.580423 0.253536 0.773681
O O12 0.569390 0.239588 0.450783
O O13 0.369509 0.311154 0.664715
O O14 0.556581 0.255591 0.134925
O O15 0.963960 0.631524 0.875421
#
# Coordination Sequence:
#
# PCOD9132049 Si02
#       8
#     4   2   4   4   4   4   4   2
#     4  10  22  40  66  92 127 170 213 268 321 392
#     4  10  20  45  65  90 137 174 206 268 336 383
#     4  11  23  39  65  97 127 169 222 270 321 385
#     4  10  19  34  61  87 121 171 209 255 324 377
#     4  10  19  37  60  87 127 173 208 262 328 373
#     4  11  21  39  66  91 125 168 216 267 318 385
#     4  10  24  41  64  95 129 170 214 268 327 388
#     4  10  20  41  69  92 129 176 214 256 338 391
#
# _framework density 23.849124
#
# number of rings (size 3 to 8) (size 9 to 14) (size 15 to 20)
#    0.000    1.714    4.286    1.714    2.000    1.714 
#    0.000    2.857    0.000    0.000    0.000    0.000 
#    0.000    0.000    0.000    0.000    0.000    0.000 
#
# Total GULP energy -78162.975436 kJ/mol
# GULP energy per Si atom -5583.069674 kJ/mol
# Density = 2.379484 g / cm^3
# Si number density = 23.849124 Si / 1000 Ang^3
#
#
#
# Elastic Constant Matrix: (Units=GPa)
#
#
# Indices 1 2 3 4 5 6 
#
# 1 92.2389 4.0691 16.4055 0.0000 -24.1075 0.0000
# 2 4.0691 216.1015 7.1068 0.0000 -44.0930 0.0000
# 3 16.4055 7.1068 63.4087 0.0000 -6.5149 0.0000
# 4 0.0000 0.0000 0.0000 30.6728 0.0000 -16.5937
# 5 -24.1075 -44.0930 -6.5149 0.0000 79.1287 0.0000
# 6 0.0000 0.0000 0.0000 -16.5937 0.0000 42.5702
#
#
#
# Elastic Compliance Matrix: (Units=1/GPa)
#
#
# Indices 1 2 3 4 5 6 
#
# 1 0.012339 0.000655 -0.002866 0.000000 0.003888 0.000000
# 2 0.000655 0.005261 -0.000441 0.000000 0.003095 0.000000
# 3 -0.002866 -0.000441 0.016587 0.000000 0.000247 0.000000
# 4 0.000000 0.000000 0.000000 0.041314 0.000000 0.016104
# 5 0.003888 0.003095 0.000247 0.000000 0.015567 0.000000
# 6 0.000000 0.000000 0.000000 0.016104 0.000000 0.029768
#
#
# Mechanical properties :
#
#
# Convention : Reuss Voigt Hill
#
# Bulk Modulus (GPa) = 34.62321 47.43466 41.02893
# Shear Modulus (GPa) = 36.82752 53.41885 45.12318
#
# Velocity S-wave (km/s) = 3.93388 4.73786 4.35446
# Velocity P-wave (km/s) = 5.93152 7.06133 6.52094
#
# Compressibility (1/GPa) = 0.02888236
#
# Stress axis : x y z
#
# Youngs Moduli (GPa) = 81.04703 190.07359 60.28792
#
# Poissons Ratio (x) = -0.12455 0.17280
# Poissons Ratio (y) = -0.05311 0.02660
# Poissons Ratio (z) = 0.23230 0.08386
#
# Static dielectric constant tensor:
#      x y z
#    x 1.916830 0.000000 0.059670 
#    y 0.000000 1.875290 0.000000 
#    z 0.059670 0.000000 1.969080 
# 
# From -- ./inp_files/7167.got.cif
#   From: 2010.05.17/outbox.cif.g08.bks.cpg/sg8_4_cif.got.tgz:7167.got - 2010.06.03 19:46:02.
