data_PCOD9132516
_publ_section_title
;
Structure prediction by ZEFSAII (Michael W. Deem and Ramdas Pophale) SiO2 
 PCOD9132516
Probable space group: C M
;
_chemical_formula_sum "Si O2"
_cell_formula_units_Z 32
_cell_length_a 10.989691
_cell_length_b 13.963826
_cell_length_c 11.358046
_cell_angle_alpha 90.000000
_cell_angle_beta 118.773578
_cell_angle_gamma 90.000000
_cell_volume 1527.776050
_symmetry_space_group_name_H-M "C M"
_symmetry_group_IT_number 8
_symmetry_cell_setting 'monoclinic'
loop_
_space_group_symop_operation_xyz
x,y,z
x,-y,z
1/2+x,1/2+y,z
1/2+x,1/2-y,z
loop_
_atom_site_type_symbol
_atom_site_label
_atom_site_fract_x
_atom_site_fract_y
_atom_site_fract_z
Si Si1 0.416680 0.705151 0.352200
Si Si2 0.681069 0.107521 0.379127
Si Si3 0.503445 0.219122 0.752237
Si Si4 0.448103 0.106593 0.938487
Si Si5 0.178374 0.728344 0.592886
Si Si6 0.003612 0.235492 0.156958
Si Si7 0.171435 0.895113 0.920813
Si Si8 0.260165 0.889866 0.224111
O O1 0.327544 0.632322 0.387124
O O2 0.574160 0.702313 0.470781
O O3 0.396386 0.691750 0.201974
O O4 0.356470 0.813843 0.337494
O O5 0.684021 0.131769 0.517895
O O6 0.580551 0.183510 0.270603
O O7 0.636774 0.000000 0.336883
O O8 0.514393 0.128267 0.843446
O O9 0.337161 0.235027 0.662712
O O10 0.597262 0.212864 0.678238
O O11 0.564875 0.311209 0.849299
O O12 0.280507 0.103454 0.864194
O O13 0.492232 0.000000 0.002262
O O14 0.472989 0.202384 0.027628
O O15 0.106050 0.148758 0.176374
O O16 0.105018 0.000000 0.900286
O O17 0.264614 0.883218 0.083049
O O18 0.283911 0.000000 0.267723
#
# Coordination Sequence:
#
# PCOD9132516 Si02
#       8
#     4   4   4   4   4   4   4   4
#     4  10  21  39  63  89 125 168 210 264 322 381
#     4  10  22  40  64  93 126 167 215 269 328 381
#     4  12  23  43  66  92 133 172 216 269 316 382
#     4  11  22  38  63  96 131 172 216 262 323 388
#     4  11  24  42  65  88 127 174 219 264 317 374
#     4  10  20  36  63  93 132 165 207 264 326 383
#     4  10  21  38  63  93 124 169 214 258 326 389
#     4  10  20  36  62  96 126 159 210 264 321 382
#
# _framework density 20.945477
#
# number of rings (size 3 to 8) (size 9 to 14) (size 15 to 20)
#    0.000    1.500    5.000    0.375    0.000    3.500 
#    0.000    0.625    0.000    3.000    0.000    0.000 
#    0.000    0.000    0.000    0.000    0.000    0.000 
#
# Total GULP energy -89087.780684 kJ/mol
# GULP energy per Si atom -5567.986293 kJ/mol
# Density = 2.089780 g / cm^3
# Si number density = 20.945477 Si / 1000 Ang^3
#
#
#
# Elastic Constant Matrix: (Units=GPa)
#
#
# Indices 1 2 3 4 5 6 
#
# 1 97.0393 21.4014 30.7832 0.0000 -22.4040 0.0000
# 2 21.4014 61.8316 20.7761 0.0000 -12.1816 0.0000
# 3 30.7832 20.7761 57.7627 0.0000 -15.9162 0.0000
# 4 0.0000 0.0000 0.0000 16.7240 0.0000 -3.8860
# 5 -22.4040 -12.1816 -15.9162 0.0000 43.0694 0.0000
# 6 0.0000 0.0000 0.0000 -3.8860 0.0000 11.5294
#
#
#
# Elastic Compliance Matrix: (Units=1/GPa)
#
#
# Indices 1 2 3 4 5 6 
#
# 1 0.013437 -0.002019 -0.005195 0.000000 0.004499 0.000000
# 2 -0.002019 0.019072 -0.005107 0.000000 0.002457 0.000000
# 3 -0.005195 -0.005107 0.023130 0.000000 0.004401 0.000000
# 4 0.000000 0.000000 0.000000 0.064875 0.000000 0.021866
# 5 0.004499 0.002457 0.004401 0.000000 0.027880 0.000000
# 6 0.000000 0.000000 0.000000 0.021866 0.000000 0.094105
#
#
# Mechanical properties :
#
#
# Convention : Reuss Voigt Hill
#
# Bulk Modulus (GPa) = 32.26093 40.28389 36.27241
# Shear Modulus (GPa) = 18.01976 23.84276 20.93126
#
# Velocity S-wave (km/s) = 2.93630 3.37757 3.16463
# Velocity P-wave (km/s) = 5.18956 5.87240 5.54151
#
# Compressibility (1/GPa) = 0.03099724
#
# Stress axis : x y z
#
# Youngs Moduli (GPa) = 74.42102 52.43364 43.23332
#
# Poissons Ratio (x) = 0.10586 0.22460
# Poissons Ratio (y) = 0.15025 0.22079
# Poissons Ratio (z) = 0.38663 0.26777
#
# Static dielectric constant tensor:
#      x y z
#    x 1.865150 0.000000 -0.038590 
#    y 0.000000 1.749470 0.000000 
#    z -0.038590 0.000000 1.842610 
# 
# From -- ./inp_files/20422.got.cif
#   From: 2010.05.17/outbox.cif.g08.bks.cpg/sg8_11_cif.got.tgz:20422.got - 2010.06.03 19:46:02.
