data_PCOD9132749
_publ_section_title
;
Structure prediction by ZEFSAII (Michael W. Deem and Ramdas Pophale) SiO2 
 PCOD9132749
Probable space group: C M
;
_chemical_formula_sum "Si O2"
_cell_formula_units_Z 32
_cell_length_a 15.194873
_cell_length_b 16.774894
_cell_length_c 11.798953
_cell_angle_alpha 90.000000
_cell_angle_beta 28.183926
_cell_angle_gamma 90.000000
_cell_volume 1420.435428
_symmetry_space_group_name_H-M "C M"
_symmetry_group_IT_number 8
_symmetry_cell_setting 'monoclinic'
loop_
_space_group_symop_operation_xyz
x,y,z
x,-y,z
1/2+x,1/2+y,z
1/2+x,1/2-y,z
loop_
_atom_site_type_symbol
_atom_site_label
_atom_site_fract_x
_atom_site_fract_y
_atom_site_fract_z
Si Si1 0.260600 0.681959 0.329710
Si Si2 0.146248 0.848696 0.774847
Si Si3 0.252239 0.134092 0.404043
Si Si4 0.586271 0.092603 0.732012
Si Si5 0.660370 0.089916 0.025871
Si Si6 0.165589 0.090371 0.254757
Si Si7 0.024057 0.589059 0.431174
Si Si8 0.300451 0.676458 0.669990
O O1 0.281139 0.775592 0.327282
O O2 0.210747 0.642288 0.505123
O O3 0.090401 0.656914 0.441485
O O4 0.448313 0.647740 0.060833
O O5 0.131954 0.863644 0.656130
O O6 0.306767 0.904166 0.645519
O O7 0.230293 0.760597 0.704507
O O8 0.448570 0.098379 0.221613
O O9 0.178530 0.089619 0.377039
O O10 0.666511 0.111117 0.764292
O O11 0.599708 0.000000 0.690882
O O12 0.368401 0.114338 0.978366
O O13 0.639994 0.099382 0.183593
O O14 0.730441 0.000000 0.922568
O O15 0.775504 0.158766 0.831738
O O16 0.008864 0.153394 0.399348
O O17 0.121935 0.000000 0.265838
O O18 0.061360 0.500000 0.434775
#
# Coordination Sequence:
#
# PCOD9132749 Si02
#       8
#     4   4   4   4   4   4   4   4
#     4  12  24  45  68  97 138 182 222 274 339 408
#     4  11  25  44  69 101 134 179 226 278 340 403
#     4  11  22  42  65  98 137 173 225 276 335 397
#     4  11  24  43  67  99 141 180 224 279 336 407
#     4  10  20  40  69  96 135 173 215 282 339 392
#     4  11  24  41  69 103 134 176 227 282 339 396
#     4  10  25  45  65  97 135 177 227 277 333 403
#     4  12  22  42  68 103 136 172 226 280 341 400
#
# _framework density 22.528303999999999
#
# number of rings (size 3 to 8) (size 9 to 14) (size 15 to 20)
#    0.000    1.000    3.750    2.625    1.750    2.500 
#    0.000    0.000    0.000    0.000    0.000    0.000 
#    0.000    0.000    0.000    0.000    0.000    0.000 
#
# Total GULP energy -89507.855042 kJ/mol
# GULP energy per Si atom -5594.240940 kJ/mol
# Density = 2.247703 g / cm^3
# Si number density = 22.528304 Si / 1000 Ang^3
#
#
#
# Elastic Constant Matrix: (Units=GPa)
#
#
# Indices 1 2 3 4 5 6 
#
# 1 44.0292 2.0069 1.6152 -0.0025 7.8649 0.0195
# 2 2.0069 64.8579 20.8400 -0.0012 7.1736 0.0176
# 3 1.6152 20.8400 109.2927 -0.0034 9.1307 0.0197
# 4 -0.0025 -0.0012 -0.0034 3.3137 0.0012 -5.8841
# 5 7.8649 7.1736 9.1307 0.0012 35.1476 -0.0162
# 6 0.0195 0.0176 0.0197 -5.8841 -0.0162 17.7263
#
#
#
# Elastic Compliance Matrix: (Units=1/GPa)
#
#
# Indices 1 2 3 4 5 6 
#
# 1 0.023661 -0.000188 0.000128 -0.000085 -0.005289 -0.000059
# 2 -0.000188 0.016661 -0.002958 -0.000058 -0.002590 -0.000035
# 3 0.000128 -0.002958 0.009878 -0.000019 -0.001991 -0.000016
# 4 -0.000085 -0.000058 -0.000019 0.734982 0.000123 0.243971
# 5 -0.005289 -0.002590 -0.001991 0.000123 0.030681 0.000079
# 6 -0.000059 -0.000035 -0.000016 0.243971 0.000079 0.137398
#
#
# Mechanical properties :
#
#
# Convention : Reuss Voigt Hill
#
# Bulk Modulus (GPa) = 22.64269 29.67822 26.16046
# Shear Modulus (GPa) = 5.13338 24.15203 14.64270
#
# Velocity S-wave (km/s) = 1.51115 3.27781 2.55222
# Velocity P-wave (km/s) = 3.62179 5.24669 4.50805
#
# Compressibility (1/GPa) = 0.04416436
#
# Stress axis : x y z
#
# Youngs Moduli (GPa) = 42.26371 60.02040 101.23305
#
# Poissons Ratio (x) = 0.01130 -0.01297
# Poissons Ratio (y) = 0.00796 0.29942
# Poissons Ratio (z) = -0.00542 0.17753
#
# Static dielectric constant tensor:
#      x y z
#    x 1.831920 0.000000 0.000640 
#    y 0.000000 1.832370 0.000000 
#    z 0.000640 0.000000 1.830440 
# 
# From -- ./inp_files/22397.got.cif
#   From: 2010.05.17/outbox.cif.g08.bks.cpg/sg8_12_cif.got.tgz:22397.got - 2010.06.03 19:46:02.
