data_PCOD9132141
_publ_section_title
;
Structure prediction by ZEFSAII (Michael W. Deem and Ramdas Pophale) SiO2 
 PCOD9132141
Probable space group: C M
;
_chemical_formula_sum "Si O2"
_cell_formula_units_Z 32
_cell_length_a 20.888381
_cell_length_b 13.097490
_cell_length_c 6.862463
_cell_angle_alpha 90.000000
_cell_angle_beta 114.029007
_cell_angle_gamma 90.000000
_cell_volume 1714.766836
_symmetry_space_group_name_H-M "C M"
_symmetry_group_IT_number 8
_symmetry_cell_setting 'monoclinic'
loop_
_space_group_symop_operation_xyz
x,y,z
x,-y,z
1/2+x,1/2+y,z
1/2+x,1/2-y,z
loop_
_atom_site_type_symbol
_atom_site_label
_atom_site_fract_x
_atom_site_fract_y
_atom_site_fract_z
Si Si1 0.158740 0.765553 0.505740
Si Si2 0.350340 0.716280 0.466267
Si Si3 0.477251 0.745182 0.908849
Si Si4 0.409921 0.383286 0.154639
Si Si5 0.774019 0.887744 0.710284
Si Si6 0.112552 0.205607 0.853453
Si Si7 0.731708 0.382640 0.260519
Si Si8 0.596334 0.881480 0.099791
O O1 0.222225 0.705052 0.687007
O O2 0.109303 0.801433 0.618099
O O3 0.190171 0.853239 0.407783
O O4 0.125483 0.682356 0.318768
O O5 0.408361 0.754296 0.692610
O O6 0.390178 0.665820 0.335622
O O7 0.304475 0.634416 0.531673
O O8 0.297342 0.805290 0.334015
O O9 0.538128 0.684184 0.865658
O O10 0.460980 0.686040 0.087524
O O11 0.513763 0.854151 0.991573
O O12 0.435020 0.500000 0.206092
O O13 0.338251 0.386307 0.939274
O O14 0.740819 0.000000 0.675963
O O15 0.175662 0.139948 0.020240
O O16 0.125981 0.322300 0.946385
O O17 0.753286 0.500000 0.285653
O O18 0.611686 0.000000 0.124678
#
# Coordination Sequence:
#
# PCOD9132141 Si02
#       8
#     4   4   4   4   4   4   4   4
#     4  10  19  36  60  84 112 151 188 235 288 345
#     4  10  20  36  58  81 113 152 190 236 290 340
#     4   9  22  37  55  82 119 147 193 241 286 340
#     4  10  20  36  58  82 111 148 190 236 287 342
#     4   9  18  32  53  85 111 136 179 233 286 344
#     4   9  21  38  57  82 118 151 190 238 287 340
#     4  10  22  39  58  85 118 152 197 241 285 345
#     4   9  20  36  55  81 114 147 187 234 283 340
#
# _framework density 18.661428999999998
#
# number of rings (size 3 to 8) (size 9 to 14) (size 15 to 20)
#    0.750    1.750    0.000    1.500    1.750    3.000 
#    0.000    3.750    0.000    0.000    0.000    0.000 
#    0.000    0.000    0.000    0.000    0.000    0.000 
#
# Total GULP energy -89130.705710 kJ/mol
# GULP energy per Si atom -5570.669107 kJ/mol
# Density = 1.861895 g / cm^3
# Si number density = 18.661429 Si / 1000 Ang^3
#
#
#
# Elastic Constant Matrix: (Units=GPa)
#
#
# Indices 1 2 3 4 5 6 
#
# 1 47.9571 -6.6741 11.9906 0.0000 -12.7332 0.0000
# 2 -6.6741 61.0084 7.3332 0.0000 -0.4908 0.0000
# 3 11.9906 7.3332 50.5479 0.0000 -15.8203 0.0000
# 4 0.0000 0.0000 0.0000 8.8867 0.0000 2.1412
# 5 -12.7332 -0.4908 -15.8203 0.0000 38.3710 0.0000
# 6 0.0000 0.0000 0.0000 2.1412 0.0000 16.8708
#
#
#
# Elastic Compliance Matrix: (Units=1/GPa)
#
#
# Indices 1 2 3 4 5 6 
#
# 1 0.024010 0.003181 -0.004191 0.000000 0.006280 0.000000
# 2 0.003181 0.017131 -0.003262 0.000000 -0.000070 0.000000
# 3 -0.004191 -0.003262 0.023884 0.000000 0.008415 0.000000
# 4 0.000000 0.000000 0.000000 0.116077 0.000000 -0.014732
# 5 0.006280 -0.000070 0.008415 0.000000 0.031614 0.000000
# 6 0.000000 0.000000 0.000000 -0.014732 0.000000 0.061144
#
#
# Mechanical properties :
#
#
# Convention : Reuss Voigt Hill
#
# Bulk Modulus (GPa) = 17.70518 20.53476 19.11997
# Shear Modulus (GPa) = 16.59856 22.61661 19.60759
#
# Velocity S-wave (km/s) = 2.98561 3.48508 3.24497
# Velocity P-wave (km/s) = 4.62530 5.21748 4.93029
#
# Compressibility (1/GPa) = 0.05648064
#
# Stress axis : x y z
#
# Youngs Moduli (GPa) = 41.64915 58.37481 41.86848
#
# Poissons Ratio (x) = -0.18569 0.17549
# Poissons Ratio (y) = -0.13248 0.13656
# Poissons Ratio (z) = 0.17457 0.19040
#
# Static dielectric constant tensor:
#      x y z
#    x 1.666680 0.000000 0.013930 
#    y 0.000000 1.623620 0.000000 
#    z 0.013930 0.000000 1.658110 
# 
# From -- ./inp_files/6009.got.cif
#   From: 2010.05.17/outbox.cif.g08.bks.cpg/sg8_4_cif.got.tgz:6009.got - 2010.06.03 19:46:02.
