data_PCOD9132808
_publ_section_title
;
Structure prediction by ZEFSAII (Michael W. Deem and Ramdas Pophale) SiO2 
 PCOD9132808
Probable space group: C M
;
_chemical_formula_sum "Si O2"
_cell_formula_units_Z 28
_cell_length_a 12.009134
_cell_length_b 14.357118
_cell_length_c 7.092903
_cell_angle_alpha 90.000000
_cell_angle_beta 77.681921
_cell_angle_gamma 90.000000
_cell_volume 1194.779883
_symmetry_space_group_name_H-M "C M"
_symmetry_group_IT_number 8
_symmetry_cell_setting 'monoclinic'
loop_
_space_group_symop_operation_xyz
x,y,z
x,-y,z
1/2+x,1/2+y,z
1/2+x,1/2-y,z
loop_
_atom_site_type_symbol
_atom_site_label
_atom_site_fract_x
_atom_site_fract_y
_atom_site_fract_z
Si Si1 0.539140 0.896205 0.569910
Si Si2 0.868874 0.104978 0.190138
Si Si3 0.806259 0.309390 0.720156
Si Si4 0.113690 0.600915 0.127939
Si Si5 0.136922 0.802505 0.481373
Si Si6 0.400078 0.607595 0.627380
Si Si7 0.595495 0.294489 0.047912
O O1 0.416821 0.873101 0.701237
O O2 0.534357 0.898156 0.341781
O O3 0.611539 0.801855 0.567900
O O4 0.582983 0.000000 0.604978
O O5 0.742253 0.117382 0.158085
O O6 0.868582 0.113906 0.416399
O O7 0.970117 0.165139 0.069474
O O8 0.903062 0.000000 0.135791
O O9 0.758317 0.325374 0.525667
O O10 0.839973 0.199838 0.734545
O O11 0.699964 0.333633 0.891404
O O12 0.108637 0.500000 0.040362
O O13 0.084546 0.685486 0.006913
O O14 0.127426 0.803114 0.258669
O O15 0.035290 0.869873 0.588318
O O16 0.375684 0.500000 0.697129
#
# Coordination Sequence:
#
# PCOD9132808 Si02
#       7
#     4   4   4   4   4   4   4
#     4   9  19  36  56  80 111 144 179 220 269 324
#     4   9  18  35  59  81 105 144 186 223 266 315
#     4  11  22  35  56  84 112 143 176 219 276 326
#     4   9  18  35  58  79 105 145 185 222 266 315
#     4   9  20  38  56  76 108 148 184 220 264 316
#     4   9  18  34  55  80 109 142 185 227 261 313
#     4  10  21  35  56  84 112 138 179 227 268 319
#
# _framework density 23.435276999999999
#
# number of rings (size 3 to 8) (size 9 to 14) (size 15 to 20)
#    0.000    2.571    0.000    2.571    0.000    5.714 
#    0.000    1.429    0.000    4.286    0.000    0.000 
#    0.000    0.000    0.000    0.000    0.000    0.000 
#
# Total GULP energy -78204.935442 kJ/mol
# GULP energy per Si atom -5586.066817 kJ/mol
# Density = 2.338194 g / cm^3
# Si number density = 23.435277 Si / 1000 Ang^3
#
#
#
# Elastic Constant Matrix: (Units=GPa)
#
#
# Indices 1 2 3 4 5 6 
#
# 1 70.6305 29.9683 22.3577 0.0000 -7.4943 0.0000
# 2 29.9683 86.8140 12.1802 0.0000 -11.8403 0.0000
# 3 22.3577 12.1802 102.5313 0.0000 -6.0941 0.0000
# 4 0.0000 0.0000 0.0000 -15.2859 0.0000 -3.9653
# 5 -7.4943 -11.8403 -6.0941 0.0000 38.1643 0.0000
# 6 0.0000 0.0000 0.0000 -3.9653 0.0000 24.5948
#
#
#
# Elastic Compliance Matrix: (Units=1/GPa)
#
#
# Indices 1 2 3 4 5 6 
#
# 1 0.017596 -0.005465 -0.003113 0.000000 0.001263 0.000000
# 2 -0.005465 0.013878 -0.000267 0.000000 0.003190 0.000000
# 3 -0.003113 -0.000267 0.010522 0.000000 0.000986 0.000000
# 4 0.000000 0.000000 0.000000 -0.062793 0.000000 -0.010124
# 5 0.001263 0.003190 0.000986 0.000000 0.027598 0.000000
# 6 0.000000 0.000000 0.000000 -0.010124 0.000000 0.039027
#
#
# Mechanical properties :
#
#
# Convention : Reuss Voigt Hill
#
# Bulk Modulus (GPa) = 41.14219 43.22094 42.18156
# Shear Modulus (GPa) = 69.81263 22.52594 46.16928
#
# Velocity S-wave (km/s) = 5.46390 3.10368 4.44337
# Velocity P-wave (km/s) = 7.57624 5.59701 6.66055
#
# Compressibility (1/GPa) = 0.02430595
#
# Stress axis : x y z
#
# Youngs Moduli (GPa) = 56.82972 72.05612 95.03688
#
# Poissons Ratio (x) = 0.39381 0.29582
# Poissons Ratio (y) = 0.31060 0.02540
# Poissons Ratio (z) = 0.17690 0.01926
#
# Static dielectric constant tensor:
#      x y z
#    x 1.868400 0.000000 0.017920 
#    y 0.000000 1.900470 0.000000 
#    z 0.017920 0.000000 1.930750 
# 
# From -- ./inp_files/10599.got.cif
#   From: 2010.05.17/outbox.cif.g08.bks.cpg/sg8_6_cif.got.tgz:10599.got - 2010.06.03 19:46:02.
