data_PCOD9132820
_publ_section_title
;
Structure prediction by ZEFSAII (Michael W. Deem and Ramdas Pophale) SiO2 
 PCOD9132820
Probable space group: C M
;
_chemical_formula_sum "Si O2"
_cell_formula_units_Z 32
_cell_length_a 21.332781
_cell_length_b 8.277602
_cell_length_c 12.677245
_cell_angle_alpha 90.000000
_cell_angle_beta 127.975454
_cell_angle_gamma 90.000000
_cell_volume 1764.632778
_symmetry_space_group_name_H-M "C M"
_symmetry_group_IT_number 8
_symmetry_cell_setting 'monoclinic'
loop_
_space_group_symop_operation_xyz
x,y,z
x,-y,z
1/2+x,1/2+y,z
1/2+x,1/2-y,z
loop_
_atom_site_type_symbol
_atom_site_label
_atom_site_fract_x
_atom_site_fract_y
_atom_site_fract_z
Si Si1 0.693030 0.807666 0.449100
Si Si2 0.100199 0.303217 0.008863
Si Si3 0.013993 0.192340 0.299473
Si Si4 0.344577 0.195024 0.720488
Si Si5 0.959447 0.305326 0.020825
Si Si6 0.755219 0.197626 0.284266
Si Si7 0.935106 0.805189 0.433126
Si Si8 0.486223 0.805033 0.709760
O O1 0.605412 0.743758 0.381209
O O2 0.758285 0.760500 0.603443
O O3 0.726165 0.748828 0.370003
O O4 0.687554 0.000000 0.436706
O O5 0.100273 0.500000 0.008207
O O6 0.038335 0.254921 0.037041
O O7 0.061344 0.251270 0.858234
O O8 0.188324 0.250528 0.131106
O O9 0.976032 0.256019 0.368761
O O10 0.011568 0.000000 0.301082
O O11 0.965934 0.246396 0.146240
O O12 0.384253 0.246827 0.872173
O O13 0.407238 0.244892 0.693708
O O14 0.341776 0.000000 0.717035
O O15 0.959733 0.500000 0.022089
O O16 0.844106 0.253171 0.351286
O O17 0.756266 0.000000 0.286206
O O18 0.981656 0.758182 0.587111
O O19 0.932493 0.000000 0.425561
O O20 0.486381 0.000000 0.707620
#
# Coordination Sequence:
#
# PCOD9132820 Si02
#       8
#     4   4   4   4   4   4   4   4
#     4  11  20  33  57  81 103 138 185 225 262 316
#     4   8  14  28  52  79 102 127 167 217 262 303
#     4  11  23  36  51  75 112 148 179 220 267 315
#     4   9  18  32  53  82 113 138 168 219 274 315
#     4   9  17  33  55  78 106 142 177 211 264 325
#     4   9  16  30  54  78  99 129 174 218 256 306
#     4  10  21  36  52  74 108 145 172 209 268 318
#     4   9  17  30  52  79 105 135 172 213 257 314
#
# _framework density 18.134084000000001
#
# number of rings (size 3 to 8) (size 9 to 14) (size 15 to 20)
#    0.000    2.500    2.500    2.250    0.000    1.500 
#    0.000    3.125    0.000    1.500    0.000    0.000 
#    0.000    0.000    0.000    0.000    0.000    0.000 
#
# Total GULP energy -89226.076077 kJ/mol
# GULP energy per Si atom -5576.629755 kJ/mol
# Density = 1.809281 g / cm^3
# Si number density = 18.134084 Si / 1000 Ang^3
#
#
#
# Elastic Constant Matrix: (Units=GPa)
#
#
# Indices 1 2 3 4 5 6 
#
# 1 115.7208 14.9072 87.4471 0.0000 -13.4374 0.0000
# 2 14.9072 10.1885 14.4185 0.0000 -3.6046 0.0000
# 3 87.4471 14.4185 179.2024 0.0000 -11.4401 0.0000
# 4 0.0000 0.0000 0.0000 25.4839 0.0000 -0.2261
# 5 -13.4374 -3.6046 -11.4401 0.0000 25.9976 0.0000
# 6 0.0000 0.0000 0.0000 -0.2261 0.0000 16.6469
#
#
#
# Elastic Compliance Matrix: (Units=1/GPa)
#
#
# Indices 1 2 3 4 5 6 
#
# 1 0.015398 -0.012393 -0.006295 0.000000 0.003470 0.000000
# 2 -0.012393 0.124347 -0.003360 0.000000 0.009357 0.000000
# 3 -0.006295 -0.003360 0.008936 0.000000 0.000213 0.000000
# 4 0.000000 0.000000 0.000000 0.039245 0.000000 0.000533
# 5 0.003470 0.009357 0.000213 0.000000 0.041650 0.000000
# 6 0.000000 0.000000 0.000000 0.000533 0.000000 0.060079
#
#
# Mechanical properties :
#
#
# Convention : Reuss Voigt Hill
#
# Bulk Modulus (GPa) = 9.56159 59.85081 34.70620
# Shear Modulus (GPa) = 13.56436 26.18162 19.87299
#
# Velocity S-wave (km/s) = 2.73793 3.80383 3.31402
# Velocity P-wave (km/s) = 3.90886 7.23660 5.81582
#
# Compressibility (1/GPa) = 0.10458512
#
# Stress axis : x y z
#
# Youngs Moduli (GPa) = 64.94312 8.04199 111.90464
#
# Poissons Ratio (x) = 0.09966 0.70447
# Poissons Ratio (y) = 0.80482 0.37602
# Poissons Ratio (z) = 0.40884 0.02702
#
# Static dielectric constant tensor:
#      x y z
#    x 1.605450 0.000000 -0.000770 
#    y 0.000000 1.636860 0.000000 
#    z -0.000770 0.000000 1.633230 
# 
# From -- ./inp_files/23701.got.cif
#   From: 2010.05.17/outbox.cif.g08.bks.cpg/sg8_12_cif.got.tgz:23701.got - 2010.06.03 19:46:02.
