data_PCOD9132108
_publ_section_title
;
Structure prediction by ZEFSAII (Michael W. Deem and Ramdas Pophale) SiO2 
 PCOD9132108
Probable space group: C M
;
_chemical_formula_sum "Si O2"
_cell_formula_units_Z 32
_cell_length_a 15.410033
_cell_length_b 9.171407
_cell_length_c 23.149878
_cell_angle_alpha 90.000000
_cell_angle_beta 31.182098
_cell_angle_gamma 90.000000
_cell_volume 1694.012100
_symmetry_space_group_name_H-M "C M"
_symmetry_group_IT_number 8
_symmetry_cell_setting 'monoclinic'
loop_
_space_group_symop_operation_xyz
x,y,z
x,-y,z
1/2+x,1/2+y,z
1/2+x,1/2-y,z
loop_
_atom_site_type_symbol
_atom_site_label
_atom_site_fract_x
_atom_site_fract_y
_atom_site_fract_z
Si Si1 0.880810 0.825999 0.166690
Si Si2 0.047910 0.172402 0.566980
Si Si3 0.654241 0.828631 0.812077
Si Si4 0.060512 0.826943 0.300564
Si Si5 0.747418 0.826429 0.556240
Si Si6 0.547971 0.672790 0.764623
Si Si7 0.303949 0.325164 0.343558
Si Si8 0.176551 0.325663 0.933091
O O1 0.728749 0.761307 0.215497
O O2 0.849874 0.789436 0.251743
O O3 0.884720 0.000000 0.159558
O O4 0.052314 0.757780 0.045980
O O5 0.128078 0.255932 0.575668
O O6 0.140242 0.240230 0.459031
O O7 0.848913 0.190004 0.683514
O O8 0.084413 0.000000 0.550379
O O9 0.547386 0.730961 0.829964
O O10 0.637355 0.789857 0.888827
O O11 0.612805 0.000000 0.828729
O O12 0.934303 0.799490 0.426157
O O13 0.954137 0.790306 0.303374
O O14 0.096805 0.000000 0.277839
O O15 0.694459 0.753465 0.646017
O O16 0.723289 0.000000 0.572727
O O17 0.573803 0.500000 0.747477
O O18 0.370343 0.707428 0.836062
O O19 0.275281 0.500000 0.364623
O O20 0.155515 0.500000 0.952014
#
# Coordination Sequence:
#
# PCOD9132108 Si02
#       8
#     4   4   4   4   4   4   4   4
#     4  11  24  40  62  90 118 153 205 253 293 351
#     4  10  19  35  60  89 123 158 200 246 297 357
#     4  10  22  40  60  87 121 159 200 245 303 362
#     4   9  20  39  60  84 118 160 198 236 297 360
#     4  10  20  36  60  89 125 162 197 241 302 362
#     4  11  23  39  61  91 121 156 202 250 299 356
#     4   9  21  40  58  85 122 159 196 242 302 359
#     4  10  23  45  63  81 120 163 200 245 301 359
#
# _framework density 18.890065
#
# number of rings (size 3 to 8) (size 9 to 14) (size 15 to 20)
#    0.000    2.000    1.250    2.250    1.750    7.000 
#    0.000    3.750    0.000    0.000    0.000    0.000 
#    0.000    0.000    0.000    0.000    0.000    0.000 
#
# Total GULP energy -89370.995673 kJ/mol
# GULP energy per Si atom -5585.687230 kJ/mol
# Density = 1.884707 g / cm^3
# Si number density = 18.890065 Si / 1000 Ang^3
#
#
#
# Elastic Constant Matrix: (Units=GPa)
#
#
# Indices 1 2 3 4 5 6 
#
# 1 51.0341 18.4694 12.3307 -0.0001 15.6808 0.0000
# 2 18.4694 35.3030 33.1092 0.0000 6.5493 0.0000
# 3 12.3307 33.1092 64.0199 -0.0002 20.0366 0.0000
# 4 -0.0001 0.0000 -0.0002 32.5347 0.0001 4.4092
# 5 15.6808 6.5493 20.0366 0.0001 22.9766 0.0000
# 6 0.0000 0.0000 0.0000 4.4092 0.0000 28.0138
#
#
#
# Elastic Compliance Matrix: (Units=1/GPa)
#
#
# Indices 1 2 3 4 5 6 
#
# 1 0.036159 -0.030897 0.019230 0.000000 -0.032640 0.000000
# 2 -0.030897 0.084172 -0.050436 -0.000001 0.041076 0.000000
# 3 0.019230 -0.050436 0.051726 0.000001 -0.043854 0.000000
# 4 0.000000 -0.000001 0.000001 0.031406 -0.000001 -0.004943
# 5 -0.032640 0.041076 -0.043854 -0.000001 0.092333 0.000000
# 6 0.000000 0.000000 0.000000 -0.004943 0.000000 0.036475
#
#
# Mechanical properties :
#
#
# Convention : Reuss Voigt Hill
#
# Bulk Modulus (GPa) = 20.89831 30.90839 25.90335
# Shear Modulus (GPa) = 10.58364 22.46821 16.52592
#
# Velocity S-wave (km/s) = 2.36958 3.45254 2.96099
# Velocity P-wave (km/s) = 4.30972 5.68253 5.04306
#
# Compressibility (1/GPa) = 0.04785076
#
# Stress axis : x y z
#
# Youngs Moduli (GPa) = 27.65538 11.88045 19.33280
#
# Poissons Ratio (x) = 0.36707 -0.37177
# Poissons Ratio (y) = 0.85447 0.97507
# Poissons Ratio (z) = -0.53181 0.59920
#
# Static dielectric constant tensor:
#      x y z
#    x 1.663460 0.000000 0.008510 
#    y 0.000000 1.624320 0.000000 
#    z 0.008510 0.000000 1.637570 
# 
# From -- ./inp_files/28136.got.cif
#   From: 2010.05.17/outbox.cif.g08.bks.cpg/sg8_15_cif.got.tgz:28136.got - 2010.06.03 19:46:02.
