data_PCOD9132433
_publ_section_title
;
Structure prediction by ZEFSAII (Michael W. Deem and Ramdas Pophale) SiO2 
 PCOD9132433
Probable space group: C M
;
_chemical_formula_sum "Si O2"
_cell_formula_units_Z 32
_cell_length_a 11.575098
_cell_length_b 17.978992
_cell_length_c 14.788457
_cell_angle_alpha 90.000000
_cell_angle_beta 27.726333
_cell_angle_gamma 90.000000
_cell_volume 1431.852406
_symmetry_space_group_name_H-M "C M"
_symmetry_group_IT_number 8
_symmetry_cell_setting 'monoclinic'
loop_
_space_group_symop_operation_xyz
x,y,z
x,-y,z
1/2+x,1/2+y,z
1/2+x,1/2-y,z
loop_
_atom_site_type_symbol
_atom_site_label
_atom_site_fract_x
_atom_site_fract_y
_atom_site_fract_z
Si Si1 0.797840 0.871948 0.312700
Si Si2 0.478435 0.581025 0.380013
Si Si3 0.186074 0.172736 0.905097
Si Si4 0.656170 0.728862 0.648753
Si Si5 0.962975 0.324649 0.065687
Si Si6 0.828671 0.296702 0.345445
Si Si7 0.311311 0.357424 0.669909
Si Si8 0.258352 0.914267 0.670832
O O1 0.842162 0.908162 0.379779
O O2 0.753521 0.784468 0.360334
O O3 0.550386 0.906524 0.441921
O O4 0.050578 0.873036 0.078882
O O5 0.596856 0.500000 0.300938
O O6 0.689364 0.643104 0.242704
O O7 0.300314 0.589613 0.590440
O O8 0.426009 0.222550 0.768485
O O9 0.243117 0.118279 0.783336
O O10 0.991521 0.238677 0.016391
O O11 0.864856 0.719374 0.425980
O O12 0.747804 0.777610 0.669138
O O13 0.606681 0.645545 0.716852
O O14 0.013509 0.325577 0.139375
O O15 0.138032 0.369452 0.875771
O O16 0.593934 0.351725 0.506791
O O17 0.181989 0.000000 0.717672
#
# Coordination Sequence:
#
# PCOD9132433 Si02
#       8
#     4   4   4   4   4   4   4   4
#     4  11  21  40  66  96 130 175 217 273 336 404
#     4  11  24  37  61  97 128 167 219 278 338 389
#     4  11  23  41  71  98 128 179 232 275 330 416
#     4  12  19  41  66  99 127 174 228 268 333 410
#     4  10  21  39  62  95 123 168 223 278 321 394
#     4  10  20  35  62  96 116 160 221 268 306 392
#     4  11  19  39  62  88 125 165 214 266 323 394
#     4  12  26  44  66 101 144 176 220 292 356 401
#
# _framework density 22.348672000000001
#
# number of rings (size 3 to 8) (size 9 to 14) (size 15 to 20)
#    0.000    1.000    6.250    1.125    0.000    1.500 
#    2.250    3.125    0.000    0.000    0.000    0.000 
#    0.000    0.000    0.000    0.000    0.000    0.000 
#
# Total GULP energy -89248.154696 kJ/mol
# GULP energy per Si atom -5578.009669 kJ/mol
# Density = 2.229781 g / cm^3
# Si number density = 22.348672 Si / 1000 Ang^3
#
#
#
# Elastic Constant Matrix: (Units=GPa)
#
#
# Indices 1 2 3 4 5 6 
#
# 1 63.0804 24.9521 49.4858 -0.0079 23.3491 -0.0106
# 2 24.9521 107.2165 22.2601 -0.1064 -1.0359 -0.0024
# 3 49.4858 22.2601 139.0031 0.0607 38.1386 0.0091
# 4 -0.0079 -0.1064 0.0607 11.3687 -0.0615 -0.0443
# 5 23.3491 -1.0359 38.1386 -0.0615 36.8065 -0.0294
# 6 -0.0106 -0.0024 0.0091 -0.0443 -0.0294 9.8196
#
#
#
# Elastic Compliance Matrix: (Units=1/GPa)
#
#
# Indices 1 2 3 4 5 6 
#
# 1 0.026294 -0.005087 -0.005491 -0.000060 -0.011133 -0.000001
# 2 -0.005087 0.010816 -0.001244 0.000130 0.004820 0.000013
# 3 -0.005491 -0.001244 0.011740 -0.000125 -0.008716 -0.000044
# 4 -0.000060 0.000130 -0.000125 0.087966 0.000319 0.000398
# 5 -0.011133 0.004820 -0.008716 0.000319 0.043400 0.000129
# 6 -0.000001 0.000013 -0.000044 0.000398 0.000129 0.101840
#
#
# Mechanical properties :
#
#
# Convention : Reuss Voigt Hill
#
# Bulk Modulus (GPa) = 39.67406 55.85511 47.76459
# Shear Modulus (GPa) = 15.91849 25.77243 20.84546
#
# Velocity S-wave (km/s) = 2.67175 3.39956 3.05739
# Velocity P-wave (km/s) = 5.22576 6.36052 5.82086
#
# Compressibility (1/GPa) = 0.02520539
#
# Stress axis : x y z
#
# Youngs Moduli (GPa) = 38.03176 92.45838 85.18032
#
# Poissons Ratio (x) = 0.47032 0.46776
# Poissons Ratio (y) = 0.19346 0.10594
# Poissons Ratio (z) = 0.20885 0.11499
#
# Static dielectric constant tensor:
#      x y z
#    x 1.879220 -0.000010 0.018360 
#    y -0.000010 1.811130 0.000040 
#    z 0.018360 0.000040 1.897980 
# 
# From -- ./inp_files/26258.got.cif
#   From: 2010.05.17/outbox.cif.g08.bks.cpg/sg8_14_cif.got.tgz:26258.got - 2010.06.03 19:46:02.
