data_PCOD9132950
_publ_section_title
;
Structure prediction by ZEFSAII (Michael W. Deem and Ramdas Pophale) SiO2 
 PCOD9132950
Probable space group: C M
;
_chemical_formula_sum "Si O2"
_cell_formula_units_Z 28
_cell_length_a 15.756040
_cell_length_b 16.016636
_cell_length_c 9.705452
_cell_angle_alpha 90.000000
_cell_angle_beta 28.355825
_cell_angle_gamma 90.000000
_cell_volume 1163.263904
_symmetry_space_group_name_H-M "C M"
_symmetry_group_IT_number 8
_symmetry_cell_setting 'monoclinic'
loop_
_space_group_symop_operation_xyz
x,y,z
x,-y,z
1/2+x,1/2+y,z
1/2+x,1/2-y,z
loop_
_atom_site_type_symbol
_atom_site_label
_atom_site_fract_x
_atom_site_fract_y
_atom_site_fract_z
Si Si1 0.742230 0.644444 0.808330
Si Si2 0.302935 0.596972 0.770130
Si Si3 0.746234 0.899859 0.169566
Si Si4 0.141790 0.905527 0.659148
Si Si5 0.559333 0.274450 0.293782
Si Si6 0.925059 0.347920 0.797694
Si Si7 0.487434 0.899303 0.018984
O O1 0.684480 0.594103 0.759369
O O2 0.905655 0.705038 0.529250
O O3 0.818561 0.596871 0.834151
O O4 0.577017 0.695910 0.109353
O O5 0.344826 0.500000 0.687242
O O6 0.479817 0.651370 0.501613
O O7 0.218875 0.602913 0.043037
O O8 0.162067 0.626908 0.855557
O O9 0.613464 0.843162 0.449203
O O10 0.727710 0.000000 0.234624
O O11 0.947097 0.870915 0.912338
O O12 0.308190 0.864516 0.345511
O O13 0.129108 0.000000 0.622755
O O14 0.774613 0.274388 0.019429
O O15 0.973089 0.378776 0.879387
O O16 0.488027 0.000000 0.034307
#
# Coordination Sequence:
#
# PCOD9132950 Si02
#       7
#     4   4   4   4   4   4   4
#     4  10  25  45  67  92 133 178 224 283 330 396
#     4  10  22  41  70  99 134 179 220 276 339 397
#     4  10  21  38  66 103 139 170 217 275 335 402
#     4  10  22  41  69 102 136 174 217 276 339 402
#     4  10  25  43  68  91 133 176 226 284 326 398
#     4  10  23  38  63  93 127 181 212 275 322 393
#     4  10  21  38  63 100 139 170 216 273 331 396
#
# _framework density 24.070205000000001
#
# number of rings (size 3 to 8) (size 9 to 14) (size 15 to 20)
#    0.857    1.143    0.000    2.143    6.000    5.143 
#    0.000    4.286    0.000    0.000    0.000    0.000 
#    0.000    0.000    0.000    0.000    0.000    0.000 
#
# Total GULP energy -78023.876738 kJ/mol
# GULP energy per Si atom -5573.134053 kJ/mol
# Density = 2.401542 g / cm^3
# Si number density = 24.070205 Si / 1000 Ang^3
#
#
#
# Elastic Constant Matrix: (Units=GPa)
#
#
# Indices 1 2 3 4 5 6 
#
# 1 139.8745 -2.4883 40.1631 0.0006 5.0056 -0.0009
# 2 -2.4883 68.6869 33.7733 -0.0002 -14.4751 -0.0001
# 3 40.1631 33.7733 162.4096 -0.0003 2.9057 -0.0003
# 4 0.0006 -0.0002 -0.0003 9.0464 -0.0001 4.9548
# 5 5.0056 -14.4751 2.9057 -0.0001 35.6758 0.0006
# 6 -0.0009 -0.0001 -0.0003 4.9548 0.0006 24.9334
#
#
#
# Elastic Compliance Matrix: (Units=1/GPa)
#
#
# Indices 1 2 3 4 5 6 
#
# 1 0.007815 0.001276 -0.002191 -0.000001 -0.000400 0.000000
# 2 0.001276 0.018298 -0.004256 0.000000 0.007592 0.000000
# 3 -0.002191 -0.004256 0.007621 0.000000 -0.002040 0.000000
# 4 -0.000001 0.000000 0.000000 0.124042 0.000001 -0.024650
# 5 -0.000400 0.007592 -0.002040 0.000001 0.031333 -0.000001
# 6 0.000000 0.000000 0.000000 -0.024650 -0.000001 0.045005
#
#
# Mechanical properties :
#
#
# Convention : Reuss Voigt Hill
#
# Bulk Modulus (GPa) = 42.75097 57.09636 49.92366
# Shear Modulus (GPa) = 19.82129 33.89931 26.86030
#
# Velocity S-wave (km/s) = 2.87274 3.75687 3.34416
# Velocity P-wave (km/s) = 5.36685 6.52618 5.97470
#
# Compressibility (1/GPa) = 0.02339128
#
# Stress axis : x y z
#
# Youngs Moduli (GPa) = 127.95287 54.65124 131.22144
#
# Poissons Ratio (x) = -0.06974 0.28749
# Poissons Ratio (y) = -0.16327 0.55854
# Poissons Ratio (z) = 0.28033 0.23262
#
# Static dielectric constant tensor:
#      x y z
#    x 1.951400 0.000000 -0.002160 
#    y 0.000000 2.019910 0.000000 
#    z -0.002160 0.000000 1.932460 
# 
# From -- ./inp_files/13741.got.cif
#   From: 2010.05.17/outbox.cif.g08.bks.cpg/sg8_7_cif.got.tgz:13741.got - 2010.06.03 19:46:02.
