data_PCOD9132014
_publ_section_title
;
Structure prediction by ZEFSAII (Michael W. Deem and Ramdas Pophale) SiO2 
 PCOD9132014
Probable space group: C M
;
_chemical_formula_sum "Si O2"
_cell_formula_units_Z 32
_cell_length_a 20.470921
_cell_length_b 8.807188
_cell_length_c 12.444819
_cell_angle_alpha 90.000000
_cell_angle_beta 53.862486
_cell_angle_gamma 90.000000
_cell_volume 1812.014473
_symmetry_space_group_name_H-M "C M"
_symmetry_group_IT_number 8
_symmetry_cell_setting 'monoclinic'
loop_
_space_group_symop_operation_xyz
x,y,z
x,-y,z
1/2+x,1/2+y,z
1/2+x,1/2-y,z
loop_
_atom_site_type_symbol
_atom_site_label
_atom_site_fract_x
_atom_site_fract_y
_atom_site_fract_z
Si Si1 0.542580 0.819364 0.744590
Si Si2 0.773775 0.819247 0.260341
Si Si3 0.627368 0.681001 0.279873
Si Si4 0.949196 0.681930 0.052872
Si Si5 0.509965 0.181577 0.226827
Si Si6 0.867580 0.182163 0.509974
Si Si7 0.482564 0.680303 0.589802
Si Si8 0.718905 0.681067 0.541911
O O1 0.490693 0.772152 0.691003
O O2 0.628215 0.735547 0.651873
O O3 0.556501 0.000000 0.730521
O O4 0.496583 0.778298 0.898689
O O5 0.709987 0.760132 0.234208
O O6 0.863881 0.765898 0.145101
O O7 0.747581 0.745765 0.399101
O O8 0.769750 0.000000 0.273479
O O9 0.637601 0.500000 0.262306
O O10 0.586819 0.745888 0.211526
O O11 0.561200 0.710196 0.438570
O O12 0.933924 0.500000 0.067185
O O13 0.001222 0.715096 0.109310
O O14 0.431063 0.249866 0.362526
O O15 0.510758 0.000000 0.241086
O O16 0.905603 0.216445 0.589740
O O17 0.780990 0.252783 0.569252
O O18 0.865597 0.000000 0.499600
O O19 0.482049 0.500000 0.613360
O O20 0.723146 0.500000 0.534809
#
# Coordination Sequence:
#
# PCOD9132014 Si02
#       8
#     4   4   4   4   4   4   4   4
#     4  11  23  39  60  85 117 156 196 235 285 349
#     4  12  23  36  60  89 115 149 197 241 285 346
#     4  10  20  35  57  85 119 150 187 241 291 336
#     4  10  23  41  59  84 120 156 189 237 293 343
#     4  10  19  34  57  84 117 153 191 234 289 347
#     4  10  20  35  57  86 116 147 191 243 290 338
#     4   9  19  35  56  83 117 152 187 236 290 337
#     4  12  23  37  58  86 119 151 192 243 291 340
#
# _framework density 17.659903
#
# number of rings (size 3 to 8) (size 9 to 14) (size 15 to 20)
#    0.000    1.500    2.500    4.500    0.000    4.000 
#    0.000    1.250    0.000    1.500    0.000    0.000 
#    0.000    0.000    0.000    0.000    0.000    0.000 
#
# Total GULP energy -89397.429318 kJ/mol
# GULP energy per Si atom -5587.339332 kJ/mol
# Density = 1.761971 g / cm^3
# Si number density = 17.659903 Si / 1000 Ang^3
#
#
#
# Elastic Constant Matrix: (Units=GPa)
#
#
# Indices 1 2 3 4 5 6 
#
# 1 149.5004 71.7687 68.2435 0.0000 11.5575 0.0000
# 2 71.7687 98.2727 64.0423 0.0000 8.5632 0.0000
# 3 68.2435 64.0423 98.6710 0.0000 11.1673 0.0000
# 4 0.0000 0.0000 0.0000 23.5446 0.0000 -1.4048
# 5 11.5575 8.5632 11.1673 0.0000 22.9443 0.0000
# 6 0.0000 0.0000 0.0000 -1.4048 0.0000 36.6438
#
#
#
# Elastic Compliance Matrix: (Units=1/GPa)
#
#
# Indices 1 2 3 4 5 6 
#
# 1 0.011297 -0.005435 -0.004097 0.000000 -0.001668 0.000000
# 2 -0.005435 0.020274 -0.009370 0.000000 -0.000269 0.000000
# 3 -0.004097 -0.009370 0.019494 0.000000 -0.003927 0.000000
# 4 0.000000 0.000000 0.000000 0.042570 0.000000 0.001632
# 5 -0.001668 -0.000269 -0.003927 0.000000 0.046436 0.000000
# 6 0.000000 0.000000 0.000000 0.001632 0.000000 0.027352
#
#
# Mechanical properties :
#
#
# Convention : Reuss Voigt Hill
#
# Bulk Modulus (GPa) = 75.40173 83.83924 79.62048
# Shear Modulus (GPa) = 23.84945 26.11917 24.98431
#
# Velocity S-wave (km/s) = 3.67888 3.84996 3.76539
# Velocity P-wave (km/s) = 7.79967 8.20612 8.00547
#
# Compressibility (1/GPa) = 0.01326230
#
# Stress axis : x y z
#
# Youngs Moduli (GPa) = 88.51694 49.32314 51.29731
#
# Poissons Ratio (x) = 0.26808 0.21017
# Poissons Ratio (y) = 0.48110 0.48064
# Poissons Ratio (z) = 0.36266 0.46214
#
# Static dielectric constant tensor:
#      x y z
#    x 1.608630 0.000000 0.011540 
#    y 0.000000 1.589730 0.000000 
#    z 0.011540 0.000000 1.569490 
# 
# From -- ./inp_files/23827.got.cif
#   From: 2010.05.17/outbox.cif.g08.bks.cpg/sg8_12_cif.got.tgz:23827.got - 2010.06.03 19:46:02.
