data_PCOD9132351
_publ_section_title
;
Structure prediction by ZEFSAII (Michael W. Deem and Ramdas Pophale) SiO2 
 PCOD9132351
Probable space group: C M
;
_chemical_formula_sum "Si O2"
_cell_formula_units_Z 32
_cell_length_a 8.658903
_cell_length_b 22.474918
_cell_length_c 15.749637
_cell_angle_alpha 90.000000
_cell_angle_beta 144.888394
_cell_angle_gamma 90.000000
_cell_volume 1762.903317
_symmetry_space_group_name_H-M "C M"
_symmetry_group_IT_number 8
_symmetry_cell_setting 'monoclinic'
loop_
_space_group_symop_operation_xyz
x,y,z
x,-y,z
1/2+x,1/2+y,z
1/2+x,1/2-y,z
loop_
_atom_site_type_symbol
_atom_site_label
_atom_site_fract_x
_atom_site_fract_y
_atom_site_fract_z
Si Si1 0.673630 0.670982 0.619400
Si Si2 0.660746 0.216928 0.727717
Si Si3 0.480005 0.149255 0.483726
Si Si4 0.176823 0.184493 0.060427
Si Si5 0.444182 0.642228 0.330892
Si Si6 0.486915 0.932154 0.191124
Si Si7 0.193670 0.243182 0.234377
Si Si8 0.832965 0.931308 0.521536
O O1 0.590255 0.718906 0.654123
O O2 0.509654 0.663816 0.457024
O O3 0.606334 0.606294 0.628362
O O4 0.957176 0.694421 0.709788
O O5 0.632386 0.174142 0.634075
O O6 0.956420 0.211286 0.898603
O O7 0.385385 0.204748 0.382026
O O8 0.660422 0.103597 0.513677
O O9 0.206700 0.121796 0.399456
O O10 0.244458 0.114842 0.080517
O O11 0.087599 0.197515 0.116365
O O12 0.458846 0.217759 0.170170
O O13 0.213118 0.593460 0.229122
O O14 0.350141 0.705293 0.252293
O O15 0.642146 0.930132 0.351702
O O16 0.411274 0.000000 0.139735
O O17 0.885726 0.000000 0.565577
#
# Coordination Sequence:
#
# PCOD9132351 Si02
#       8
#     4   4   4   4   4   4   4   4
#     4  10  20  35  55  82 116 148 184 231 286 340
#     4  11  22  35  57  88 118 148 184 234 298 339
#     4  11  20  34  58  85 111 146 189 237 284 334
#     4  11  22  35  55  86 116 150 184 234 282 341
#     4   9  19  31  55  85 109 146 187 237 280 329
#     4   9  19  36  56  79 114 154 189 228 283 338
#     4  11  19  33  53  81 115 142 187 232 283 330
#     4  10  21  37  59  84 111 150 196 239 278 331
#
# _framework density 18.151872999999998
#
# number of rings (size 3 to 8) (size 9 to 14) (size 15 to 20)
#    0.000    1.750    3.750    1.500    1.750    0.500 
#    0.000    3.125    0.000    0.000    0.000    0.000 
#    0.000    0.000    0.000    0.000    0.000    0.000 
#
# Total GULP energy -89075.876865 kJ/mol
# GULP energy per Si atom -5567.242304 kJ/mol
# Density = 1.811056 g / cm^3
# Si number density = 18.151873 Si / 1000 Ang^3
#
#
#
# Elastic Constant Matrix: (Units=GPa)
#
#
# Indices 1 2 3 4 5 6 
#
# 1 73.2690 58.7544 12.8057 -0.0009 -0.0437 -0.0001
# 2 58.7544 138.9753 7.8551 0.0001 4.8375 0.0001
# 3 12.8057 7.8551 30.6519 0.0009 0.5141 0.0009
# 4 -0.0009 0.0001 0.0009 10.8629 -0.0005 1.1669
# 5 -0.0437 4.8375 0.5141 -0.0005 17.8451 0.0002
# 6 -0.0001 0.0001 0.0009 1.1669 0.0002 24.0530
#
#
#
# Elastic Compliance Matrix: (Units=1/GPa)
#
#
# Indices 1 2 3 4 5 6 
#
# 1 0.022131 -0.009056 -0.006970 0.000003 0.002710 0.000000
# 2 -0.009056 0.011074 0.000997 -0.000001 -0.003053 0.000000
# 3 -0.006970 0.000997 0.035303 -0.000003 -0.001304 -0.000001
# 4 0.000003 -0.000001 -0.000003 0.092539 0.000003 -0.004489
# 5 0.002710 -0.003053 -0.001304 0.000003 0.056910 0.000000
# 6 0.000000 0.000000 -0.000001 -0.004489 0.000000 0.041793
#
#
# Mechanical properties :
#
#
# Convention : Reuss Voigt Hill
#
# Bulk Modulus (GPa) = 26.00923 44.63628 35.32275
# Shear Modulus (GPa) = 16.52212 21.45092 18.98652
#
# Velocity S-wave (km/s) = 3.02025 3.44138 3.23767
# Velocity P-wave (km/s) = 5.14998 6.35883 5.78606
#
# Compressibility (1/GPa) = 0.03844789
#
# Stress axis : x y z
#
# Youngs Moduli (GPa) = 45.18633 90.29965 28.32630
#
# Poissons Ratio (x) = 0.81780 0.19744
# Poissons Ratio (y) = 0.40923 -0.02824
# Poissons Ratio (z) = 0.31496 -0.09001
#
# Static dielectric constant tensor:
#      x y z
#    x 1.686910 0.000000 -0.006060 
#    y 0.000000 1.634520 0.000000 
#    z -0.006060 0.000000 1.611790 
# 
# From -- ./inp_files/19177.got.cif
#   From: 2010.05.17/outbox.cif.g08.bks.cpg/sg8_10_cif.got.tgz:19177.got - 2010.06.03 19:46:02.
