data_PCOD9132930
_publ_section_title
;
Structure prediction by ZEFSAII (Michael W. Deem and Ramdas Pophale) SiO2 
 PCOD9132930
Probable space group: C M
;
_chemical_formula_sum "Si O2"
_cell_formula_units_Z 32
_cell_length_a 9.520327
_cell_length_b 18.532394
_cell_length_c 12.324218
_cell_angle_alpha 90.000000
_cell_angle_beta 46.966538
_cell_angle_gamma 90.000000
_cell_volume 1589.401310
_symmetry_space_group_name_H-M "C M"
_symmetry_group_IT_number 8
_symmetry_cell_setting 'monoclinic'
loop_
_space_group_symop_operation_xyz
x,y,z
x,-y,z
1/2+x,1/2+y,z
1/2+x,1/2-y,z
loop_
_atom_site_type_symbol
_atom_site_label
_atom_site_fract_x
_atom_site_fract_y
_atom_site_fract_z
Si Si1 0.924540 0.914448 0.946390
Si Si2 0.969360 0.697117 0.382541
Si Si3 0.697558 0.177218 0.900967
Si Si4 0.268010 0.585451 0.267590
Si Si5 0.829354 0.302883 0.209424
Si Si6 0.374187 0.414448 0.645577
Si Si7 0.101166 0.177219 0.691002
Si Si8 0.530704 0.414549 0.324380
O O1 0.747554 0.883747 0.966535
O O2 0.097733 0.866498 0.805713
O O3 0.950661 0.000000 0.915796
O O4 0.874606 0.901304 0.097246
O O5 0.060181 0.621479 0.371644
O O6 0.149358 0.750000 0.295980
O O7 0.899352 0.694699 0.295986
O O8 0.792499 0.716068 0.554353
O O9 0.700992 0.133501 0.786255
O O10 0.899362 0.221412 0.795985
O O11 0.506224 0.216067 0.037613
O O12 0.247992 0.500000 0.291785
O O13 0.399353 0.614579 0.295990
O O14 0.738534 0.378521 0.220320
O O15 0.348066 0.500000 0.676172
O O16 0.551171 0.383747 0.625433
O O17 0.424121 0.401304 0.494721
O O18 0.550721 0.500000 0.300185
#
# Coordination Sequence:
#
# PCOD9132930 Si02
#       8
#     4   4   4   4   4   4   4   4
#     4   8  15  32  60  87 123 157 197 251 305 369
#     4  12  23  40  61  90 123 165 213 258 315 367
#     4   8  17  34  57  85 119 154 206 249 304 364
#     4  10  21  38  60  91 127 162 205 261 315 367
#     4  12  23  40  61  90 123 165 213 258 315 367
#     4   8  15  32  60  87 123 157 197 251 305 369
#     4   8  17  34  57  85 119 154 206 249 304 364
#     4  10  21  38  60  91 127 162 205 261 315 367
#
# _framework density 20.133367
#
# number of rings (size 3 to 8) (size 9 to 14) (size 15 to 20)
#    1.500    0.750    2.500    2.250    0.000    2.500 
#    0.000    6.250    0.000    4.500    0.000    0.000 
#    0.000    0.000    0.000    0.000    0.000    0.000 
#
# Total GULP energy -89097.243523 kJ/mol
# GULP energy per Si atom -5568.577720 kJ/mol
# Density = 2.008754 g / cm^3
# Si number density = 20.133367 Si / 1000 Ang^3
#
#
#
# Elastic Constant Matrix: (Units=GPa)
#
#
# Indices 1 2 3 4 5 6 
#
# 1 99.5930 18.7010 35.3579 0.0000 -3.8024 0.0000
# 2 18.7010 36.2516 20.1486 0.0000 -13.7333 0.0000
# 3 35.3579 20.1486 110.4000 0.0000 -33.5142 0.0000
# 4 0.0000 0.0000 0.0000 16.3541 0.0000 -14.0326
# 5 -3.8024 -13.7333 -33.5142 0.0000 36.6957 0.0000
# 6 0.0000 0.0000 0.0000 -14.0326 0.0000 18.1467
#
#
#
# Elastic Compliance Matrix: (Units=1/GPa)
#
#
# Indices 1 2 3 4 5 6 
#
# 1 0.012534 -0.005873 -0.004449 0.000000 -0.004962 0.000000
# 2 -0.005873 0.035661 -0.001052 0.000000 0.011776 0.000000
# 3 -0.004449 -0.001052 0.014411 0.000000 0.012306 0.000000
# 4 0.000000 0.000000 0.000000 0.181723 0.000000 0.140523
# 5 -0.004962 0.011776 0.012306 0.000000 0.042384 0.000000
# 6 0.000000 0.000000 0.000000 0.140523 0.000000 0.163771
#
#
# Mechanical properties :
#
#
# Convention : Reuss Voigt Hill
#
# Bulk Modulus (GPa) = 25.08969 43.85108 34.47038
# Shear Modulus (GPa) = 10.27714 25.70843 17.99278
#
# Velocity S-wave (km/s) = 2.26177 3.57726 2.99269
# Velocity P-wave (km/s) = 4.39427 6.23618 5.39442
#
# Compressibility (1/GPa) = 0.03985702
#
# Stress axis : x y z
#
# Youngs Moduli (GPa) = 79.78555 28.04192 69.39282
#
# Poissons Ratio (x) = 0.16469 0.30871
# Poissons Ratio (y) = 0.46858 0.07303
# Poissons Ratio (z) = 0.35494 0.02951
#
# Static dielectric constant tensor:
#      x y z
#    x 1.720470 0.000000 -0.002790 
#    y 0.000000 1.762500 0.000000 
#    z -0.002790 0.000000 1.743430 
# 
# From -- ./inp_files/19251.got.cif
#   From: 2010.05.17/outbox.cif.g08.bks.cpg/sg8_10_cif.got.tgz:19251.got - 2010.06.03 19:46:02.
