data_PCOD9132242
_publ_section_title
;
Structure prediction by ZEFSAII (Michael W. Deem and Ramdas Pophale) SiO2 
 PCOD9132242
Probable space group: C M
;
_chemical_formula_sum "Si O2"
_cell_formula_units_Z 32
_cell_length_a 14.022568
_cell_length_b 15.867245
_cell_length_c 10.172418
_cell_angle_alpha 90.000000
_cell_angle_beta 32.483736
_cell_angle_gamma 90.000000
_cell_volume 1215.559534
_symmetry_space_group_name_H-M "C M"
_symmetry_group_IT_number 8
_symmetry_cell_setting 'monoclinic'
loop_
_space_group_symop_operation_xyz
x,y,z
x,-y,z
1/2+x,1/2+y,z
1/2+x,1/2-y,z
loop_
_atom_site_type_symbol
_atom_site_label
_atom_site_fract_x
_atom_site_fract_y
_atom_site_fract_z
Si Si1 0.713580 0.089679 0.681210
Si Si2 0.951759 0.272053 0.719402
Si Si3 0.070594 0.093025 0.870705
Si Si4 0.311874 0.906874 0.045094
Si Si5 0.775819 0.266305 0.543058
Si Si6 0.665523 0.905538 0.316360
Si Si7 0.550989 0.907016 0.157504
Si Si8 0.530998 0.593073 0.601544
O O1 0.524045 0.091141 0.825680
O O2 0.829367 0.171991 0.519229
O O3 0.801767 0.000000 0.547545
O O4 0.647039 0.091598 0.907607
O O5 0.114766 0.252583 0.630112
O O6 0.034027 0.334564 0.517513
O O7 0.919068 0.178016 0.708240
O O8 0.796986 0.323562 0.972902
O O9 0.189315 0.175105 0.759292
O O10 0.075161 0.087552 0.705299
O O11 0.122231 0.000000 0.861913
O O12 0.863461 0.108820 0.140909
O O13 0.264483 0.000000 0.046002
O O14 0.203009 0.897623 0.307066
O O15 0.925314 0.325881 0.309881
O O16 0.665287 0.904808 0.158642
O O17 0.610639 0.000000 0.420663
O O18 0.457363 0.000000 0.274781
O O19 0.456329 0.500000 0.655415
#
# Coordination Sequence:
#
# PCOD9132242 Si02
#       8
#     4   4   4   4   4   4   4   4
#     4   9  18  33  55  82 113 148 191 236 283 336
#     4  10  20  31  56  82 118 143 192 234 292 335
#     4   9  18  33  55  86 117 148 190 244 292 337
#     4   9  17  31  52  81 111 145 189 237 280 332
#     4  10  20  33  60  87 112 147 200 243 284 330
#     4  10  22  38  57  85 123 157 189 233 301 357
#     4  10  21  40  61  82 113 156 197 236 281 349
#     4   9  18  31  50  77 109 144 186 231 277 326
#
# _framework density 26.325324999999999
#
# number of rings (size 3 to 8) (size 9 to 14) (size 15 to 20)
#    0.000    2.500    0.000    2.250    7.000    4.000 
#    4.500    0.000    0.000    0.000    0.000    0.000 
#    0.000    0.000    0.000    0.000    0.000    0.000 
#
# Total GULP energy -89447.689200 kJ/mol
# GULP energy per Si atom -5590.480575 kJ/mol
# Density = 2.626541 g / cm^3
# Si number density = 26.325325 Si / 1000 Ang^3
#
#
#
# Elastic Constant Matrix: (Units=GPa)
#
#
# Indices 1 2 3 4 5 6 
#
# 1 38.5133 14.9895 -2.9538 -0.0015 -5.3505 -0.0003
# 2 14.9895 291.8380 73.2364 -0.0006 -3.8319 0.0004
# 3 -2.9538 73.2364 74.0761 -0.0007 2.3224 -0.0007
# 4 -0.0015 -0.0006 -0.0007 31.7937 0.0008 9.7313
# 5 -5.3505 -3.8319 2.3224 0.0008 23.8722 0.0006
# 6 -0.0003 0.0004 -0.0007 9.7313 0.0006 -2.5760
#
#
#
# Elastic Compliance Matrix: (Units=1/GPa)
#
#
# Indices 1 2 3 4 5 6 
#
# 1 0.027797 -0.002112 0.003021 0.000001 0.005597 0.000001
# 2 -0.002112 0.004751 -0.004805 0.000000 0.000757 0.000001
# 3 0.003021 -0.004805 0.018430 0.000001 -0.001887 -0.000002
# 4 0.000001 0.000000 0.000001 0.014587 -0.000002 0.055104
# 5 0.005597 0.000757 -0.001887 -0.000002 0.043449 0.000003
# 6 0.000001 0.000001 -0.000002 0.055104 0.000003 -0.180032
#
#
# Mechanical properties :
#
#
# Convention : Reuss Voigt Hill
#
# Bulk Modulus (GPa) = 23.15606 63.88572 43.52089
# Shear Modulus (GPa) = -102.39155 31.89500 -35.24828
#
# Velocity S-wave (km/s) = -6.24333 3.48454 -3.66314
# Velocity P-wave (km/s) = 6.56940 6.36473 1.15047
#
# Compressibility (1/GPa) = 0.04318523
#
# Stress axis : x y z
#
# Youngs Moduli (GPa) = 35.97567 210.49225 54.26028
#
# Poissons Ratio (x) = 0.44465 -0.16394
# Poissons Ratio (y) = 0.07600 0.26071
# Poissons Ratio (z) = -0.10870 1.01139
#
# Static dielectric constant tensor:
#      x y z
#    x 2.111200 0.000000 -0.018770 
#    y 0.000000 2.176220 0.000000 
#    z -0.018770 0.000000 2.038720 
# 
# From -- ./inp_files/23304.got.cif
#   From: 2010.05.17/outbox.cif.g08.bks.cpg/sg8_12_cif.got.tgz:23304.got - 2010.06.03 19:46:02.
