data_PCOD9132147
_publ_section_title
;
Structure prediction by ZEFSAII (Michael W. Deem and Ramdas Pophale) SiO2 
 PCOD9132147
Probable space group: C M
;
_chemical_formula_sum "Si O2"
_cell_formula_units_Z 24
_cell_length_a 15.628541
_cell_length_b 8.005838
_cell_length_c 15.305504
_cell_angle_alpha 90.000000
_cell_angle_beta 140.124875
_cell_angle_gamma 90.000000
_cell_volume 1227.749674
_symmetry_space_group_name_H-M "C M"
_symmetry_group_IT_number 8
_symmetry_cell_setting 'monoclinic'
loop_
_space_group_symop_operation_xyz
x,y,z
x,-y,z
1/2+x,1/2+y,z
1/2+x,1/2-y,z
loop_
_atom_site_type_symbol
_atom_site_label
_atom_site_fract_x
_atom_site_fract_y
_atom_site_fract_z
Si Si1 0.523810 0.301043 0.434960
Si Si2 0.745224 0.201333 0.936356
Si Si3 0.225142 0.798626 0.242482
Si Si4 0.556033 0.701214 0.942207
Si Si5 0.028587 0.204497 0.239703
Si Si6 0.758344 0.798748 0.748613
O O1 0.526505 0.500000 0.432194
O O2 0.378953 0.249985 0.357071
O O3 0.540690 0.236508 0.348817
O O4 0.642023 0.245884 0.590845
O O5 0.626812 0.251839 0.907761
O O6 0.731112 0.261848 0.825969
O O7 0.749757 0.000000 0.937740
O O8 0.886455 0.257580 0.087972
O O9 0.146720 0.741324 0.267509
O O10 0.218380 0.000000 0.236605
O O11 0.145947 0.737916 0.094187
O O12 0.553266 0.500000 0.945652
O O13 0.404344 0.762018 0.832835
O O14 0.028774 0.000000 0.240463
O O15 0.765141 0.000000 0.757936
#
# Coordination Sequence:
#
# PCOD9132147 Si02
#       6
#     4   4   4   4   4   4
#     4  11  23  38  57  85 119 148 183 238 287 325
#     4  10  19  36  61  84 110 149 192 231 275 334
#     4  10  19  36  61  85 111 149 192 228 276 341
#     4  10  20  35  59  88 114 144 187 238 281 326
#     4   9  18  35  59  83 109 147 191 228 272 336
#     4  10  22  40  59  81 115 155 189 225 279 344
#
# _framework density 19.547958999999999
#
# number of rings (size 3 to 8) (size 9 to 14) (size 15 to 20)
#    0.000    2.000    3.333    0.500    0.000    2.667 
#    0.000    7.500    0.000    0.000    0.000    0.000 
#    0.000    0.000    0.000    0.000    0.000    0.000 
#
# Total GULP energy -67014.136249 kJ/mol
# GULP energy per Si atom -5584.511354 kJ/mol
# Density = 1.950347 g / cm^3
# Si number density = 19.547959 Si / 1000 Ang^3
#
#
#
# Elastic Constant Matrix: (Units=GPa)
#
#
# Indices 1 2 3 4 5 6 
#
# 1 222.5009 13.4855 119.6054 0.0000 0.0522 0.0000
# 2 13.4855 14.7884 11.7063 0.0000 -1.1936 0.0000
# 3 119.6054 11.7063 188.1374 0.0000 0.6478 0.0000
# 4 0.0000 0.0000 0.0000 12.7314 0.0000 -5.9749
# 5 0.0522 -1.1936 0.6478 0.0000 35.6289 0.0000
# 6 0.0000 0.0000 0.0000 -5.9749 0.0000 22.0850
#
#
#
# Elastic Compliance Matrix: (Units=1/GPa)
#
#
# Indices 1 2 3 4 5 6 
#
# 1 0.006951 -0.002991 -0.004233 0.000000 -0.000033 0.000000
# 2 -0.002991 0.072627 -0.002626 0.000000 0.002485 0.000000
# 3 -0.004233 -0.002626 0.008170 0.000000 -0.000230 0.000000
# 4 0.000000 0.000000 0.000000 0.089969 0.000000 0.024340
# 5 -0.000033 0.002485 -0.000230 0.000000 0.028155 0.000000
# 6 0.000000 0.000000 0.000000 0.024340 0.000000 0.051865
#
#
# Mechanical properties :
#
#
# Convention : Reuss Voigt Hill
#
# Bulk Modulus (GPa) = 14.69525 79.44680 47.07103
# Shear Modulus (GPa) = 16.66007 32.79772 24.72889
#
# Velocity S-wave (km/s) = 2.92253 4.10055 3.56059
# Velocity P-wave (km/s) = 4.34995 7.94667 6.40592
#
# Compressibility (1/GPa) = 0.06804918
#
# Stress axis : x y z
#
# Youngs Moduli (GPa) = 143.86517 13.76892 122.39325
#
# Poissons Ratio (x) = 0.04118 0.51806
# Poissons Ratio (y) = 0.43025 0.32144
# Poissons Ratio (z) = 0.60895 0.03616
#
# Static dielectric constant tensor:
#      x y z
#    x 1.673300 0.000000 -0.011310 
#    y 0.000000 1.708080 0.000000 
#    z -0.011310 0.000000 1.662820 
# 
# From -- ./inp_files/10161.got.cif
#   From: 2010.05.17/outbox.cif.g08.bks.cpg/sg8_6_cif.got.tgz:10161.got - 2010.06.03 19:46:02.
