data_PCOD9132342
_publ_section_title
;
Structure prediction by ZEFSAII (Michael W. Deem and Ramdas Pophale) SiO2 
 PCOD9132342
Probable space group: C M
;
_chemical_formula_sum "Si O2"
_cell_formula_units_Z 32
_cell_length_a 29.694543
_cell_length_b 7.650391
_cell_length_c 12.789688
_cell_angle_alpha 90.000000
_cell_angle_beta 29.116155
_cell_angle_gamma 90.000000
_cell_volume 1413.761089
_symmetry_space_group_name_H-M "C M"
_symmetry_group_IT_number 8
_symmetry_cell_setting 'monoclinic'
loop_
_space_group_symop_operation_xyz
x,y,z
x,-y,z
1/2+x,1/2+y,z
1/2+x,1/2-y,z
loop_
_atom_site_type_symbol
_atom_site_label
_atom_site_fract_x
_atom_site_fract_y
_atom_site_fract_z
Si Si1 0.583990 0.201603 0.508410
Si Si2 0.557361 0.796036 0.791969
Si Si3 0.247954 0.798437 0.045704
Si Si4 0.914033 0.708196 0.445923
Si Si5 0.184053 0.714994 0.722735
Si Si6 0.203021 0.699180 0.910462
Si Si7 0.458471 0.213285 0.576766
Si Si8 0.395661 0.708089 0.255752
O O1 0.572628 0.281356 0.646184
O O2 0.688252 0.204767 0.254500
O O3 0.523960 0.280841 0.535564
O O4 0.553001 0.000000 0.580973
O O5 0.618186 0.721794 0.763802
O O6 0.584625 0.000000 0.730454
O O7 0.452267 0.783165 0.044299
O O8 0.253303 0.000000 0.064690
O O9 0.197594 0.784245 0.035035
O O10 0.352681 0.735243 0.816991
O O11 0.898209 0.500000 0.488541
O O12 0.813749 0.798386 0.661424
O O13 0.975012 0.764118 0.421986
O O14 0.944901 0.741565 0.265391
O O15 0.181094 0.500000 0.734072
O O16 0.162141 0.774408 0.885754
O O17 0.289340 0.766519 0.481021
O O18 0.170031 0.500000 0.989987
O O19 0.463977 0.000000 0.566494
O O20 0.395656 0.500000 0.246959
#
# Coordination Sequence:
#
# PCOD9132342 Si02
#       8
#     4   4   4   4   4   4   4   4
#     4  10  21  37  55  75 100 135 180 218 251 303
#     4  10  21  37  55  75 100 135 180 218 251 303
#     4  10  20  35  54  77 107 138 169 210 260 308
#     4   9  16  30  53  79 107 136 168 206 254 311
#     4   8  17  34  54  76 105 138 166 204 261 311
#     4   9  16  30  53  79 107 136 168 206 254 311
#     4   8  17  34  54  76 105 138 166 204 261 311
#     4  10  20  35  54  77 107 138 169 210 260 308
#
# _framework density 22.634658000000002
#
# number of rings (size 3 to 8) (size 9 to 14) (size 15 to 20)
#    0.000    2.750    0.000    3.000    0.000    2.500 
#    0.000   12.500    0.000    0.000    0.000    0.000 
#    0.000    0.000    0.000    0.000    0.000    0.000 
#
# Total GULP energy -89298.156456 kJ/mol
# GULP energy per Si atom -5581.134779 kJ/mol
# Density = 2.258314 g / cm^3
# Si number density = 22.634658 Si / 1000 Ang^3
#
#
#
# Elastic Constant Matrix: (Units=GPa)
#
#
# Indices 1 2 3 4 5 6 
#
# 1 90.5165 8.9834 46.5360 0.0000 18.4781 0.0000
# 2 8.9834 42.6410 -7.7204 0.0000 1.8494 0.0000
# 3 46.5360 -7.7204 102.6771 0.0000 29.9060 0.0000
# 4 0.0000 0.0000 0.0000 21.8558 0.0000 4.0315
# 5 18.4781 1.8494 29.9060 0.0000 38.0240 0.0000
# 6 0.0000 0.0000 0.0000 4.0315 0.0000 6.9194
#
#
#
# Elastic Compliance Matrix: (Units=1/GPa)
#
#
# Indices 1 2 3 4 5 6 
#
# 1 0.015327 -0.004357 -0.006702 0.000000 -0.001965 0.000000
# 2 -0.004357 0.025342 0.004699 0.000000 -0.002811 0.000000
# 3 -0.006702 0.004699 0.015887 0.000000 -0.009467 0.000000
# 4 0.000000 0.000000 0.000000 0.051264 0.000000 -0.029868
# 5 -0.001965 -0.002811 -0.009467 0.000000 0.034837 0.000000
# 6 0.000000 0.000000 0.000000 -0.029868 0.000000 0.161923
#
#
# Mechanical properties :
#
#
# Convention : Reuss Voigt Hill
#
# Bulk Modulus (GPa) = 22.81181 36.82584 29.81883
# Shear Modulus (GPa) = 15.06419 25.89555 20.47987
#
# Velocity S-wave (km/s) = 2.58260 3.38607 3.01125
# Velocity P-wave (km/s) = 4.35812 5.62070 5.02919
#
# Compressibility (1/GPa) = 0.04383694
#
# Stress axis : x y z
#
# Youngs Moduli (GPa) = 65.24522 39.45977 62.94271
#
# Poissons Ratio (x) = 0.17193 0.42182
# Poissons Ratio (y) = 0.28428 -0.29577
# Poissons Ratio (z) = 0.43725 -0.18542
#
# Static dielectric constant tensor:
#      x y z
#    x 1.870600 0.000000 -0.010290 
#    y 0.000000 1.844000 0.000000 
#    z -0.010290 0.000000 1.837600 
# 
# From -- ./inp_files/22788.got.cif
#   From: 2010.05.17/outbox.cif.g08.bks.cpg/sg8_12_cif.got.tgz:22788.got - 2010.06.03 19:46:02.
