data_PCOD9132597
_publ_section_title
;
Structure prediction by ZEFSAII (Michael W. Deem and Ramdas Pophale) SiO2 
 PCOD9132597
Probable space group: C M
;
_chemical_formula_sum "Si O2"
_cell_formula_units_Z 32
_cell_length_a 22.584442
_cell_length_b 8.916891
_cell_length_c 14.580169
_cell_angle_alpha 90.000000
_cell_angle_beta 30.339912
_cell_angle_gamma 90.000000
_cell_volume 1483.158724
_symmetry_space_group_name_H-M "C M"
_symmetry_group_IT_number 8
_symmetry_cell_setting 'monoclinic'
loop_
_space_group_symop_operation_xyz
x,y,z
x,-y,z
1/2+x,1/2+y,z
1/2+x,1/2-y,z
loop_
_atom_site_type_symbol
_atom_site_label
_atom_site_fract_x
_atom_site_fract_y
_atom_site_fract_z
Si Si1 0.700530 0.321771 0.562470
Si Si2 0.578908 0.822508 0.439666
Si Si3 0.334939 0.178100 0.871637
Si Si4 0.617217 0.821276 0.058308
Si Si5 0.452544 0.820310 0.898658
Si Si6 0.216521 0.676776 0.738485
Si Si7 0.485818 0.673531 0.387303
Si Si8 0.812407 0.820389 0.244038
O O1 0.704436 0.500000 0.548268
O O2 0.573149 0.255877 0.706878
O O3 0.712976 0.270524 0.650769
O O4 0.794403 0.246769 0.368931
O O5 0.459544 0.794140 0.655728
O O6 0.565515 0.736807 0.362082
O O7 0.692135 0.785043 0.348863
O O8 0.584233 0.000000 0.412996
O O9 0.231968 0.267357 0.960493
O O10 0.355847 0.215370 0.950390
O O11 0.310623 0.000000 0.896766
O O12 0.631948 0.770896 0.933330
O O13 0.613249 0.000000 0.062242
O O14 0.510162 0.757997 0.259896
O O15 0.467052 0.000000 0.881886
O O16 0.413406 0.756217 0.048840
O O17 0.193917 0.500000 0.748241
O O18 0.349974 0.687797 0.596258
O O19 0.512405 0.500000 0.337456
O O20 0.826822 0.000000 0.228169
#
# Coordination Sequence:
#
# PCOD9132597 Si02
#       8
#     4   4   4   4   4   4   4   4
#     4  12  26  43  66  93 121 164 212 260 315 368
#     4  10  20  37  63  94 127 164 201 247 306 366
#     4  10  20  37  63  94 127 164 201 247 306 366
#     4  11  23  40  63  93 125 163 204 251 307 364
#     4  11  23  42  65  94 129 166 207 255 310 370
#     4  10  24  45  64  85 121 164 208 260 311 364
#     4  11  23  40  63  93 125 163 204 251 307 364
#     4  11  23  42  65  94 129 166 207 255 310 370
#
# _framework density 21.575572999999999
#
# number of rings (size 3 to 8) (size 9 to 14) (size 15 to 20)
#    0.000    1.250    2.500    3.375    0.000    7.000 
#    0.000    2.500    0.000    0.000    0.000    0.000 
#    0.000    0.000    0.000    0.000    0.000    0.000 
#
# Total GULP energy -89526.033587 kJ/mol
# GULP energy per Si atom -5595.377099 kJ/mol
# Density = 2.152647 g / cm^3
# Si number density = 21.575573 Si / 1000 Ang^3
#
#
#
# Elastic Constant Matrix: (Units=GPa)
#
#
# Indices 1 2 3 4 5 6 
#
# 1 76.3471 28.1270 4.5397 0.0000 30.7231 0.0000
# 2 28.1270 62.6513 26.7841 -0.0001 25.9274 0.0000
# 3 4.5397 26.7841 77.1536 -0.0001 36.7525 0.0000
# 4 0.0000 -0.0001 -0.0001 33.0750 0.0000 3.3366
# 5 30.7231 25.9274 36.7525 0.0000 44.6447 0.0000
# 6 0.0000 0.0000 0.0000 3.3366 0.0000 30.2000
#
#
#
# Elastic Compliance Matrix: (Units=1/GPa)
#
#
# Indices 1 2 3 4 5 6 
#
# 1 0.023479 -0.006345 0.011125 0.000000 -0.021631 0.000000
# 2 -0.006345 0.023008 -0.005477 0.000000 -0.004487 0.000000
# 3 0.011125 -0.005477 0.026881 0.000000 -0.026605 0.000000
# 4 0.000000 0.000000 0.000000 0.030575 0.000000 -0.003378
# 5 -0.021631 -0.004487 -0.026605 0.000000 0.061792 0.000000
# 6 0.000000 0.000000 0.000000 -0.003378 0.000000 0.033486
#
#
# Mechanical properties :
#
#
# Convention : Reuss Voigt Hill
#
# Bulk Modulus (GPa) = 13.89373 37.22818 25.56096
# Shear Modulus (GPa) = 22.26124 32.03070 27.14597
#
# Velocity S-wave (km/s) = 3.21562 3.85721 3.55093
# Velocity P-wave (km/s) = 4.49894 6.09341 5.35584
#
# Compressibility (1/GPa) = 0.07197493
#
# Stress axis : x y z
#
# Youngs Moduli (GPa) = 42.59165 43.46276 37.20099
#
# Poissons Ratio (x) = 0.27578 -0.41387
# Poissons Ratio (y) = 0.27025 0.20374
# Poissons Ratio (z) = -0.47384 0.23803
#
# Static dielectric constant tensor:
#      x y z
#    x 1.801470 0.000000 -0.011500 
#    y 0.000000 1.711300 0.000000 
#    z -0.011500 0.000000 1.806920 
# 
# From -- ./inp_files/26580.got.cif
#   From: 2010.05.17/outbox.cif.g08.bks.cpg/sg8_14_cif.got.tgz:26580.got - 2010.06.03 19:46:02.
