data_PCOD9132798
_publ_section_title
;
Structure prediction by ZEFSAII (Michael W. Deem and Ramdas Pophale) SiO2 
 PCOD9132798
Probable space group: C M
;
_chemical_formula_sum "Si O2"
_cell_formula_units_Z 28
_cell_length_a 17.734881
_cell_length_b 21.306375
_cell_length_c 11.739085
_cell_angle_alpha 90.000000
_cell_angle_beta 159.568644
_cell_angle_gamma 90.000000
_cell_volume 1548.471449
_symmetry_space_group_name_H-M "C M"
_symmetry_group_IT_number 8
_symmetry_cell_setting 'monoclinic'
loop_
_space_group_symop_operation_xyz
x,y,z
x,-y,z
1/2+x,1/2+y,z
1/2+x,1/2-y,z
loop_
_atom_site_type_symbol
_atom_site_label
_atom_site_fract_x
_atom_site_fract_y
_atom_site_fract_z
Si Si1 0.857180 0.810995 0.726840
Si Si2 0.183841 0.306637 0.226024
Si Si3 0.744686 0.073199 0.888623
Si Si4 0.550673 0.814031 0.502186
Si Si5 0.623107 0.252144 0.819177
Si Si6 0.554854 0.121285 0.842320
Si Si7 0.574513 0.572938 0.155669
O O1 0.748490 0.812967 0.449241
O O2 0.665430 0.805268 0.545606
O O3 0.021703 0.752317 0.977125
O O4 0.975818 0.875877 0.929324
O O5 0.416854 0.293731 0.500325
O O6 0.102153 0.367544 0.042402
O O7 0.565922 0.115377 0.570873
O O8 0.728617 0.091820 0.999647
O O9 0.698564 0.000000 0.814760
O O10 0.962039 0.085253 0.121046
O O11 0.690933 0.776001 0.794025
O O12 0.308977 0.788770 0.147563
O O13 0.537235 0.192543 0.769061
O O14 0.330080 0.084887 0.516277
O O15 0.528740 0.500000 0.062800
#
# Coordination Sequence:
#
# PCOD9132798 Si02
#       7
#     4   4   4   4   4   4   4
#     4  11  21  37  56  89 117 156 193 239 297 352
#     4  12  21  35  57  82 128 146 187 240 298 352
#     4   9  21  40  63  86 112 152 205 247 283 348
#     4  10  21  34  58  85 115 153 195 237 295 346
#     4  11  19  35  52  84 118 149 186 239 288 350
#     4  11  21  36  59  87 115 157 188 240 295 348
#     4  10  21  41  65  85 114 155 204 246 286 344
#
# _framework density 18.082349000000001
#
# number of rings (size 3 to 8) (size 9 to 14) (size 15 to 20)
#    0.000    1.429    4.286    1.286    2.000    2.286 
#    2.571    1.429    0.000    1.714    0.000    0.000 
#    0.000    0.000    0.000    0.000    0.000    0.000 
#
# Total GULP energy -77965.761047 kJ/mol
# GULP energy per Si atom -5568.982932 kJ/mol
# Density = 1.804119 g / cm^3
# Si number density = 18.082349 Si / 1000 Ang^3
#
#
#
# Elastic Constant Matrix: (Units=GPa)
#
#
# Indices 1 2 3 4 5 6 
#
# 1 122.6570 37.7723 32.5803 0.0000 -22.8910 0.0000
# 2 37.7723 78.4846 24.2765 0.0000 -2.7587 0.0000
# 3 32.5803 24.2765 56.9628 0.0003 -10.0886 0.0001
# 4 0.0000 0.0000 0.0003 21.6504 0.0001 3.0642
# 5 -22.8910 -2.7587 -10.0886 0.0001 28.5686 0.0000
# 6 0.0000 0.0000 0.0001 3.0642 0.0000 25.8979
#
#
#
# Elastic Compliance Matrix: (Units=1/GPa)
#
#
# Indices 1 2 3 4 5 6 
#
# 1 0.011907 -0.004352 -0.003563 0.000000 0.007862 0.000000
# 2 -0.004352 0.016286 -0.005110 0.000000 -0.003719 0.000000
# 3 -0.003563 -0.005110 0.022591 0.000000 0.004629 0.000000
# 4 0.000000 0.000000 0.000000 0.046975 0.000000 -0.005558
# 5 0.007862 -0.003719 0.004629 0.000000 0.042579 0.000000
# 6 0.000000 0.000000 0.000000 -0.005558 0.000000 0.039271
#
#
# Mechanical properties :
#
#
# Convention : Reuss Voigt Hill
#
# Bulk Modulus (GPa) = 40.43165 49.70696 45.06931
# Shear Modulus (GPa) = 23.37515 26.12174 24.74844
#
# Velocity S-wave (km/s) = 3.59932 3.80491 3.70354
# Velocity P-wave (km/s) = 6.29935 6.84485 6.57776
#
# Compressibility (1/GPa) = 0.02473310
#
# Stress axis : x y z
#
# Youngs Moduli (GPa) = 83.98695 61.40346 44.26541
#
# Poissons Ratio (x) = 0.26722 0.15772
# Poissons Ratio (y) = 0.36550 0.22621
# Poissons Ratio (z) = 0.29924 0.31379
#
# Static dielectric constant tensor:
#      x y z
#    x 1.695210 0.000000 -0.002130 
#    y 0.000000 1.629780 0.000000 
#    z -0.002130 0.000000 1.611380 
# 
# From -- ./inp_files/8336.got.cif
#   From: 2010.05.17/outbox.cif.g08.bks.cpg/sg8_5_cif.got.tgz:8336.got - 2010.06.03 19:46:02.
