data_PCOD9132721
_publ_section_title
;
Structure prediction by ZEFSAII (Michael W. Deem and Ramdas Pophale) SiO2 
 PCOD9132721
Probable space group: C M
;
_chemical_formula_sum "Si O2"
_cell_formula_units_Z 32
_cell_length_a 11.500236
_cell_length_b 17.924577
_cell_length_c 15.885965
_cell_angle_alpha 90.000000
_cell_angle_beta 155.737532
_cell_angle_gamma 90.000000
_cell_volume 1345.623744
_symmetry_space_group_name_H-M "C M"
_symmetry_group_IT_number 8
_symmetry_cell_setting 'monoclinic'
loop_
_space_group_symop_operation_xyz
x,y,z
x,-y,z
1/2+x,1/2+y,z
1/2+x,1/2-y,z
loop_
_atom_site_type_symbol
_atom_site_label
_atom_site_fract_x
_atom_site_fract_y
_atom_site_fract_z
Si Si1 0.372200 0.581602 0.304550
Si Si2 0.711674 0.792808 0.882110
Si Si3 0.414971 0.120569 0.426007
Si Si4 0.751932 0.212885 0.321142
Si Si5 0.722710 0.416915 0.920313
Si Si6 0.891821 0.085723 0.862801
Si Si7 0.325746 0.333174 0.554523
Si Si8 0.790874 0.082022 0.051429
O O1 0.508373 0.500000 0.410853
O O2 0.457393 0.659775 0.401835
O O3 0.339546 0.589880 0.183142
O O4 0.056871 0.578878 0.135632
O O5 0.963303 0.737120 0.080966
O O6 0.841760 0.850294 0.899135
O O7 0.631924 0.847609 0.906711
O O8 0.453581 0.744241 0.675951
O O9 0.386997 0.207396 0.430609
O O10 0.105522 0.086319 0.219401
O O11 0.585142 0.126448 0.451251
O O12 0.596915 0.081804 0.617617
O O13 0.719864 0.175633 0.390835
O O14 0.604374 0.500000 0.846581
O O15 0.605583 0.384491 0.930942
O O16 0.600719 0.383727 0.753724
O O17 0.963577 0.000000 0.938088
O O18 0.666118 0.000000 0.952587
#
# Coordination Sequence:
#
# PCOD9132721 Si02
#       8
#     4   4   4   4   4   4   4   4
#     4  10  22  41  65  93 131 176 222 270 323 394
#     4  11  23  40  65  98 131 176 216 269 328 398
#     4  10  23  40  64  95 130 168 219 270 331 387
#     4  11  24  39  63  95 132 172 213 268 326 394
#     4   9  20  40  66  96 128 171 220 271 327 388
#     4  10  20  39  67  96 130 168 216 273 328 387
#     4  11  23  42  64 100 132 170 216 274 330 394
#     4  10  23  43  66  95 132 177 224 275 331 392
#
# _framework density 23.780792000000002
#
# number of rings (size 3 to 8) (size 9 to 14) (size 15 to 20)
#    0.000    1.750    2.500    0.750    3.500    6.000 
#    0.000    1.250    0.000    3.750    0.000    0.000 
#    0.000    0.000    0.000    0.000    0.000    0.000 
#
# Total GULP energy -89271.925780 kJ/mol
# GULP energy per Si atom -5579.495361 kJ/mol
# Density = 2.372667 g / cm^3
# Si number density = 23.780792 Si / 1000 Ang^3
#
#
#
# Elastic Constant Matrix: (Units=GPa)
#
#
# Indices 1 2 3 4 5 6 
#
# 1 63.9211 28.7299 35.1191 0.0621 -22.3952 0.0269
# 2 28.7299 131.9129 20.8760 0.0652 -23.5942 0.0416
# 3 35.1191 20.8760 84.5675 0.0417 -12.7561 0.0446
# 4 0.0621 0.0652 0.0417 19.9713 0.0315 -9.5785
# 5 -22.3952 -23.5942 -12.7561 0.0315 32.8124 0.0261
# 6 0.0269 0.0416 0.0446 -9.5785 0.0261 19.3031
#
#
#
# Elastic Compliance Matrix: (Units=1/GPa)
#
#
# Indices 1 2 3 4 5 6 
#
# 1 0.025512 -0.001970 -0.008175 -0.000119 0.012818 -0.000089
# 2 -0.001970 0.008984 -0.000667 -0.000052 0.004856 -0.000048
# 3 -0.008175 -0.000667 0.015372 -0.000020 -0.000083 -0.000033
# 4 -0.000119 -0.000052 -0.000020 0.065712 -0.000215 0.032608
# 5 0.012818 0.004856 -0.000083 -0.000215 0.042685 -0.000193
# 6 -0.000089 -0.000048 -0.000033 0.032608 -0.000193 0.067986
#
#
# Mechanical properties :
#
#
# Convention : Reuss Voigt Hill
#
# Bulk Modulus (GPa) = 35.40518 49.98350 42.69434
# Shear Modulus (GPa) = 19.43332 27.46246 23.44789
#
# Velocity S-wave (km/s) = 2.86175 3.40195 3.14347
# Velocity P-wave (km/s) = 5.08330 6.04111 5.58278
#
# Compressibility (1/GPa) = 0.02824445
#
# Stress axis : x y z
#
# Youngs Moduli (GPa) = 39.19696 111.30874 65.05400
#
# Poissons Ratio (x) = 0.21927 0.53180
# Poissons Ratio (y) = 0.07721 0.04340
# Poissons Ratio (z) = 0.32043 0.07426
#
# Static dielectric constant tensor:
#      x y z
#    x 1.904710 0.000160 0.010340 
#    y 0.000160 2.049990 -0.000150 
#    z 0.010340 -0.000150 1.915660 
# 
# From -- ./inp_files/26292.got.cif
#   From: 2010.05.17/outbox.cif.g08.bks.cpg/sg8_14_cif.got.tgz:26292.got - 2010.06.03 19:46:02.
