data_PCOD9132605
_publ_section_title
;
Structure prediction by ZEFSAII (Michael W. Deem and Ramdas Pophale) SiO2 
 PCOD9132605
Probable space group: C M
;
_chemical_formula_sum "Si O2"
_cell_formula_units_Z 32
_cell_length_a 12.041322
_cell_length_b 13.517015
_cell_length_c 9.420528
_cell_angle_alpha 90.000000
_cell_angle_beta 88.741047
_cell_angle_gamma 90.000000
_cell_volume 1532.940724
_symmetry_space_group_name_H-M "C M"
_symmetry_group_IT_number 8
_symmetry_cell_setting 'monoclinic'
loop_
_space_group_symop_operation_xyz
x,y,z
x,-y,z
1/2+x,1/2+y,z
1/2+x,1/2-y,z
loop_
_atom_site_type_symbol
_atom_site_label
_atom_site_fract_x
_atom_site_fract_y
_atom_site_fract_z
Si Si1 0.986500 0.612053 0.150310
Si Si2 0.433282 0.383378 0.099543
Si Si3 0.850781 0.386291 0.885331
Si Si4 0.461356 0.741957 0.654476
Si Si5 0.199771 0.609049 0.947195
Si Si6 0.581823 0.118189 0.438397
Si Si7 0.611047 0.315322 0.882996
Si Si8 0.344040 0.382605 0.414108
O O1 0.946351 0.500000 0.175598
O O2 0.008416 0.652253 0.305398
O O3 0.901244 0.650660 0.034351
O O4 0.107729 0.605704 0.074152
O O5 0.461716 0.500000 0.095561
O O6 0.402060 0.358064 0.262012
O O7 0.321157 0.373706 0.008792
O O8 0.536187 0.326737 0.025838
O O9 0.890163 0.500000 0.862703
O O10 0.892540 0.312854 0.762205
O O11 0.718432 0.382892 0.891435
O O12 0.543239 0.815030 0.568585
O O13 0.531013 0.667568 0.752215
O O14 0.389362 0.681895 0.542906
O O15 0.197942 0.500000 0.876758
O O16 0.159102 0.703979 0.862756
O O17 0.711843 0.132134 0.403075
O O18 0.564839 0.000000 0.462093
O O19 0.362335 0.500000 0.439657
#
# Coordination Sequence:
#
# PCOD9132605 Si02
#       8
#     4   4   4   4   4   4   4   4
#     4   9  18  38  66  91 118 154 200 262 314 352
#     4  10  22  42  68  93 119 160 211 264 315 365
#     4  11  24  44  63  90 131 167 206 258 309 367
#     4  12  25  39  61  93 126 171 210 244 306 375
#     4  10  20  37  64  93 122 153 202 266 314 352
#     4  10  21  41  67  94 121 157 206 261 316 368
#     4  12  25  40  62  94 128 171 210 247 307 374
#     4  10  23  43  64  90 125 159 204 264 314 363
#
# _framework density 20.874911000000001
#
# number of rings (size 3 to 8) (size 9 to 14) (size 15 to 20)
#    0.000    1.500    2.500    2.250    1.750    1.500 
#    0.000    4.375    0.000    1.500    0.000    0.000 
#    0.000    0.000    0.000    0.000    0.000    0.000 
#
# Total GULP energy -89365.842379 kJ/mol
# GULP energy per Si atom -5585.365149 kJ/mol
# Density = 2.082740 g / cm^3
# Si number density = 20.874911 Si / 1000 Ang^3
#
#
#
# Elastic Constant Matrix: (Units=GPa)
#
#
# Indices 1 2 3 4 5 6 
#
# 1 107.5561 45.2175 60.8411 0.0000 2.2848 0.0000
# 2 45.2175 90.8753 38.8528 0.0000 11.7480 0.0000
# 3 60.8411 38.8528 135.1693 0.0000 12.0855 0.0000
# 4 0.0000 0.0000 0.0000 32.1867 0.0000 3.3703
# 5 2.2848 11.7480 12.0855 0.0000 29.2143 0.0000
# 6 0.0000 0.0000 0.0000 3.3703 0.0000 36.2003
#
#
#
# Elastic Compliance Matrix: (Units=1/GPa)
#
#
# Indices 1 2 3 4 5 6 
#
# 1 0.014453 -0.005360 -0.005251 0.000000 0.003197 0.000000
# 2 -0.005360 0.014929 -0.001432 0.000000 -0.004992 0.000000
# 3 -0.005251 -0.001432 0.010472 0.000000 -0.003346 0.000000
# 4 0.000000 0.000000 0.000000 0.031375 0.000000 -0.002921
# 5 0.003197 -0.004992 -0.003346 0.000000 0.037371 0.000000
# 6 0.000000 0.000000 0.000000 -0.002921 0.000000 0.027896
#
#
# Mechanical properties :
#
#
# Convention : Reuss Voigt Hill
#
# Bulk Modulus (GPa) = 63.41796 69.26928 66.34362
# Shear Modulus (GPa) = 30.14996 32.09955 31.12475
#
# Velocity S-wave (km/s) = 3.80454 3.92562 3.86555
# Velocity P-wave (km/s) = 7.05303 7.33501 7.19540
#
# Compressibility (1/GPa) = 0.01576840
#
# Stress axis : x y z
#
# Youngs Moduli (GPa) = 69.18943 66.98501 95.48987
#
# Poissons Ratio (x) = 0.35904 0.50139
# Poissons Ratio (y) = 0.37085 0.13676
# Poissons Ratio (z) = 0.36329 0.09594
#
# Static dielectric constant tensor:
#      x y z
#    x 1.720460 0.000000 0.008810 
#    y 0.000000 1.830370 0.000000 
#    z 0.008810 0.000000 1.717300 
# 
# From -- ./inp_files/10737.got.cif
#   From: 2010.05.17/outbox.cif.g08.bks.cpg/sg8_6_cif.got.tgz:10737.got - 2010.06.03 19:46:02.
