data_PCOD9132206
_publ_section_title
;
Structure prediction by ZEFSAII (Michael W. Deem and Ramdas Pophale) SiO2 
 PCOD9132206
Probable space group: C M
;
_chemical_formula_sum "Si O2"
_cell_formula_units_Z 32
_cell_length_a 11.822318
_cell_length_b 14.876089
_cell_length_c 8.470468
_cell_angle_alpha 90.000000
_cell_angle_beta 72.255052
_cell_angle_gamma 90.000000
_cell_volume 1418.824040
_symmetry_space_group_name_H-M "C M"
_symmetry_group_IT_number 8
_symmetry_cell_setting 'monoclinic'
loop_
_space_group_symop_operation_xyz
x,y,z
x,-y,z
1/2+x,1/2+y,z
1/2+x,1/2-y,z
loop_
_atom_site_type_symbol
_atom_site_label
_atom_site_fract_x
_atom_site_fract_y
_atom_site_fract_z
Si Si1 0.762170 0.397195 0.111890
Si Si2 0.005459 0.684767 0.069551
Si Si3 0.219955 0.101401 0.787998
Si Si4 0.891114 0.832671 0.286991
Si Si5 0.721033 0.895044 0.814887
Si Si6 0.056977 0.897666 0.459059
Si Si7 0.948139 0.142409 0.920037
Si Si8 0.693870 0.747104 0.561062
O O1 0.749961 0.500000 0.069436
O O2 0.662220 0.386101 0.285333
O O3 0.892022 0.379305 0.122760
O O4 0.745895 0.352147 0.947297
O O5 0.978369 0.752352 0.934116
O O6 0.127476 0.634765 0.990378
O O7 0.989991 0.753585 0.220715
O O8 0.260441 0.168410 0.632616
O O9 0.266997 0.000000 0.744562
O O10 0.076239 0.097459 0.848740
O O11 0.935458 0.891295 0.413441
O O12 0.892993 0.881317 0.116919
O O13 0.853204 0.878993 0.826565
O O14 0.688005 0.831145 0.682081
O O15 0.706306 0.000000 0.784344
O O16 0.077763 0.809397 0.557446
O O17 0.069203 0.000000 0.519321
O O18 0.769166 0.216054 0.381782
#
# Coordination Sequence:
#
# PCOD9132206 Si02
#       8
#     4   4   4   4   4   4   4   4
#     4  10  19  37  67  95 127 173 235 284 318 387
#     4  10  21  41  67  93 131 176 227 267 334 391
#     4  11  22  40  68 101 131 172 232 286 332 390
#     4  10  24  39  69  97 134 172 219 277 340 389
#     4  12  27  45  67  99 139 182 225 274 339 409
#     4  11  23  42  68 101 133 174 227 280 335 397
#     4  10  22  42  70  96 131 174 231 274 330 392
#     4  12  25  42  62  98 144 173 214 270 348 403
#
# _framework density 22.553889000000002
#
# number of rings (size 3 to 8) (size 9 to 14) (size 15 to 20)
#    0.750    0.500    3.750    1.875    5.250    2.000 
#    0.000    0.000    0.000    0.750    0.000    0.000 
#    0.000    0.000    0.000    0.000    0.000    0.000 
#
# Total GULP energy -89212.220597 kJ/mol
# GULP energy per Si atom -5575.763787 kJ/mol
# Density = 2.250256 g / cm^3
# Si number density = 22.553889 Si / 1000 Ang^3
#
#
#
# Elastic Constant Matrix: (Units=GPa)
#
#
# Indices 1 2 3 4 5 6 
#
# 1 74.4453 17.1712 -3.7122 0.0000 4.7435 0.0000
# 2 17.1712 91.2896 19.7870 0.0000 11.1787 0.0000
# 3 -3.7122 19.7870 67.8572 0.0000 7.0430 0.0000
# 4 0.0000 0.0000 0.0000 25.8369 0.0000 4.0264
# 5 4.7435 11.1787 7.0430 0.0000 29.9421 0.0000
# 6 0.0000 0.0000 0.0000 4.0264 0.0000 25.5243
#
#
#
# Elastic Compliance Matrix: (Units=1/GPa)
#
#
# Indices 1 2 3 4 5 6 
#
# 1 0.014288 -0.002878 0.001788 0.000000 -0.001610 0.000000
# 2 -0.002878 0.012676 -0.003495 0.000000 -0.003454 0.000000
# 3 0.001788 -0.003495 0.016142 0.000000 -0.002775 0.000000
# 4 0.000000 0.000000 0.000000 0.039680 0.000000 -0.006259
# 5 -0.001610 -0.003454 -0.002775 0.000000 0.035595 0.000000
# 6 0.000000 0.000000 0.000000 -0.006259 0.000000 0.040166
#
#
# Mechanical properties :
#
#
# Convention : Reuss Voigt Hill
#
# Bulk Modulus (GPa) = 29.46752 33.34267 31.40510
# Shear Modulus (GPa) = 27.92836 29.61705 28.77271
#
# Velocity S-wave (km/s) = 3.52276 3.62770 3.57561
# Velocity P-wave (km/s) = 5.44428 5.68881 5.56789
#
# Compressibility (1/GPa) = 0.03393567
#
# Stress axis : x y z
#
# Youngs Moduli (GPa) = 69.98767 78.88870 61.95057
#
# Poissons Ratio (x) = 0.22704 -0.11076
# Poissons Ratio (y) = 0.20142 0.21653
# Poissons Ratio (z) = -0.12513 0.27573
#
# Static dielectric constant tensor:
#      x y z
#    x 1.816630 0.000000 -0.007570 
#    y 0.000000 1.855240 0.000000 
#    z -0.007570 0.000000 1.966180 
# 
# From -- ./inp_files/13148.got.cif
#   From: 2010.05.17/outbox.cif.g08.bks.cpg/sg8_7_cif.got.tgz:13148.got - 2010.06.03 19:46:02.
