data_PCOD9132178
_publ_section_title
;
Structure prediction by ZEFSAII (Michael W. Deem and Ramdas Pophale) SiO2 
 PCOD9132178
Probable space group: C M
;
_chemical_formula_sum "Si O2"
_cell_formula_units_Z 30
_cell_length_a 8.880137
_cell_length_b 17.786213
_cell_length_c 10.882085
_cell_angle_alpha 90.000000
_cell_angle_beta 43.942092
_cell_angle_gamma 90.000000
_cell_volume 1192.700912
_symmetry_space_group_name_H-M "C M"
_symmetry_group_IT_number 8
_symmetry_cell_setting 'monoclinic'
loop_
_space_group_symop_operation_xyz
x,y,z
x,-y,z
1/2+x,1/2+y,z
1/2+x,1/2-y,z
loop_
_atom_site_type_symbol
_atom_site_label
_atom_site_fract_x
_atom_site_fract_y
_atom_site_fract_z
Si Si1 0.503790 0.412910 0.051950
Si Si2 0.426438 0.000000 0.107543
Si Si3 0.387707 0.310209 0.902553
Si Si4 0.393637 0.192468 0.532339
Si Si5 0.756656 0.348449 0.091510
Si Si6 0.806137 0.365017 0.330634
Si Si7 0.012344 0.413966 0.666511
Si Si8 0.854446 0.851571 0.660124
O O1 0.438928 0.500000 0.095215
O O2 0.524080 0.372512 0.171841
O O3 0.377870 0.363671 0.026126
O O4 0.759551 0.409978 0.857813
O O5 0.370373 0.068306 0.040149
O O6 0.445736 0.065253 0.202599
O O7 0.636451 0.313769 0.712009
O O8 0.269803 0.341950 0.849249
O O9 0.331140 0.224378 0.969358
O O10 0.411340 0.183060 0.376643
O O11 0.516076 0.128264 0.534810
O O12 0.442583 0.270220 0.569507
O O13 0.760843 0.321668 0.229942
O O14 0.574753 0.399294 0.514843
O O15 0.075061 0.500000 0.616295
O O16 0.674129 0.122839 0.670134
#
# Coordination Sequence:
#
# PCOD9132178 Si02
#       8
#     4   2   4   4   4   4   4   4
#     4  10  19  37  56  89 121 157 206 251 306 366
#     4   8  20  38  56  92 122 158 204 256 304 366
#     4  10  21  35  63  87 121 162 211 255 300 363
#     4  10  20  38  57  87 120 160 201 252 302 366
#     4  10  19  37  61  89 114 160 205 256 296 365
#     4   9  21  36  62  84 119 160 200 248 307 367
#     4  10  22  33  59  88 120 159 202 254 305 354
#     4  11  21  38  57  88 125 159 201 255 305 360
#
# _framework density 25.152996000000002
#
# number of rings (size 3 to 8) (size 9 to 14) (size 15 to 20)
#    0.800    1.333    0.667    4.000    1.867    1.600 
#    2.400    0.000    0.000    1.600    0.000    0.000 
#    0.000    0.000    0.000    0.000    0.000    0.000 
#
# Total GULP energy -83518.661593 kJ/mol
# GULP energy per Si atom -5567.910773 kJ/mol
# Density = 2.509575 g / cm^3
# Si number density = 25.152996 Si / 1000 Ang^3
#
#
#
# Elastic Constant Matrix: (Units=GPa)
#
#
# Indices 1 2 3 4 5 6 
#
# 1 110.5278 79.6449 62.5325 0.0000 37.5360 0.0000
# 2 79.6449 158.0977 51.8551 0.0000 43.5719 0.0000
# 3 62.5325 51.8551 97.8692 0.0000 37.1320 0.0000
# 4 0.0000 0.0000 0.0000 88.4122 0.0000 3.5625
# 5 37.5360 43.5719 37.1320 0.0000 61.3212 0.0000
# 6 0.0000 0.0000 0.0000 3.5625 0.0000 35.7834
#
#
#
# Elastic Compliance Matrix: (Units=1/GPa)
#
#
# Indices 1 2 3 4 5 6 
#
# 1 0.018742 -0.006250 -0.007784 0.000000 -0.002318 0.000000
# 2 -0.006250 0.010521 -0.000255 0.000000 -0.003496 0.000000
# 3 -0.007784 -0.000255 0.017462 0.000000 -0.005628 0.000000
# 4 0.000000 0.000000 0.000000 0.011356 0.000000 -0.001131
# 5 -0.002318 -0.003496 -0.005628 0.000000 0.023618 0.000000
# 6 0.000000 0.000000 0.000000 -0.001131 0.000000 0.028058
#
#
# Mechanical properties :
#
#
# Convention : Reuss Voigt Hill
#
# Bulk Modulus (GPa) = 55.10642 83.83996 69.47319
# Shear Modulus (GPa) = 34.62994 48.60084 41.61539
#
# Velocity S-wave (km/s) = 3.71451 4.40046 4.07196
# Velocity P-wave (km/s) = 6.35239 7.69565 7.05606
#
# Compressibility (1/GPa) = 0.01814671
#
# Stress axis : x y z
#
# Youngs Moduli (GPa) = 53.35516 95.05181 57.26869
#
# Poissons Ratio (x) = 0.59405 0.44580
# Poissons Ratio (y) = 0.33346 0.01459
# Poissons Ratio (z) = 0.41533 0.02422
#
# Static dielectric constant tensor:
#      x y z
#    x 2.091610 0.000000 -0.055310 
#    y 0.000000 1.787780 0.000000 
#    z -0.055310 0.000000 2.118070 
# 
# From -- ./inp_files/21840.got.cif
#   From: 2010.05.17/outbox.cif.g08.bks.cpg/sg8_11_cif.got.tgz:21840.got - 2010.06.03 19:46:02.
