data_PCOD9132238
_publ_section_title
;
Structure prediction by ZEFSAII (Michael W. Deem and Ramdas Pophale) SiO2 
 PCOD9132238
Probable space group: C M
;
_chemical_formula_sum "Si O2"
_cell_formula_units_Z 32
_cell_length_a 5.019133
_cell_length_b 30.235894
_cell_length_c 12.043701
_cell_angle_alpha 90.000000
_cell_angle_beta 78.025680
_cell_angle_gamma 90.000000
_cell_volume 1787.957560
_symmetry_space_group_name_H-M "C M"
_symmetry_group_IT_number 8
_symmetry_cell_setting 'monoclinic'
loop_
_space_group_symop_operation_xyz
x,y,z
x,-y,z
1/2+x,1/2+y,z
1/2+x,1/2-y,z
loop_
_atom_site_type_symbol
_atom_site_label
_atom_site_fract_x
_atom_site_fract_y
_atom_site_fract_z
Si Si1 0.309460 0.174606 0.434480
Si Si2 0.143626 0.217966 0.923530
Si Si3 0.186855 0.220852 0.668456
Si Si4 0.246913 0.550159 0.115313
Si Si5 0.931114 0.278987 0.201491
Si Si6 0.818203 0.852113 0.093870
Si Si7 0.347225 0.369827 0.350880
Si Si8 0.670028 0.451573 0.272853
O O1 0.300739 0.191119 0.560007
O O2 0.409066 0.209929 0.334151
O O3 0.528426 0.135190 0.400915
O O4 0.010119 0.162834 0.416846
O O5 0.921393 0.257931 0.936932
O O6 0.180711 0.201746 0.793127
O O7 0.024919 0.177393 0.004772
O O8 0.386186 0.263059 0.661608
O O9 0.210361 0.500000 0.068833
O O10 0.270485 0.597882 0.052567
O O11 0.517429 0.547357 0.166777
O O12 0.985626 0.557423 0.218832
O O13 0.654810 0.259597 0.177443
O O14 0.045094 0.322454 0.130620
O O15 0.903180 0.857624 0.216582
O O16 0.496285 0.416256 0.354816
O O17 0.651543 0.500000 0.325402
#
# Coordination Sequence:
#
# PCOD9132238 Si02
#       8
#     4   4   4   4   4   4   4   4
#     4  11  20  32  47  67  95 126 163 199 234 273
#     4  10  22  36  51  71  96 130 167 200 238 286
#     4  10  20  36  52  66  90 126 169 206 231 267
#     4   9  18  30  47  68  94 128 161 193 233 285
#     4  11  20  28  41  65  94 124 151 180 227 281
#     4  10  20  33  49  71 102 127 155 197 244 290
#     4  10  20  30  47  74  97 124 155 194 242 291
#     4   9  16  29  45  66  97 127 154 187 233 289
#
# _framework density 17.897514999999999
#
# number of rings (size 3 to 8) (size 9 to 14) (size 15 to 20)
#    0.000    2.000    0.000    6.000    0.000    5.000 
#    0.000    0.000    0.000    0.000    0.000    1.750 
#    0.000    0.000    0.000    0.000    0.000    0.000 
#
# Total GULP energy -89197.768541 kJ/mol
# GULP energy per Si atom -5574.860534 kJ/mol
# Density = 1.785678 g / cm^3
# Si number density = 17.897515 Si / 1000 Ang^3
#
#
#
# Elastic Constant Matrix: (Units=GPa)
#
#
# Indices 1 2 3 4 5 6 
#
# 1 66.6287 8.4897 1.0050 0.0000 -2.8084 0.0000
# 2 8.4897 106.7835 29.3272 0.0000 -3.3674 0.0000
# 3 1.0050 29.3272 89.7258 0.0000 -6.6098 0.0000
# 4 0.0000 0.0000 0.0000 14.9063 0.0000 -5.5608
# 5 -2.8084 -3.3674 -6.6098 0.0000 16.5799 0.0000
# 6 0.0000 0.0000 0.0000 -5.5608 0.0000 21.6950
#
#
#
# Elastic Compliance Matrix: (Units=1/GPa)
#
#
# Indices 1 2 3 4 5 6 
#
# 1 0.015267 -0.001251 0.000422 0.000000 0.002500 0.000000
# 2 -0.001251 0.010400 -0.003344 0.000000 0.000567 0.000000
# 3 0.000422 -0.003344 0.012557 0.000000 0.004399 0.000000
# 4 0.000000 0.000000 0.000000 0.074179 0.000000 0.019013
# 5 0.002500 0.000567 0.004399 0.000000 0.062606 0.000000
# 6 0.000000 0.000000 0.000000 0.019013 0.000000 0.050967
#
#
# Mechanical properties :
#
#
# Convention : Reuss Voigt Hill
#
# Bulk Modulus (GPa) = 33.46747 37.86463 35.66605
# Shear Modulus (GPa) = 20.46819 25.59064 23.02942
#
# Velocity S-wave (km/s) = 3.38543 3.78543 3.59100
# Velocity P-wave (km/s) = 5.83281 6.34888 6.09631
#
# Compressibility (1/GPa) = 0.02987976
#
# Stress axis : x y z
#
# Youngs Moduli (GPa) = 65.50096 96.15046 79.63543
#
# Poissons Ratio (x) = 0.12027 -0.03361
# Poissons Ratio (y) = 0.08193 0.26627
# Poissons Ratio (z) = -0.02764 0.32149
#
# Static dielectric constant tensor:
#      x y z
#    x 1.642420 0.000000 0.002480 
#    y 0.000000 1.681640 0.000000 
#    z 0.002480 0.000000 1.617660 
# 
# From -- ./inp_files/18267.got.cif
#   From: 2010.05.17/outbox.cif.g08.bks.cpg/sg8_10_cif.got.tgz:18267.got - 2010.06.03 19:46:02.
