data_PCOD9132170
_publ_section_title
;
Structure prediction by ZEFSAII (Michael W. Deem and Ramdas Pophale) SiO2 
 PCOD9132170
Probable space group: C M
;
_chemical_formula_sum "Si O2"
_cell_formula_units_Z 32
_cell_length_a 12.029757
_cell_length_b 28.631241
_cell_length_c 9.239382
_cell_angle_alpha 90.000000
_cell_angle_beta 149.314299
_cell_angle_gamma 90.000000
_cell_volume 1624.013423
_symmetry_space_group_name_H-M "C M"
_symmetry_group_IT_number 8
_symmetry_cell_setting 'monoclinic'
loop_
_space_group_symop_operation_xyz
x,y,z
x,-y,z
1/2+x,1/2+y,z
1/2+x,1/2-y,z
loop_
_atom_site_type_symbol
_atom_site_label
_atom_site_fract_x
_atom_site_fract_y
_atom_site_fract_z
Si Si1 0.007690 0.095900 0.888160
Si Si2 0.086425 0.448268 0.300054
Si Si3 0.426923 0.948630 0.454668
Si Si4 0.407840 0.676014 0.317633
Si Si5 0.208287 0.267953 0.634450
Si Si6 0.757346 0.631167 0.899096
Si Si7 0.081417 0.287552 0.187814
Si Si8 0.206003 0.358372 0.793191
O O1 0.157209 0.125472 0.946759
O O2 0.830877 0.071033 0.586480
O O3 0.876341 0.124212 0.861726
O O4 0.169368 0.060574 0.151175
O O5 0.078771 0.500000 0.228027
O O6 0.013330 0.451000 0.386345
O O7 0.915341 0.412272 0.041354
O O8 0.544329 0.901842 0.644893
O O9 0.471129 0.000000 0.570511
O O10 0.548684 0.723477 0.462224
O O11 0.563827 0.638460 0.569225
O O12 0.209141 0.688266 0.200995
O O13 0.322255 0.657845 0.069297
O O14 0.239526 0.276752 0.498602
O O15 0.107287 0.312089 0.606604
O O16 0.437238 0.255023 0.966119
O O17 0.907802 0.676452 0.059290
#
# Coordination Sequence:
#
# PCOD9132170 Si02
#       8
#     4   4   4   4   4   4   4   4
#     4  10  19  36  65  89 126 158 209 257 318 368
#     4   9  17  32  58  92 121 155 205 258 311 372
#     4   9  19  35  61  94 128 161 206 259 313 376
#     4  11  25  41  61  87 126 164 209 263 309 379
#     4  11  23  41  59  94 119 165 211 256 319 370
#     4  10  21  39  58  87 122 163 202 255 311 370
#     4  11  24  40  63  86 124 162 210 256 313 370
#     4  11  23  40  62  95 125 168 212 258 319 373
#
# _framework density 19.704270999999999
#
# number of rings (size 3 to 8) (size 9 to 14) (size 15 to 20)
#    0.000    1.750    1.250    4.125    1.750    5.000 
#    0.000    0.625    0.000    3.750    0.000    0.000 
#    0.000    0.000    0.000    0.000    0.000    0.000 
#
# Total GULP energy -89273.206661 kJ/mol
# GULP energy per Si atom -5579.575416 kJ/mol
# Density = 1.965942 g / cm^3
# Si number density = 19.704271 Si / 1000 Ang^3
#
#
#
# Elastic Constant Matrix: (Units=GPa)
#
#
# Indices 1 2 3 4 5 6 
#
# 1 52.3143 25.9526 29.5741 0.0000 -2.7175 0.0000
# 2 25.9526 126.2279 64.0619 0.0000 -7.3914 0.0000
# 3 29.5741 64.0619 102.2587 0.0000 -11.5867 0.0000
# 4 0.0000 0.0000 0.0000 32.3413 0.0000 -3.5593
# 5 -2.7175 -7.3914 -11.5867 0.0000 34.5673 0.0000
# 6 0.0000 0.0000 0.0000 -3.5593 0.0000 3.8376
#
#
#
# Elastic Compliance Matrix: (Units=1/GPa)
#
#
# Indices 1 2 3 4 5 6 
#
# 1 0.023197 -0.002001 -0.005506 0.000000 -0.000450 0.000000
# 2 -0.002001 0.011788 -0.006796 0.000000 0.000085 0.000000
# 3 -0.005506 -0.006796 0.016024 0.000000 0.003485 0.000000
# 4 0.000000 0.000000 0.000000 0.034435 0.000000 0.031939
# 5 -0.000450 0.000085 0.003485 0.000000 0.030080 0.000000
# 6 0.000000 0.000000 0.000000 0.031939 0.000000 0.290205
#
#
# Mechanical properties :
#
#
# Convention : Reuss Voigt Hill
#
# Bulk Modulus (GPa) = 44.63906 57.77533 51.20720
# Shear Modulus (GPa) = 11.31722 24.89671 18.10697
#
# Velocity S-wave (km/s) = 2.39917 3.55846 3.03468
# Velocity P-wave (km/s) = 5.51166 6.80209 6.19059
#
# Compressibility (1/GPa) = 0.02240191
#
# Stress axis : x y z
#
# Youngs Moduli (GPa) = 43.10828 84.83338 62.40625
#
# Poissons Ratio (x) = 0.16978 0.34361
# Poissons Ratio (y) = 0.08628 0.42413
# Poissons Ratio (z) = 0.23736 0.57655
#
# Static dielectric constant tensor:
#      x y z
#    x 1.669800 0.000000 0.016120 
#    y 0.000000 1.744400 0.000000 
#    z 0.016120 0.000000 1.710030 
# 
# From -- ./inp_files/11694.got.cif
#   From: 2010.05.17/outbox.cif.g08.bks.cpg/sg8_6_cif.got.tgz:11694.got - 2010.06.03 19:46:02.
