data_PCOD9132244
_publ_section_title
;
Structure prediction by ZEFSAII (Michael W. Deem and Ramdas Pophale) SiO2 
 PCOD9132244
Probable space group: C M
;
_chemical_formula_sum "Si O2"
_cell_formula_units_Z 28
_cell_length_a 19.909438
_cell_length_b 9.914767
_cell_length_c 7.034078
_cell_angle_alpha 90.000000
_cell_angle_beta 116.783808
_cell_angle_gamma 90.000000
_cell_volume 1239.540300
_symmetry_space_group_name_H-M "C M"
_symmetry_group_IT_number 8
_symmetry_cell_setting 'monoclinic'
loop_
_space_group_symop_operation_xyz
x,y,z
x,-y,z
1/2+x,1/2+y,z
1/2+x,1/2-y,z
loop_
_atom_site_type_symbol
_atom_site_label
_atom_site_fract_x
_atom_site_fract_y
_atom_site_fract_z
Si Si1 0.338790 0.349425 0.384040
Si Si2 0.150232 0.339306 0.829136
Si Si3 0.707048 0.660359 0.258956
Si Si4 0.999646 0.232205 0.729762
Si Si5 0.434856 0.147363 0.987178
Si Si6 0.048699 0.854232 0.197674
Si Si7 0.307550 0.650826 0.892626
O O1 0.314816 0.500000 0.413273
O O2 0.285001 0.235064 0.404825
O O3 0.426352 0.328585 0.540210
O O4 0.326428 0.344132 0.141738
O O5 0.144979 0.500000 0.867372
O O6 0.068311 0.277644 0.685223
O O7 0.177625 0.249993 0.043580
O O8 0.218108 0.327956 0.765493
O O9 0.717522 0.500000 0.230818
O O10 0.637933 0.668161 0.319698
O O11 0.971245 0.356438 0.823931
O O12 0.030030 0.141202 0.944953
O O13 0.420168 0.000000 0.045274
O O14 0.494998 0.232170 0.187624
O O15 0.360669 0.236561 0.875753
O O16 0.029069 0.000000 0.257000
O O17 0.327394 0.500000 0.851950
#
# Coordination Sequence:
#
# PCOD9132244 Si02
#       7
#     4   4   4   4   4   4   4
#     4  10  20  34  53  79 108 141 175 214 266 316
#     4   9  17  33  54  76 101 139 180 216 257 312
#     4   9  17  28  47  77 105 132 169 215 259 301
#     4   9  19  31  57  80 104 128 181 220 258 304
#     4  10  20  32  53  80 106 136 174 219 262 308
#     4   8  16  30  51  74 100 132 172 212 254 307
#     4   9  19  34  55  76 104 140 177 212 260 318
#
# _framework density 22.589020000000001
#
# number of rings (size 3 to 8) (size 9 to 14) (size 15 to 20)
#    0.857    2.000    0.000    2.571    0.000    4.571 
#    0.000    0.000    3.143    0.000    0.000    0.000 
#    0.000    0.000    0.000    0.000    0.000    0.000 
#
# Total GULP energy -77981.455076 kJ/mol
# GULP energy per Si atom -5570.103934 kJ/mol
# Density = 2.253761 g / cm^3
# Si number density = 22.589020 Si / 1000 Ang^3
#
#
#
# Elastic Constant Matrix: (Units=GPa)
#
#
# Indices 1 2 3 4 5 6 
#
# 1 88.8152 52.4234 24.8457 0.0000 36.4559 0.0000
# 2 52.4234 176.2676 24.0913 0.0000 32.1162 0.0000
# 3 24.8457 24.0913 98.6277 0.0000 17.5451 0.0000
# 4 0.0000 0.0000 0.0000 3.5170 0.0000 7.5017
# 5 36.4559 32.1162 17.5451 0.0000 39.6372 0.0000
# 6 0.0000 0.0000 0.0000 7.5017 0.0000 25.7802
#
#
#
# Elastic Compliance Matrix: (Units=1/GPa)
#
#
# Indices 1 2 3 4 5 6 
#
# 1 0.019522 -0.002871 -0.001559 0.000000 -0.014939 0.000000
# 2 -0.002871 0.007126 -0.000499 0.000000 -0.002912 0.000000
# 3 -0.001559 -0.000499 0.011209 0.000000 -0.003123 0.000000
# 4 0.000000 0.000000 0.000000 0.749609 0.000000 -0.218128
# 5 -0.014939 -0.002912 -0.003123 0.000000 0.042711 0.000000
# 6 0.000000 0.000000 0.000000 -0.218128 0.000000 0.102262
#
#
# Mechanical properties :
#
#
# Convention : Reuss Voigt Hill
#
# Bulk Modulus (GPa) = 35.71615 62.93682 49.32648
# Shear Modulus (GPa) = 5.25413 31.27686 18.26550
#
# Velocity S-wave (km/s) = 1.52677 3.72506 2.84668
# Velocity P-wave (km/s) = 4.35358 6.81349 5.71740
#
# Compressibility (1/GPa) = 0.02799854
#
# Stress axis : x y z
#
# Youngs Moduli (GPa) = 51.22412 140.33287 89.21039
#
# Poissons Ratio (x) = 0.40290 0.13909
# Poissons Ratio (y) = 0.14707 0.04454
# Poissons Ratio (z) = 0.07986 0.07007
#
# Static dielectric constant tensor:
#      x y z
#    x 1.896120 0.000000 -0.011090 
#    y 0.000000 1.824420 0.000000 
#    z -0.011090 0.000000 1.886100 
# 
# From -- ./inp_files/24268.got.cif
#   From: 2010.05.17/outbox.cif.g08.bks.cpg/sg8_13_cif.got.tgz:24268.got - 2010.06.03 19:46:02.
