data_PCOD9132020
_publ_section_title
;
Structure prediction by ZEFSAII (Michael W. Deem and Ramdas Pophale) SiO2 
 PCOD9132020
Probable space group: C M
;
_chemical_formula_sum "Si O2"
_cell_formula_units_Z 32
_cell_length_a 28.373297
_cell_length_b 8.994611
_cell_length_c 23.315213
_cell_angle_alpha 90.000000
_cell_angle_beta 162.414309
_cell_angle_gamma 90.000000
_cell_volume 1797.744884
_symmetry_space_group_name_H-M "C M"
_symmetry_group_IT_number 8
_symmetry_cell_setting 'monoclinic'
loop_
_space_group_symop_operation_xyz
x,y,z
x,-y,z
1/2+x,1/2+y,z
1/2+x,1/2-y,z
loop_
_atom_site_type_symbol
_atom_site_label
_atom_site_fract_x
_atom_site_fract_y
_atom_site_fract_z
Si Si1 0.643000 0.679265 0.227770
Si Si2 0.012324 0.177706 0.475699
Si Si3 0.326982 0.320658 0.793432
Si Si4 0.238995 0.678809 0.942644
Si Si5 0.956746 0.177831 0.544779
Si Si6 0.572651 0.322117 0.275804
Si Si7 0.366102 0.827958 0.199986
Si Si8 0.210233 0.329440 0.540279
O O1 0.666332 0.500000 0.253999
O O2 0.792759 0.759868 0.376385
O O3 0.611478 0.726648 0.256738
O O4 0.488755 0.711808 0.011919
O O5 0.182378 0.242464 0.656988
O O6 0.976611 0.212742 0.500335
O O7 0.890659 0.250149 0.289735
O O8 0.012389 0.000000 0.468006
O O9 0.300742 0.500000 0.764701
O O10 0.323638 0.276180 0.722476
O O11 0.229450 0.500000 0.933346
O O12 0.093602 0.746671 0.740419
O O13 0.398112 0.721872 0.093173
O O14 0.258021 0.743056 0.028976
O O15 0.965069 0.000000 0.561043
O O16 0.575800 0.500000 0.280436
O O17 0.693055 0.262340 0.462599
O O18 0.539325 0.825289 0.372229
O O19 0.319964 0.000000 0.152630
O O20 0.246504 0.500000 0.568258
#
# Coordination Sequence:
#
# PCOD9132020 Si02
#       8
#     4   4   4   4   4   4   4   4
#     4  10  21  37  54  73 101 138 179 219 261 310
#     4  10  20  34  54  80 108 139 177 219 262 310
#     4   9  18  34  56  80 103 131 173 219 262 312
#     4  10  19  34  58  83 107 137 173 215 265 316
#     4  11  24  38  51  74 108 143 181 221 260 308
#     4   9  18  32  53  80 104 130 168 212 257 309
#     4   9  17  31  53  81 110 137 170 214 262 312
#     4   8  15  28  49  77 105 131 161 205 257 307
#
# _framework density 17.800079
#
# number of rings (size 3 to 8) (size 9 to 14) (size 15 to 20)
#    0.000    2.500    0.000    3.000    0.000    7.500 
#    0.000    1.250    0.000    6.000    0.000    0.000 
#    0.000    0.000    0.000    0.000    0.000    0.000 
#
# Total GULP energy -89247.554582 kJ/mol
# GULP energy per Si atom -5577.972161 kJ/mol
# Density = 1.775957 g / cm^3
# Si number density = 17.800079 Si / 1000 Ang^3
#
#
#
# Elastic Constant Matrix: (Units=GPa)
#
#
# Indices 1 2 3 4 5 6 
#
# 1 98.3099 56.0513 118.4199 0.0000 -29.4595 0.0000
# 2 56.0513 59.8613 64.8402 0.0002 -15.0894 0.0001
# 3 118.4199 64.8402 117.7166 0.0001 -36.4109 0.0001
# 4 0.0000 0.0002 0.0001 28.8165 0.0001 -5.5582
# 5 -29.4595 -15.0894 -36.4109 0.0001 29.1203 0.0001
# 6 0.0000 0.0001 0.0001 -5.5582 0.0001 28.2288
#
#
#
# Elastic Compliance Matrix: (Units=1/GPa)
#
#
# Indices 1 2 3 4 5 6 
#
# 1 -0.034275 -0.016817 0.049445 0.000000 0.018436 0.000000
# 2 -0.016817 0.035675 -0.003713 0.000000 -0.003170 0.000000
# 3 0.049445 -0.003713 -0.039663 0.000000 -0.001496 0.000000
# 4 0.000000 0.000000 0.000000 0.036072 0.000000 0.007103
# 5 0.018436 -0.003170 -0.001496 0.000000 0.049478 0.000000
# 6 0.000000 0.000000 0.000000 0.007103 0.000000 0.036823
#
#
# Mechanical properties :
#
#
# Convention : Reuss Voigt Hill
#
# Bulk Modulus (GPa) = 51.10725 83.83451 67.47088
# Shear Modulus (GPa) = 152.41921 19.67154 86.04538
#
# Velocity S-wave (km/s) = 9.26360 3.32797 6.96023
# Velocity P-wave (km/s) = 11.96634 7.87193 10.12819
#
# Compressibility (1/GPa) = 0.01956670
#
# Stress axis : x y z
#
# Youngs Moduli (GPa) = -29.17607 28.03065 -25.21249
#
# Poissons Ratio (x) = 0.47140 1.24663
# Poissons Ratio (y) = -0.49066 -0.09362
# Poissons Ratio (z) = 1.44261 0.10409
#
# Static dielectric constant tensor:
#      x y z
#    x 1.596590 0.000000 -0.018410 
#    y 0.000000 1.600180 0.000000 
#    z -0.018410 0.000000 1.594360 
# 
# From -- ./inp_files/15862.got.cif
#   From: 2010.05.17/outbox.cif.g08.bks.cpg/sg8_8_cif.got.tgz:15862.got - 2010.06.03 19:46:02.
