data_PCOD9132456
_publ_section_title
;
Structure prediction by ZEFSAII (Michael W. Deem and Ramdas Pophale) SiO2 
 PCOD9132456
Probable space group: C M
;
_chemical_formula_sum "Si O2"
_cell_formula_units_Z 32
_cell_length_a 21.015543
_cell_length_b 7.928929
_cell_length_c 21.731142
_cell_angle_alpha 90.000000
_cell_angle_beta 156.685088
_cell_angle_gamma 90.000000
_cell_volume 1433.166032
_symmetry_space_group_name_H-M "C M"
_symmetry_group_IT_number 8
_symmetry_cell_setting 'monoclinic'
loop_
_space_group_symop_operation_xyz
x,y,z
x,-y,z
1/2+x,1/2+y,z
1/2+x,1/2-y,z
loop_
_atom_site_type_symbol
_atom_site_label
_atom_site_fract_x
_atom_site_fract_y
_atom_site_fract_z
Si Si1 0.613490 0.696151 0.636400
Si Si2 0.183582 0.704235 0.566917
Si Si3 0.447019 0.198449 0.255824
Si Si4 0.413319 0.310277 0.661541
Si Si5 0.203266 0.192694 0.382375
Si Si6 0.253121 0.310057 0.296189
Si Si7 0.900939 0.705288 0.982427
Si Si8 0.748771 0.810169 0.973087
O O1 0.583250 0.500000 0.626387
O O2 0.698531 0.711546 0.645827
O O3 0.433477 0.771003 0.461088
O O4 0.744665 0.760525 0.802965
O O5 0.184995 0.500000 0.574858
O O6 0.016729 0.751486 0.383718
O O7 0.324639 0.750853 0.644532
O O8 0.591417 0.234102 0.336322
O O9 0.310090 0.294252 0.097542
O O10 0.411289 0.000000 0.226456
O O11 0.354943 0.500000 0.597725
O O12 0.374569 0.198437 0.568088
O O13 0.601123 0.312982 0.836486
O O14 0.209812 0.309502 0.329744
O O15 0.159364 0.000000 0.328277
O O16 0.271961 0.500000 0.287892
O O17 0.080383 0.238781 0.117867
O O18 0.903937 0.500000 0.984190
O O19 0.870866 0.765163 0.026106
O O20 0.695270 0.000000 0.915348
#
# Coordination Sequence:
#
# PCOD9132456 Si02
#       8
#     4   4   4   4   4   4   4   4
#     4  10  22  39  60  85 115 158 206 250 297 351
#     4   9  21  41  62  82 109 154 204 243 290 354
#     4  10  20  37  59  81 115 159 193 230 292 368
#     4  10  21  38  59  82 115 160 198 233 299 374
#     4  11  20  32  55  88 118 145 191 249 298 343
#     4  10  20  36  58  83 117 163 205 237 296 373
#     4  10  21  38  60  85 121 164 200 239 297 372
#     4  12  23  35  57  94 124 147 191 251 307 351
#
# _framework density 22.328188000000001
#
# number of rings (size 3 to 8) (size 9 to 14) (size 15 to 20)
#    0.000    1.750    1.250    4.500    0.000    5.000 
#    2.250    0.000    0.000    0.000    0.000    0.000 
#    0.000    0.000    0.000    0.000    0.000    0.000 
#
# Total GULP energy -89112.672182 kJ/mol
# GULP energy per Si atom -5569.542011 kJ/mol
# Density = 2.227737 g / cm^3
# Si number density = 22.328188 Si / 1000 Ang^3
#
#
#
# Elastic Constant Matrix: (Units=GPa)
#
#
# Indices 1 2 3 4 5 6 
#
# 1 36.7333 0.4966 13.3594 0.0000 -12.7399 0.0000
# 2 0.4966 57.2385 10.0173 -0.0002 0.3159 -0.0001
# 3 13.3594 10.0173 123.4498 -0.0005 6.5107 -0.0001
# 4 0.0000 -0.0002 -0.0005 18.6550 -0.0001 -3.0706
# 5 -12.7399 0.3159 6.5107 -0.0001 32.6127 0.0000
# 6 0.0000 -0.0001 -0.0001 -3.0706 0.0000 17.6983
#
#
#
# Elastic Compliance Matrix: (Units=1/GPa)
#
#
# Indices 1 2 3 4 5 6 
#
# 1 0.033695 0.000404 -0.004420 0.000000 0.014041 0.000000
# 2 0.000404 0.017728 -0.001497 0.000000 0.000285 0.000000
# 3 -0.004420 -0.001497 0.008884 0.000000 -0.003486 0.000000
# 4 0.000000 0.000000 0.000000 0.055181 0.000000 0.009574
# 5 0.014041 0.000285 -0.003486 0.000000 0.036841 0.000000
# 6 0.000000 0.000000 0.000000 0.009574 0.000000 0.058163
#
#
# Mechanical properties :
#
#
# Convention : Reuss Voigt Hill
#
# Bulk Modulus (GPa) = 20.29209 29.46313 24.87761
# Shear Modulus (GPa) = 21.01326 26.69644 23.85485
#
# Velocity S-wave (km/s) = 3.07108 3.46155 3.27214
# Velocity P-wave (km/s) = 4.65652 5.40376 5.04400
#
# Compressibility (1/GPa) = 0.04928028
#
# Stress axis : x y z
#
# Youngs Moduli (GPa) = 29.67806 56.40882 112.56118
#
# Poissons Ratio (x) = -0.02277 0.49748
# Poissons Ratio (y) = -0.01198 0.16853
# Poissons Ratio (z) = 0.13117 0.08446
#
# Static dielectric constant tensor:
#      x y z
#    x 1.771090 0.000000 0.035850 
#    y 0.000000 1.779500 0.000000 
#    z 0.035850 0.000000 1.991560 
# 
# From -- ./inp_files/15800.got.cif
#   From: 2010.05.17/outbox.cif.g08.bks.cpg/sg8_8_cif.got.tgz:15800.got - 2010.06.03 19:46:02.
