data_PCOD9132542
_publ_section_title
;
Structure prediction by ZEFSAII (Michael W. Deem and Ramdas Pophale) SiO2 
 PCOD9132542
Probable space group: C M
;
_chemical_formula_sum "Si O2"
_cell_formula_units_Z 32
_cell_length_a 33.855592
_cell_length_b 8.306234
_cell_length_c 12.846002
_cell_angle_alpha 90.000000
_cell_angle_beta 153.653757
_cell_angle_gamma 90.000000
_cell_volume 1603.188419
_symmetry_space_group_name_H-M "C M"
_symmetry_group_IT_number 8
_symmetry_cell_setting 'monoclinic'
loop_
_space_group_symop_operation_xyz
x,y,z
x,-y,z
1/2+x,1/2+y,z
1/2+x,1/2-y,z
loop_
_atom_site_type_symbol
_atom_site_label
_atom_site_fract_x
_atom_site_fract_y
_atom_site_fract_z
Si Si1 0.601990 0.806573 0.291040
Si Si2 0.980568 0.812369 0.533746
Si Si3 0.787334 0.195364 0.116496
Si Si4 0.223830 0.303112 0.389020
Si Si5 0.478551 0.187185 0.301750
Si Si6 0.172074 0.309036 0.038806
Si Si7 0.663072 0.689767 0.650417
Si Si8 0.413233 0.693143 0.929859
O O1 0.647578 0.754570 0.291076
O O2 0.662145 0.743338 0.528671
O O3 0.600568 0.000000 0.291911
O O4 0.501879 0.746015 0.076739
O O5 0.963789 0.786920 0.371290
O O6 0.068195 0.719391 0.774558
O O7 0.996279 0.000000 0.591268
O O8 0.889864 0.760729 0.375233
O O9 0.726557 0.254263 0.068227
O O10 0.749760 0.267397 0.920839
O O11 0.782286 0.000000 0.096790
O O12 0.223535 0.500000 0.387169
O O13 0.321372 0.253755 0.659603
O O14 0.203044 0.244768 0.223676
O O15 0.581012 0.216394 0.510048
O O16 0.464087 0.000000 0.290167
O O17 0.422514 0.239792 0.068859
O O18 0.188837 0.500000 0.079869
O O19 0.644585 0.500000 0.612454
O O20 0.413724 0.500000 0.937054
#
# Coordination Sequence:
#
# PCOD9132542 Si02
#       8
#     4   4   4   4   4   4   4   4
#     4  10  20  37  58  85 119 156 195 240 296 352
#     4  11  23  38  58  89 120 154 197 247 298 349
#     4  10  22  38  59  85 118 157 196 239 299 356
#     4   9  21  39  62  86 115 158 203 240 290 353
#     4  11  21  36  58  86 121 159 194 240 301 357
#     4  10  21  42  64  84 115 159 203 244 292 353
#     4  11  21  35  58  88 122 153 194 246 296 351
#     4  10  20  37  59  87 118 154 196 244 292 349
#
# _framework density 19.960222999999999
#
# number of rings (size 3 to 8) (size 9 to 14) (size 15 to 20)
#    0.000    1.750    1.250    4.875    1.750    2.000 
#    0.000    5.625    0.000    0.000    0.000    0.000 
#    0.000    0.000    0.000    0.000    0.000    0.000 
#
# Total GULP energy -89391.007631 kJ/mol
# GULP energy per Si atom -5586.937977 kJ/mol
# Density = 1.991479 g / cm^3
# Si number density = 19.960223 Si / 1000 Ang^3
#
#
#
# Elastic Constant Matrix: (Units=GPa)
#
#
# Indices 1 2 3 4 5 6 
#
# 1 27.3474 -7.9249 20.7229 0.0000 -7.9625 0.0000
# 2 -7.9249 22.2447 -9.9397 0.0000 2.0445 0.0000
# 3 20.7229 -9.9397 86.0376 0.0000 -6.4243 0.0000
# 4 0.0000 0.0000 0.0000 26.7090 0.0000 3.9207
# 5 -7.9625 2.0445 -6.4243 0.0000 20.9635 0.0000
# 6 0.0000 0.0000 0.0000 3.9207 0.0000 14.1227
#
#
#
# Elastic Compliance Matrix: (Units=1/GPa)
#
#
# Indices 1 2 3 4 5 6 
#
# 1 0.052361 0.012765 -0.009973 0.000000 0.015587 0.000000
# 2 0.012765 0.050700 0.002840 0.000000 0.000774 0.000000
# 3 -0.009973 0.002840 0.014379 0.000000 0.000341 0.000000
# 4 0.000000 0.000000 0.000000 0.039031 0.000000 -0.010836
# 5 0.015587 0.000774 0.000341 0.000000 0.053651 0.000000
# 6 0.000000 0.000000 0.000000 -0.010836 0.000000 0.073816
#
#
# Mechanical properties :
#
#
# Convention : Reuss Voigt Hill
#
# Bulk Modulus (GPa) = 7.76965 15.70512 11.73739
# Shear Modulus (GPa) = 15.84409 21.21049 18.52729
#
# Velocity S-wave (km/s) = 2.82047 3.26335 3.04996
# Velocity P-wave (km/s) = 3.80891 4.69942 4.27740
#
# Compressibility (1/GPa) = 0.12870585
#
# Stress axis : x y z
#
# Youngs Moduli (GPa) = 19.09804 19.72375 69.54803
#
# Poissons Ratio (x) = -0.25178 0.69361
# Poissons Ratio (y) = -0.24379 -0.19755
# Poissons Ratio (z) = 0.19047 -0.05602
#
# Static dielectric constant tensor:
#      x y z
#    x 1.706760 0.000000 0.009280 
#    y 0.000000 1.686060 0.000000 
#    z 0.009280 0.000000 1.690410 
# 
# From -- ./inp_files/24825.got.cif
#   From: 2010.05.17/outbox.cif.g08.bks.cpg/sg8_13_cif.got.tgz:24825.got - 2010.06.03 19:46:02.
