data_PCOD9132159
_publ_section_title
;
Structure prediction by ZEFSAII (Michael W. Deem and Ramdas Pophale) SiO2 
 PCOD9132159
Probable space group: C M
;
_chemical_formula_sum "Si O2"
_cell_formula_units_Z 32
_cell_length_a 25.137998
_cell_length_b 8.712389
_cell_length_c 24.330316
_cell_angle_alpha 90.000000
_cell_angle_beta 17.712255
_cell_angle_gamma 90.000000
_cell_volume 1621.165923
_symmetry_space_group_name_H-M "C M"
_symmetry_group_IT_number 8
_symmetry_cell_setting 'monoclinic'
loop_
_space_group_symop_operation_xyz
x,y,z
x,-y,z
1/2+x,1/2+y,z
1/2+x,1/2-y,z
loop_
_atom_site_type_symbol
_atom_site_label
_atom_site_fract_x
_atom_site_fract_y
_atom_site_fract_z
Si Si1 0.906700 0.816439 0.224840
Si Si2 0.442723 0.816157 0.070248
Si Si3 0.104183 0.182763 0.335163
Si Si4 0.728542 0.681875 0.579789
Si Si5 0.716521 0.314992 0.713674
Si Si6 0.734327 0.316668 0.976746
Si Si7 0.586523 0.684462 0.602794
Si Si8 0.646769 0.819757 0.177201
O O1 0.963529 0.755678 0.109685
O O2 0.724374 0.743307 0.422884
O O3 0.892243 0.000000 0.238049
O O4 0.052479 0.773704 0.126636
O O5 0.249521 0.777343 0.237226
O O6 0.456550 0.000000 0.059426
O O7 0.586106 0.752987 0.886713
O O8 0.180640 0.234135 0.200835
O O9 0.917254 0.264622 0.526489
O O10 0.076464 0.000000 0.362529
O O11 0.690281 0.500000 0.617461
O O12 0.669954 0.740647 0.697279
O O13 0.648952 0.743682 0.601771
O O14 0.938390 0.698468 0.371899
O O15 0.708531 0.500000 0.722088
O O16 0.745084 0.500000 0.969072
O O17 0.893515 0.249386 0.785112
O O18 0.741019 0.246684 0.031189
O O19 0.585310 0.500000 0.603976
O O20 0.685644 0.000000 0.144972
#
# Coordination Sequence:
#
# PCOD9132159 Si02
#       8
#     4   4   4   4   4   4   4   4
#     4  11  25  45  65  88 123 165 209 260 309 363
#     4  11  25  43  65  91 122 165 211 257 307 366
#     4  10  22  40  61  92 128 161 202 254 311 367
#     4   8  17  34  58  90 124 157 198 246 300 357
#     4  10  21  39  63  93 126 163 206 254 304 364
#     4  11  24  40  60  92 127 161 204 254 311 369
#     4  11  22  39  64  93 124 162 207 255 305 367
#     4  10  19  36  62  91 126 164 203 250 305 367
#
# _framework density 19.738880000000002
#
# number of rings (size 3 to 8) (size 9 to 14) (size 15 to 20)
#    0.000    1.750    1.250    3.375    1.750    4.500 
#    0.000    1.250    0.000    0.000    0.000    0.000 
#    0.000    0.000    0.000    0.000    0.000    0.000 
#
# Total GULP energy -89413.360642 kJ/mol
# GULP energy per Si atom -5588.335040 kJ/mol
# Density = 1.969395 g / cm^3
# Si number density = 19.738880 Si / 1000 Ang^3
#
#
#
# Elastic Constant Matrix: (Units=GPa)
#
#
# Indices 1 2 3 4 5 6 
#
# 1 46.9933 1.0595 2.2162 -0.0049 15.3327 0.0009
# 2 1.0595 26.6116 9.5849 -0.0141 -3.3281 0.0043
# 3 2.2162 9.5849 78.2940 -0.0130 24.2398 0.0034
# 4 -0.0049 -0.0141 -0.0130 32.6755 0.0016 7.6408
# 5 15.3327 -3.3281 24.2398 0.0016 29.5000 0.0006
# 6 0.0009 0.0043 0.0034 7.6408 0.0006 28.3643
#
#
#
# Elastic Compliance Matrix: (Units=1/GPa)
#
#
# Indices 1 2 3 4 5 6 
#
# 1 0.027679 -0.005832 0.006154 0.000005 -0.020101 -0.000002
# 2 -0.005832 0.043537 -0.010225 0.000015 0.016345 -0.000010
# 3 0.006154 -0.010225 0.020383 0.000006 -0.021100 -0.000002
# 4 0.000005 0.000015 0.000006 0.032661 -0.000008 -0.008798
# 5 -0.020101 0.016345 -0.021100 -0.000008 0.063527 0.000001
# 6 -0.000002 -0.000010 -0.000002 -0.008798 0.000001 0.037626
#
#
# Mechanical properties :
#
#
# Convention : Reuss Voigt Hill
#
# Bulk Modulus (GPa) = 13.92931 19.73556 16.83243
# Shear Modulus (GPa) = 18.57693 27.37718 22.97705
#
# Velocity S-wave (km/s) = 3.07112 3.72824 3.41552
# Velocity P-wave (km/s) = 4.43258 5.34351 4.90922
#
# Compressibility (1/GPa) = 0.07179109
#
# Stress axis : x y z
#
# Youngs Moduli (GPa) = 36.12813 22.96903 49.06159
#
# Poissons Ratio (x) = 0.13396 -0.30191
# Poissons Ratio (y) = 0.21071 0.50166
# Poissons Ratio (z) = -0.22232 0.23486
#
# Static dielectric constant tensor:
#      x y z
#    x 1.686150 0.000000 -0.015430 
#    y 0.000000 1.660400 0.000000 
#    z -0.015430 0.000000 1.688670 
# 
# From -- ./inp_files/32388.got.cif
#   From: 2010.05.17/outbox.cif.g08.bks.cpg/sg8_17_cif.got.tgz:32388.got - 2010.06.03 19:46:02.
