data_PCOD9132212
_publ_section_title
;
Structure prediction by ZEFSAII (Michael W. Deem and Ramdas Pophale) SiO2 
 PCOD9132212
Probable space group: C M
;
_chemical_formula_sum "Si O2"
_cell_formula_units_Z 26
_cell_length_a 23.664876
_cell_length_b 7.460769
_cell_length_c 16.284852
_cell_angle_alpha 90.000000
_cell_angle_beta 156.916721
_cell_angle_gamma 90.000000
_cell_volume 1127.285118
_symmetry_space_group_name_H-M "C M"
_symmetry_group_IT_number 8
_symmetry_cell_setting 'monoclinic'
loop_
_space_group_symop_operation_xyz
x,y,z
x,-y,z
1/2+x,1/2+y,z
1/2+x,1/2-y,z
loop_
_atom_site_type_symbol
_atom_site_label
_atom_site_fract_x
_atom_site_fract_y
_atom_site_fract_z
Si Si1 0.604600 0.717558 0.579620
Si Si2 0.094618 0.715642 0.066805
Si Si3 0.766027 0.500000 0.034110
Si Si4 0.600489 0.797289 0.898838
Si Si5 0.429956 0.718285 0.507553
Si Si6 0.431790 0.294467 0.186263
Si Si7 0.936336 0.283021 0.017553
O O1 0.602699 0.500000 0.576670
O O2 0.515321 0.777856 0.540209
O O3 0.526693 0.772094 0.390265
O O4 0.769835 0.777851 0.797272
O O5 0.092356 0.500000 0.072296
O O6 0.262173 0.766407 0.283374
O O7 0.027478 0.754779 0.887662
O O8 0.015593 0.784583 0.041907
O O9 0.800208 0.656858 0.011270
O O10 0.724124 0.657341 0.043703
O O11 0.497971 0.787188 0.683058
O O12 0.657195 0.000000 0.983990
O O13 0.445820 0.500000 0.532882
O O14 0.390035 0.500000 0.143686
O O15 0.505291 0.277901 0.195852
O O16 0.937629 0.500000 0.017882
#
# Coordination Sequence:
#
# PCOD9132212 Si02
#       7
#     4   4   2   4   4   4   4
#     4   9  20  37  63  91 128 166 215 267 328 381
#     4   9  21  40  65  92 134 178 215 262 332 388
#     4  12  22  40  66  94 132 168 214 266 338 374
#     4  11  23  41  64  96 129 172 217 270 322 390
#     4  10  19  38  62  93 130 169 215 273 326 381
#     4  11  23  41  64  96 129 170 216 273 323 388
#     4  10  20  41  67  93 130 179 216 265 326 390
#
# _framework density 23.064261999999999
#
# number of rings (size 3 to 8) (size 9 to 14) (size 15 to 20)
#    0.000    1.846    1.538    2.308    2.154    3.692 
#    8.308    1.538    0.000    0.000    0.000    0.000 
#    0.000    0.000    0.000    0.000    0.000    0.000 
#
# Total GULP energy -72417.821832 kJ/mol
# GULP energy per Si atom -5570.601679 kJ/mol
# Density = 2.301177 g / cm^3
# Si number density = 23.064262 Si / 1000 Ang^3
#
#
#
# Elastic Constant Matrix: (Units=GPa)
#
#
# Indices 1 2 3 4 5 6 
#
# 1 275.8967 24.0002 80.2864 0.0000 -20.2919 0.0000
# 2 24.0002 122.7187 2.1566 0.0000 1.8883 0.0000
# 3 80.2864 2.1566 91.9407 0.0000 -20.9115 0.0000
# 4 0.0000 0.0000 0.0000 16.3410 0.0000 -17.2200
# 5 -20.2919 1.8883 -20.9115 0.0000 36.3962 0.0000
# 6 0.0000 0.0000 0.0000 -17.2200 0.0000 29.1549
#
#
#
# Elastic Compliance Matrix: (Units=1/GPa)
#
#
# Indices 1 2 3 4 5 6 
#
# 1 0.004960 -0.000902 -0.004222 0.000000 0.000386 0.000000
# 2 -0.000902 0.008328 0.000437 0.000000 -0.000684 0.000000
# 3 -0.004222 0.000437 0.016119 0.000000 0.006885 0.000000
# 4 0.000000 0.000000 0.000000 0.162069 0.000000 0.095724
# 5 0.000386 -0.000684 0.006885 0.000000 0.031682 0.000000
# 6 0.000000 0.000000 0.000000 0.095724 0.000000 0.090838
#
#
# Mechanical properties :
#
#
# Convention : Reuss Voigt Hill
#
# Bulk Modulus (GPa) = 49.91962 78.16027 64.03995
# Shear Modulus (GPa) = 15.14925 41.98594 28.56760
#
# Velocity S-wave (km/s) = 2.56565 4.27123 3.52321
# Velocity P-wave (km/s) = 5.51973 7.63454 6.66159
#
# Compressibility (1/GPa) = 0.02003220
#
# Stress axis : x y z
#
# Youngs Moduli (GPa) = 201.60818 120.07782 62.03713
#
# Poissons Ratio (x) = 0.10829 0.26194
# Poissons Ratio (y) = 0.18181 -0.02708
# Poissons Ratio (z) = 0.85127 -0.05242
#
# Static dielectric constant tensor:
#      x y z
#    x 1.893210 0.000000 -0.018100 
#    y 0.000000 1.861240 0.000000 
#    z -0.018100 0.000000 1.976120 
# 
# From -- ./inp_files/15938.got.cif
#   From: 2010.05.17/outbox.cif.g08.bks.cpg/sg8_8_cif.got.tgz:15938.got - 2010.06.03 19:46:02.
