data_PCOD9132145
_publ_section_title
;
Structure prediction by ZEFSAII (Michael W. Deem and Ramdas Pophale) SiO2 
 PCOD9132145
Probable space group: C M
;
_chemical_formula_sum "Si O2"
_cell_formula_units_Z 32
_cell_length_a 33.135393
_cell_length_b 8.412679
_cell_length_c 12.648788
_cell_angle_alpha 90.000000
_cell_angle_beta 153.217911
_cell_angle_gamma 90.000000
_cell_volume 1588.784852
_symmetry_space_group_name_H-M "C M"
_symmetry_group_IT_number 8
_symmetry_cell_setting 'monoclinic'
loop_
_space_group_symop_operation_xyz
x,y,z
x,-y,z
1/2+x,1/2+y,z
1/2+x,1/2-y,z
loop_
_atom_site_type_symbol
_atom_site_label
_atom_site_fract_x
_atom_site_fract_y
_atom_site_fract_z
Si Si1 0.698980 0.308395 0.271660
Si Si2 0.637764 0.811097 0.556526
Si Si3 0.019720 0.189479 0.462985
Si Si4 0.586382 0.687175 0.211123
Si Si5 0.325769 0.693322 0.092451
Si Si6 0.396767 0.186107 0.713291
Si Si7 0.397253 0.687331 0.481629
Si Si8 0.580274 0.186091 0.817986
O O1 0.693329 0.500000 0.246376
O O2 0.633459 0.257519 0.212815
O O3 0.801082 0.268285 0.537657
O O4 0.667408 0.229833 0.088786
O O5 0.558866 0.734591 0.441415
O O6 0.624624 0.772051 0.403406
O O7 0.634290 0.000000 0.564228
O O8 0.734095 0.751965 0.824744
O O9 0.081140 0.269388 0.696979
O O10 0.917213 0.242549 0.246183
O O11 0.022687 0.000000 0.484151
O O12 0.603728 0.500000 0.261668
O O13 0.480972 0.718044 0.952904
O O14 0.325630 0.500000 0.091081
O O15 0.336368 0.739993 0.240241
O O16 0.387021 0.217124 0.565244
O O17 0.413387 0.000000 0.771154
O O18 0.382986 0.500000 0.468707
O O19 0.498665 0.713597 0.677538
O O20 0.560799 0.000000 0.783921
#
# Coordination Sequence:
#
# PCOD9132145 Si02
#       8
#     4   4   4   4   4   4   4   4
#     4  10  23  41  61  88 124 161 204 256 313 368
#     4  11  23  41  64  91 121 159 208 261 302 362
#     4  10  21  40  62  89 124 163 202 248 308 371
#     4  11  24  44  64  85 121 169 208 252 310 371
#     4   8  19  38  60  86 121 161 200 244 300 362
#     4  11  23  39  61  93 123 158 205 258 309 365
#     4  10  19  36  60  88 126 166 200 249 310 369
#     4  11  21  35  60  92 126 163 205 252 306 366
#
# _framework density 20.141179999999999
#
# number of rings (size 3 to 8) (size 9 to 14) (size 15 to 20)
#    0.000    1.750    1.250    3.750    1.750    2.500 
#    0.000    9.375    0.000    0.000    0.000    0.000 
#    0.000    0.000    0.000    0.000    0.000    0.000 
#
# Total GULP energy -89408.832180 kJ/mol
# GULP energy per Si atom -5588.052011 kJ/mol
# Density = 2.009534 g / cm^3
# Si number density = 20.141180 Si / 1000 Ang^3
#
#
#
# Elastic Constant Matrix: (Units=GPa)
#
#
# Indices 1 2 3 4 5 6 
#
# 1 26.8008 3.9265 10.4735 0.0000 -7.0102 0.0000
# 2 3.9265 28.9990 5.5416 0.0000 2.6416 0.0000
# 3 10.4735 5.5416 91.1933 0.0000 -6.1208 0.0000
# 4 0.0000 0.0000 0.0000 24.7742 0.0000 -6.7899
# 5 -7.0102 2.6416 -6.1208 0.0000 22.5738 0.0000
# 6 0.0000 0.0000 0.0000 -6.7899 0.0000 27.9289
#
#
#
# Elastic Compliance Matrix: (Units=1/GPa)
#
#
# Indices 1 2 3 4 5 6 
#
# 1 0.043114 -0.006329 -0.003686 0.000000 0.013130 0.000000
# 2 -0.006329 0.036324 -0.001933 0.000000 -0.006740 0.000000
# 3 -0.003686 -0.001933 0.011657 0.000000 0.002242 0.000000
# 4 0.000000 0.000000 0.000000 0.043246 0.000000 0.010514
# 5 0.013130 -0.006740 0.002242 0.000000 0.049773 0.000000
# 6 0.000000 0.000000 0.000000 0.010514 0.000000 0.038361
#
#
# Mechanical properties :
#
#
# Convention : Reuss Voigt Hill
#
# Bulk Modulus (GPa) = 14.88106 20.76405 17.82255
# Shear Modulus (GPa) = 18.60312 23.52551 21.06432
#
# Velocity S-wave (km/s) = 3.04244 3.42135 3.23744
# Velocity P-wave (km/s) = 4.44368 5.09305 4.77941
#
# Compressibility (1/GPa) = 0.06719952
#
# Stress axis : x y z
#
# Youngs Moduli (GPa) = 23.19414 27.52982 85.78556
#
# Poissons Ratio (x) = 0.17425 0.31618
# Poissons Ratio (y) = 0.14681 0.16581
# Poissons Ratio (z) = 0.08549 0.05321
#
# Static dielectric constant tensor:
#      x y z
#    x 1.700080 0.000000 0.021110 
#    y 0.000000 1.679180 0.000000 
#    z 0.021110 0.000000 1.715620 
# 
# From -- ./inp_files/24359.got.cif
#   From: 2010.05.17/outbox.cif.g08.bks.cpg/sg8_13_cif.got.tgz:24359.got - 2010.06.03 19:46:02.
