data_PCOD9132314
_publ_section_title
;
Structure prediction by ZEFSAII (Michael W. Deem and Ramdas Pophale) SiO2 
 PCOD9132314
Probable space group: C M
;
_chemical_formula_sum "Si O2"
_cell_formula_units_Z 26
_cell_length_a 19.024321
_cell_length_b 7.651669
_cell_length_c 18.248304
_cell_angle_alpha 90.000000
_cell_angle_beta 21.359953
_cell_angle_gamma 90.000000
_cell_volume 967.517236
_symmetry_space_group_name_H-M "C M"
_symmetry_group_IT_number 8
_symmetry_cell_setting 'monoclinic'
loop_
_space_group_symop_operation_xyz
x,y,z
x,-y,z
1/2+x,1/2+y,z
1/2+x,1/2-y,z
loop_
_atom_site_type_symbol
_atom_site_label
_atom_site_fract_x
_atom_site_fract_y
_atom_site_fract_z
Si Si1 0.448950 0.697975 0.991270
Si Si2 0.409626 0.204601 0.563346
Si Si3 0.250899 0.000000 0.471640
Si Si4 0.449431 0.810093 0.146564
Si Si5 0.328098 0.795017 0.950416
Si Si6 0.415179 0.700941 0.397727
Si Si7 0.872840 0.699513 0.755591
O O1 0.389577 0.500000 0.036217
O O2 0.676653 0.708341 0.784174
O O3 0.358703 0.756955 0.156454
O O4 0.411677 0.788409 0.950374
O O5 0.472191 0.296526 0.428283
O O6 0.446046 0.280295 0.608748
O O7 0.465630 0.000000 0.505552
O O8 0.307288 0.152976 0.352445
O O9 0.260174 0.154380 0.527287
O O10 0.542067 0.000000 0.042696
O O11 0.637085 0.693607 0.981751
O O12 0.108958 0.731183 0.170112
O O13 0.318745 0.000000 0.941585
O O14 0.415654 0.708255 0.791760
O O15 0.366483 0.500000 0.425284
O O16 0.947255 0.500000 0.681309
#
# Coordination Sequence:
#
# PCOD9132314 Si02
#       7
#     4   4   2   4   4   4   4
#     4  10  21  34  56  84 114 152 189 234 286 342
#     4   9  19  36  57  80 114 149 192 235 285 336
#     4  10  20  34  60  82 116 146 188 240 282 332
#     4   9  17  30  51  79 104 142 181 229 279 325
#     4  10  20  34  56  84 116 146 193 236 281 336
#     4  11  22  36  59  90 113 151 191 235 284 342
#     4   9  17  32  55  81 109 146 189 236 272 336
#
# _framework density 26.872907000000001
#
# number of rings (size 3 to 8) (size 9 to 14) (size 15 to 20)
#    0.462    1.846    2.308    1.846    1.077    4.308 
#    0.000    0.000    3.385    0.000    0.000    0.000 
#    0.000    0.000    0.000    0.000    0.000    0.000 
#
# Total GULP energy -72375.544937 kJ/mol
# GULP energy per Si atom -5567.349611 kJ/mol
# Density = 2.681174 g / cm^3
# Si number density = 26.872907 Si / 1000 Ang^3
#
#
#
# Elastic Constant Matrix: (Units=GPa)
#
#
# Indices 1 2 3 4 5 6 
#
# 1 201.4176 19.0173 34.8080 -0.0004 36.9602 0.0000
# 2 19.0173 107.2728 -18.0003 -0.0002 5.9706 0.0002
# 3 34.8080 -18.0003 99.6092 -0.0012 28.9231 0.0005
# 4 -0.0004 -0.0002 -0.0012 -11.2868 0.0004 16.7352
# 5 36.9602 5.9706 28.9231 0.0004 54.7663 -0.0001
# 6 0.0000 0.0002 0.0005 16.7352 -0.0001 29.2287
#
#
#
# Elastic Compliance Matrix: (Units=1/GPa)
#
#
# Indices 1 2 3 4 5 6 
#
# 1 0.005875 -0.001092 -0.001339 0.000000 -0.003139 0.000000
# 2 -0.001092 0.010073 0.002724 0.000000 -0.001800 0.000000
# 3 -0.001339 0.002724 0.012784 -0.000001 -0.006145 0.000000
# 4 0.000000 0.000000 -0.000001 -0.047919 0.000001 0.027436
# 5 -0.003139 -0.001800 -0.006145 0.000001 0.023819 0.000000
# 6 0.000000 0.000000 0.000000 0.027436 0.000000 0.018504
#
#
# Mechanical properties :
#
#
# Convention : Reuss Voigt Hill
#
# Bulk Modulus (GPa) = 34.10657 53.32775 43.71716
# Shear Modulus (GPa) = 154.69505 39.37328 97.03416
#
# Velocity S-wave (km/s) = 7.59542 3.83190 6.01556
# Velocity P-wave (km/s) = 9.46783 6.28215 8.03447
#
# Compressibility (1/GPa) = 0.02931987
#
# Stress axis : x y z
#
# Youngs Moduli (GPa) = 170.20569 99.27637 78.22496
#
# Poissons Ratio (x) = 0.10836 0.10473
# Poissons Ratio (y) = 0.18578 -0.21312
# Poissons Ratio (z) = 0.22789 -0.27047
#
# Static dielectric constant tensor:
#      x y z
#    x 2.232010 0.000000 -0.017680 
#    y 0.000000 2.052780 0.000000 
#    z -0.017680 0.000000 2.223800 
# 
# From -- ./inp_files/27799.got.cif
#   From: 2010.05.17/outbox.cif.g08.bks.cpg/sg8_14_cif.got.tgz:27799.got - 2010.06.03 19:46:02.
