data_PCOD9132103
_publ_section_title
;
Structure prediction by ZEFSAII (Michael W. Deem and Ramdas Pophale) SiO2 
 PCOD9132103
Probable space group: C M
;
_chemical_formula_sum "Si O2"
_cell_formula_units_Z 32
_cell_length_a 11.300257
_cell_length_b 13.107415
_cell_length_c 17.065697
_cell_angle_alpha 90.000000
_cell_angle_beta 148.463286
_cell_angle_gamma 90.000000
_cell_volume 1322.112162
_symmetry_space_group_name_H-M "C M"
_symmetry_group_IT_number 8
_symmetry_cell_setting 'monoclinic'
loop_
_space_group_symop_operation_xyz
x,y,z
x,-y,z
1/2+x,1/2+y,z
1/2+x,1/2-y,z
loop_
_atom_site_type_symbol
_atom_site_label
_atom_site_fract_x
_atom_site_fract_y
_atom_site_fract_z
Si Si1 0.348120 0.664778 0.397690
Si Si2 0.403889 0.163444 0.841546
Si Si3 0.707731 0.389141 0.342357
Si Si4 0.393679 0.610628 0.594587
Si Si5 0.270399 0.609683 0.787910
Si Si6 0.647789 0.391453 0.130628
Si Si7 0.355125 0.167138 0.644974
Si Si8 0.268324 0.331837 0.181996
O O1 0.352216 0.786150 0.419443
O O2 0.289232 0.617565 0.448024
O O3 0.599691 0.632429 0.514460
O O4 0.207062 0.644669 0.238300
O O5 0.351966 0.284222 0.798000
O O6 0.473896 0.134267 0.793592
O O7 0.164422 0.117056 0.732391
O O8 0.581185 0.143348 0.010825
O O9 0.819972 0.500000 0.412352
O O10 0.593449 0.387757 0.191610
O O11 0.506774 0.377934 0.291072
O O12 0.333863 0.500000 0.594816
O O13 0.341307 0.712202 0.614582
O O14 0.315597 0.500000 0.775161
O O15 0.008046 0.620076 0.663097
O O16 0.422060 0.611259 0.952341
O O17 0.763652 0.500000 0.180065
O O18 0.790113 0.291245 0.191423
#
# Coordination Sequence:
#
# PCOD9132103 Si02
#       8
#     4   4   4   4   4   4   4   4
#     4  10  22  39  55  79 113 149 190 233 280 335
#     4   9  20  36  58  87 115 143 182 236 288 335
#     4  10  20  34  54  80 109 144 186 229 276 334
#     4  10  22  40  58  79 112 152 191 232 283 342
#     4   9  17  32  56  84 111 142 183 227 274 333
#     4   8  16  32  55  83 113 144 178 221 277 337
#     4  10  20  36  56  81 111 147 189 231 281 335
#     4  10  19  35  60  85 114 145 185 237 285 333
#
# _framework density 24.203696000000001
#
# number of rings (size 3 to 8) (size 9 to 14) (size 15 to 20)
#    0.000    2.500    0.000    1.500    0.000    5.000 
#    0.000   11.875    0.000    0.750    0.000    0.000 
#    0.000    0.000    0.000    0.000    0.000    0.000 
#
# Total GULP energy -89302.103367 kJ/mol
# GULP energy per Si atom -5581.381460 kJ/mol
# Density = 2.414861 g / cm^3
# Si number density = 24.203696 Si / 1000 Ang^3
#
#
#
# Elastic Constant Matrix: (Units=GPa)
#
#
# Indices 1 2 3 4 5 6 
#
# 1 69.5037 -5.5938 44.5184 0.0006 -24.9372 0.0000
# 2 -5.5938 101.8552 2.8551 0.0016 -2.8258 0.0003
# 3 44.5184 2.8551 98.9036 0.0042 -30.6211 0.0009
# 4 0.0006 0.0016 0.0042 18.0707 0.0005 -5.0959
# 5 -24.9372 -2.8258 -30.6211 0.0005 46.2254 -0.0002
# 6 0.0000 0.0003 0.0009 -5.0959 -0.0002 0.7224
#
#
#
# Elastic Compliance Matrix: (Units=1/GPa)
#
#
# Indices 1 2 3 4 5 6 
#
# 1 0.021963 0.001613 -0.007842 -0.000004 0.006752 -0.000017
# 2 0.001613 0.009954 -0.000699 0.000002 0.001016 0.000008
# 3 -0.007842 -0.000699 0.015521 0.000009 0.006008 0.000043
# 4 -0.000004 0.000002 0.000009 -0.055940 0.000003 -0.394611
# 5 0.006752 0.001016 0.006008 0.000003 0.029318 0.000020
# 6 -0.000017 0.000008 0.000043 -0.394611 0.000020 -1.399349
#
#
# Mechanical properties :
#
#
# Convention : Reuss Voigt Hill
#
# Bulk Modulus (GPa) = 29.77700 39.31357 34.54528
# Shear Modulus (GPa) = -3.69417 28.23588 12.27086
#
# Velocity S-wave (km/s) = -1.23677 3.41925 2.25407
# Velocity P-wave (km/s) = 3.20779 5.64503 4.59110
#
# Compressibility (1/GPa) = 0.03358297
#
# Stress axis : x y z
#
# Youngs Moduli (GPa) = 45.53064 100.45972 64.42830
#
# Poissons Ratio (x) = -0.16208 0.50525
# Poissons Ratio (y) = -0.07346 0.04504
# Poissons Ratio (z) = 0.35706 0.07023
#
# Static dielectric constant tensor:
#      x y z
#    x 1.871110 0.000000 -0.041330 
#    y 0.000000 1.973600 0.000000 
#    z -0.041330 0.000000 1.944290 
# 
# From -- ./inp_files/28895.got.cif
#   From: 2010.05.17/outbox.cif.g08.bks.cpg/sg8_15_cif.got.tgz:28895.got - 2010.06.03 19:46:02.
