data_PCOD9132664
_publ_section_title
;
Structure prediction by ZEFSAII (Michael W. Deem and Ramdas Pophale) SiO2 
 PCOD9132664
Probable space group: C M
;
_chemical_formula_sum "Si O2"
_cell_formula_units_Z 24
_cell_length_a 14.262527
_cell_length_b 11.054108
_cell_length_c 14.210098
_cell_angle_alpha 90.000000
_cell_angle_beta 148.500301
_cell_angle_gamma 90.000000
_cell_volume 1170.573356
_symmetry_space_group_name_H-M "C M"
_symmetry_group_IT_number 8
_symmetry_cell_setting 'monoclinic'
loop_
_space_group_symop_operation_xyz
x,y,z
x,-y,z
1/2+x,1/2+y,z
1/2+x,1/2-y,z
loop_
_atom_site_type_symbol
_atom_site_label
_atom_site_fract_x
_atom_site_fract_y
_atom_site_fract_z
Si Si1 0.178260 0.135561 0.488200
Si Si2 0.763213 0.865227 0.865785
Si Si3 0.448304 0.716484 0.839510
Si Si4 0.262261 0.133745 0.996718
Si Si5 0.850107 0.359802 0.443544
Si Si6 0.811932 0.769314 0.214913
O O1 0.281180 0.216861 0.651327
O O2 0.223962 0.177609 0.422092
O O3 0.968641 0.137593 0.329917
O O4 0.252006 0.000000 0.557504
O O5 0.884434 0.855864 0.876081
O O6 0.800923 0.749195 0.963795
O O7 0.555428 0.854638 0.655651
O O8 0.788385 0.000000 0.930254
O O9 0.551766 0.641787 0.847095
O O10 0.609964 0.804390 0.012905
O O11 0.304539 0.000000 0.996082
O O12 0.352767 0.159979 0.175681
O O13 0.810769 0.500000 0.385759
O O14 0.820368 0.278583 0.327362
#
# Coordination Sequence:
#
# PCOD9132664 Si02
#       6
#     4   4   4   4   4   4
#     4  11  23  42  66  94 133 174 215 274 329 379
#     4  11  22  40  69  97 127 176 224 267 324 388
#     4  10  23  41  63  93 129 168 225 258 325 389
#     4  10  23  42  63  94 135 173 214 268 324 381
#     4  10  20  38  65  93 124 167 221 269 317 389
#     4  10  23  39  64  93 128 168 219 264 323 384
#
# _framework density 20.502773000000001
#
# number of rings (size 3 to 8) (size 9 to 14) (size 15 to 20)
#    1.000    0.667    3.333    1.000    2.333    2.000 
#    0.000    0.000    0.000    0.000    0.000    0.000 
#    0.000    0.000    0.000    0.000    0.000    0.000 
#
# Total GULP energy -66875.637430 kJ/mol
# GULP energy per Si atom -5572.969786 kJ/mol
# Density = 2.045611 g / cm^3
# Si number density = 20.502773 Si / 1000 Ang^3
#
#
#
# Elastic Constant Matrix: (Units=GPa)
#
#
# Indices 1 2 3 4 5 6 
#
# 1 102.4931 42.2247 14.3484 0.0000 -6.7952 0.0000
# 2 42.2247 107.6665 21.0728 0.0000 -18.8978 0.0000
# 3 14.3484 21.0728 61.6182 0.0000 2.6028 0.0001
# 4 0.0000 0.0000 0.0000 10.6502 0.0000 2.9809
# 5 -6.7952 -18.8978 2.6028 0.0000 32.3049 0.0000
# 6 0.0000 0.0000 0.0001 2.9809 0.0000 22.2223
#
#
#
# Elastic Compliance Matrix: (Units=1/GPa)
#
#
# Indices 1 2 3 4 5 6 
#
# 1 0.011725 -0.004351 -0.001243 0.000000 0.000021 0.000000
# 2 -0.004351 0.012940 -0.003706 0.000000 0.006953 0.000000
# 3 -0.001243 -0.003706 0.017949 0.000000 -0.003876 0.000000
# 4 0.000000 0.000000 0.000000 0.097557 0.000000 -0.013086
# 5 0.000021 0.006953 -0.003876 0.000000 0.035339 0.000000
# 6 0.000000 0.000000 0.000000 -0.013086 0.000000 0.046755
#
#
# Mechanical properties :
#
#
# Convention : Reuss Voigt Hill
#
# Bulk Modulus (GPa) = 41.64217 47.45217 44.54717
# Shear Modulus (GPa) = 20.09073 25.97762 23.03417
#
# Velocity S-wave (km/s) = 3.13374 3.56340 3.35545
# Velocity P-wave (km/s) = 5.78345 6.33442 6.06520
#
# Compressibility (1/GPa) = 0.02401412
#
# Stress axis : x y z
#
# Youngs Moduli (GPa) = 85.28956 77.27888 55.71189
#
# Poissons Ratio (x) = 0.33626 0.06925
# Poissons Ratio (y) = 0.37112 0.20646
# Poissons Ratio (z) = 0.10602 0.28639
#
# Static dielectric constant tensor:
#      x y z
#    x 1.736990 0.000000 0.016310 
#    y 0.000000 1.741450 0.000000 
#    z 0.016310 0.000000 1.737940 
# 
# From -- ./inp_files/26834.got.cif
#   From: 2010.05.17/outbox.cif.g08.bks.cpg/sg8_14_cif.got.tgz:26834.got - 2010.06.03 19:46:02.
