data_PCOD9132331
_publ_section_title
;
Structure prediction by ZEFSAII (Michael W. Deem and Ramdas Pophale) SiO2 
 PCOD9132331
Probable space group: C M
;
_chemical_formula_sum "Si O2"
_cell_formula_units_Z 28
_cell_length_a 13.966259
_cell_length_b 10.428646
_cell_length_c 11.246591
_cell_angle_alpha 90.000000
_cell_angle_beta 57.017173
_cell_angle_gamma 90.000000
_cell_volume 1374.057244
_symmetry_space_group_name_H-M "C M"
_symmetry_group_IT_number 8
_symmetry_cell_setting 'monoclinic'
loop_
_space_group_symop_operation_xyz
x,y,z
x,-y,z
1/2+x,1/2+y,z
1/2+x,1/2-y,z
loop_
_atom_site_type_symbol
_atom_site_label
_atom_site_fract_x
_atom_site_fract_y
_atom_site_fract_z
Si Si1 0.284820 0.141040 0.087230
Si Si2 0.643842 0.151473 0.303136
Si Si3 0.860290 0.136405 0.739092
Si Si4 0.003532 0.234267 0.852215
Si Si5 0.949427 0.851553 0.420868
Si Si6 0.686070 0.641657 0.896119
Si Si7 0.188622 0.648454 0.550978
O O1 0.252294 0.266023 0.184920
O O2 0.270214 0.000000 0.154314
O O3 0.414400 0.157268 0.953691
O O4 0.203164 0.144612 0.026200
O O5 0.538447 0.239844 0.329968
O O6 0.645428 0.155958 0.445181
O O7 0.642717 0.000000 0.268795
O O8 0.941683 0.142527 0.569930
O O9 0.773150 0.252372 0.790695
O O10 0.927846 0.146453 0.816630
O O11 0.798241 0.000000 0.776599
O O12 0.062181 0.171120 0.926992
O O13 0.105619 0.279962 0.697422
O O14 0.821870 0.814512 0.465918
O O15 0.974681 0.000000 0.363971
O O16 0.720816 0.500000 0.831767
O O17 0.186807 0.500000 0.588286
#
# Coordination Sequence:
#
# PCOD9132331 Si02
#       7
#     4   4   4   4   4   4   4
#     4  10  24  43  63  88 123 170 208 249 306 370
#     4  11  24  43  64  88 123 166 209 258 302 362
#     4  10  20  34  57  90 124 156 195 245 301 357
#     4  11  20  38  64  96 125 154 202 257 310 361
#     4  10  20  38  61  89 123 160 198 247 306 366
#     4  10  22  38  60  89 124 161 201 248 305 363
#     4  10  21  38  63  94 124 159 199 250 314 369
#
# _framework density 20.377609
#
# number of rings (size 3 to 8) (size 9 to 14) (size 15 to 20)
#    0.000    1.714    2.857    1.286    0.000    5.714 
#    0.000    5.714    0.000    0.000    0.000    0.000 
#    0.000    0.000    0.000    0.000    0.000    0.000 
#
# Total GULP energy -78047.556307 kJ/mol
# GULP energy per Si atom -5574.825451 kJ/mol
# Density = 2.033123 g / cm^3
# Si number density = 20.377609 Si / 1000 Ang^3
#
#
#
# Elastic Constant Matrix: (Units=GPa)
#
#
# Indices 1 2 3 4 5 6 
#
# 1 102.6756 47.1623 9.5174 0.0000 -5.2749 0.0000
# 2 47.1623 160.5214 39.9338 0.0000 -17.0067 0.0000
# 3 9.5174 39.9338 38.6392 0.0000 -13.3270 0.0000
# 4 0.0000 0.0000 0.0000 22.8887 0.0000 -6.0481
# 5 -5.2749 -17.0067 -13.3270 0.0000 22.5306 0.0000
# 6 0.0000 0.0000 0.0000 -6.0481 0.0000 17.0546
#
#
#
# Elastic Compliance Matrix: (Units=1/GPa)
#
#
# Indices 1 2 3 4 5 6 
#
# 1 0.011287 -0.003516 0.001068 0.000000 0.000620 0.000000
# 2 -0.003516 0.009522 -0.008518 0.000000 0.001326 0.000000
# 3 0.001068 -0.008518 0.040565 0.000000 0.017815 0.000000
# 4 0.000000 0.000000 0.000000 0.048207 0.000000 0.017096
# 5 0.000620 0.001326 0.017815 0.000000 0.056068 0.000000
# 6 0.000000 0.000000 0.000000 0.017096 0.000000 0.064698
#
#
# Mechanical properties :
#
#
# Convention : Reuss Voigt Hill
#
# Bulk Modulus (GPa) = 25.35362 55.00701 40.18032
# Shear Modulus (GPa) = 18.83749 26.17631 22.50690
#
# Velocity S-wave (km/s) = 3.04373 3.58797 3.32699
# Velocity P-wave (km/s) = 4.98210 6.64960 5.87530
#
# Compressibility (1/GPa) = 0.03944209
#
# Stress axis : x y z
#
# Youngs Moduli (GPa) = 88.59415 105.01638 24.65161
#
# Poissons Ratio (x) = 0.36926 -0.02632
# Poissons Ratio (y) = 0.31152 0.20998
# Poissons Ratio (z) = -0.09459 0.89452
#
# Static dielectric constant tensor:
#      x y z
#    x 1.747390 0.000000 -0.008360 
#    y 0.000000 1.733030 0.000000 
#    z -0.008360 0.000000 1.736330 
# 
# From -- ./inp_files/21460.got.cif
#   From: 2010.05.17/outbox.cif.g08.bks.cpg/sg8_11_cif.got.tgz:21460.got - 2010.06.03 19:46:02.
