data_PCOD9132167
_publ_section_title
;
Structure prediction by ZEFSAII (Michael W. Deem and Ramdas Pophale) SiO2 
 PCOD9132167
Probable space group: C M
;
_chemical_formula_sum "Si O2"
_cell_formula_units_Z 24
_cell_length_a 11.924016
_cell_length_b 20.958926
_cell_length_c 5.189240
_cell_angle_alpha 90.000000
_cell_angle_beta 118.198715
_cell_angle_gamma 90.000000
_cell_volume 1142.946824
_symmetry_space_group_name_H-M "C M"
_symmetry_group_IT_number 8
_symmetry_cell_setting 'monoclinic'
loop_
_space_group_symop_operation_xyz
x,y,z
x,-y,z
1/2+x,1/2+y,z
1/2+x,1/2-y,z
loop_
_atom_site_type_symbol
_atom_site_label
_atom_site_fract_x
_atom_site_fract_y
_atom_site_fract_z
Si Si1 0.715470 0.233417 0.432840
Si Si2 0.330890 0.330638 0.062082
Si Si3 0.119135 0.126689 0.300313
Si Si4 0.736980 0.426898 0.928399
Si Si5 0.609940 0.925520 0.763991
Si Si6 0.499917 0.133903 0.141409
O O1 0.775065 0.211980 0.768609
O O2 0.702169 0.308669 0.397661
O O3 0.574574 0.200927 0.249407
O O4 0.801752 0.204932 0.298039
O O5 0.246561 0.394836 0.967969
O O6 0.475311 0.349918 0.176974
O O7 0.162349 0.082764 0.582614
O O8 0.145715 0.090461 0.064712
O O9 0.784432 0.500000 0.002537
O O10 0.853843 0.376830 0.054448
O O11 0.573314 0.909742 0.430747
O O12 0.604901 0.000000 0.805281
O O13 0.518196 0.890391 0.869301
#
# Coordination Sequence:
#
# PCOD9132167 Si02
#       6
#     4   4   4   4   4   4
#     4  10  23  41  68  92 127 163 223 270 328 371
#     4  10  23  43  60  96 125 162 219 265 318 392
#     4  12  26  42  68  93 133 178 207 273 327 389
#     4  12  26  44  65  99 136 177 218 256 327 397
#     4  10  19  36  64  90 122 165 208 262 316 364
#     4  10  22  40  63  94 124 165 213 274 306 377
#
# _framework density 20.998353000000002
#
# number of rings (size 3 to 8) (size 9 to 14) (size 15 to 20)
#    0.000    1.333    0.000    5.000    4.667    1.333 
#    0.000    0.000    0.000    0.000    0.000    0.000 
#    0.000    0.000    0.000    0.000    0.000    0.000 
#
# Total GULP energy -67122.332531 kJ/mol
# GULP energy per Si atom -5593.527711 kJ/mol
# Density = 2.095056 g / cm^3
# Si number density = 20.998353 Si / 1000 Ang^3
#
#
#
# Elastic Constant Matrix: (Units=GPa)
#
#
# Indices 1 2 3 4 5 6 
#
# 1 110.8774 3.9731 17.3874 0.0000 -1.1079 0.0000
# 2 3.9731 69.8791 12.6519 0.0000 -9.2007 0.0000
# 3 17.3874 12.6519 22.9477 0.0000 -13.4669 0.0000
# 4 0.0000 0.0000 0.0000 8.0358 0.0000 4.3517
# 5 -1.1079 -9.2007 -13.4669 0.0000 33.8815 0.0000
# 6 0.0000 0.0000 0.0000 4.3517 0.0000 -8.5444
#
#
#
# Elastic Compliance Matrix: (Units=1/GPa)
#
#
# Indices 1 2 3 4 5 6 
#
# 1 0.010625 0.000845 -0.010665 0.000000 -0.003662 0.000000
# 2 0.000845 0.015995 -0.008991 0.000000 0.000798 0.000000
# 3 -0.010665 -0.008991 0.071703 0.000000 0.025710 0.000000
# 4 0.000000 0.000000 0.000000 0.097541 0.000000 0.049678
# 5 -0.003662 0.000798 0.025710 0.000000 0.039830 0.000000
# 6 0.000000 0.000000 0.000000 0.049678 0.000000 -0.091734
#
#
# Mechanical properties :
#
#
# Convention : Reuss Voigt Hill
#
# Bulk Modulus (GPa) = 16.47431 30.19210 23.33320
# Shear Modulus (GPa) = 24.77515 17.98736 21.38126
#
# Velocity S-wave (km/s) = 3.43864 2.92996 3.19444
# Velocity P-wave (km/s) = 4.86088 5.08486 4.97413
#
# Compressibility (1/GPa) = 0.06070058
#
# Stress axis : x y z
#
# Youngs Moduli (GPa) = 94.12140 62.51860 13.94642
#
# Poissons Ratio (x) = -0.05281 0.14874
# Poissons Ratio (y) = -0.07950 0.12539
# Poissons Ratio (z) = 1.00382 0.56208
#
# Static dielectric constant tensor:
#      x y z
#    x 1.756260 0.000000 0.011130 
#    y 0.000000 1.723740 0.000000 
#    z 0.011130 0.000000 1.721130 
# 
# From -- ./inp_files/2862.got.cif
#   From: 2010.05.17/outbox.cif.g08.bks.cpg/sg8_2_cif.got.tgz:2862.got - 2010.06.03 19:46:02.
