data_PCOD9132771
_publ_section_title
;
Structure prediction by ZEFSAII (Michael W. Deem and Ramdas Pophale) SiO2 
 PCOD9132771
Probable space group: C M
;
_chemical_formula_sum "Si O2"
_cell_formula_units_Z 20
_cell_length_a 7.232999
_cell_length_b 23.724952
_cell_length_c 5.523894
_cell_angle_alpha 90.000000
_cell_angle_beta 116.902914
_cell_angle_gamma 90.000000
_cell_volume 845.325835
_symmetry_space_group_name_H-M "C M"
_symmetry_group_IT_number 8
_symmetry_cell_setting 'monoclinic'
loop_
_space_group_symop_operation_xyz
x,y,z
x,-y,z
1/2+x,1/2+y,z
1/2+x,1/2-y,z
loop_
_atom_site_type_symbol
_atom_site_label
_atom_site_fract_x
_atom_site_fract_y
_atom_site_fract_z
Si Si1 0.577000 0.173626 0.009730
Si Si2 0.502561 0.304494 0.982821
Si Si3 0.241108 0.000000 0.424690
Si Si4 0.269805 0.880301 0.445171
Si Si5 0.364044 0.615685 0.505139
Si Si6 0.988266 0.000000 0.779379
O O1 0.523489 0.238182 0.033770
O O2 0.794493 0.177815 0.997190
O O3 0.641509 0.133250 0.269238
O O4 0.405299 0.148803 0.731003
O O5 0.707456 0.336743 0.198251
O O6 0.454425 0.328232 0.688778
O O7 0.362076 0.941770 0.451043
O O8 0.159892 0.000000 0.659031
O O9 0.077177 0.000000 0.103614
O O10 0.039789 0.896034 0.408984
O O11 0.368855 0.559259 0.668880
#
# Coordination Sequence:
#
# PCOD9132771 Si02
#       6
#     4   4   2   4   4   2
#     4  11  24  38  62  94 124 168 218 268 322 389
#     4  11  22  40  61  89 128 168 213 269 325 387
#     4  10  20  41  69  98 129 178 212 270 330 393
#     4  10  22  40  64  90 129 165 218 261 327 386
#     4  10  22  40  64  91 126 170 211 266 323 389
#     4  10  20  41  71  94 135 172 216 266 336 387
#
# _framework density 23.659513
#
# number of rings (size 3 to 8) (size 9 to 14) (size 15 to 20)
#    0.000    1.600    2.000    2.400    0.000    7.200 
#    0.000    2.000    0.000    0.000    0.000    0.000 
#    0.000    0.000    0.000    0.000    0.000    0.000 
#
# Total GULP energy -55820.281842 kJ/mol
# GULP energy per Si atom -5582.028184 kJ/mol
# Density = 2.360566 g / cm^3
# Si number density = 23.659513 Si / 1000 Ang^3
#
#
#
# Elastic Constant Matrix: (Units=GPa)
#
#
# Indices 1 2 3 4 5 6 
#
# 1 63.1114 9.3012 11.5700 0.0000 15.0416 0.0000
# 2 9.3012 149.7831 37.2769 0.0000 9.7521 0.0000
# 3 11.5700 37.2769 135.6785 0.0000 19.7328 0.0000
# 4 0.0000 0.0000 0.0000 39.6796 0.0000 -13.4642
# 5 15.0416 9.7521 19.7328 0.0000 32.1619 0.0000
# 6 0.0000 0.0000 0.0000 -13.4642 0.0000 5.1708
#
#
#
# Elastic Compliance Matrix: (Units=1/GPa)
#
#
# Indices 1 2 3 4 5 6 
#
# 1 0.017886 -0.000534 -0.000204 0.000000 -0.008078 0.000000
# 2 -0.000534 0.007215 -0.001817 0.000000 -0.000823 0.000000
# 3 -0.000204 -0.001817 0.008557 0.000000 -0.004604 0.000000
# 4 0.000000 0.000000 0.000000 0.216419 0.000000 0.563529
# 5 -0.008078 -0.000823 -0.004604 0.000000 0.037945 0.000000
# 6 0.000000 0.000000 0.000000 0.563529 0.000000 1.660751
#
#
# Mechanical properties :
#
#
# Convention : Reuss Voigt Hill
#
# Bulk Modulus (GPa) = 35.02802 51.65212 43.34007
# Shear Modulus (GPa) = 2.54660 34.76412 18.65536
#
# Velocity S-wave (km/s) = 1.03860 3.83737 2.81106
# Velocity P-wave (km/s) = 4.03428 6.44304 5.37532
#
# Compressibility (1/GPa) = 0.02854858
#
# Stress axis : x y z
#
# Youngs Moduli (GPa) = 55.90850 138.59423 116.87013
#
# Poissons Ratio (x) = 0.07402 0.02380
# Poissons Ratio (y) = 0.02986 0.21236
# Poissons Ratio (z) = 0.01139 0.25184
#
# Static dielectric constant tensor:
#      x y z
#    x 1.977290 0.000000 -0.076670 
#    y 0.000000 1.953110 0.000000 
#    z -0.076670 0.000000 1.908320 
# 
# From -- ./inp_files/1378.got.cif
#   From: 2010.05.17/outbox.cif.g08.bks.cpg/sg8_1_cif.got.tgz:1378.got - 2010.06.03 19:46:02.
