data_PCOD9132924
_publ_section_title
;
Structure prediction by ZEFSAII (Michael W. Deem and Ramdas Pophale) SiO2 
 PCOD9132924
Probable space group: C M
;
_chemical_formula_sum "Si O2"
_cell_formula_units_Z 24
_cell_length_a 12.686676
_cell_length_b 16.116830
_cell_length_c 7.687430
_cell_angle_alpha 90.000000
_cell_angle_beta 45.106243
_cell_angle_gamma 90.000000
_cell_volume 1113.518577
_symmetry_space_group_name_H-M "C M"
_symmetry_group_IT_number 8
_symmetry_cell_setting 'monoclinic'
loop_
_space_group_symop_operation_xyz
x,y,z
x,-y,z
1/2+x,1/2+y,z
1/2+x,1/2-y,z
loop_
_atom_site_type_symbol
_atom_site_label
_atom_site_fract_x
_atom_site_fract_y
_atom_site_fract_z
Si Si1 0.838330 0.844157 0.933110
Si Si2 0.655320 0.500000 0.115310
Si Si3 0.840198 0.827229 0.523332
Si Si4 0.797392 0.500000 0.568733
Si Si5 0.167198 0.181357 0.202106
Si Si6 0.661814 0.329799 0.614275
Si Si7 0.649357 0.000000 0.131344
Si Si8 0.793736 0.000000 0.577689
O O1 0.858894 0.856113 0.702057
O O2 0.991398 0.849447 0.860085
O O3 0.779210 0.751332 0.012879
O O4 0.725531 0.916692 0.116417
O O5 0.704382 0.500000 0.857259
O O6 0.715524 0.586388 0.120412
O O7 0.477859 0.500000 0.368958
O O8 0.740475 0.745957 0.620775
O O9 0.769535 0.909555 0.518654
O O10 0.011799 0.808176 0.277799
O O11 0.751192 0.415079 0.528036
O O12 0.975428 0.500000 0.374283
O O13 0.152119 0.196661 0.424712
O O14 0.692716 0.000000 0.872615
#
# Coordination Sequence:
#
# PCOD9132924 Si02
#       8
#     4   2   4   2   4   4   2   2
#     4  10  21  38  60  86 122 163 205 257 310 363
#     4  10  21  40  64  88 120 162 205 254 310 364
#     4   9  19  38  60  86 117 157 210 258 307 362
#     4  12  24  37  64  95 122 162 210 257 310 373
#     4  10  21  38  60  86 122 163 205 257 310 363
#     4  11  23  38  60  90 123 165 212 253 304 373
#     4  10  21  40  64  88 120 162 205 254 310 364
#     4   8  18  37  64  87 114 158 200 247 304 363
#
# _framework density 21.553298999999999
#
# number of rings (size 3 to 8) (size 9 to 14) (size 15 to 20)
#    0.000    2.000    0.000    4.000    0.000    9.333 
#    0.000    1.667    0.000    6.000    0.000    0.000 
#    0.000    0.000    0.000    0.000    0.000    0.000 
#
# Total GULP energy -66886.254163 kJ/mol
# GULP energy per Si atom -5573.854514 kJ/mol
# Density = 2.150424 g / cm^3
# Si number density = 21.553299 Si / 1000 Ang^3
#
#
#
# Elastic Constant Matrix: (Units=GPa)
#
#
# Indices 1 2 3 4 5 6 
#
# 1 73.0903 39.6438 22.2290 0.0000 -22.0351 0.0000
# 2 39.6438 160.2070 14.7846 0.0000 -48.3967 0.0000
# 3 22.2290 14.7846 69.5809 0.0000 -12.4729 0.0000
# 4 0.0000 0.0000 0.0000 33.7115 0.0000 -13.7563
# 5 -22.0351 -48.3967 -12.4729 0.0000 36.8194 0.0000
# 6 0.0000 0.0000 0.0000 -13.7563 0.0000 11.3023
#
#
#
# Elastic Compliance Matrix: (Units=1/GPa)
#
#
# Indices 1 2 3 4 5 6 
#
# 1 0.018082 -0.002068 -0.004136 0.000000 0.006702 0.000000
# 2 -0.002068 0.010594 0.000728 0.000000 0.012934 0.000000
# 3 -0.004136 0.000728 0.016253 0.000000 0.003988 0.000000
# 4 0.000000 0.000000 0.000000 0.058933 0.000000 0.071728
# 5 0.006702 0.012934 0.003988 0.000000 0.049522 0.000000
# 6 0.000000 0.000000 0.000000 0.071728 0.000000 0.175778
#
#
# Mechanical properties :
#
#
# Convention : Reuss Voigt Hill
#
# Bulk Modulus (GPa) = 29.43171 50.68811 40.05991
# Shear Modulus (GPa) = 14.22726 31.44804 22.83765
#
# Velocity S-wave (km/s) = 2.57202 3.82394 3.25867
# Velocity P-wave (km/s) = 4.74398 6.56241 5.72585
#
# Compressibility (1/GPa) = 0.03397696
#
# Stress axis : x y z
#
# Youngs Moduli (GPa) = 55.30447 94.39691 61.52649
#
# Poissons Ratio (x) = 0.19523 0.25446
# Poissons Ratio (y) = 0.11438 -0.04480
# Poissons Ratio (z) = 0.22873 -0.06874
#
# Static dielectric constant tensor:
#      x y z
#    x 1.793620 0.000000 0.032460 
#    y 0.000000 1.781670 0.000000 
#    z 0.032460 0.000000 1.848420 
# 
# From -- ./inp_files/13209.got.cif
#   From: 2010.05.17/outbox.cif.g08.bks.cpg/sg8_7_cif.got.tgz:13209.got - 2010.06.03 19:46:02.
