data_PCOD9132561
_publ_section_title
;
Structure prediction by ZEFSAII (Michael W. Deem and Ramdas Pophale) SiO2 
 PCOD9132561
Probable space group: C M
;
_chemical_formula_sum "Si O2"
_cell_formula_units_Z 28
_cell_length_a 19.573051
_cell_length_b 15.546523
_cell_length_c 8.750489
_cell_angle_alpha 90.000000
_cell_angle_beta 31.727611
_cell_angle_gamma 90.000000
_cell_volume 1400.271014
_symmetry_space_group_name_H-M "C M"
_symmetry_group_IT_number 8
_symmetry_cell_setting 'monoclinic'
loop_
_space_group_symop_operation_xyz
x,y,z
x,-y,z
1/2+x,1/2+y,z
1/2+x,1/2-y,z
loop_
_atom_site_type_symbol
_atom_site_label
_atom_site_fract_x
_atom_site_fract_y
_atom_site_fract_z
Si Si1 0.486420 0.093889 0.165360
Si Si2 0.510265 0.694230 0.634667
Si Si3 0.799020 0.903978 0.211074
Si Si4 0.753215 0.400442 0.050109
Si Si5 0.379285 0.766475 0.596702
Si Si6 0.796992 0.901499 0.570611
Si Si7 0.502660 0.868607 0.786744
O O1 0.432413 0.172160 0.363958
O O2 0.438200 0.000000 0.310355
O O3 0.641911 0.093942 0.882383
O O4 0.459791 0.104753 0.036825
O O5 0.629133 0.629425 0.385980
O O6 0.485136 0.744459 0.524778
O O7 0.532249 0.766962 0.719718
O O8 0.375099 0.651775 0.943499
O O9 0.822480 0.878113 0.343675
O O10 0.644321 0.906229 0.480276
O O11 0.851058 0.000000 0.097592
O O12 0.737567 0.500000 0.029563
O O13 0.771866 0.326786 0.885030
O O14 0.886527 0.393993 0.894537
O O15 0.342015 0.674512 0.595737
O O16 0.846542 0.000000 0.504746
#
# Coordination Sequence:
#
# PCOD9132561 Si02
#       7
#     4   4   4   4   4   4   4
#     4  10  20  37  60  85 111 146 192 241 285 335
#     4  11  23  37  56  85 119 154 189 233 285 340
#     4  10  20  38  62  86 109 143 191 240 285 337
#     4  11  23  39  57  85 122 156 191 236 286 341
#     4  11  22  37  56  83 117 157 191 228 284 348
#     4   9  20  38  60  84 111 144 191 243 287 335
#     4  10  20  38  62  86 111 146 194 241 285 336
#
# _framework density 19.996127999999999
#
# number of rings (size 3 to 8) (size 9 to 14) (size 15 to 20)
#    0.000    1.714    0.000    6.429    0.000    3.429 
#    0.000    4.286    0.000    1.714    0.000    0.000 
#    0.000    0.000    0.000    0.000    0.000    0.000 
#
# Total GULP energy -78073.875018 kJ/mol
# GULP energy per Si atom -5576.705358 kJ/mol
# Density = 1.995062 g / cm^3
# Si number density = 19.996128 Si / 1000 Ang^3
#
#
#
# Elastic Constant Matrix: (Units=GPa)
#
#
# Indices 1 2 3 4 5 6 
#
# 1 44.2074 41.0813 19.5309 0.0000 1.4565 0.0000
# 2 41.0813 132.4991 43.3108 0.0000 9.8866 0.0000
# 3 19.5309 43.3108 88.3124 0.0000 8.0085 0.0000
# 4 0.0000 0.0000 0.0000 10.3119 0.0000 -7.8258
# 5 1.4565 9.8866 8.0085 0.0000 11.3551 0.0000
# 6 0.0000 0.0000 0.0000 -7.8258 0.0000 13.2250
#
#
#
# Elastic Compliance Matrix: (Units=1/GPa)
#
#
# Indices 1 2 3 4 5 6 
#
# 1 0.032702 -0.009600 -0.003100 0.000000 0.006350 0.000000
# 2 -0.009600 0.012084 -0.003163 0.000000 -0.007059 0.000000
# 3 -0.003100 -0.003163 0.014182 0.000000 -0.006850 0.000000
# 4 0.000000 0.000000 0.000000 0.176025 0.000000 0.104161
# 5 0.006350 -0.007059 -0.006850 0.000000 0.098229 0.000000
# 6 0.000000 0.000000 0.000000 0.104161 0.000000 0.137251
#
#
# Mechanical properties :
#
#
# Convention : Reuss Voigt Hill
#
# Bulk Modulus (GPa) = 36.70858 52.54053 44.62455
# Shear Modulus (GPa) = 9.77938 17.71812 13.74875
#
# Velocity S-wave (km/s) = 2.21388 2.97993 2.62500
# Velocity P-wave (km/s) = 4.99327 6.17838 5.61717
#
# Compressibility (1/GPa) = 0.02724159
#
# Stress axis : x y z
#
# Youngs Moduli (GPa) = 30.57928 82.75185 70.51379
#
# Poissons Ratio (x) = 0.79439 0.21861
# Poissons Ratio (y) = 0.29355 0.22306
# Poissons Ratio (z) = 0.09480 0.26177
#
# Static dielectric constant tensor:
#      x y z
#    x 1.706360 0.000000 0.015490 
#    y 0.000000 1.652550 0.000000 
#    z 0.015490 0.000000 1.697650 
# 
# From -- ./inp_files/16434.got.cif
#   From: 2010.05.17/outbox.cif.g08.bks.cpg/sg8_9_cif.got.tgz:16434.got - 2010.06.03 19:46:02.
