data_PCOD9132086
_publ_section_title
;
Structure prediction by ZEFSAII (Michael W. Deem and Ramdas Pophale) SiO2 
 PCOD9132086
Probable space group: C M
;
_chemical_formula_sum "Si O2"
_cell_formula_units_Z 32
_cell_length_a 24.647057
_cell_length_b 7.418705
_cell_length_c 20.198840
_cell_angle_alpha 90.000000
_cell_angle_beta 22.996996
_cell_angle_gamma 90.000000
_cell_volume 1442.925690
_symmetry_space_group_name_H-M "C M"
_symmetry_group_IT_number 8
_symmetry_cell_setting 'monoclinic'
loop_
_space_group_symop_operation_xyz
x,y,z
x,-y,z
1/2+x,1/2+y,z
1/2+x,1/2-y,z
loop_
_atom_site_type_symbol
_atom_site_label
_atom_site_fract_x
_atom_site_fract_y
_atom_site_fract_z
Si Si1 0.070390 0.205479 0.983900
Si Si2 0.554391 0.281856 0.507093
Si Si3 0.762751 0.795804 0.882736
Si Si4 0.058152 0.278683 0.227806
Si Si5 0.991392 0.779093 0.926702
Si Si6 0.689345 0.788369 0.218287
Si Si7 0.243565 0.780747 0.549854
Si Si8 0.775235 0.281786 0.366614
O O1 0.184011 0.300257 0.901071
O O2 0.029308 0.280344 0.958384
O O3 0.118206 0.000000 0.921020
O O4 0.929228 0.210426 0.184198
O O5 0.549955 0.500000 0.512960
O O6 0.411984 0.212967 0.699318
O O7 0.585543 0.229906 0.396830
O O8 0.680725 0.222527 0.411842
O O9 0.790321 0.000000 0.874931
O O10 0.658620 0.718490 0.054843
O O11 0.054277 0.500000 0.230569
O O12 0.122987 0.218413 0.224863
O O13 0.898068 0.221852 0.397956
O O14 0.116933 0.723203 0.738166
O O15 0.986080 0.000000 0.934516
O O16 0.840303 0.716136 0.071312
O O17 0.711578 0.000000 0.181117
O O18 0.219036 0.728403 0.501334
O O19 0.244460 0.000000 0.551128
O O20 0.782928 0.500000 0.356673
#
# Coordination Sequence:
#
# PCOD9132086 Si02
#       8
#     4   4   4   4   4   4   4   4
#     4  11  21  35  56  82 110 142 180 226 274 325
#     4  10  22  36  55  82 112 145 180 221 271 329
#     4  10  21  38  56  81 110 142 185 227 268 317
#     4   9  18  32  54  79 104 138 181 224 263 311
#     4   9  19  32  50  80 110 136 175 225 270 312
#     4  10  20  35  55  79 110 144 178 223 270 317
#     4   9  17  31  53  80 104 134 180 227 265 308
#     4  10  19  35  59  81 106 143 183 227 271 315
#
# _framework density 22.177163
#
# number of rings (size 3 to 8) (size 9 to 14) (size 15 to 20)
#    0.000    2.250    2.500    0.375    3.500    0.500 
#    0.000    0.625    0.000    2.250    0.000    0.000 
#    0.000    0.000    0.000    0.000    0.000    0.000 
#
# Total GULP energy -89366.272661 kJ/mol
# GULP energy per Si atom -5585.392041 kJ/mol
# Density = 2.212669 g / cm^3
# Si number density = 22.177163 Si / 1000 Ang^3
#
#
#
# Elastic Constant Matrix: (Units=GPa)
#
#
# Indices 1 2 3 4 5 6 
#
# 1 106.8594 -0.9769 15.1106 -0.0035 13.9269 0.0002
# 2 -0.9769 68.8340 -8.2043 0.0051 -1.1836 -0.0007
# 3 15.1106 -8.2043 102.0123 0.0023 9.7217 -0.0003
# 4 -0.0035 0.0051 0.0023 18.5729 -0.0005 -1.6656
# 5 13.9269 -1.1836 9.7217 -0.0005 38.8155 -0.0002
# 6 0.0002 -0.0007 -0.0003 -1.6656 -0.0002 6.7033
#
#
#
# Elastic Compliance Matrix: (Units=1/GPa)
#
#
# Indices 1 2 3 4 5 6 
#
# 1 0.009950 -0.000054 -0.001166 0.000002 -0.003280 0.000000
# 2 -0.000054 0.014670 0.001171 -0.000004 0.000173 0.000001
# 3 -0.001166 0.001171 0.010272 -0.000002 -0.002119 0.000000
# 4 0.000002 -0.000004 -0.000002 0.055069 0.000000 0.013683
# 5 -0.003280 0.000173 -0.002119 0.000000 0.027476 0.000001
# 6 0.000000 0.000001 0.000000 0.013683 0.000001 0.152580
#
#
# Mechanical properties :
#
#
# Convention : Reuss Voigt Hill
#
# Bulk Modulus (GPa) = 28.74058 32.17381 30.45720
# Shear Modulus (GPa) = 17.74875 30.93677 24.34276
#
# Velocity S-wave (km/s) = 2.83206 3.73900 3.31667
# Velocity P-wave (km/s) = 4.86639 5.76015 5.33203
#
# Compressibility (1/GPa) = 0.03479401
#
# Stress axis : x y z
#
# Youngs Moduli (GPa) = 100.50387 68.16850 97.35670
#
# Poissons Ratio (x) = 0.00369 0.11348
# Poissons Ratio (y) = 0.00544 -0.11403
# Poissons Ratio (z) = 0.11715 -0.07984
#
# Static dielectric constant tensor:
#      x y z
#    x 1.772610 0.000000 0.001350 
#    y 0.000000 1.877490 0.000000 
#    z 0.001350 0.000000 1.767110 
# 
# From -- ./inp_files/15784.got.cif
#   From: 2010.05.17/outbox.cif.g08.bks.cpg/sg8_8_cif.got.tgz:15784.got - 2010.06.03 19:46:02.
