data_PCOD9132229
_publ_section_title
;
Structure prediction by ZEFSAII (Michael W. Deem and Ramdas Pophale) SiO2 
 PCOD9132229
Probable space group: C M
;
_chemical_formula_sum "Si O2"
_cell_formula_units_Z 22
_cell_length_a 8.850370
_cell_length_b 17.213152
_cell_length_c 8.148418
_cell_angle_alpha 90.000000
_cell_angle_beta 130.531129
_cell_angle_gamma 90.000000
_cell_volume 943.493715
_symmetry_space_group_name_H-M "C M"
_symmetry_group_IT_number 8
_symmetry_cell_setting 'monoclinic'
loop_
_space_group_symop_operation_xyz
x,y,z
x,-y,z
1/2+x,1/2+y,z
1/2+x,1/2-y,z
loop_
_atom_site_type_symbol
_atom_site_label
_atom_site_fract_x
_atom_site_fract_y
_atom_site_fract_z
Si Si1 0.483170 0.167353 0.204770
Si Si2 0.223079 0.086757 0.547881
Si Si3 0.048994 0.148513 0.757653
Si Si4 0.087056 0.500000 0.781155
Si Si5 0.469114 0.000000 0.313787
Si Si6 0.491790 0.500000 0.935463
Si Si7 0.316149 0.770978 0.407233
O O1 0.536239 0.077545 0.268891
O O2 0.471036 0.206358 0.376690
O O3 0.645030 0.214693 0.218816
O O4 0.262031 0.171958 0.979915
O O5 0.097960 0.112944 0.614167
O O6 0.219241 0.149515 0.402751
O O7 0.159148 0.000000 0.456096
O O8 0.458585 0.072761 0.758309
O O9 0.915390 0.223280 0.626187
O O10 0.962533 0.079402 0.809167
O O11 0.322775 0.500000 0.956216
O O12 0.042299 0.500000 0.552683
O O13 0.227320 0.000000 0.141417
#
# Coordination Sequence:
#
# PCOD9132229 Si02
#       7
#     4   4   4   2   2   2   4
#     4  11  25  42  66  94 128 169 215 261 322 377
#     4  10  22  43  66  90 131 170 209 267 315 373
#     4  11  24  42  67  93 133 168 212 268 316 380
#     4  10  19  39  67  91 124 166 210 261 314 369
#     4  10  20  42  62  96 126 160 212 262 304 390
#     4  10  21  39  69  99 120 174 214 253 328 377
#     4  12  24  43  63  96 130 170 212 265 320 377
#
# _framework density 23.317589999999999
#
# number of rings (size 3 to 8) (size 9 to 14) (size 15 to 20)
#    0.545    0.727    4.545    1.091    2.545    0.000 
#    3.273    1.818    0.000    0.000    0.000    0.000 
#    0.000    0.000    0.000    0.000    0.000    0.000 
#
# Total GULP energy -61478.668616 kJ/mol
# GULP energy per Si atom -5588.969874 kJ/mol
# Density = 2.326452 g / cm^3
# Si number density = 23.317590 Si / 1000 Ang^3
#
#
#
# Elastic Constant Matrix: (Units=GPa)
#
#
# Indices 1 2 3 4 5 6 
#
# 1 63.6521 23.6045 -14.8745 0.0000 9.5932 0.0000
# 2 23.6045 147.4741 22.7042 0.0000 9.5332 0.0000
# 3 -14.8745 22.7042 59.5281 0.0000 14.1427 0.0000
# 4 0.0000 0.0000 0.0000 12.6452 0.0000 6.9850
# 5 9.5932 9.5332 14.1427 0.0000 27.6003 0.0000
# 6 0.0000 0.0000 0.0000 6.9850 0.0000 17.8221
#
#
#
# Elastic Compliance Matrix: (Units=1/GPa)
#
#
# Indices 1 2 3 4 5 6 
#
# 1 0.021038 -0.004118 0.009367 0.000000 -0.010689 0.000000
# 2 -0.004118 0.008047 -0.004302 0.000000 0.000856 0.000000
# 3 0.009367 -0.004302 0.024139 0.000000 -0.014139 0.000000
# 4 0.000000 0.000000 0.000000 0.100933 0.000000 -0.039559
# 5 -0.010689 0.000856 -0.014139 0.000000 0.046896 0.000000
# 6 0.000000 0.000000 0.000000 -0.039559 0.000000 0.071615
#
#
# Mechanical properties :
#
#
# Convention : Reuss Voigt Hill
#
# Bulk Modulus (GPa) = 18.14288 37.05807 27.60047
# Shear Modulus (GPa) = 17.29231 27.56153 22.42692
#
# Velocity S-wave (km/s) = 2.72619 3.44176 3.10466
# Velocity P-wave (km/s) = 4.20798 5.63219 4.97135
#
# Compressibility (1/GPa) = 0.05511806
#
# Stress axis : x y z
#
# Youngs Moduli (GPa) = 47.53392 124.27104 41.42637
#
# Poissons Ratio (x) = 0.51179 -0.38804
# Poissons Ratio (y) = 0.19576 0.17820
# Poissons Ratio (z) = -0.44525 0.53456
#
# Static dielectric constant tensor:
#      x y z
#    x 1.840850 0.000000 0.005920 
#    y 0.000000 1.879160 0.000000 
#    z 0.005920 0.000000 1.915520 
# 
# From -- ./inp_files/8283.got.cif
#   From: 2010.05.17/outbox.cif.g08.bks.cpg/sg8_5_cif.got.tgz:8283.got - 2010.06.03 19:46:02.
