data_PCOD9132825
_publ_section_title
;
Structure prediction by ZEFSAII (Michael W. Deem and Ramdas Pophale) SiO2 
 PCOD9132825
Probable space group: C M
;
_chemical_formula_sum "Si O2"
_cell_formula_units_Z 32
_cell_length_a 9.867386
_cell_length_b 7.592144
_cell_length_c 29.876582
_cell_angle_alpha 90.000000
_cell_angle_beta 145.646678
_cell_angle_gamma 90.000000
_cell_volume 1263.000046
_symmetry_space_group_name_H-M "C M"
_symmetry_group_IT_number 8
_symmetry_cell_setting 'monoclinic'
loop_
_space_group_symop_operation_xyz
x,y,z
x,-y,z
1/2+x,1/2+y,z
1/2+x,1/2-y,z
loop_
_atom_site_type_symbol
_atom_site_label
_atom_site_fract_x
_atom_site_fract_y
_atom_site_fract_z
Si Si1 0.899860 0.214359 0.908800
Si Si2 0.440019 0.205223 0.064631
Si Si3 0.725282 0.714213 0.327880
Si Si4 0.760601 0.204563 0.582318
Si Si5 0.215753 0.702644 0.423733
Si Si6 0.913654 0.794684 0.814393
Si Si7 0.925042 0.213795 0.159066
Si Si8 0.227205 0.296308 0.670548
O O1 0.829595 0.275193 0.839304
O O2 0.702298 0.279894 0.889659
O O3 0.896975 0.000000 0.909489
O O4 0.171231 0.279554 0.989893
O O5 0.650994 0.279261 0.091337
O O6 0.523527 0.219668 0.138885
O O7 0.417419 0.000000 0.046667
O O8 0.723726 0.500000 0.329489
O O9 0.630938 0.785301 0.349072
O O10 0.574607 0.767712 0.243368
O O11 0.977755 0.713968 0.496697
O O12 0.500275 0.274392 0.395084
O O13 0.803970 0.281549 0.644019
O O14 0.826088 0.000000 0.599587
O O15 0.250236 0.500000 0.446167
O O16 0.437929 0.792477 0.595472
O O17 0.818647 0.714609 0.742040
O O18 0.847704 0.000000 0.796197
O O19 0.924897 0.000000 0.157782
O O20 0.303491 0.500000 0.690588
#
# Coordination Sequence:
#
# PCOD9132825 Si02
#       8
#     4   4   4   4   4   4   4   4
#     4  10  21  36  55  82 114 148 188 232 279 332
#     4  10  21  36  55  82 114 148 188 232 279 332
#     4  10  22  39  59  85 114 146 187 232 279 332
#     4  11  23  38  58  84 113 147 187 229 277 333
#     4  11  23  38  58  84 113 147 187 229 277 333
#     4  10  21  38  59  83 113 148 187 232 280 331
#     4  10  21  38  59  83 113 148 187 232 280 331
#     4  10  22  39  59  85 114 146 187 232 279 332
#
# _framework density 25.336497999999999
#
# number of rings (size 3 to 8) (size 9 to 14) (size 15 to 20)
#    0.000    1.750    0.000    3.750    0.000    7.500 
#    0.000    0.000    0.000    0.000    0.000    0.000 
#    0.000    0.000    0.000    0.000    0.000    0.000 
#
# Total GULP energy -89557.285737 kJ/mol
# GULP energy per Si atom -5597.330359 kJ/mol
# Density = 2.527883 g / cm^3
# Si number density = 25.336498 Si / 1000 Ang^3
#
#
#
# Elastic Constant Matrix: (Units=GPa)
#
#
# Indices 1 2 3 4 5 6 
#
# 1 114.1204 -6.2064 -11.0406 0.0000 -0.7997 0.0000
# 2 -6.2064 68.8848 -0.3709 0.0000 7.0042 0.0000
# 3 -11.0406 -0.3709 68.2561 0.0000 2.2652 0.0000
# 4 0.0000 0.0000 0.0000 19.3918 0.0000 2.5276
# 5 -0.7997 7.0042 2.2652 0.0000 47.4587 0.0000
# 6 0.0000 0.0000 0.0000 2.5276 0.0000 9.7501
#
#
#
# Elastic Compliance Matrix: (Units=1/GPa)
#
#
# Indices 1 2 3 4 5 6 
#
# 1 0.008947 0.000818 0.001453 0.000000 -0.000039 0.000000
# 2 0.000818 0.014815 0.000285 0.000000 -0.002186 0.000000
# 3 0.001453 0.000285 0.014911 0.000000 -0.000729 0.000000
# 4 0.000000 0.000000 0.000000 0.053372 0.000000 -0.013836
# 5 -0.000039 -0.002186 -0.000729 0.000000 0.021428 0.000000
# 6 0.000000 0.000000 0.000000 -0.013836 0.000000 0.106150
#
#
# Mechanical properties :
#
#
# Convention : Reuss Voigt Hill
#
# Bulk Modulus (GPa) = 22.83827 24.00284 23.42056
# Shear Modulus (GPa) = 21.82398 33.24539 27.53469
#
# Velocity S-wave (km/s) = 2.93809 3.62630 3.30018
# Velocity P-wave (km/s) = 4.53248 5.19880 4.87703
#
# Compressibility (1/GPa) = 0.04378615
#
# Stress axis : x y z
#
# Youngs Moduli (GPa) = 111.76354 67.50139 67.06241
#
# Poissons Ratio (x) = -0.05521 -0.09744
# Poissons Ratio (y) = -0.09142 -0.01914
# Poissons Ratio (z) = -0.16240 -0.01926
#
# Static dielectric constant tensor:
#      x y z
#    x 1.931160 0.000000 0.009790 
#    y 0.000000 1.942660 0.000000 
#    z 0.009790 0.000000 2.081550 
# 
# From -- ./inp_files/25853.got.cif
#   From: 2010.05.17/outbox.cif.g08.bks.cpg/sg8_13_cif.got.tgz:25853.got - 2010.06.03 19:46:02.
