data_PCOD9132976
_publ_section_title
;
Structure prediction by ZEFSAII (Michael W. Deem and Ramdas Pophale) SiO2 
 PCOD9132976
Probable space group: C M
;
_chemical_formula_sum "Si O2"
_cell_formula_units_Z 32
_cell_length_a 24.562817
_cell_length_b 8.860946
_cell_length_c 19.989844
_cell_angle_alpha 90.000000
_cell_angle_beta 156.949805
_cell_angle_gamma 90.000000
_cell_volume 1703.495237
_symmetry_space_group_name_H-M "C M"
_symmetry_group_IT_number 8
_symmetry_cell_setting 'monoclinic'
loop_
_space_group_symop_operation_xyz
x,y,z
x,-y,z
1/2+x,1/2+y,z
1/2+x,1/2-y,z
loop_
_atom_site_type_symbol
_atom_site_label
_atom_site_fract_x
_atom_site_fract_y
_atom_site_fract_z
Si Si1 0.595160 0.316185 0.306970
Si Si2 0.466172 0.317113 0.303922
Si Si3 0.408395 0.180458 0.624744
Si Si4 0.457762 0.677187 0.536976
Si Si5 0.656648 0.318262 0.645243
Si Si6 0.665538 0.323885 0.992250
Si Si7 0.447956 0.320990 0.005196
Si Si8 0.199493 0.826452 0.186874
O O1 0.596175 0.500000 0.306456
O O2 0.535351 0.271396 0.311480
O O3 0.754522 0.267569 0.474119
O O4 0.498448 0.266668 0.135504
O O5 0.457739 0.500000 0.295623
O O6 0.563604 0.268590 0.476551
O O7 0.311813 0.251003 0.136979
O O8 0.437080 0.233246 0.581747
O O9 0.409554 0.000000 0.629295
O O10 0.532920 0.245802 0.809483
O O11 0.472667 0.500000 0.568270
O O12 0.584152 0.728595 0.632894
O O13 0.321205 0.709521 0.338835
O O14 0.657283 0.500000 0.644257
O O15 0.812370 0.258435 0.823027
O O16 0.668521 0.500000 0.976692
O O17 0.652444 0.313447 0.057509
O O18 0.419913 0.500000 0.978321
O O19 0.575840 0.300926 0.099057
O O20 0.250165 0.000000 0.254420
#
# Coordination Sequence:
#
# PCOD9132976 Si02
#       8
#     4   4   4   4   4   4   4   4
#     4   9  20  39  62  86 115 153 201 245 285 350
#     4  10  21  41  62  85 119 161 200 240 293 354
#     4  11  23  41  64  88 118 159 201 244 299 357
#     4  11  22  39  62  89 120 153 198 252 297 348
#     4  10  23  39  58  88 123 154 195 246 295 350
#     4  11  24  40  60  91 123 155 199 249 296 350
#     4  10  21  39  61  87 117 154 201 245 291 352
#     4  10  21  40  63  86 119 157 199 247 296 353
#
# _framework density 18.784908000000001
#
# number of rings (size 3 to 8) (size 9 to 14) (size 15 to 20)
#    0.000    1.750    2.500    1.125    3.500    2.500 
#    0.000    1.250    0.000    0.000    0.000    0.000 
#    0.000    0.000    0.000    0.000    0.000    0.000 
#
# Total GULP energy -89346.905206 kJ/mol
# GULP energy per Si atom -5584.181575 kJ/mol
# Density = 1.874215 g / cm^3
# Si number density = 18.784908 Si / 1000 Ang^3
#
#
#
# Elastic Constant Matrix: (Units=GPa)
#
#
# Indices 1 2 3 4 5 6 
#
# 1 91.3940 15.6381 9.8574 0.0000 -9.3994 0.0000
# 2 15.6381 19.9057 12.8278 0.0000 -2.8186 0.0000
# 3 9.8574 12.8278 68.8357 0.0000 -8.8206 0.0000
# 4 0.0000 0.0000 0.0000 34.0364 0.0000 1.7337
# 5 -9.3994 -2.8186 -8.8206 0.0000 18.8330 0.0000
# 6 0.0000 0.0000 0.0000 1.7337 0.0000 20.3927
#
#
#
# Elastic Compliance Matrix: (Units=1/GPa)
#
#
# Indices 1 2 3 4 5 6 
#
# 1 0.013131 -0.009986 0.000669 0.000000 0.005372 0.000000
# 2 -0.009986 0.064943 -0.010708 0.000000 -0.000279 0.000000
# 3 0.000669 -0.010708 0.017303 0.000000 0.006835 0.000000
# 4 0.000000 0.000000 0.000000 0.029508 0.000000 -0.002509
# 5 0.005372 -0.000279 0.006835 0.000000 0.058939 0.000000
# 6 0.000000 0.000000 0.000000 -0.002509 0.000000 0.049250
#
#
# Mechanical properties :
#
#
# Convention : Reuss Voigt Hill
#
# Bulk Modulus (GPa) = 18.07461 28.53133 23.30297
# Shear Modulus (GPa) = 17.14876 24.10657 20.62766
#
# Velocity S-wave (km/s) = 3.02470 3.58620 3.31735
# Velocity P-wave (km/s) = 4.67346 5.68939 5.20626
#
# Compressibility (1/GPa) = 0.05532623
#
# Stress axis : x y z
#
# Youngs Moduli (GPa) = 76.15776 15.39814 57.79374
#
# Poissons Ratio (x) = 0.15376 -0.03866
# Poissons Ratio (y) = 0.76051 0.61886
# Poissons Ratio (z) = -0.05095 0.16489
#
# Static dielectric constant tensor:
#      x y z
#    x 1.736840 0.000000 -0.060080 
#    y 0.000000 1.642070 0.000000 
#    z -0.060080 0.000000 1.651930 
# 
# From -- ./inp_files/15814.got.cif
#   From: 2010.05.17/outbox.cif.g08.bks.cpg/sg8_8_cif.got.tgz:15814.got - 2010.06.03 19:46:02.
