data_PCOD9132726
_publ_section_title
;
Structure prediction by ZEFSAII (Michael W. Deem and Ramdas Pophale) SiO2 
 PCOD9132726
Probable space group: C M
;
_chemical_formula_sum "Si O2"
_cell_formula_units_Z 32
_cell_length_a 14.670166
_cell_length_b 17.069715
_cell_length_c 11.319521
_cell_angle_alpha 90.000000
_cell_angle_beta 150.687054
_cell_angle_gamma 90.000000
_cell_volume 1387.754223
_symmetry_space_group_name_H-M "C M"
_symmetry_group_IT_number 8
_symmetry_cell_setting 'monoclinic'
loop_
_space_group_symop_operation_xyz
x,y,z
x,-y,z
1/2+x,1/2+y,z
1/2+x,1/2-y,z
loop_
_atom_site_type_symbol
_atom_site_label
_atom_site_fract_x
_atom_site_fract_y
_atom_site_fract_z
Si Si1 0.799510 0.409366 0.562360
Si Si2 0.493989 0.691188 0.348872
Si Si3 0.046592 0.410290 0.221448
Si Si4 0.200741 0.090652 0.951174
Si Si5 0.101405 0.906642 0.086447
Si Si6 0.603755 0.175685 0.789364
Si Si7 0.184639 0.356182 0.622741
Si Si8 0.372885 0.332562 0.472390
O O1 0.809620 0.500000 0.605519
O O2 0.651639 0.366024 0.477044
O O3 0.716092 0.400608 0.335508
O O4 0.004150 0.372987 0.780393
O O5 0.599960 0.772296 0.492702
O O6 0.408688 0.661217 0.375108
O O7 0.314675 0.698536 0.061102
O O8 0.054244 0.500000 0.184095
O O9 0.120558 0.409718 0.440908
O O10 0.164687 0.348959 0.278934
O O11 0.836452 0.379357 0.002554
O O12 0.212599 0.123902 0.096937
O O13 0.250084 0.000000 0.015112
O O14 0.990648 0.101713 0.674140
O O15 0.061197 0.000000 0.023469
O O16 0.907843 0.861054 0.876229
O O17 0.617205 0.128338 0.680500
O O18 0.470835 0.251474 0.622541
#
# Coordination Sequence:
#
# PCOD9132726 Si02
#       8
#     4   4   4   4   4   4   4   4
#     4  11  25  44  68 100 136 177 224 274 335 404
#     4  11  26  46  65  97 131 180 225 273 330 401
#     4  11  22  39  67 100 131 168 215 272 336 392
#     4  10  21  38  64  99 133 167 213 274 338 388
#     4  10  20  39  71 105 135 170 218 284 342 392
#     4  11  25  45  67  94 132 176 224 276 338 389
#     4  11  21  41  70  98 130 171 223 280 333 390
#     4  11  24  42  64  93 130 175 220 271 320 398
#
# _framework density 23.058838000000002
#
# number of rings (size 3 to 8) (size 9 to 14) (size 15 to 20)
#    0.000    1.250    2.500    3.000    0.000    5.500 
#    0.000    1.250    0.000    0.000    0.000    0.000 
#    0.000    0.000    0.000    0.000    0.000    0.000 
#
# Total GULP energy -89470.265379 kJ/mol
# GULP energy per Si atom -5591.891586 kJ/mol
# Density = 2.300636 g / cm^3
# Si number density = 23.058838 Si / 1000 Ang^3
#
#
#
# Elastic Constant Matrix: (Units=GPa)
#
#
# Indices 1 2 3 4 5 6 
#
# 1 146.8456 48.0093 16.3866 0.0000 26.7143 0.0000
# 2 48.0093 74.5349 17.3620 0.0000 17.6222 0.0000
# 3 16.3866 17.3620 52.5832 0.0000 19.1242 0.0000
# 4 0.0000 0.0000 0.0000 29.5104 0.0000 7.7726
# 5 26.7143 17.6222 19.1242 0.0000 47.5307 0.0000
# 6 0.0000 0.0000 0.0000 7.7726 0.0000 28.0358
#
#
#
# Elastic Compliance Matrix: (Units=1/GPa)
#
#
# Indices 1 2 3 4 5 6 
#
# 1 0.009052 -0.005076 0.000025 0.000000 -0.003215 0.000000
# 2 -0.005076 0.018078 -0.003499 0.000000 -0.002442 0.000000
# 3 0.000025 -0.003499 0.023075 0.000000 -0.008001 0.000000
# 4 0.000000 0.000000 0.000000 0.036556 0.000000 -0.010135
# 5 -0.003215 -0.002442 -0.008001 0.000000 0.026971 0.000000
# 6 0.000000 0.000000 0.000000 -0.010135 0.000000 0.038478
#
#
# Mechanical properties :
#
#
# Convention : Reuss Voigt Hill
#
# Bulk Modulus (GPa) = 30.20774 48.60883 39.40828
# Shear Modulus (GPa) = 27.72460 33.82911 30.77685
#
# Velocity S-wave (km/s) = 3.47124 3.83440 3.65733
# Velocity P-wave (km/s) = 5.40322 6.38198 5.91288
#
# Compressibility (1/GPa) = 0.03310410
#
# Stress axis : x y z
#
# Youngs Moduli (GPa) = 110.47858 55.31471 43.33677
#
# Poissons Ratio (x) = 0.28076 -0.00107
# Poissons Ratio (y) = 0.56076 0.15165
# Poissons Ratio (z) = -0.00272 0.19356
#
# Static dielectric constant tensor:
#      x y z
#    x 1.872970 0.000000 -0.001960 
#    y 0.000000 1.858920 0.000000 
#    z -0.001960 0.000000 1.870360 
# 
# From -- ./inp_files/22414.got.cif
#   From: 2010.05.17/outbox.cif.g08.bks.cpg/sg8_12_cif.got.tgz:22414.got - 2010.06.03 19:46:02.
