data_PCOD9132134
_publ_section_title
;
Structure prediction by ZEFSAII (Michael W. Deem and Ramdas Pophale) SiO2 
 PCOD9132134
Probable space group: C M
;
_chemical_formula_sum "Si O2"
_cell_formula_units_Z 32
_cell_length_a 19.107439
_cell_length_b 14.283687
_cell_length_c 13.336787
_cell_angle_alpha 90.000000
_cell_angle_beta 29.805975
_cell_angle_gamma 90.000000
_cell_volume 1809.283935
_symmetry_space_group_name_H-M "C M"
_symmetry_group_IT_number 8
_symmetry_cell_setting 'monoclinic'
loop_
_space_group_symop_operation_xyz
x,y,z
x,-y,z
1/2+x,1/2+y,z
1/2+x,1/2-y,z
loop_
_atom_site_type_symbol
_atom_site_label
_atom_site_fract_x
_atom_site_fract_y
_atom_site_fract_z
Si Si1 0.101550 0.610277 0.017050
Si Si2 0.609580 0.763756 0.196289
Si Si3 0.348932 0.390867 0.253121
Si Si4 0.854733 0.209912 0.039358
Si Si5 0.808066 0.250342 0.651470
Si Si6 0.919047 0.395519 0.052479
Si Si7 0.153415 0.109961 0.979786
Si Si8 0.642633 0.207112 0.657763
O O1 0.128035 0.500000 0.994004
O O2 0.069483 0.660820 0.161022
O O3 0.972983 0.622130 0.098276
O O4 0.233599 0.665536 0.804358
O O5 0.737642 0.803674 0.101920
O O6 0.473962 0.742417 0.431991
O O7 0.654342 0.670227 0.080377
O O8 0.312735 0.500000 0.309688
O O9 0.358187 0.363483 0.125241
O O10 0.500315 0.375982 0.118125
O O11 0.235655 0.326591 0.450412
O O12 0.824900 0.310892 0.129867
O O13 0.011948 0.223535 0.799110
O O14 0.738075 0.248620 0.628088
O O15 0.764306 0.343186 0.766217
O O16 0.863117 0.500000 0.112315
O O17 0.060728 0.381736 0.809271
O O18 0.175863 0.000000 0.967519
#
# Coordination Sequence:
#
# PCOD9132134 Si02
#       8
#     4   4   4   4   4   4   4   4
#     4   9  19  36  59  79 104 143 190 225 261 327
#     4  11  22  36  56  84 114 147 179 227 284 328
#     4  11  20  35  60  86 108 147 194 230 270 331
#     4  10  22  36  53  84 119 143 177 234 281 323
#     4  10  19  36  59  83 111 143 185 229 275 325
#     4   8  16  34  57  79 103 140 184 226 264 315
#     4  10  21  37  58  87 114 143 187 235 274 328
#     4   9  18  34  59  80 109 140 189 224 272 323
#
# _framework density 17.686554000000001
#
# number of rings (size 3 to 8) (size 9 to 14) (size 15 to 20)
#    0.750    1.500    2.500    1.125    0.000    4.500 
#    0.000    1.250    0.000    0.750    0.000    0.000 
#    0.000    0.000    0.000    0.000    0.000    0.000 
#
# Total GULP energy -89130.717165 kJ/mol
# GULP energy per Si atom -5570.669823 kJ/mol
# Density = 1.764630 g / cm^3
# Si number density = 17.686554 Si / 1000 Ang^3
#
#
#
# Elastic Constant Matrix: (Units=GPa)
#
#
# Indices 1 2 3 4 5 6 
#
# 1 24.8858 -7.8318 8.2985 0.0000 6.5310 0.0000
# 2 -7.8318 39.9605 8.8237 0.0000 11.2973 0.0000
# 3 8.2985 8.8237 67.4105 0.0000 9.0538 0.0000
# 4 0.0000 0.0000 0.0000 11.0102 0.0000 3.5181
# 5 6.5310 11.2973 9.0538 0.0000 17.6206 0.0000
# 6 0.0000 0.0000 0.0000 3.5181 0.0000 7.1702
#
#
#
# Elastic Compliance Matrix: (Units=1/GPa)
#
#
# Indices 1 2 3 4 5 6 
#
# 1 0.057262 0.021548 -0.005546 0.000000 -0.032189 0.000000
# 2 0.021548 0.038810 -0.003564 0.000000 -0.031038 0.000000
# 3 -0.005546 -0.003564 0.016542 0.000000 -0.004159 0.000000
# 4 0.000000 0.000000 0.000000 0.107712 0.000000 -0.052849
# 5 -0.032189 -0.031038 -0.004159 0.000000 0.090719 0.000000
# 6 0.000000 0.000000 0.000000 -0.052849 0.000000 0.165397
#
#
# Mechanical properties :
#
#
# Convention : Reuss Voigt Hill
#
# Bulk Modulus (GPa) = 7.27333 16.75974 12.01654
# Shear Modulus (GPa) = 10.05233 15.35795 12.70514
#
# Velocity S-wave (km/s) = 2.38662 2.94996 2.68311
# Velocity P-wave (km/s) = 3.42284 4.59343 4.05064
#
# Compressibility (1/GPa) = 0.13748860
#
# Stress axis : x y z
#
# Youngs Moduli (GPa) = 17.46358 25.76687 60.45088
#
# Poissons Ratio (x) = -0.55522 0.33528
# Poissons Ratio (y) = -0.37630 0.21545
# Poissons Ratio (z) = 0.09686 0.09183
#
# Static dielectric constant tensor:
#      x y z
#    x 1.593680 0.000000 0.004090 
#    y 0.000000 1.597270 0.000000 
#    z 0.004090 0.000000 1.590350 
# 
# From -- ./inp_files/23319.got.cif
#   From: 2010.05.17/outbox.cif.g08.bks.cpg/sg8_12_cif.got.tgz:23319.got - 2010.06.03 19:46:02.
