data_PCOD9132031
_publ_section_title
;
Structure prediction by ZEFSAII (Michael W. Deem and Ramdas Pophale) SiO2 
 PCOD9132031
Probable space group: C M
;
_chemical_formula_sum "Si O2"
_cell_formula_units_Z 32
_cell_length_a 25.304231
_cell_length_b 8.785069
_cell_length_c 24.319875
_cell_angle_alpha 90.000000
_cell_angle_beta 162.128165
_cell_angle_gamma 90.000000
_cell_volume 1659.131095
_symmetry_space_group_name_H-M "C M"
_symmetry_group_IT_number 8
_symmetry_cell_setting 'monoclinic'
loop_
_space_group_symop_operation_xyz
x,y,z
x,-y,z
1/2+x,1/2+y,z
1/2+x,1/2-y,z
loop_
_atom_site_type_symbol
_atom_site_label
_atom_site_fract_x
_atom_site_fract_y
_atom_site_fract_z
Si Si1 0.429380 0.181617 0.668080
Si Si2 0.139843 0.183996 0.573771
Si Si3 0.134665 0.680120 0.688165
Si Si4 0.456372 0.818909 0.065155
Si Si5 0.308926 0.180915 0.039725
Si Si6 0.331509 0.681787 0.460123
Si Si7 0.357084 0.683937 0.201946
Si Si8 0.460614 0.184577 0.822058
O O1 0.628071 0.230469 0.856687
O O2 0.325374 0.260797 0.516683
O O3 0.389405 0.227925 0.691163
O O4 0.412658 0.000000 0.647011
O O5 0.103441 0.255048 0.596601
O O6 0.326428 0.234683 0.735353
O O7 0.994515 0.222981 0.384805
O O8 0.141261 0.000000 0.580312
O O9 0.120780 0.500000 0.674806
O O10 0.322257 0.731437 0.894731
O O11 0.995644 0.748868 0.592532
O O12 0.409600 0.792755 0.082875
O O13 0.437190 0.000000 0.035899
O O14 0.655123 0.776039 0.254764
O O15 0.276706 0.000000 0.012482
O O16 0.396857 0.241395 0.182384
O O17 0.346198 0.500000 0.475085
O O18 0.357841 0.500000 0.196016
O O19 0.160965 0.731106 0.023912
O O20 0.461975 0.000000 0.824612
#
# Coordination Sequence:
#
# PCOD9132031 Si02
#       8
#     4   4   4   4   4   4   4   4
#     4  10  19  34  58  90 125 158 195 247 302 358
#     4  10  21  39  62  83 113 162 206 245 294 360
#     4  12  26  43  62  88 123 161 204 260 309 357
#     4  10  23  41  62  88 120 161 205 248 302 368
#     4  10  19  34  58  87 123 160 195 243 301 360
#     4  11  23  40  62  89 120 161 206 249 304 367
#     4   9  19  35  57  85 117 154 196 243 296 353
#     4   8  17  34  55  84 117 149 193 239 288 351
#
# _framework density 19.287205
#
# number of rings (size 3 to 8) (size 9 to 14) (size 15 to 20)
#    0.000    2.000    1.250    3.000    1.750    3.000 
#    0.000    5.625    0.000    0.000    0.000    0.000 
#    0.000    0.000    0.000    0.000    0.000    0.000 
#
# Total GULP energy -89353.519519 kJ/mol
# GULP energy per Si atom -5584.594970 kJ/mol
# Density = 1.924331 g / cm^3
# Si number density = 19.287205 Si / 1000 Ang^3
#
#
#
# Elastic Constant Matrix: (Units=GPa)
#
#
# Indices 1 2 3 4 5 6 
#
# 1 47.8261 18.0712 8.8597 0.0001 -15.6841 0.0000
# 2 18.0712 38.1234 28.8739 0.0004 -13.2664 0.0002
# 3 8.8597 28.8739 71.1052 0.0014 -20.0660 0.0006
# 4 0.0001 0.0004 0.0014 18.9218 0.0004 -12.3634
# 5 -15.6841 -13.2664 -20.0660 0.0004 26.6508 0.0002
# 6 0.0000 0.0002 0.0006 -12.3634 0.0002 24.6908
#
#
#
# Elastic Compliance Matrix: (Units=1/GPa)
#
#
# Indices 1 2 3 4 5 6 
#
# 1 0.029939 -0.013402 0.006097 -0.000001 0.015538 -0.000001
# 2 -0.013402 0.045760 -0.016139 0.000000 0.002740 0.000000
# 3 0.006097 -0.016139 0.023622 -0.000003 0.013340 -0.000002
# 4 -0.000001 0.000000 -0.000003 0.078548 -0.000004 0.039331
# 5 0.015538 0.002740 0.013340 -0.000004 0.058075 -0.000003
# 6 -0.000001 0.000000 -0.000002 0.039331 -0.000003 0.060195
#
#
# Mechanical properties :
#
#
# Convention : Reuss Voigt Hill
#
# Bulk Modulus (GPa) = 19.07185 29.85160 24.46172
# Shear Modulus (GPa) = 13.86940 20.80268 17.33604
#
# Velocity S-wave (km/s) = 2.68451 3.28773 3.00131
# Velocity P-wave (km/s) = 4.41799 5.47021 4.97201
#
# Compressibility (1/GPa) = 0.05243330
#
# Stress axis : x y z
#
# Youngs Moduli (GPa) = 33.40073 21.85300 42.33330
#
# Poissons Ratio (x) = 0.29288 -0.25810
# Poissons Ratio (y) = 0.44765 0.68321
# Poissons Ratio (z) = -0.20364 0.35268
#
# Static dielectric constant tensor:
#      x y z
#    x 1.658340 0.000000 0.008020 
#    y 0.000000 1.645600 0.000000 
#    z 0.008020 0.000000 1.680460 
# 
# From -- ./inp_files/32450.got.cif
#   From: 2010.05.17/outbox.cif.g08.bks.cpg/sg8_17_cif.got.tgz:32450.got - 2010.06.03 19:46:02.
