data_PCOD9132534
_publ_section_title
;
Structure prediction by ZEFSAII (Michael W. Deem and Ramdas Pophale) SiO2 
 PCOD9132534
Probable space group: C M
;
_chemical_formula_sum "Si O2"
_cell_formula_units_Z 32
_cell_length_a 14.514081
_cell_length_b 8.644978
_cell_length_c 11.309393
_cell_angle_alpha 90.000000
_cell_angle_beta 88.162670
_cell_angle_gamma 90.000000
_cell_volume 1418.304221
_symmetry_space_group_name_H-M "C M"
_symmetry_group_IT_number 8
_symmetry_cell_setting 'monoclinic'
loop_
_space_group_symop_operation_xyz
x,y,z
x,-y,z
1/2+x,1/2+y,z
1/2+x,1/2-y,z
loop_
_atom_site_type_symbol
_atom_site_label
_atom_site_fract_x
_atom_site_fract_y
_atom_site_fract_z
Si Si1 0.682530 0.185380 0.939810
Si Si2 0.538091 0.820202 0.454263
Si Si3 0.893206 0.178972 0.302452
Si Si4 0.205127 0.172890 0.333722
Si Si5 0.182661 0.824881 0.604280
Si Si6 0.005381 0.816580 0.862486
Si Si7 0.524098 0.818279 0.106626
Si Si8 0.831641 0.315026 0.784918
O O1 0.610345 0.258086 0.847067
O O2 0.779165 0.262167 0.906976
O O3 0.686878 0.000000 0.928055
O O4 0.631213 0.219123 0.067220
O O5 0.615853 0.783299 0.348760
O O6 0.589737 0.765061 0.571225
O O7 0.446029 0.732738 0.419261
O O8 0.519292 0.000000 0.459229
O O9 0.798984 0.266891 0.274546
O O10 0.968562 0.214960 0.199338
O O11 0.871064 0.000000 0.311705
O O12 0.978839 0.280803 0.981065
O O13 0.229306 0.162900 0.472732
O O14 0.178692 0.000000 0.295076
O O15 0.261151 0.761184 0.686045
O O16 0.157698 0.000000 0.643293
O O17 0.929708 0.766901 0.771960
O O18 0.004402 0.000000 0.882488
O O19 0.516599 0.000000 0.136023
O O20 0.841195 0.500000 0.778821
#
# Coordination Sequence:
#
# PCOD9132534 Si02
#       8
#     4   4   4   4   4   4   4   4
#     4   9  20  38  57  82 114 144 185 233 273 329
#     4  10  20  37  58  83 114 146 185 231 274 328
#     4  12  22  36  60  85 112 149 184 225 282 332
#     4   9  19  39  58  81 114 145 185 233 274 326
#     4   8  19  38  57  81 114 145 185 233 273 326
#     4  10  20  37  57  83 115 146 185 231 273 327
#     4   9  20  39  58  81 113 145 185 232 274 327
#     4  11  20  36  61  84 112 150 184 226 283 329
#
# _framework density 22.562155000000001
#
# number of rings (size 3 to 8) (size 9 to 14) (size 15 to 20)
#    1.500    0.750    0.000    4.125    0.000    1.000 
#    4.500    0.000    0.000    0.000    0.000    0.000 
#    0.000    0.000    0.000    0.000    0.000    0.000 
#
# Total GULP energy -89139.651315 kJ/mol
# GULP energy per Si atom -5571.228207 kJ/mol
# Density = 2.251080 g / cm^3
# Si number density = 22.562155 Si / 1000 Ang^3
#
#
#
# Elastic Constant Matrix: (Units=GPa)
#
#
# Indices 1 2 3 4 5 6 
#
# 1 88.7027 2.6402 1.2313 0.0000 -1.3997 0.0000
# 2 2.6402 76.8764 -14.1910 0.0000 -0.4404 0.0000
# 3 1.2313 -14.1910 16.3821 0.0000 -1.4917 0.0000
# 4 0.0000 0.0000 0.0000 21.3306 0.0000 3.7679
# 5 -1.3997 -0.4404 -1.4917 0.0000 24.0166 0.0000
# 6 0.0000 0.0000 0.0000 3.7679 0.0000 30.7240
#
#
#
# Elastic Compliance Matrix: (Units=1/GPa)
#
#
# Indices 1 2 3 4 5 6 
#
# 1 0.011320 -0.000635 -0.001349 0.000000 0.000564 0.000000
# 2 -0.000635 0.015550 0.013617 0.000000 0.001094 0.000000
# 3 -0.001349 0.013617 0.073370 0.000000 0.004728 0.000000
# 4 0.000000 0.000000 0.000000 0.047919 0.000000 -0.005877
# 5 0.000564 0.001094 0.004728 0.000000 0.041984 0.000000
# 6 0.000000 0.000000 0.000000 -0.005877 0.000000 0.033269
#
#
# Mechanical properties :
#
#
# Convention : Reuss Voigt Hill
#
# Bulk Modulus (GPa) = 8.09675 17.92470 13.01072
# Shear Modulus (GPa) = 20.71990 28.03294 24.37642
#
# Velocity S-wave (km/s) = 3.03371 3.52870 3.29053
# Velocity P-wave (km/s) = 3.98342 4.95622 4.49621
#
# Compressibility (1/GPa) = 0.12350642
#
# Stress axis : x y z
#
# Youngs Moduli (GPa) = 88.33821 64.31031 13.62956
#
# Poissons Ratio (x) = 0.04081 0.01839
# Poissons Ratio (y) = 0.05606 -0.18560
# Poissons Ratio (z) = 0.11918 -0.87572
#
# Static dielectric constant tensor:
#      x y z
#    x 1.830900 0.000000 0.001290 
#    y 0.000000 1.769100 0.000000 
#    z 0.001290 0.000000 1.970160 
# 
# From -- ./inp_files/21548.got.cif
#   From: 2010.05.17/outbox.cif.g08.bks.cpg/sg8_11_cif.got.tgz:21548.got - 2010.06.03 19:46:02.
