data_PCOD9132537
_publ_section_title
;
Structure prediction by ZEFSAII (Michael W. Deem and Ramdas Pophale) SiO2 
 PCOD9132537
Probable space group: C M
;
_chemical_formula_sum "Si O2"
_cell_formula_units_Z 32
_cell_length_a 14.456217
_cell_length_b 8.731185
_cell_length_c 29.002224
_cell_angle_alpha 90.000000
_cell_angle_beta 152.496254
_cell_angle_gamma 90.000000
_cell_volume 1690.516024
_symmetry_space_group_name_H-M "C M"
_symmetry_group_IT_number 8
_symmetry_cell_setting 'monoclinic'
loop_
_space_group_symop_operation_xyz
x,y,z
x,-y,z
1/2+x,1/2+y,z
1/2+x,1/2-y,z
loop_
_atom_site_type_symbol
_atom_site_label
_atom_site_fract_x
_atom_site_fract_y
_atom_site_fract_z
Si Si1 0.074970 0.316137 0.840940
Si Si2 0.030791 0.181842 0.015085
Si Si3 0.834492 0.323140 0.370213
Si Si4 0.966248 0.182496 0.696103
Si Si5 0.207840 0.820826 0.501864
Si Si6 0.388436 0.683171 0.851272
Si Si7 0.428300 0.678872 0.230004
Si Si8 0.759527 0.178864 0.429624
O O1 0.054141 0.500000 0.832690
O O2 0.311252 0.280449 0.938262
O O3 0.964712 0.250750 0.746935
O O4 0.990655 0.243140 0.850204
O O5 0.019108 0.212700 0.955089
O O6 0.062605 0.000000 0.035345
O O7 0.210621 0.271310 0.118379
O O8 0.884579 0.500000 0.383768
O O9 0.593829 0.302290 0.262007
O O10 0.872424 0.277667 0.440610
O O11 0.971522 0.216252 0.400035
O O12 0.801591 0.254689 0.589897
O O13 0.178639 0.232775 0.767864
O O14 0.948619 0.000000 0.689745
O O15 0.299230 0.734173 0.498439
O O16 0.244111 0.000000 0.513907
O O17 0.353414 0.500000 0.833478
O O18 0.436286 0.500000 0.246867
O O19 0.527782 0.781888 0.313974
O O20 0.799109 0.000000 0.441121
#
# Coordination Sequence:
#
# PCOD9132537 Si02
#       8
#     4   4   4   4   4   4   4   4
#     4  10  21  39  60  87 117 149 189 235 284 340
#     4   9  19  36  58  83 116 152 190 234 284 336
#     4   9  20  38  56  82 114 148 189 235 279 332
#     4  11  23  39  60  85 115 151 188 235 287 339
#     4  12  23  38  60  86 114 151 192 235 284 339
#     4  10  21  39  60  87 117 149 189 236 283 339
#     4   9  19  36  58  83 116 152 190 236 284 333
#     4  10  20  37  58  81 113 150 189 234 281 332
#
# _framework density 18.929131999999999
#
# number of rings (size 3 to 8) (size 9 to 14) (size 15 to 20)
#    0.750    1.250    0.000    5.250    0.000    4.000 
#    2.250    5.000    0.000    0.000    0.000    0.000 
#    0.000    0.000    0.000    0.000    0.000    0.000 
#
# Total GULP energy -89231.201556 kJ/mol
# GULP energy per Si atom -5576.950097 kJ/mol
# Density = 1.888605 g / cm^3
# Si number density = 18.929132 Si / 1000 Ang^3
#
#
#
# Elastic Constant Matrix: (Units=GPa)
#
#
# Indices 1 2 3 4 5 6 
#
# 1 65.1174 -5.6826 -4.8754 0.0001 -14.3026 0.0000
# 2 -5.6826 67.9901 13.1650 0.0001 -1.3279 0.0000
# 3 -4.8754 13.1650 40.8857 -0.0002 -2.7977 0.0000
# 4 0.0001 0.0001 -0.0002 30.3765 0.0000 0.0868
# 5 -14.3026 -1.3279 -2.7977 0.0000 13.3193 0.0000
# 6 0.0000 0.0000 0.0000 0.0868 0.0000 30.3603
#
#
#
# Elastic Compliance Matrix: (Units=1/GPa)
#
#
# Indices 1 2 3 4 5 6 
#
# 1 0.020882 0.001503 0.003602 0.000000 0.023330 0.000000
# 2 0.001503 0.015798 -0.004758 0.000000 0.002190 0.000000
# 3 0.003602 -0.004758 0.027041 0.000000 0.009074 0.000000
# 4 0.000000 0.000000 0.000000 0.032920 0.000000 -0.000094
# 5 0.023330 0.002190 0.009074 0.000000 0.102256 0.000000
# 6 0.000000 0.000000 0.000000 -0.000094 0.000000 0.032938
#
#
# Mechanical properties :
#
#
# Convention : Reuss Voigt Hill
#
# Bulk Modulus (GPa) = 15.52382 19.91191 17.71786
# Shear Modulus (GPa) = 19.79328 26.23696 23.01512
#
# Velocity S-wave (km/s) = 3.23716 3.72702 3.49070
# Velocity P-wave (km/s) = 4.71074 5.39101 5.06232
#
# Compressibility (1/GPa) = 0.06441715
#
# Stress axis : x y z
#
# Youngs Moduli (GPa) = 47.88774 63.30035 36.98107
#
# Poissons Ratio (x) = -0.09517 -0.13322
# Poissons Ratio (y) = -0.07200 0.17594
# Poissons Ratio (z) = -0.17251 0.30116
#
# Static dielectric constant tensor:
#      x y z
#    x 1.658450 0.000000 0.019450 
#    y 0.000000 1.626330 0.000000 
#    z 0.019450 0.000000 1.671780 
# 
# From -- ./inp_files/32870.got.cif
#   From: 2010.05.17/outbox.cif.g08.bks.cpg/sg8_17_cif.got.tgz:32870.got - 2010.06.03 19:46:02.
