data_PCOD9132025
_publ_section_title
;
Structure prediction by ZEFSAII (Michael W. Deem and Ramdas Pophale) SiO2 
 PCOD9132025
Probable space group: C M
;
_chemical_formula_sum "Si O2"
_cell_formula_units_Z 32
_cell_length_a 33.421082
_cell_length_b 8.336431
_cell_length_c 12.794682
_cell_angle_alpha 90.000000
_cell_angle_beta 26.630878
_cell_angle_gamma 90.000000
_cell_volume 1597.870749
_symmetry_space_group_name_H-M "C M"
_symmetry_group_IT_number 8
_symmetry_cell_setting 'monoclinic'
loop_
_space_group_symop_operation_xyz
x,y,z
x,-y,z
1/2+x,1/2+y,z
1/2+x,1/2-y,z
loop_
_atom_site_type_symbol
_atom_site_label
_atom_site_fract_x
_atom_site_fract_y
_atom_site_fract_z
Si Si1 0.255280 0.687540 0.252870
Si Si2 0.498906 0.807437 0.400512
Si Si3 0.370707 0.688676 0.524998
Si Si4 0.559265 0.196662 0.682926
Si Si5 0.754249 0.314303 0.484945
Si Si6 0.682881 0.194528 0.865578
Si Si7 0.445669 0.808760 0.751734
Si Si8 0.949922 0.312459 0.132786
O O1 0.266154 0.500000 0.204863
O O2 0.161037 0.743677 0.427049
O O3 0.247691 0.713141 0.395172
O O4 0.341305 0.776754 0.009137
O O5 0.416089 0.767470 0.519002
O O6 0.482168 0.744739 0.556533
O O7 0.506073 0.000000 0.389569
O O8 0.591561 0.749820 0.132660
O O9 0.363942 0.500000 0.559635
O O10 0.271962 0.747339 0.721010
O O11 0.434540 0.721216 0.276365
O O12 0.496549 0.253845 0.735567
O O13 0.555403 0.000000 0.695515
O O14 0.523454 0.249483 0.879911
O O15 0.735908 0.500000 0.503264
O O16 0.693434 0.255353 0.722493
O O17 0.855989 0.304393 0.289758
O O18 0.684048 0.000000 0.860011
O O19 0.459882 0.000000 0.718272
O O20 0.967459 0.500000 0.116498
#
# Coordination Sequence:
#
# PCOD9132025 Si02
#       8
#     4   4   4   4   4   4   4   4
#     4  11  22  35  57  88 116 147 187 237 289 337
#     4  10  22  39  62  83 109 155 199 232 275 344
#     4  10  21  36  56  86 119 146 183 239 290 331
#     4   9  19  36  58  82 110 151 192 228 277 343
#     4  10  19  34  58  85 116 152 187 232 284 338
#     4   9  20  38  57  83 115 151 191 233 281 336
#     4  10  21  42  62  80 111 153 199 236 276 336
#     4   9  17  34  58  81 112 153 190 225 274 341
#
# _framework density 20.02665
#
# number of rings (size 3 to 8) (size 9 to 14) (size 15 to 20)
#    0.000    2.250    1.250    1.125    1.750    3.000 
#    0.000    4.375    0.000    0.000    0.000    0.000 
#    0.000    0.000    0.000    0.000    0.000    0.000 
#
# Total GULP energy -89333.926649 kJ/mol
# GULP energy per Si atom -5583.370416 kJ/mol
# Density = 1.998107 g / cm^3
# Si number density = 20.026650 Si / 1000 Ang^3
#
#
#
# Elastic Constant Matrix: (Units=GPa)
#
#
# Indices 1 2 3 4 5 6 
#
# 1 30.4201 -4.6433 18.7061 0.0000 8.1970 0.0000
# 2 -4.6433 3.2520 -4.8838 0.0000 -2.4514 0.0000
# 3 18.7061 -4.8838 92.4301 0.0000 9.0451 0.0000
# 4 0.0000 0.0000 0.0000 22.2137 0.0000 -2.7164
# 5 8.1970 -2.4514 9.0451 0.0000 23.4616 0.0000
# 6 0.0000 0.0000 0.0000 -2.7164 0.0000 19.9805
#
#
#
# Elastic Compliance Matrix: (Units=1/GPa)
#
#
# Indices 1 2 3 4 5 6 
#
# 1 0.046650 0.051230 -0.005885 0.000000 -0.008677 0.000000
# 2 0.051230 0.410693 0.009233 0.000000 0.021454 0.000000
# 3 -0.005885 0.009233 0.012681 0.000000 -0.001868 0.000000
# 4 0.000000 0.000000 0.000000 0.045778 0.000000 0.006224
# 5 -0.008677 0.021454 -0.001868 0.000000 0.048616 0.000000
# 6 0.000000 0.000000 0.000000 0.006224 0.000000 0.050895
#
#
# Mechanical properties :
#
#
# Convention : Reuss Voigt Hill
#
# Bulk Modulus (GPa) = 1.72659 16.05113 8.88886
# Shear Modulus (GPa) = 7.15085 20.92603 14.03844
#
# Velocity S-wave (km/s) = 1.89167 3.23601 2.65049
# Velocity P-wave (km/s) = 2.37387 4.68985 3.71685
#
# Compressibility (1/GPa) = 0.57917761
#
# Stress axis : x y z
#
# Youngs Moduli (GPa) = 21.43644 2.43491 78.86044
#
# Poissons Ratio (x) = -0.12474 0.46410
# Poissons Ratio (y) = -1.09818 -0.72810
# Poissons Ratio (z) = 0.12615 -0.02248
#
# Static dielectric constant tensor:
#      x y z
#    x 1.696320 0.000000 -0.014000 
#    y 0.000000 1.701390 0.000000 
#    z -0.014000 0.000000 1.705850 
# 
# From -- ./inp_files/24777.got.cif
#   From: 2010.05.17/outbox.cif.g08.bks.cpg/sg8_13_cif.got.tgz:24777.got - 2010.06.03 19:46:02.
