data_PCOD9132735
_publ_section_title
;
Structure prediction by ZEFSAII (Michael W. Deem and Ramdas Pophale) SiO2 
 PCOD9132735
Probable space group: C M
;
_chemical_formula_sum "Si O2"
_cell_formula_units_Z 32
_cell_length_a 14.901991
_cell_length_b 17.822721
_cell_length_c 12.286840
_cell_angle_alpha 90.000000
_cell_angle_beta 152.522301
_cell_angle_gamma 90.000000
_cell_volume 1505.702715
_symmetry_space_group_name_H-M "C M"
_symmetry_group_IT_number 8
_symmetry_cell_setting 'monoclinic'
loop_
_space_group_symop_operation_xyz
x,y,z
x,-y,z
1/2+x,1/2+y,z
1/2+x,1/2-y,z
loop_
_atom_site_type_symbol
_atom_site_label
_atom_site_fract_x
_atom_site_fract_y
_atom_site_fract_z
Si Si1 0.958120 0.760915 0.140370
Si Si2 0.976098 0.086425 0.571632
Si Si3 0.807097 0.654674 0.802704
Si Si4 0.155381 0.822471 0.964840
Si Si5 0.259064 0.715749 0.618988
Si Si6 0.762483 0.913196 0.919313
Si Si7 0.647111 0.088717 0.046976
Si Si8 0.506592 0.087434 0.437697
O O1 0.171948 0.753615 0.418350
O O2 0.938202 0.692539 0.035556
O O3 0.796964 0.737483 0.058650
O O4 0.906224 0.844366 0.044796
O O5 0.168301 0.092836 0.703458
O O6 0.032125 0.135097 0.737531
O O7 0.803481 0.114282 0.306543
O O8 0.939460 0.000000 0.563074
O O9 0.686518 0.727136 0.633760
O O10 0.939933 0.624647 0.849659
O O11 0.990449 0.788681 0.864541
O O12 0.298217 0.877756 0.183770
O O13 0.162322 0.635480 0.535664
O O14 0.578390 0.905427 0.639966
O O15 0.833556 0.000000 0.981739
O O16 0.712925 0.902702 0.993211
O O17 0.628771 0.000000 0.045096
O O18 0.510414 0.000000 0.412859
#
# Coordination Sequence:
#
# PCOD9132735 Si02
#       8
#     4   4   4   4   4   4   4   4
#     4  10  21  39  60  89 122 156 203 254 310 356
#     4  10  21  38  61  87 119 157 200 254 308 358
#     4  11  21  37  58  87 118 154 196 249 301 363
#     4  10  22  39  62  92 121 161 204 255 308 365
#     4  11  22  39  61  90 121 159 205 254 302 363
#     4  10  20  40  64  88 126 168 204 249 303 368
#     4  10  21  37  59  88 119 157 203 252 305 360
#     4  10  22  41  63  89 126 166 205 251 303 365
#
# _framework density 21.252535000000002
#
# number of rings (size 3 to 8) (size 9 to 14) (size 15 to 20)
#    0.000    1.750    1.250    3.000    0.000    2.000 
#    4.500    3.750    0.000    5.250    0.000    0.000 
#    0.000    0.000    0.000    0.000    0.000    0.000 
#
# Total GULP energy -89253.475450 kJ/mol
# GULP energy per Si atom -5578.342216 kJ/mol
# Density = 2.120416 g / cm^3
# Si number density = 21.252535 Si / 1000 Ang^3
#
#
#
# Elastic Constant Matrix: (Units=GPa)
#
#
# Indices 1 2 3 4 5 6 
#
# 1 32.1462 15.0824 10.0472 0.0000 6.0030 0.0000
# 2 15.0824 90.3249 29.7299 0.0000 -2.2993 0.0000
# 3 10.0472 29.7299 86.6015 0.0000 -12.1050 0.0000
# 4 0.0000 0.0000 0.0000 30.6611 0.0000 -2.2284
# 5 6.0030 -2.2993 -12.1050 0.0000 24.8874 0.0000
# 6 0.0000 0.0000 0.0000 -2.2284 0.0000 16.8151
#
#
#
# Elastic Compliance Matrix: (Units=1/GPa)
#
#
# Indices 1 2 3 4 5 6 
#
# 1 0.036913 -0.005096 -0.004124 0.000000 -0.011380 0.000000
# 2 -0.005096 0.013208 -0.003863 0.000000 0.000570 0.000000
# 3 -0.004124 -0.003863 0.014421 0.000000 0.007652 0.000000
# 4 0.000000 0.000000 0.000000 0.032932 0.000000 0.004364
# 5 -0.011380 0.000570 0.007652 0.000000 0.046700 0.000000
# 6 0.000000 0.000000 0.000000 0.004364 0.000000 0.060049
#
#
# Mechanical properties :
#
#
# Convention : Reuss Voigt Hill
#
# Bulk Modulus (GPa) = 26.05784 35.42129 30.73956
# Shear Modulus (GPa) = 20.56076 24.75361 22.65719
#
# Velocity S-wave (km/s) = 3.11376 3.41653 3.26865
# Velocity P-wave (km/s) = 5.02145 5.68037 5.36104
#
# Compressibility (1/GPa) = 0.03837617
#
# Stress axis : x y z
#
# Youngs Moduli (GPa) = 27.09085 75.71050 69.34122
#
# Poissons Ratio (x) = 0.38583 0.28594
# Poissons Ratio (y) = 0.13806 0.26789
# Poissons Ratio (z) = 0.11171 0.29250
#
# Static dielectric constant tensor:
#      x y z
#    x 1.811950 0.000000 -0.110980 
#    y 0.000000 1.747190 0.000000 
#    z -0.110980 0.000000 1.907830 
# 
# From -- ./inp_files/22387.got.cif
#   From: 2010.05.17/outbox.cif.g08.bks.cpg/sg8_12_cif.got.tgz:22387.got - 2010.06.03 19:46:02.
