data_PCOD9132157
_publ_section_title
;
Structure prediction by ZEFSAII (Michael W. Deem and Ramdas Pophale) SiO2 
 PCOD9132157
Probable space group: C M
;
_chemical_formula_sum "Si O2"
_cell_formula_units_Z 32
_cell_length_a 24.297658
_cell_length_b 8.640965
_cell_length_c 25.307696
_cell_angle_alpha 90.000000
_cell_angle_beta 161.800139
_cell_angle_gamma 90.000000
_cell_volume 1659.573937
_symmetry_space_group_name_H-M "C M"
_symmetry_group_IT_number 8
_symmetry_cell_setting 'monoclinic'
loop_
_space_group_symop_operation_xyz
x,y,z
x,-y,z
1/2+x,1/2+y,z
1/2+x,1/2-y,z
loop_
_atom_site_type_symbol
_atom_site_label
_atom_site_fract_x
_atom_site_fract_y
_atom_site_fract_z
Si Si1 0.852840 0.313275 0.012120
Si Si2 0.756683 0.686665 0.540942
Si Si3 0.382014 0.186951 0.160289
Si Si4 0.986171 0.685364 0.651330
Si Si5 0.644768 0.686564 0.041245
Si Si6 0.777271 0.685358 0.681122
Si Si7 0.245752 0.314177 0.337982
Si Si8 0.401308 0.814354 0.371383
O O1 0.841465 0.500000 0.000103
O O2 0.846473 0.263730 0.067870
O O3 0.042495 0.267291 0.162007
O O4 0.685830 0.243357 0.830140
O O5 0.750095 0.500000 0.534831
O O6 0.569506 0.749951 0.350601
O O7 0.904120 0.735181 0.633091
O O8 0.790310 0.737938 0.631609
O O9 0.234030 0.236215 0.067284
O O10 0.390143 0.000000 0.168414
O O11 0.981138 0.500000 0.643845
O O12 0.863712 0.753891 0.493945
O O13 0.632337 0.500000 0.029907
O O14 0.775787 0.732628 0.207958
O O15 0.451179 0.756309 0.869211
O O16 0.771428 0.500000 0.676886
O O17 0.596806 0.750567 0.540092
O O18 0.252541 0.500000 0.343486
O O19 0.320631 0.248195 0.351922
O O20 0.407897 0.000000 0.378595
#
# Coordination Sequence:
#
# PCOD9132157 Si02
#       8
#     4   4   4   4   4   4   4   4
#     4  10  22  39  62  91 122 159 202 249 302 359
#     4  10  21  36  58  91 127 161 197 243 301 362
#     4  10  19  36  62  91 121 159 201 247 301 358
#     4  11  23  39  62  92 126 163 201 245 302 361
#     4  10  22  39  62  91 122 159 202 249 302 359
#     4  11  23  39  62  92 126 163 201 245 302 361
#     4  11  24  43  65  88 119 158 206 256 304 357
#     4  11  24  43  65  88 119 158 206 256 304 357
#
# _framework density 19.282056000000001
#
# number of rings (size 3 to 8) (size 9 to 14) (size 15 to 20)
#    0.000    1.500    2.500    2.250    0.000    5.000 
#    0.000    2.500    0.000    0.000    0.000    0.000 
#    0.000    0.000    0.000    0.000    0.000    0.000 
#
# Total GULP energy -89447.025420 kJ/mol
# GULP energy per Si atom -5590.439089 kJ/mol
# Density = 1.923817 g / cm^3
# Si number density = 19.282056 Si / 1000 Ang^3
#
#
#
# Elastic Constant Matrix: (Units=GPa)
#
#
# Indices 1 2 3 4 5 6 
#
# 1 139.2503 32.4565 60.5060 0.0013 29.7625 0.0005
# 2 32.4565 26.6370 34.0972 0.0034 11.3820 0.0013
# 3 60.5060 34.0972 152.0523 0.0034 44.7730 0.0010
# 4 0.0013 0.0034 0.0034 27.2177 -0.0018 1.4307
# 5 29.7625 11.3820 44.7730 -0.0018 13.6892 -0.0012
# 6 0.0005 0.0013 0.0010 1.4307 -0.0012 13.9125
#
#
#
# Elastic Compliance Matrix: (Units=1/GPa)
#
#
# Indices 1 2 3 4 5 6 
#
# 1 -0.005624 -0.004674 -0.039504 0.000014 0.145318 0.000015
# 2 -0.004674 0.060929 0.003294 -0.000011 -0.051270 -0.000009
# 3 -0.039504 0.003294 -0.079248 0.000032 0.342344 0.000034
# 4 0.000014 -0.000011 0.000032 0.036941 -0.000122 -0.003799
# 5 0.145318 -0.051270 0.342344 -0.000122 -1.319963 -0.000130
# 6 0.000015 -0.000009 0.000034 -0.003799 -0.000130 0.072268
#
#
# Mechanical properties :
#
#
# Convention : Reuss Voigt Hill
#
# Bulk Modulus (GPa) = -9.45969 63.56211 27.05121
# Shear Modulus (GPa) = -4.20817 23.68920 9.74052
#
# Velocity S-wave (km/s) = -1.47891 3.50889 2.25001
# Velocity P-wave (km/s) = 2.79872 7.03224 4.56177
#
# Compressibility (1/GPa) = -0.10571171
#
# Stress axis : x y z
#
# Youngs Moduli (GPa) = -177.82344 16.41262 -12.61859
#
# Poissons Ratio (x) = 0.07672 -0.49849
# Poissons Ratio (y) = -0.83121 0.04157
# Poissons Ratio (z) = -7.02474 -0.05406
#
# Static dielectric constant tensor:
#      x y z
#    x 1.668540 0.000000 -0.002920 
#    y 0.000000 1.653340 0.000000 
#    z -0.002920 0.000000 1.638040 
# 
# From -- ./inp_files/32413.got.cif
#   From: 2010.05.17/outbox.cif.g08.bks.cpg/sg8_17_cif.got.tgz:32413.got - 2010.06.03 19:46:02.
