data_PCOD9132852
_publ_section_title
;
Structure prediction by ZEFSAII (Michael W. Deem and Ramdas Pophale) SiO2 
 PCOD9132852
Probable space group: C M
;
_chemical_formula_sum "Si O2"
_cell_formula_units_Z 20
_cell_length_a 9.508204
_cell_length_b 19.287615
_cell_length_c 5.641381
_cell_angle_alpha 90.000000
_cell_angle_beta 104.388247
_cell_angle_gamma 90.000000
_cell_volume 1002.125768
_symmetry_space_group_name_H-M "C M"
_symmetry_group_IT_number 8
_symmetry_cell_setting 'monoclinic'
loop_
_space_group_symop_operation_xyz
x,y,z
x,-y,z
1/2+x,1/2+y,z
1/2+x,1/2-y,z
loop_
_atom_site_type_symbol
_atom_site_label
_atom_site_fract_x
_atom_site_fract_y
_atom_site_fract_z
Si Si1 0.320010 0.763300 0.228990
Si Si2 0.682072 0.000000 0.315653
Si Si3 0.505027 0.000000 0.746384
Si Si4 0.514938 0.711123 0.933469
Si Si5 0.981347 0.353153 0.657594
Si Si6 0.282539 0.359245 0.546675
O O1 0.436260 0.712733 0.153349
O O2 0.187478 0.791089 0.016693
O O3 0.402375 0.826559 0.387965
O O4 0.471160 0.787855 0.824498
O O5 0.575265 0.000000 0.505933
O O6 0.771329 0.928785 0.387954
O O7 0.607075 0.000000 0.025258
O O8 0.422893 0.926544 0.722057
O O9 0.747906 0.789007 0.388342
O O10 0.653231 0.864026 0.684537
O O11 0.935798 0.155194 0.736238
#
# Coordination Sequence:
#
# PCOD9132852 Si02
#       6
#     4   2   2   4   4   4
#     4  11  21  36  60  87 124 157 204 253 305 362
#     4  10  22  38  63  91 123 161 208 255 300 365
#     4  10  22  38  63  91 123 161 208 255 300 365
#     4  11  21  36  60  87 124 157 204 253 305 362
#     4  10  21  36  59  91 118 160 207 253 304 361
#     4  10  21  36  59  91 118 160 207 253 304 361
#
# _framework density 19.957574000000001
#
# number of rings (size 3 to 8) (size 9 to 14) (size 15 to 20)
#    0.000    1.600    4.000    1.200    5.600    0.000 
#    0.000    1.000    0.000    2.400    0.000    0.000 
#    0.000    0.000    0.000    0.000    0.000    0.000 
#
# Total GULP energy -55703.964307 kJ/mol
# GULP energy per Si atom -5570.396431 kJ/mol
# Density = 1.991215 g / cm^3
# Si number density = 19.957574 Si / 1000 Ang^3
#
#
#
# Elastic Constant Matrix: (Units=GPa)
#
#
# Indices 1 2 3 4 5 6 
#
# 1 59.2307 2.3215 11.5705 0.0000 19.6772 0.0000
# 2 2.3215 104.9756 27.9721 0.0000 24.8404 0.0000
# 3 11.5705 27.9721 75.8044 0.0000 21.9138 0.0000
# 4 0.0000 0.0000 0.0000 27.3809 0.0000 8.7764
# 5 19.6772 24.8404 21.9138 0.0000 34.8016 0.0000
# 6 0.0000 0.0000 0.0000 8.7764 0.0000 22.5163
#
#
#
# Elastic Compliance Matrix: (Units=1/GPa)
#
#
# Indices 1 2 3 4 5 6 
#
# 1 0.021497 0.002931 -0.000299 0.000000 -0.014059 0.000000
# 2 0.002931 0.012193 -0.002386 0.000000 -0.008858 0.000000
# 3 -0.000299 -0.002386 0.016598 0.000000 -0.008580 0.000000
# 4 0.000000 0.000000 0.000000 0.041736 0.000000 -0.016268
# 5 -0.014059 -0.008858 -0.008580 0.000000 0.048408 0.000000
# 6 0.000000 0.000000 0.000000 -0.016268 0.000000 0.050753
#
#
# Mechanical properties :
#
#
# Convention : Reuss Voigt Hill
#
# Bulk Modulus (GPa) = 19.69258 35.97100 27.83179
# Shear Modulus (GPa) = 24.08250 30.14953 27.11601
#
# Velocity S-wave (km/s) = 3.47751 3.89096 3.69003
# Velocity P-wave (km/s) = 5.10026 6.18458 5.66841
#
# Compressibility (1/GPa) = 0.05078056
#
# Stress axis : x y z
#
# Youngs Moduli (GPa) = 46.51810 82.01424 60.24801
#
# Poissons Ratio (x) = -0.24037 0.01799
# Poissons Ratio (y) = -0.13634 0.14375
# Poissons Ratio (z) = 0.01389 0.19568
#
# Static dielectric constant tensor:
#      x y z
#    x 1.696480 0.000000 -0.032540 
#    y 0.000000 1.715770 0.000000 
#    z -0.032540 0.000000 1.788390 
# 
# From -- ./inp_files/2457.got.cif
#   From: 2010.05.17/outbox.cif.g08.bks.cpg/sg8_2_cif.got.tgz:2457.got - 2010.06.03 19:46:02.
