data_PCOD9132026
_publ_section_title
;
Structure prediction by ZEFSAII (Michael W. Deem and Ramdas Pophale) SiO2 
 PCOD9132026
Probable space group: C M
;
_chemical_formula_sum "Si O2"
_cell_formula_units_Z 32
_cell_length_a 20.909009
_cell_length_b 8.645494
_cell_length_c 20.685748
_cell_angle_alpha 90.000000
_cell_angle_beta 28.664984
_cell_angle_gamma 90.000000
_cell_volume 1793.712166
_symmetry_space_group_name_H-M "C M"
_symmetry_group_IT_number 8
_symmetry_cell_setting 'monoclinic'
loop_
_space_group_symop_operation_xyz
x,y,z
x,-y,z
1/2+x,1/2+y,z
1/2+x,1/2-y,z
loop_
_atom_site_type_symbol
_atom_site_label
_atom_site_fract_x
_atom_site_fract_y
_atom_site_fract_z
Si Si1 0.625000 0.814290 0.901570
Si Si2 0.065137 0.187330 0.481438
Si Si3 0.682284 0.816049 0.180303
Si Si4 0.823732 0.686565 0.181774
Si Si5 0.641313 0.316515 0.743217
Si Si6 0.881387 0.316486 0.903242
Si Si7 0.424191 0.685523 0.471740
Si Si8 0.381043 0.312873 0.760027
O O1 0.643966 0.733504 0.815890
O O2 0.742258 0.775510 0.847082
O O3 0.631511 0.000000 0.884654
O O4 0.477275 0.776084 0.058192
O O5 0.216490 0.234220 0.331188
O O6 0.977714 0.231667 0.496064
O O7 0.997634 0.239765 0.607433
O O8 0.062095 0.000000 0.485941
O O9 0.774892 0.760996 0.158097
O O10 0.537986 0.741745 0.321720
O O11 0.671336 0.000000 0.190652
O O12 0.755328 0.759521 0.051125
O O13 0.813321 0.500000 0.183433
O O14 0.629130 0.500000 0.748683
O O15 0.514503 0.238727 0.821956
O O16 0.780102 0.259218 0.589517
O O17 0.870498 0.500000 0.917998
O O18 0.888967 0.263146 0.822615
O O19 0.414637 0.500000 0.478870
O O20 0.388211 0.500000 0.760639
#
# Coordination Sequence:
#
# PCOD9132026 Si02
#       8
#     4   4   4   4   4   4   4   4
#     4  10  19  34  58  85 116 152 192 236 290 350
#     4   8  15  30  54  82 112 147 186 227 279 342
#     4  11  21  35  56  87 118 150 191 244 295 342
#     4   9  17  31  55  85 114 150 190 230 282 348
#     4  12  23  36  58  89 119 149 195 251 292 338
#     4  12  25  41  58  80 115 162 203 243 296 351
#     4  10  19  36  60  87 117 153 190 234 290 352
#     4  10  20  37  57  81 115 155 195 239 290 349
#
# _framework density 17.840098000000001
#
# number of rings (size 3 to 8) (size 9 to 14) (size 15 to 20)
#    0.000    1.750    2.500    4.500    0.000    0.500 
#    0.000    1.875    0.000    3.000    0.000    0.000 
#    0.000    0.000    0.000    0.000    0.000    0.000 
#
# Total GULP energy -89337.358296 kJ/mol
# GULP energy per Si atom -5583.584894 kJ/mol
# Density = 1.779949 g / cm^3
# Si number density = 17.840098 Si / 1000 Ang^3
#
#
#
# Elastic Constant Matrix: (Units=GPa)
#
#
# Indices 1 2 3 4 5 6 
#
# 1 56.4714 17.5026 30.8923 0.0000 9.2893 0.0000
# 2 17.5026 43.8314 17.5121 0.0001 -0.6897 0.0000
# 3 30.8923 17.5121 124.7581 0.0000 10.8558 0.0000
# 4 0.0000 0.0001 0.0000 21.8325 0.0000 6.8220
# 5 9.2893 -0.6897 10.8558 0.0000 26.2538 0.0000
# 6 0.0000 0.0000 0.0000 6.8220 0.0000 22.7562
#
#
#
# Elastic Compliance Matrix: (Units=1/GPa)
#
#
# Indices 1 2 3 4 5 6 
#
# 1 0.023522 -0.007850 -0.004129 0.000000 -0.006822 0.000000
# 2 -0.007850 0.026904 -0.002215 0.000000 0.004401 0.000000
# 3 -0.004129 -0.002215 0.009571 0.000000 -0.002555 0.000000
# 4 0.000000 0.000000 0.000000 0.050537 0.000000 -0.015151
# 5 -0.006822 0.004401 -0.002555 0.000000 0.041675 0.000000
# 6 0.000000 0.000000 0.000000 -0.015151 0.000000 0.048486
#
#
# Mechanical properties :
#
#
# Convention : Reuss Voigt Hill
#
# Bulk Modulus (GPa) = 31.63808 39.65276 35.64542
# Shear Modulus (GPa) = 20.86624 24.77877 22.82251
#
# Velocity S-wave (km/s) = 3.42369 3.73089 3.58058
# Velocity P-wave (km/s) = 5.77941 6.39018 6.09245
#
# Compressibility (1/GPa) = 0.03160748
#
# Stress axis : x y z
#
# Youngs Moduli (GPa) = 42.51327 37.16935 104.48006
#
# Poissons Ratio (x) = 0.29180 0.43139
# Poissons Ratio (y) = 0.33375 0.23147
# Poissons Ratio (z) = 0.17553 0.08235
#
# Static dielectric constant tensor:
#      x y z
#    x 1.570690 0.000000 -0.003990 
#    y 0.000000 1.601370 0.000000 
#    z -0.003990 0.000000 1.632960 
# 
# From -- ./inp_files/31324.got.cif
#   From: 2010.05.17/outbox.cif.g08.bks.cpg/sg8_16_cif.got.tgz:31324.got - 2010.06.03 19:46:02.
