data_PCOD9132483
_publ_section_title
;
Structure prediction by ZEFSAII (Michael W. Deem and Ramdas Pophale) SiO2 
 PCOD9132483
Probable space group: C M
;
_chemical_formula_sum "Si O2"
_cell_formula_units_Z 32
_cell_length_a 22.666484
_cell_length_b 8.754359
_cell_length_c 28.065685
_cell_angle_alpha 90.000000
_cell_angle_beta 17.988890
_cell_angle_gamma 90.000000
_cell_volume 1719.916078
_symmetry_space_group_name_H-M "C M"
_symmetry_group_IT_number 8
_symmetry_cell_setting 'monoclinic'
loop_
_space_group_symop_operation_xyz
x,y,z
x,-y,z
1/2+x,1/2+y,z
1/2+x,1/2-y,z
loop_
_atom_site_type_symbol
_atom_site_label
_atom_site_fract_x
_atom_site_fract_y
_atom_site_fract_z
Si Si1 0.201830 0.317706 0.023740
Si Si2 0.921600 0.316475 0.415520
Si Si3 0.914893 0.818051 0.573576
Si Si4 0.457344 0.183964 0.644148
Si Si5 0.215482 0.683092 0.272078
Si Si6 0.647482 0.684705 0.960384
Si Si7 0.392462 0.683733 0.333601
Si Si8 0.115387 0.316529 0.721580
O O1 0.199076 0.500000 0.027866
O O2 0.173056 0.260449 0.991945
O O3 0.036089 0.250085 0.184269
O O4 0.406552 0.254739 0.883495
O O5 0.908035 0.500000 0.423514
O O6 0.942026 0.246975 0.347682
O O7 0.734621 0.249258 0.585334
O O8 0.099614 0.275487 0.313276
O O9 0.897808 0.747843 0.638750
O O10 0.739728 0.777503 0.672939
O O11 0.104701 0.757898 0.401346
O O12 0.923603 0.000000 0.570195
O O13 0.674581 0.229389 0.488910
O O14 0.451817 0.000000 0.646255
O O15 0.312609 0.232313 0.796922
O O16 0.200978 0.500000 0.288597
O O17 0.437808 0.723436 0.101227
O O18 0.657354 0.500000 0.958425
O O19 0.403260 0.500000 0.325225
O O20 0.103825 0.500000 0.726298
#
# Coordination Sequence:
#
# PCOD9132483 Si02
#       8
#     4   4   4   4   4   4   4   4
#     4  12  25  39  58  85 113 146 190 244 292 335
#     4  10  20  36  59  89 119 150 191 237 279 328
#     4  10  21  36  58  86 115 147 187 232 277 329
#     4  10  22  38  58  82 112 151 191 230 279 337
#     4   9  19  36  59  85 116 152 187 225 278 337
#     4  10  21  39  60  83 113 150 189 231 281 344
#     4  11  23  39  58  82 115 157 195 232 283 343
#     4  10  21  39  60  84 115 153 190 229 285 349
#
# _framework density 18.605560000000001
#
# number of rings (size 3 to 8) (size 9 to 14) (size 15 to 20)
#    0.000    1.750    0.000    4.125    0.000    9.000 
#    0.000    1.250    0.000    0.000    0.000    0.000 
#    0.000    0.000    0.000    0.000    0.000    0.000 
#
# Total GULP energy -89430.717749 kJ/mol
# GULP energy per Si atom -5589.419859 kJ/mol
# Density = 1.856321 g / cm^3
# Si number density = 18.605560 Si / 1000 Ang^3
#
#
#
# Elastic Constant Matrix: (Units=GPa)
#
#
# Indices 1 2 3 4 5 6 
#
# 1 141.2468 48.9090 96.7336 0.0034 30.5685 0.0052
# 2 48.9090 52.8052 59.3884 -0.0032 5.2843 0.0057
# 3 96.7336 59.3884 192.0810 -0.0624 10.3120 -0.0133
# 4 0.0034 -0.0032 -0.0624 21.1525 -0.0011 -0.2885
# 5 30.5685 5.2843 10.3120 -0.0011 28.0794 -0.0040
# 6 0.0052 0.0057 -0.0133 -0.2885 -0.0040 32.2587
#
#
#
# Elastic Compliance Matrix: (Units=1/GPa)
#
#
# Indices 1 2 3 4 5 6 
#
# 1 0.016491 -0.008210 -0.004984 -0.000019 -0.014577 -0.000005
# 2 -0.008210 0.033256 -0.006418 -0.000012 0.005036 -0.000007
# 3 -0.004984 -0.006418 0.009532 0.000028 0.003133 0.000007
# 4 -0.000019 -0.000012 0.000028 0.047282 0.000015 0.000423
# 5 -0.014577 0.005036 0.003133 0.000015 0.049384 0.000009
# 6 -0.000005 -0.000007 0.000007 0.000423 0.000009 0.031003
#
#
# Mechanical properties :
#
#
# Convention : Reuss Voigt Hill
#
# Bulk Modulus (GPa) = 49.86256 88.46609 69.16433
# Shear Modulus (GPa) = 21.47248 28.37160 24.92204
#
# Velocity S-wave (km/s) = 3.40088 3.90923 3.66388
# Velocity P-wave (km/s) = 6.50225 8.24788 7.42653
#
# Compressibility (1/GPa) = 0.02005513
#
# Stress axis : x y z
#
# Youngs Moduli (GPa) = 60.64050 30.06996 104.90762
#
# Poissons Ratio (x) = 0.24687 0.52285
# Poissons Ratio (y) = 0.49785 0.67329
# Poissons Ratio (z) = 0.30222 0.19299
#
# Static dielectric constant tensor:
#      x y z
#    x 1.619290 0.000000 -0.019930 
#    y 0.000000 1.623650 0.000010 
#    z -0.019930 0.000010 1.621570 
# 
# From -- ./inp_files/33051.got.cif
#   From: 2010.05.17/outbox.cif.g08.bks.cpg/sg8_17_cif.got.tgz:33051.got - 2010.06.03 19:46:02.
