data_PCOD9132057
_publ_section_title
;
Structure prediction by ZEFSAII (Michael W. Deem and Ramdas Pophale) SiO2 
 PCOD9132057
Probable space group: C M
;
_chemical_formula_sum "Si O2"
_cell_formula_units_Z 32
_cell_length_a 28.967768
_cell_length_b 8.667883
_cell_length_c 16.408480
_cell_angle_alpha 90.000000
_cell_angle_beta 26.329520
_cell_angle_gamma 90.000000
_cell_volume 1827.352722
_symmetry_space_group_name_H-M "C M"
_symmetry_group_IT_number 8
_symmetry_cell_setting 'monoclinic'
loop_
_space_group_symop_operation_xyz
x,y,z
x,-y,z
1/2+x,1/2+y,z
1/2+x,1/2-y,z
loop_
_atom_site_type_symbol
_atom_site_label
_atom_site_fract_x
_atom_site_fract_y
_atom_site_fract_z
Si Si1 0.604420 0.314282 0.427980
Si Si2 0.290326 0.684427 0.702779
Si Si3 0.062094 0.313822 0.001463
Si Si4 0.041242 0.685155 0.699357
Si Si5 0.860495 0.313898 0.423239
Si Si6 0.886301 0.685197 0.715543
Si Si7 0.132060 0.184462 0.722139
Si Si8 0.812401 0.687104 0.008354
O O1 0.602105 0.500000 0.431986
O O2 0.598692 0.254003 0.529529
O O3 0.501919 0.251974 0.544811
O O4 0.708849 0.259660 0.217397
O O5 0.296014 0.500000 0.698652
O O6 0.354062 0.741994 0.523171
O O7 0.333614 0.756267 0.716857
O O8 0.169859 0.728460 0.876282
O O9 0.060056 0.500000 0.996735
O O10 0.961261 0.265889 0.212368
O O11 0.068480 0.242122 0.901543
O O12 0.045411 0.500000 0.688456
O O13 0.089715 0.742627 0.706521
O O14 0.919935 0.733234 0.882078
O O15 0.862678 0.500000 0.427770
O O16 0.752646 0.272080 0.548591
O O17 0.892271 0.500000 0.705620
O O18 0.822805 0.733641 0.897326
O O19 0.126351 0.000000 0.725883
O O20 0.809924 0.500000 0.013349
#
# Coordination Sequence:
#
# PCOD9132057 Si02
#       8
#     4   4   4   4   4   4   4   4
#     4  10  19  35  56  78 102 130 171 217 255 296
#     4  10  20  34  53  78 104 132 171 216 256 296
#     4   9  19  36  55  75 102 136 173 213 256 302
#     4  10  20  36  54  75 105 139 171 206 255 308
#     4   9  19  36  55  75 103 138 172 209 257 308
#     4  10  20  36  54  75 105 139 170 203 254 312
#     4  10  20  34  53  78 105 135 172 212 255 302
#     4   8  18  35  54  74 100 135 170 206 252 304
#
# _framework density 17.511669999999999
#
# number of rings (size 3 to 8) (size 9 to 14) (size 15 to 20)
#    0.000    2.500    0.000    2.625    0.000    3.500 
#    0.000   15.000    0.000    0.000    0.000    0.000 
#    0.000    0.000    0.000    0.000    0.000    0.000 
#
# Total GULP energy -89271.018025 kJ/mol
# GULP energy per Si atom -5579.438627 kJ/mol
# Density = 1.747181 g / cm^3
# Si number density = 17.511670 Si / 1000 Ang^3
#
#
#
# Elastic Constant Matrix: (Units=GPa)
#
#
# Indices 1 2 3 4 5 6 
#
# 1 176.0504 49.5356 92.1054 0.0000 19.2316 0.0000
# 2 49.5356 43.3890 43.0107 0.0000 5.8646 0.0000
# 3 92.1054 43.0107 186.3857 0.0000 14.6091 0.0000
# 4 0.0000 0.0000 0.0000 24.9253 0.0000 4.5715
# 5 19.2316 5.8646 14.6091 0.0000 8.3075 0.0000
# 6 0.0000 0.0000 0.0000 4.5715 0.0000 34.0756
#
#
#
# Elastic Compliance Matrix: (Units=1/GPa)
#
#
# Indices 1 2 3 4 5 6 
#
# 1 0.010803 -0.007987 -0.002293 0.000000 -0.015337 0.000000
# 2 -0.007987 0.036584 -0.004547 0.000000 0.000659 0.000000
# 3 -0.002293 -0.004547 0.007980 0.000000 -0.005515 0.000000
# 4 0.000000 0.000000 0.000000 0.041132 0.000000 -0.005518
# 5 -0.015337 0.000659 -0.005515 0.000000 0.165110 0.000000
# 6 0.000000 0.000000 0.000000 -0.005518 0.000000 0.030087
#
#
# Mechanical properties :
#
#
# Convention : Reuss Voigt Hill
#
# Bulk Modulus (GPa) = 38.89160 86.12535 62.50847
# Shear Modulus (GPa) = 15.15522 28.20656 21.68089
#
# Velocity S-wave (km/s) = 2.94502 4.01774 3.52246
# Velocity P-wave (km/s) = 5.81561 8.41496 7.23301
#
# Compressibility (1/GPa) = 0.02571250
#
# Stress axis : x y z
#
# Youngs Moduli (GPa) = 92.57116 27.33453 125.31480
#
# Poissons Ratio (x) = 0.21831 0.28736
# Poissons Ratio (y) = 0.73934 0.56981
# Poissons Ratio (z) = 0.21227 0.12429
#
# Static dielectric constant tensor:
#      x y z
#    x 1.563190 0.000000 -0.008410 
#    y 0.000000 1.593400 0.000000 
#    z -0.008410 0.000000 1.588990 
# 
# From -- ./inp_files/26398.got.cif
#   From: 2010.05.17/outbox.cif.g08.bks.cpg/sg8_14_cif.got.tgz:26398.got - 2010.06.03 19:46:02.
