data_PCOD9132768
_publ_section_title
;
Structure prediction by ZEFSAII (Michael W. Deem and Ramdas Pophale) SiO2 
 PCOD9132768
Probable space group: C M
;
_chemical_formula_sum "Si O2"
_cell_formula_units_Z 20
_cell_length_a 6.813318
_cell_length_b 24.358600
_cell_length_c 4.891561
_cell_angle_alpha 90.000000
_cell_angle_beta 94.874136
_cell_angle_gamma 90.000000
_cell_volume 808.881857
_symmetry_space_group_name_H-M "C M"
_symmetry_group_IT_number 8
_symmetry_cell_setting 'monoclinic'
loop_
_space_group_symop_operation_xyz
x,y,z
x,-y,z
1/2+x,1/2+y,z
1/2+x,1/2-y,z
loop_
_atom_site_type_symbol
_atom_site_label
_atom_site_fract_x
_atom_site_fract_y
_atom_site_fract_z
Si Si1 0.969080 0.061741 0.975740
Si Si2 0.996056 0.337488 0.318509
Si Si3 0.846821 0.170486 0.725099
Si Si4 0.790237 0.290198 0.779400
Si Si5 0.248224 0.061430 0.503869
O O1 0.831120 0.112464 0.879187
O O2 0.884719 0.000000 0.934365
O O3 0.078183 0.182302 0.721848
O O4 0.055814 0.067977 0.288397
O O5 0.222868 0.334884 0.432310
O O6 0.918076 0.325148 0.008559
O O7 0.903303 0.393542 0.426876
O O8 0.274967 0.273324 0.862430
O O9 0.892883 0.291451 0.497223
O O10 0.660239 0.435479 0.797965
O O11 0.326774 0.000000 0.469410
#
# Coordination Sequence:
#
# PCOD9132768 Si02
#       5
#     4   4   4   4   4
#     4  10  22  41  69  99 133 175 222 279 333 395
#     4  12  26  44  68 101 134 181 226 279 335 405
#     4  12  26  45  72  97 142 179 229 275 341 401
#     4  12  28  43  65 103 137 174 230 280 335 397
#     4  10  20  41  68  96 134 175 221 281 336 392
#
# _framework density 24.725490000000001
#
# number of rings (size 3 to 8) (size 9 to 14) (size 15 to 20)
#    0.000    0.800    6.000    0.000    2.800    5.600 
#    0.000    0.000    0.000    7.200    0.000    0.000 
#    0.000    0.000    0.000    0.000    0.000    0.000 
#
# Total GULP energy -55972.030200 kJ/mol
# GULP energy per Si atom -5597.203020 kJ/mol
# Density = 2.466921 g / cm^3
# Si number density = 24.725490 Si / 1000 Ang^3
#
#
#
# Elastic Constant Matrix: (Units=GPa)
#
#
# Indices 1 2 3 4 5 6 
#
# 1 98.3303 34.0209 26.3816 0.0000 35.1326 0.0000
# 2 34.0209 193.0280 5.5745 0.0000 22.2390 0.0000
# 3 26.3816 5.5745 82.4029 0.0000 14.1147 0.0000
# 4 0.0000 0.0000 0.0000 35.6960 0.0000 5.9893
# 5 35.1326 22.2390 14.1147 0.0000 37.0808 0.0000
# 6 0.0000 0.0000 0.0000 5.9893 0.0000 43.0853
#
#
#
# Elastic Compliance Matrix: (Units=1/GPa)
#
#
# Indices 1 2 3 4 5 6 
#
# 1 0.016170 -0.001210 -0.002776 0.000000 -0.013538 0.000000
# 2 -0.001210 0.005659 0.000417 0.000000 -0.002406 0.000000
# 3 -0.002776 0.000417 0.013466 0.000000 -0.002746 0.000000
# 4 0.000000 0.000000 0.000000 0.028683 0.000000 -0.003987
# 5 -0.013538 -0.002406 -0.002746 0.000000 0.042283 0.000000
# 6 0.000000 0.000000 0.000000 -0.003987 0.000000 0.023764
#
#
# Mechanical properties :
#
#
# Convention : Reuss Voigt Hill
#
# Bulk Modulus (GPa) = 35.51545 56.19060 45.85302
# Shear Modulus (GPa) = 34.11777 43.69138 38.90457
#
# Velocity S-wave (km/s) = 3.71868 4.20820 3.97099
# Velocity P-wave (km/s) = 5.73002 6.81080 6.29366
#
# Compressibility (1/GPa) = 0.02815676
#
# Stress axis : x y z
#
# Youngs Moduli (GPa) = 61.84122 176.70827 74.25886
#
# Poissons Ratio (x) = 0.21383 0.20616
# Poissons Ratio (y) = 0.07483 -0.03095
# Poissons Ratio (z) = 0.17168 -0.07364
#
# Static dielectric constant tensor:
#      x y z
#    x 1.949130 0.000000 -0.024990 
#    y 0.000000 2.022710 0.000000 
#    z -0.024990 0.000000 1.897240 
# 
# From -- ./inp_files/1489.got.cif
#   From: 2010.05.17/outbox.cif.g08.bks.cpg/sg8_1_cif.got.tgz:1489.got - 2010.06.03 19:46:02.
