data_PCOD9132060
_publ_section_title
;
Structure prediction by ZEFSAII (Michael W. Deem and Ramdas Pophale) SiO2 
 PCOD9132060
Probable space group: C M
;
_chemical_formula_sum "Si O2"
_cell_formula_units_Z 32
_cell_length_a 14.403570
_cell_length_b 20.567452
_cell_length_c 8.483436
_cell_angle_alpha 90.000000
_cell_angle_beta 139.445469
_cell_angle_gamma 90.000000
_cell_volume 1633.993536
_symmetry_space_group_name_H-M "C M"
_symmetry_group_IT_number 8
_symmetry_cell_setting 'monoclinic'
loop_
_space_group_symop_operation_xyz
x,y,z
x,-y,z
1/2+x,1/2+y,z
1/2+x,1/2-y,z
loop_
_atom_site_type_symbol
_atom_site_label
_atom_site_fract_x
_atom_site_fract_y
_atom_site_fract_z
Si Si1 0.899840 0.709190 0.951740
Si Si2 0.240257 0.574076 0.546762
Si Si3 0.768652 0.347495 0.511086
Si Si4 0.681960 0.142293 0.158441
Si Si5 0.015133 0.332952 0.422879
Si Si6 0.997708 0.425109 0.673971
Si Si7 0.946153 0.769128 0.572022
Si Si8 0.993009 0.159197 0.945024
O O1 0.770470 0.673608 0.695295
O O2 0.901361 0.785447 0.917642
O O3 0.048811 0.683316 0.060810
O O4 0.914261 0.691032 0.151961
O O5 0.208007 0.500000 0.549412
O O6 0.211763 0.585957 0.324731
O O7 0.145478 0.628831 0.511052
O O8 0.400745 0.595281 0.793870
O O9 0.864939 0.411511 0.618196
O O10 0.854880 0.287213 0.542703
O O11 0.625697 0.353424 0.228778
O O12 0.824801 0.185449 0.337054
O O13 0.629332 0.112631 0.926009
O O14 0.953703 0.388701 0.457577
O O15 0.040027 0.270378 0.567128
O O16 0.028703 0.500000 0.692074
O O17 0.023927 0.808987 0.811989
#
# Coordination Sequence:
#
# PCOD9132060 Si02
#       8
#     4   4   4   4   4   4   4   4
#     4   9  18  33  52  80 111 135 184 226 288 324
#     4  10  21  36  56  82 113 153 187 220 273 334
#     4   9  18  33  55  77 107 143 181 234 267 327
#     4   9  17  34  58  80 106 142 187 235 265 326
#     4  10  21  34  52  82 111 146 175 235 282 327
#     4  10  20  34  54  80 110 148 185 222 271 330
#     4   9  18  33  55  80 111 135 181 232 289 323
#     4  10  19  35  56  79 111 146 180 234 267 333
#
# _framework density 19.583921
#
# number of rings (size 3 to 8) (size 9 to 14) (size 15 to 20)
#    0.000    2.500    1.250    1.500    1.750    1.500 
#    2.250    0.625    0.000    0.000    0.000    0.000 
#    0.000    0.000    0.000    0.000    0.000    0.000 
#
# Total GULP energy -89152.900422 kJ/mol
# GULP energy per Si atom -5572.056276 kJ/mol
# Density = 1.953935 g / cm^3
# Si number density = 19.583921 Si / 1000 Ang^3
#
#
#
# Elastic Constant Matrix: (Units=GPa)
#
#
# Indices 1 2 3 4 5 6 
#
# 1 37.3300 24.0804 20.1120 0.0000 -18.5205 0.0000
# 2 24.0804 95.1390 38.6735 0.0000 -11.8285 0.0000
# 3 20.1120 38.6735 131.1252 0.0000 -17.7494 0.0000
# 4 0.0000 0.0000 0.0000 16.8687 0.0000 -0.3381
# 5 -18.5205 -11.8285 -17.7494 0.0000 26.0285 0.0000
# 6 0.0000 0.0000 0.0000 -0.3381 0.0000 19.3766
#
#
#
# Elastic Compliance Matrix: (Units=1/GPa)
#
#
# Indices 1 2 3 4 5 6 
#
# 1 0.046781 -0.007849 -0.000923 0.000000 0.029091 0.000000
# 2 -0.007849 0.013528 -0.002985 0.000000 -0.001473 0.000000
# 3 -0.000923 -0.002985 0.009228 0.000000 0.004279 0.000000
# 4 0.000000 0.000000 0.000000 0.059302 0.000000 0.001035
# 5 0.029091 -0.001473 0.004279 0.000000 0.061368 0.000000
# 6 0.000000 0.000000 0.000000 0.001035 0.000000 0.051627
#
#
# Mechanical properties :
#
#
# Convention : Reuss Voigt Hill
#
# Bulk Modulus (GPa) = 21.72829 47.70290 34.71560
# Shear Modulus (GPa) = 17.81342 24.50333 21.15838
#
# Velocity S-wave (km/s) = 3.01922 3.54106 3.29050
# Velocity P-wave (km/s) = 4.82424 6.41326 5.67465
#
# Compressibility (1/GPa) = 0.04602294
#
# Stress axis : x y z
#
# Youngs Moduli (GPa) = 21.37623 73.92103 108.37095
#
# Poissons Ratio (x) = 0.58019 0.09998
# Poissons Ratio (y) = 0.16778 0.32353
# Poissons Ratio (z) = 0.01972 0.22068
#
# Static dielectric constant tensor:
#      x y z
#    x 1.771500 0.000000 -0.016210 
#    y 0.000000 1.679850 0.000000 
#    z -0.016210 0.000000 1.711050 
# 
# From -- ./inp_files/11446.got.cif
#   From: 2010.05.17/outbox.cif.g08.bks.cpg/sg8_6_cif.got.tgz:11446.got - 2010.06.03 19:46:02.
