data_PCOD9132509
_publ_section_title
;
Structure prediction by ZEFSAII (Michael W. Deem and Ramdas Pophale) SiO2 
 PCOD9132509
Probable space group: C M
;
_chemical_formula_sum "Si O2"
_cell_formula_units_Z 32
_cell_length_a 17.612672
_cell_length_b 16.396241
_cell_length_c 11.447075
_cell_angle_alpha 90.000000
_cell_angle_beta 29.354687
_cell_angle_gamma 90.000000
_cell_volume 1620.504728
_symmetry_space_group_name_H-M "C M"
_symmetry_group_IT_number 8
_symmetry_cell_setting 'monoclinic'
loop_
_space_group_symop_operation_xyz
x,y,z
x,-y,z
1/2+x,1/2+y,z
1/2+x,1/2-y,z
loop_
_atom_site_type_symbol
_atom_site_label
_atom_site_fract_x
_atom_site_fract_y
_atom_site_fract_z
Si Si1 0.552190 0.668278 0.715610
Si Si2 0.838833 0.405031 0.207344
Si Si3 0.435882 0.901267 0.583137
Si Si4 0.237561 0.598388 0.034310
Si Si5 0.117892 0.900779 0.882723
Si Si6 0.171047 0.400308 0.861944
Si Si7 0.324759 0.404283 0.421251
Si Si8 0.000819 0.358232 0.758652
O O1 0.692291 0.647630 0.440128
O O2 0.395535 0.626234 0.881450
O O3 0.599333 0.634688 0.778819
O O4 0.520905 0.763835 0.761609
O O5 0.806020 0.500000 0.278257
O O6 0.992901 0.379413 0.072163
O O7 0.887573 0.396992 0.006910
O O8 0.280179 0.877720 0.724046
O O9 0.442113 0.869871 0.706692
O O10 0.438411 0.000000 0.584876
O O11 0.588318 0.874164 0.308268
O O12 0.234621 0.500000 0.036095
O O13 0.223362 0.626984 0.919214
O O14 0.112165 0.000000 0.882308
O O15 0.974719 0.870913 0.154734
O O16 0.175417 0.500000 0.853581
O O17 0.276693 0.370105 0.612638
O O18 0.356357 0.500000 0.396919
O O19 0.171364 0.396796 0.547545
#
# Coordination Sequence:
#
# PCOD9132509 Si02
#       8
#     4   4   4   4   4   4   4   4
#     4  12  25  37  58  91 127 158 202 257 309 363
#     4  10  21  40  64  86 118 167 213 250 297 373
#     4  10  21  40  65  89 118 161 207 251 299 366
#     4  10  20  36  62  88 120 159 199 247 299 361
#     4  10  21  39  65  93 118 157 208 254 299 364
#     4   8  16  34  60  91 115 151 202 245 293 356
#     4   9  18  37  66  89 117 156 201 248 296 365
#     4  11  24  39  58  89 126 161 200 250 315 366
#
# _framework density 19.746934
#
# number of rings (size 3 to 8) (size 9 to 14) (size 15 to 20)
#    0.000    2.000    0.000    4.500    3.500    5.000 
#    4.500    3.750    0.000    0.000    0.000    0.000 
#    0.000    0.000    0.000    0.000    0.000    0.000 
#
# Total GULP energy -89385.483403 kJ/mol
# GULP energy per Si atom -5586.592713 kJ/mol
# Density = 1.970199 g / cm^3
# Si number density = 19.746934 Si / 1000 Ang^3
#
#
#
# Elastic Constant Matrix: (Units=GPa)
#
#
# Indices 1 2 3 4 5 6 
#
# 1 172.3625 9.0185 70.7167 -0.0004 3.2247 0.0002
# 2 9.0185 22.3411 7.0457 -0.0003 0.8214 0.0002
# 3 70.7167 7.0457 132.6052 -0.0009 -12.0797 0.0005
# 4 -0.0004 -0.0003 -0.0009 5.4276 0.0002 2.0148
# 5 3.2247 0.8214 -12.0797 0.0002 14.6609 -0.0002
# 6 0.0002 0.0002 0.0005 2.0148 -0.0002 -3.9416
#
#
#
# Elastic Compliance Matrix: (Units=1/GPa)
#
#
# Indices 1 2 3 4 5 6 
#
# 1 0.007878 -0.001524 -0.004617 0.000000 -0.005451 0.000000
# 2 -0.001524 0.046148 -0.001994 0.000001 -0.003893 0.000003
# 3 -0.004617 -0.001994 0.011040 0.000001 0.010224 0.000001
# 4 0.000000 0.000001 0.000001 0.154857 -0.000001 0.079159
# 5 -0.005451 -0.003893 0.010224 -0.000001 0.078049 -0.000003
# 6 0.000000 0.000003 0.000001 0.079159 -0.000003 -0.213239
#
#
# Mechanical properties :
#
#
# Convention : Reuss Voigt Hill
#
# Bulk Modulus (GPa) = 20.49309 55.65231 38.07270
# Shear Modulus (GPa) = 42.63770 19.26458 30.95114
#
# Velocity S-wave (km/s) = 4.65177 3.12681 3.96332
# Velocity P-wave (km/s) = 6.26517 6.42494 6.34555
#
# Compressibility (1/GPa) = 0.04879694
#
# Stress axis : x y z
#
# Youngs Moduli (GPa) = 126.94350 21.66960 90.57610
#
# Poissons Ratio (x) = 0.03302 0.41815
# Poissons Ratio (y) = 0.19341 0.18062
# Poissons Ratio (z) = 0.58605 0.04321
#
# Static dielectric constant tensor:
#      x y z
#    x 1.664880 0.000000 0.012940 
#    y 0.000000 1.704060 0.000000 
#    z 0.012940 0.000000 1.685390 
# 
# From -- ./inp_files/23320.got.cif
#   From: 2010.05.17/outbox.cif.g08.bks.cpg/sg8_12_cif.got.tgz:23320.got - 2010.06.03 19:46:02.
