data_PCOD9132247
_publ_section_title
;
Structure prediction by ZEFSAII (Michael W. Deem and Ramdas Pophale) SiO2 
 PCOD9132247
Probable space group: C M
;
_chemical_formula_sum "Si O2"
_cell_formula_units_Z 24
_cell_length_a 13.810082
_cell_length_b 10.484191
_cell_length_c 10.194416
_cell_angle_alpha 90.000000
_cell_angle_beta 71.765712
_cell_angle_gamma 90.000000
_cell_volume 1401.905776
_symmetry_space_group_name_H-M "C M"
_symmetry_group_IT_number 8
_symmetry_cell_setting 'monoclinic'
loop_
_space_group_symop_operation_xyz
x,y,z
x,-y,z
1/2+x,1/2+y,z
1/2+x,1/2-y,z
loop_
_atom_site_type_symbol
_atom_site_label
_atom_site_fract_x
_atom_site_fract_y
_atom_site_fract_z
Si Si1 0.731890 0.500000 0.662220
Si Si2 0.799952 0.774984 0.587205
Si Si3 0.507543 0.500000 0.867452
Si Si4 0.584810 0.500000 0.131026
Si Si5 0.306786 0.000000 0.933890
Si Si6 0.407630 0.755023 0.809263
Si Si7 0.092994 0.355850 0.552466
Si Si8 0.019563 0.143014 0.398123
O O1 0.773305 0.626502 0.576544
O O2 0.610225 0.500000 0.734647
O O3 0.775103 0.500000 0.792854
O O4 0.825647 0.783828 0.731543
O O5 0.700420 0.848386 0.581443
O O6 0.901798 0.820047 0.470512
O O7 0.445446 0.627530 0.862334
O O8 0.540149 0.500000 0.005057
O O9 0.547852 0.619479 0.234751
O O10 0.706194 0.500000 0.063913
O O11 0.366780 0.133026 0.920469
O O12 0.502477 0.816047 0.689505
O O13 0.074878 0.500000 0.513242
O O14 0.085660 0.250698 0.441036
O O15 0.035336 0.000000 0.451113
#
# Coordination Sequence:
#
# PCOD9132247 Si02
#       8
#     2   4   2   2   2   4   4   4
#     4   9  18  31  58  89 108 157 176 238 308 343
#     4  10  20  32  57  88 126 138 191 237 303 350
#     4  11  20  37  63  81 120 156 197 230 291 353
#     4   9  22  44  60  73 116 167 210 236 263 350
#     4   9  18  40  55  77 118 152 197 244 282 334
#     4  10  21  34  59  91 116 152 186 243 304 350
#     4  11  21  34  59  92 124 143 184 252 306 352
#     4   9  22  40  57  80 116 161 200 236 286 340
#
# _framework density 17.119554000000001
#
# number of rings (size 3 to 8) (size 9 to 14) (size 15 to 20)
#    0.500    1.667    2.500    0.500   10.500    0.000 
#    3.000    0.000    1.833    0.000    0.000    0.000 
#    0.000    0.000    0.000    0.000    0.000    0.000 
#
# Total GULP energy -66859.779649 kJ/mol
# GULP energy per Si atom -5571.648304 kJ/mol
# Density = 1.708059 g / cm^3
# Si number density = 17.119554 Si / 1000 Ang^3
#
#
#
# Elastic Constant Matrix: (Units=GPa)
#
#
# Indices 1 2 3 4 5 6 
#
# 1 91.8994 50.2216 27.6707 0.0000 7.5655 0.0000
# 2 50.2216 164.0445 48.5022 0.0000 1.6602 0.0000
# 3 27.6707 48.5022 72.3945 0.0000 -2.4270 0.0000
# 4 0.0000 0.0000 0.0000 10.0323 0.0000 0.1781
# 5 7.5655 1.6602 -2.4270 0.0000 14.2595 0.0000
# 6 0.0000 0.0000 0.0000 0.1781 0.0000 29.8635
#
#
#
# Elastic Compliance Matrix: (Units=1/GPa)
#
#
# Indices 1 2 3 4 5 6 
#
# 1 0.014392 -0.003270 -0.003574 0.000000 -0.007863 0.000000
# 2 -0.003270 0.008389 -0.004370 0.000000 0.000014 0.000000
# 3 -0.003574 -0.004370 0.018292 0.000000 0.005518 0.000000
# 4 0.000000 0.000000 0.000000 0.099689 0.000000 -0.000595
# 5 -0.007863 0.000014 0.005518 0.000000 0.075238 0.000000
# 6 0.000000 0.000000 0.000000 -0.000595 0.000000 0.033489
#
#
# Mechanical properties :
#
#
# Convention : Reuss Voigt Hill
#
# Bulk Modulus (GPa) = 53.63258 64.56973 59.10115
# Shear Modulus (GPa) = 17.97713 24.29398 21.13556
#
# Velocity S-wave (km/s) = 3.24403 3.77115 3.51748
# Velocity P-wave (km/s) = 6.74002 7.53399 7.14804
#
# Compressibility (1/GPa) = 0.01864538
#
# Stress axis : x y z
#
# Youngs Moduli (GPa) = 69.48427 119.20590 54.66882
#
# Poissons Ratio (x) = 0.38977 0.19538
# Poissons Ratio (y) = 0.22720 0.23890
# Poissons Ratio (z) = 0.24832 0.52093
#
# Static dielectric constant tensor:
#      x y z
#    x 1.595810 0.000000 0.006710 
#    y 0.000000 1.604580 0.000000 
#    z 0.006710 0.000000 1.556520 
# 
# From -- ./inp_files/21120.got.cif
#   From: 2010.05.17/outbox.cif.g08.bks.cpg/sg8_11_cif.got.tgz:21120.got - 2010.06.03 19:46:02.
