data_PCOD9132685
_publ_section_title
;
Structure prediction by ZEFSAII (Michael W. Deem and Ramdas Pophale) SiO2 
 PCOD9132685
Probable space group: C M
;
_chemical_formula_sum "Si O2"
_cell_formula_units_Z 18
_cell_length_a 4.901208
_cell_length_b 19.696334
_cell_length_c 8.019604
_cell_angle_alpha 90.000000
_cell_angle_beta 88.013674
_cell_angle_gamma 90.000000
_cell_volume 773.713944
_symmetry_space_group_name_H-M "C M"
_symmetry_group_IT_number 8
_symmetry_cell_setting 'monoclinic'
loop_
_space_group_symop_operation_xyz
x,y,z
x,-y,z
1/2+x,1/2+y,z
1/2+x,1/2-y,z
loop_
_atom_site_type_symbol
_atom_site_label
_atom_site_fract_x
_atom_site_fract_y
_atom_site_fract_z
Si Si1 0.437590 0.426926 0.871490
Si Si2 0.261193 0.295953 0.727640
Si Si3 0.858669 0.500000 0.629088
Si Si4 0.732291 0.421152 0.214731
Si Si5 0.692297 0.115757 0.421029
O O1 0.280589 0.500000 0.892965
O O2 0.243684 0.364705 0.834976
O O3 0.653568 0.441934 0.720151
O O4 0.609702 0.413322 0.033987
O O5 0.548917 0.263056 0.762993
O O6 0.234080 0.319325 0.536378
O O7 0.048913 0.559078 0.538649
O O8 0.819897 0.500000 0.227700
O O9 0.480989 0.409596 0.345517
O O10 0.985838 0.376344 0.269335
#
# Coordination Sequence:
#
# PCOD9132685 Si02
#       5
#     4   4   2   4   4
#     4   9  24  45  73 109 140 184 234 293 351 422
#     4  12  27  49  69 102 142 190 238 289 345 421
#     4  10  20  38  72 106 136 170 236 280 348 394
#     4  11  22  43  66 112 145 176 224 301 357 413
#     4  12  24  41  71 101 145 182 229 286 352 412
#
# _framework density 23.264412
#
# number of rings (size 3 to 8) (size 9 to 14) (size 15 to 20)
#    0.667    0.444    2.222    4.000    1.556    3.556 
#    4.000    6.667    0.000    0.000    0.000    0.000 
#    0.000    0.000    0.000    0.000    0.000    0.000 
#
# Total GULP energy -50122.468532 kJ/mol
# GULP energy per Si atom -5569.163170 kJ/mol
# Density = 2.321146 g / cm^3
# Si number density = 23.264412 Si / 1000 Ang^3
#
#
#
# Elastic Constant Matrix: (Units=GPa)
#
#
# Indices 1 2 3 4 5 6 
#
# 1 -32.4602 -28.7654 28.7792 0.0000 -14.6759 0.0000
# 2 -28.7654 66.1405 22.8165 0.0000 19.5383 0.0000
# 3 28.7792 22.8165 71.0027 0.0000 20.3184 0.0000
# 4 0.0000 0.0000 0.0000 27.2011 0.0000 22.4387
# 5 -14.6759 19.5383 20.3184 0.0000 32.1641 0.0000
# 6 0.0000 0.0000 0.0000 22.4387 0.0000 34.1786
#
#
#
# Elastic Compliance Matrix: (Units=1/GPa)
#
#
# Indices 1 2 3 4 5 6 
#
# 1 -0.012877 -0.006564 0.009605 0.000000 -0.007956 0.000000
# 2 -0.006564 0.015744 0.001459 0.000000 -0.013480 0.000000
# 3 0.009605 0.001459 0.010646 0.000000 -0.003228 0.000000
# 4 0.000000 0.000000 0.000000 0.080194 0.000000 -0.052648
# 5 -0.007956 -0.013480 -0.003228 0.000000 0.037688 0.000000
# 6 0.000000 0.000000 0.000000 -0.052648 0.000000 0.063822
#
#
# Mechanical properties :
#
#
# Convention : Reuss Voigt Hill
#
# Bulk Modulus (GPa) = 44.41850 16.70483 30.56167
# Shear Modulus (GPa) = 25.81050 24.16562 24.98806
#
# Velocity S-wave (km/s) = 3.33444 3.22644 3.28089
# Velocity P-wave (km/s) = 5.82744 4.59085 5.24571
#
# Compressibility (1/GPa) = 0.02251314
#
# Stress axis : x y z
#
# Youngs Moduli (GPa) = -77.65756 63.51822 93.93440
#
# Poissons Ratio (x) = 0.41691 -0.90228
# Poissons Ratio (y) = -0.50972 -0.13703
# Poissons Ratio (z) = 0.74593 -0.09266
#
# Static dielectric constant tensor:
#      x y z
#    x 1.896660 0.000000 0.098820 
#    y 0.000000 1.841790 0.000000 
#    z 0.098820 0.000000 1.987110 
# 
# From -- ./inp_files/6645.got.cif
#   From: 2010.05.17/outbox.cif.g08.bks.cpg/sg8_4_cif.got.tgz:6645.got - 2010.06.03 19:46:02.
