data_PCOD9132245
_publ_section_title
;
Structure prediction by ZEFSAII (Michael W. Deem and Ramdas Pophale) SiO2 
 PCOD9132245
Probable space group: C M
;
_chemical_formula_sum "Si O2"
_cell_formula_units_Z 32
_cell_length_a 12.166383
_cell_length_b 14.442716
_cell_length_c 15.321231
_cell_angle_alpha 90.000000
_cell_angle_beta 40.635825
_cell_angle_gamma 90.000000
_cell_volume 1753.278776
_symmetry_space_group_name_H-M "C M"
_symmetry_group_IT_number 8
_symmetry_cell_setting 'monoclinic'
loop_
_space_group_symop_operation_xyz
x,y,z
x,-y,z
1/2+x,1/2+y,z
1/2+x,1/2-y,z
loop_
_atom_site_type_symbol
_atom_site_label
_atom_site_fract_x
_atom_site_fract_y
_atom_site_fract_z
Si Si1 0.952990 0.763691 0.309630
Si Si2 0.964412 0.107975 0.454258
Si Si3 0.214075 0.610535 0.967548
Si Si4 0.277491 0.390968 0.733797
Si Si5 0.398956 0.105157 0.943248
Si Si6 0.822217 0.792041 0.076360
Si Si7 0.543212 0.608997 0.088667
Si Si8 0.342085 0.894787 0.266251
O O1 0.888807 0.824361 0.428031
O O2 0.835737 0.682713 0.344346
O O3 0.129884 0.712602 0.226572
O O4 0.990627 0.834442 0.207054
O O5 0.913560 0.141432 0.581696
O O6 0.166819 0.110047 0.320500
O O7 0.912352 0.000000 0.476101
O O8 0.242413 0.500000 0.953833
O O9 0.312322 0.659086 0.987433
O O10 0.015020 0.623852 0.109234
O O11 0.262102 0.646317 0.841953
O O12 0.311733 0.500000 0.725402
O O13 0.093227 0.384006 0.799452
O O14 0.383482 0.000000 0.989353
O O15 0.370478 0.186280 0.029094
O O16 0.248053 0.115147 0.964376
O O17 0.947682 0.844080 0.065578
O O18 0.500653 0.500000 0.120507
O O19 0.355285 0.000000 0.292437
#
# Coordination Sequence:
#
# PCOD9132245 Si02
#       8
#     4   4   4   4   4   4   4   4
#     4  10  20  33  52  80 109 140 176 217 264 314
#     4  10  20  36  56  78 104 140 180 220 262 314
#     4   9  18  33  56  84 109 136 172 223 270 312
#     4   9  19  35  55  79 108 137 177 225 269 309
#     4   9  20  34  51  75 107 139 174 219 266 309
#     4  10  20  32  55  79 111 139 178 215 267 320
#     4  10  20  33  51  80 112 141 173 218 266 317
#     4   9  19  34  55  79 106 138 177 219 263 313
#
# _framework density 18.251518000000001
#
# number of rings (size 3 to 8) (size 9 to 14) (size 15 to 20)
#    0.000    2.500    0.000    1.500    8.750    1.000 
#    2.250    0.000    0.000    0.000    0.000    0.875 
#    0.000    0.000    0.000    0.000    0.000    0.000 
#
# Total GULP energy -89138.333622 kJ/mol
# GULP energy per Si atom -5571.145851 kJ/mol
# Density = 1.820998 g / cm^3
# Si number density = 18.251518 Si / 1000 Ang^3
#
#
#
# Elastic Constant Matrix: (Units=GPa)
#
#
# Indices 1 2 3 4 5 6 
#
# 1 107.5620 50.9912 35.2352 -0.0002 15.1112 0.0001
# 2 50.9912 94.1893 20.3673 -0.0002 8.5770 0.0001
# 3 35.2352 20.3673 68.9044 -0.0005 20.9140 0.0003
# 4 -0.0002 -0.0002 -0.0005 16.5306 0.0002 6.9753
# 5 15.1112 8.5770 20.9140 0.0002 22.1038 -0.0001
# 6 0.0001 0.0001 0.0003 6.9753 -0.0001 36.5368
#
#
#
# Elastic Compliance Matrix: (Units=1/GPa)
#
#
# Indices 1 2 3 4 5 6 
#
# 1 0.014251 -0.006477 -0.004459 0.000000 -0.003010 0.000000
# 2 -0.006477 0.014332 -0.000814 0.000000 -0.000363 0.000000
# 3 -0.004459 -0.000814 0.022464 0.000001 -0.017890 0.000000
# 4 0.000000 0.000000 0.000001 0.065794 -0.000002 -0.012561
# 5 -0.003010 -0.000363 -0.017890 -0.000002 0.064367 0.000001
# 6 0.000000 0.000000 0.000000 -0.012561 0.000001 0.029768
#
#
# Mechanical properties :
#
#
# Convention : Reuss Voigt Hill
#
# Bulk Modulus (GPa) = 36.30195 53.76033 45.03114
# Shear Modulus (GPa) = 20.52047 25.97171 23.24609
#
# Velocity S-wave (km/s) = 3.35672 3.77634 3.57270
# Velocity P-wave (km/s) = 5.91240 6.96660 6.46104
#
# Compressibility (1/GPa) = 0.02754673
#
# Stress axis : x y z
#
# Youngs Moduli (GPa) = 70.17051 69.77227 44.51563
#
# Poissons Ratio (x) = 0.45189 0.19851
# Poissons Ratio (y) = 0.45447 0.03625
# Poissons Ratio (z) = 0.31292 0.05682
#
# Static dielectric constant tensor:
#      x y z
#    x 1.653890 0.000000 0.000900 
#    y 0.000000 1.646670 0.000000 
#    z 0.000900 0.000000 1.637800 
# 
# From -- ./inp_files/10768.got.cif
#   From: 2010.05.17/outbox.cif.g08.bks.cpg/sg8_6_cif.got.tgz:10768.got - 2010.06.03 19:46:02.
