data_PCOD9132454
_publ_section_title
;
Structure prediction by ZEFSAII (Michael W. Deem and Ramdas Pophale) SiO2 
 PCOD9132454
Probable space group: C M
;
_chemical_formula_sum "Si O2"
_cell_formula_units_Z 28
_cell_length_a 17.204247
_cell_length_b 13.304712
_cell_length_c 6.962412
_cell_angle_alpha 90.000000
_cell_angle_beta 49.851919
_cell_angle_gamma 90.000000
_cell_volume 1218.177358
_symmetry_space_group_name_H-M "C M"
_symmetry_group_IT_number 8
_symmetry_cell_setting 'monoclinic'
loop_
_space_group_symop_operation_xyz
x,y,z
x,-y,z
1/2+x,1/2+y,z
1/2+x,1/2-y,z
loop_
_atom_site_type_symbol
_atom_site_label
_atom_site_fract_x
_atom_site_fract_y
_atom_site_fract_z
Si Si1 0.478410 0.116972 0.405610
Si Si2 0.196419 0.323759 0.022239
Si Si3 0.345314 0.390097 0.078732
Si Si4 0.654944 0.170203 0.635328
Si Si5 0.768339 0.611258 0.880370
Si Si6 0.220709 0.109279 0.498588
Si Si7 0.935337 0.317514 0.056785
O O1 0.593727 0.135098 0.280914
O O2 0.388874 0.134441 0.699882
O O3 0.458056 0.184753 0.250715
O O4 0.468133 0.000000 0.362617
O O5 0.296306 0.375737 0.946554
O O6 0.185295 0.338055 0.812120
O O7 0.206378 0.205612 0.053308
O O8 0.392049 0.500000 0.027188
O O9 0.244912 0.380977 0.373868
O O10 0.415041 0.295470 0.018257
O O11 0.658153 0.288588 0.573947
O O12 0.538211 0.135405 0.807428
O O13 0.744977 0.500000 0.990483
O O14 0.747625 0.608468 0.683330
O O15 0.328324 0.123938 0.216834
O O16 0.175696 0.000000 0.525455
#
# Coordination Sequence:
#
# PCOD9132454 Si02
#       7
#     4   4   4   4   4   4   4
#     4   9  17  33  59  86 110 145 189 228 273 329
#     4  10  20  36  58  83 115 146 182 231 280 326
#     4  11  24  38  54  83 116 145 185 232 279 333
#     4   9  20  37  57  78 107 148 185 221 270 330
#     4   8  15  30  53  79 108 142 180 222 269 322
#     4   8  14  28  52  79 103 132 175 222 265 313
#     4   9  18  34  53  78 109 142 180 224 270 323
#
# _framework density 22.985158999999999
#
# number of rings (size 3 to 8) (size 9 to 14) (size 15 to 20)
#    0.000    2.857    0.000    2.571    0.000    5.143 
#    0.000    5.714    0.000    3.429    0.000    0.000 
#    0.000    0.000    0.000    0.000    0.000    0.000 
#
# Total GULP energy -78200.267981 kJ/mol
# GULP energy per Si atom -5585.733427 kJ/mol
# Density = 2.293284 g / cm^3
# Si number density = 22.985159 Si / 1000 Ang^3
#
#
#
# Elastic Constant Matrix: (Units=GPa)
#
#
# Indices 1 2 3 4 5 6 
#
# 1 73.1095 10.4386 18.4457 0.0000 4.8468 0.0000
# 2 10.4386 119.0810 -4.4720 0.0000 2.0128 0.0000
# 3 18.4457 -4.4720 73.6425 0.0000 8.7860 0.0000
# 4 0.0000 0.0000 0.0000 18.1290 0.0000 -0.7640
# 5 4.8468 2.0128 8.7860 0.0000 31.2541 0.0000
# 6 0.0000 0.0000 0.0000 -0.7640 0.0000 13.1814
#
#
#
# Elastic Compliance Matrix: (Units=1/GPa)
#
#
# Indices 1 2 3 4 5 6 
#
# 1 0.014887 -0.001423 -0.003674 0.000000 -0.001184 0.000000
# 2 -0.001423 0.008568 0.000948 0.000000 -0.000598 0.000000
# 3 -0.003674 0.000948 0.014999 0.000000 -0.003708 0.000000
# 4 0.000000 0.000000 0.000000 0.055295 0.000000 0.003205
# 5 -0.001184 -0.000598 -0.003708 0.000000 0.033260 0.000000
# 6 0.000000 0.000000 0.000000 0.003205 0.000000 0.076050
#
#
# Mechanical properties :
#
#
# Convention : Reuss Voigt Hill
#
# Bulk Modulus (GPa) = 33.16040 34.96198 34.06119
# Shear Modulus (GPa) = 22.58260 28.60762 25.59511
#
# Velocity S-wave (km/s) = 3.13786 3.53173 3.34061
# Velocity P-wave (km/s) = 5.25228 5.64576 5.45257
#
# Compressibility (1/GPa) = 0.03015645
#
# Stress axis : x y z
#
# Youngs Moduli (GPa) = 67.17398 116.71224 66.66990
#
# Poissons Ratio (x) = 0.16607 0.24494
# Poissons Ratio (y) = 0.09558 -0.06320
# Poissons Ratio (z) = 0.24679 -0.11064
#
# Static dielectric constant tensor:
#      x y z
#    x 1.888280 0.000000 0.063150 
#    y 0.000000 1.823530 0.000000 
#    z 0.063150 0.000000 1.886230 
# 
# From -- ./inp_files/16198.got.cif
#   From: 2010.05.17/outbox.cif.g08.bks.cpg/sg8_9_cif.got.tgz:16198.got - 2010.06.03 19:46:02.
