data_PCOD9132005
_publ_section_title
;
Structure prediction by ZEFSAII (Michael W. Deem and Ramdas Pophale) SiO2 
 PCOD9132005
Probable space group: C M
;
_chemical_formula_sum "Si O2"
_cell_formula_units_Z 32
_cell_length_a 9.639211
_cell_length_b 15.403177
_cell_length_c 8.834427
_cell_angle_alpha 90.000000
_cell_angle_beta 94.584550
_cell_angle_gamma 90.000000
_cell_volume 1307.490111
_symmetry_space_group_name_H-M "C M"
_symmetry_group_IT_number 8
_symmetry_cell_setting 'monoclinic'
loop_
_space_group_symop_operation_xyz
x,y,z
x,-y,z
1/2+x,1/2+y,z
1/2+x,1/2-y,z
loop_
_atom_site_type_symbol
_atom_site_label
_atom_site_fract_x
_atom_site_fract_y
_atom_site_fract_z
Si Si1 0.371830 0.363025 0.158230
Si Si2 0.324864 0.168807 0.145041
Si Si3 0.122459 0.204891 0.378044
Si Si4 0.230725 0.209731 0.721973
Si Si5 0.469558 0.900832 0.894626
Si Si6 0.736864 0.094854 0.708246
Si Si7 0.082823 0.905516 0.931172
Si Si8 0.126648 0.593207 0.352324
O O1 0.316439 0.269571 0.098272
O O2 0.496059 0.347412 0.291423
O O3 0.250678 0.408445 0.240537
O O4 0.442501 0.403211 0.016943
O O5 0.268358 0.177250 0.310835
O O6 0.460504 0.135842 0.065111
O O7 0.207218 0.107830 0.061988
O O8 0.155786 0.194246 0.555721
O O9 0.078730 0.305625 0.341783
O O10 0.359974 0.149454 0.779569
O O11 0.292247 0.307178 0.724302
O O12 0.111608 0.178116 0.829448
O O13 0.616537 0.900208 0.824522
O O14 0.426693 0.000000 0.899034
O O15 0.679318 0.091007 0.531096
O O16 0.808141 0.000000 0.732907
O O17 0.098471 0.000000 0.857792
O O18 0.046168 0.500000 0.326501
#
# Coordination Sequence:
#
# PCOD9132005 Si02
#       8
#     4   4   4   4   4   4   4   4
#     4  10  19  35  57  78 106 145 181 220 272 325
#     4   9  18  34  55  78 105 140 180 222 267 319
#     4   9  20  33  53  82 109 138 180 223 271 325
#     4  10  19  34  57  81 110 144 179 226 275 322
#     4  10  20  37  58  81 110 147 184 225 273 323
#     4   9  19  33  53  79 107 140 181 222 270 323
#     4  10  20  36  57  83 111 144 184 227 271 323
#     4   9  18  34  52  74 104 138 174 219 268 318
#
# _framework density 24.474371999999999
#
# number of rings (size 3 to 8) (size 9 to 14) (size 15 to 20)
#    0.000    2.500    0.000    2.625    0.000    6.000 
#    0.000    8.750    0.000   32.250    0.000    0.000 
#    0.000    0.000    0.000    0.000    0.000    0.000 
#
# Total GULP energy -89171.992329 kJ/mol
# GULP energy per Si atom -5573.249521 kJ/mol
# Density = 2.441867 g / cm^3
# Si number density = 24.474372 Si / 1000 Ang^3
#
#
#
# Elastic Constant Matrix: (Units=GPa)
#
#
# Indices 1 2 3 4 5 6 
#
# 1 66.8757 -0.9782 15.7911 0.0000 0.1612 0.0000
# 2 -0.9782 137.5068 30.1411 0.0000 13.0178 0.0000
# 3 15.7911 30.1411 98.7048 0.0000 -0.0367 0.0000
# 4 0.0000 0.0000 0.0000 -206.4153 0.0000 -4.1456
# 5 0.1612 13.0178 -0.0367 0.0000 37.3029 0.0000
# 6 0.0000 0.0000 0.0000 -4.1456 0.0000 14.3226
#
#
#
# Elastic Compliance Matrix: (Units=1/GPa)
#
#
# Indices 1 2 3 4 5 6 
#
# 1 0.015608 0.000739 -0.002723 0.000000 -0.000328 0.000000
# 2 0.000739 0.008116 -0.002598 0.000000 -0.002838 0.000000
# 3 -0.002723 -0.002598 0.011360 0.000000 0.000929 0.000000
# 4 0.000000 0.000000 0.000000 -0.004817 0.000000 -0.001394
# 5 -0.000328 -0.002838 0.000929 0.000000 0.027800 0.000000
# 6 0.000000 0.000000 0.000000 -0.001394 0.000000 0.069416
#
#
# Mechanical properties :
#
#
# Convention : Reuss Voigt Hill
#
# Bulk Modulus (GPa) = 38.57880 43.66613 41.12246
# Shear Modulus (GPa) = 34.41482 -13.74905 10.33289
#
# Velocity S-wave (km/s) = 3.75394 -2.37275 2.05696
# Velocity P-wave (km/s) = 5.88104 3.22083 4.74133
#
# Compressibility (1/GPa) = 0.02592097
#
# Stress axis : x y z
#
# Youngs Moduli (GPa) = 64.07127 123.21857 88.02547
#
# Poissons Ratio (x) = -0.09105 0.23967
# Poissons Ratio (y) = -0.04734 0.22865
# Poissons Ratio (z) = 0.17445 0.32006
#
# Static dielectric constant tensor:
#      x y z
#    x 2.096800 0.000000 0.091990 
#    y 0.000000 1.973230 0.000000 
#    z 0.091990 0.000000 1.995030 
# 
# From -- ./inp_files/10754.got.cif
#   From: 2010.05.17/outbox.cif.g08.bks.cpg/sg8_6_cif.got.tgz:10754.got - 2010.06.03 19:46:02.
