data_PCOD9132082
_publ_section_title
;
Structure prediction by ZEFSAII (Michael W. Deem and Ramdas Pophale) SiO2 
 PCOD9132082
Probable space group: C M
;
_chemical_formula_sum "Si O2"
_cell_formula_units_Z 32
_cell_length_a 16.948929
_cell_length_b 8.736731
_cell_length_c 21.077686
_cell_angle_alpha 90.000000
_cell_angle_beta 30.144330
_cell_angle_gamma 90.000000
_cell_volume 1567.377223
_symmetry_space_group_name_H-M "C M"
_symmetry_group_IT_number 8
_symmetry_cell_setting 'monoclinic'
loop_
_space_group_symop_operation_xyz
x,y,z
x,-y,z
1/2+x,1/2+y,z
1/2+x,1/2-y,z
loop_
_atom_site_type_symbol
_atom_site_label
_atom_site_fract_x
_atom_site_fract_y
_atom_site_fract_z
Si Si1 0.019410 0.827991 0.515150
Si Si2 0.798845 0.316298 0.864001
Si Si3 0.178186 0.178805 0.268413
Si Si4 0.884968 0.675777 0.431561
Si Si5 0.507880 0.182669 0.984931
Si Si6 0.202465 0.329085 0.671004
Si Si7 0.905928 0.823258 0.918924
Si Si8 0.615058 0.825591 0.565896
O O1 0.112119 0.799733 0.385245
O O2 0.046937 0.692488 0.543727
O O3 0.832766 0.832775 0.634256
O O4 0.062560 0.000000 0.507310
O O5 0.784233 0.500000 0.876350
O O6 0.798746 0.251090 0.936859
O O7 0.971606 0.281454 0.712945
O O8 0.663421 0.252238 0.910608
O O9 0.360584 0.213534 0.134057
O O10 0.065259 0.276235 0.301121
O O11 0.156107 0.000000 0.267763
O O12 0.874947 0.500000 0.457505
O O13 0.804578 0.787698 0.538909
O O14 0.765829 0.714144 0.458552
O O15 0.531823 0.000000 0.961518
O O16 0.441031 0.244302 0.963234
O O17 0.130258 0.500000 0.716878
O O18 0.078016 0.198405 0.768784
O O19 0.862582 0.000000 0.958019
O O20 0.660173 0.000000 0.547041
#
# Coordination Sequence:
#
# PCOD9132082 Si02
#       8
#     4   4   4   4   4   4   4   4
#     4   9  19  35  58  86 117 154 198 249 309 373
#     4  11  24  42  65  94 131 170 212 266 319 380
#     4   9  21  43  64  84 117 162 207 253 309 372
#     4  11  21  34  59  88 118 155 196 248 304 365
#     4  11  24  44  68  92 125 171 219 269 322 378
#     4  10  19  35  58  85 120 157 195 247 308 372
#     4  12  24  39  63  95 129 168 215 264 321 385
#     4  11  22  36  57  88 125 159 198 250 312 377
#
# _framework density 20.416271999999999
#
# number of rings (size 3 to 8) (size 9 to 14) (size 15 to 20)
#    0.000    1.500    1.250    5.250    0.000    7.000 
#    2.250    0.000    0.000    0.000    0.000    0.000 
#    0.000    0.000    0.000    0.000    0.000    0.000 
#
# Total GULP energy -89119.524576 kJ/mol
# GULP energy per Si atom -5569.970286 kJ/mol
# Density = 2.036980 g / cm^3
# Si number density = 20.416272 Si / 1000 Ang^3
#
#
#
# Elastic Constant Matrix: (Units=GPa)
#
#
# Indices 1 2 3 4 5 6 
#
# 1 103.4826 57.4225 18.3297 0.0000 -8.9377 0.0000
# 2 57.4225 92.4353 24.8504 0.0000 -12.4121 0.0000
# 3 18.3297 24.8504 51.2999 -0.0001 -14.9746 0.0000
# 4 0.0000 0.0000 -0.0001 23.3714 0.0000 -4.9151
# 5 -8.9377 -12.4121 -14.9746 0.0000 22.6712 0.0000
# 6 0.0000 0.0000 0.0000 -4.9151 0.0000 37.3611
#
#
#
# Elastic Compliance Matrix: (Units=1/GPa)
#
#
# Indices 1 2 3 4 5 6 
#
# 1 0.014791 -0.008905 -0.000857 0.000000 0.000389 0.000000
# 2 -0.008905 0.018029 -0.004578 0.000000 0.003336 0.000000
# 3 -0.000857 -0.004578 0.026248 0.000000 0.014493 0.000000
# 4 0.000000 0.000000 0.000000 0.044005 0.000000 0.005789
# 5 0.000389 0.003336 0.014493 0.000000 0.055661 0.000000
# 6 0.000000 0.000000 0.000000 0.005789 0.000000 0.027527
#
#
# Mechanical properties :
#
#
# Convention : Reuss Voigt Hill
#
# Bulk Modulus (GPa) = 32.90953 49.82478 41.36715
# Shear Modulus (GPa) = 22.21523 26.45507 24.33515
#
# Velocity S-wave (km/s) = 3.30224 3.60360 3.45621
# Velocity P-wave (km/s) = 5.54021 6.46313 6.01938
#
# Compressibility (1/GPa) = 0.03038634
#
# Stress axis : x y z
#
# Youngs Moduli (GPa) = 67.61072 55.46522 38.09880
#
# Poissons Ratio (x) = 0.49394 0.03266
# Poissons Ratio (y) = 0.60210 0.17441
# Poissons Ratio (z) = 0.05796 0.25391
#
# Static dielectric constant tensor:
#      x y z
#    x 1.861540 0.000000 -0.027850 
#    y 0.000000 1.711660 0.000000 
#    z -0.027850 0.000000 1.747040 
# 
# From -- ./inp_files/32116.got.cif
#   From: 2010.05.17/outbox.cif.g08.bks.cpg/sg8_17_cif.got.tgz:32116.got - 2010.06.03 19:46:02.
