data_PCOD9132902
_publ_section_title
;
Structure prediction by ZEFSAII (Michael W. Deem and Ramdas Pophale) SiO2 
 PCOD9132902
Probable space group: C M
;
_chemical_formula_sum "Si O2"
_cell_formula_units_Z 26
_cell_length_a 14.679064
_cell_length_b 7.763980
_cell_length_c 10.025014
_cell_angle_alpha 90.000000
_cell_angle_beta 63.089326
_cell_angle_gamma 90.000000
_cell_volume 1018.809459
_symmetry_space_group_name_H-M "C M"
_symmetry_group_IT_number 8
_symmetry_cell_setting 'monoclinic'
loop_
_space_group_symop_operation_xyz
x,y,z
x,-y,z
1/2+x,1/2+y,z
1/2+x,1/2-y,z
loop_
_atom_site_type_symbol
_atom_site_label
_atom_site_fract_x
_atom_site_fract_y
_atom_site_fract_z
Si Si1 0.631590 0.697163 0.789830
Si Si2 0.289949 0.703155 0.339657
Si Si3 0.566498 0.203771 0.411846
Si Si4 0.346012 0.703154 0.593865
Si Si5 0.517668 0.000000 0.772829
Si Si6 0.623384 0.707887 0.084090
Si Si7 0.839976 0.691341 0.033245
O O1 0.599307 0.500000 0.784302
O O2 0.754668 0.698819 0.727417
O O3 0.603261 0.844647 0.703743
O O4 0.590206 0.768354 0.959868
O O5 0.278990 0.500000 0.364721
O O6 0.333763 0.768722 0.449105
O O7 0.359886 0.722217 0.162037
O O8 0.176797 0.775097 0.382457
O O9 0.464164 0.268627 0.549818
O O10 0.561843 0.239775 0.255933
O O11 0.565111 0.000000 0.435813
O O12 0.327167 0.500000 0.618930
O O13 0.431330 0.150808 0.872163
O O14 0.622275 0.500000 0.074001
O O15 0.739229 0.772978 0.035222
O O16 0.806219 0.500000 0.098824
#
# Coordination Sequence:
#
# PCOD9132902 Si02
#       7
#     4   4   4   4   2   4   4
#     4  11  24  41  61  89 125 161 205 255 303 367
#     4   9  20  38  60  89 124 157 201 254 303 366
#     4  10  21  37  62  92 118 159 204 251 309 362
#     4  11  23  41  60  84 123 165 206 250 307 365
#     4  10  22  40  64  88 122 160 206 250 310 358
#     4   9  19  38  60  86 120 156 197 249 305 357
#     4   8  18  36  59  87 115 156 192 248 306 353
#
# _framework density 25.519981999999999
#
# number of rings (size 3 to 8) (size 9 to 14) (size 15 to 20)
#    0.462    1.846    0.769    0.923    3.231    2.462 
#    2.769    0.000    0.000    0.000    0.000    0.000 
#    0.000    0.000    0.000    0.000    0.000    0.000 
#
# Total GULP energy -72368.824896 kJ/mol
# GULP energy per Si atom -5566.832684 kJ/mol
# Density = 2.546190 g / cm^3
# Si number density = 25.519982 Si / 1000 Ang^3
#
#
#
# Elastic Constant Matrix: (Units=GPa)
#
#
# Indices 1 2 3 4 5 6 
#
# 1 75.0903 3.5779 44.5909 0.0000 -13.8276 0.0000
# 2 3.5779 82.7904 15.8480 0.0000 8.5198 0.0000
# 3 44.5909 15.8480 76.2308 0.0000 -25.1953 0.0000
# 4 0.0000 0.0000 0.0000 28.9102 0.0000 -17.6321
# 5 -13.8276 8.5198 -25.1953 0.0000 45.6810 0.0000
# 6 0.0000 0.0000 0.0000 -17.6321 0.0000 14.7003
#
#
#
# Elastic Compliance Matrix: (Units=1/GPa)
#
#
# Indices 1 2 3 4 5 6 
#
# 1 0.020620 0.001670 -0.012778 0.000000 -0.001118 0.000000
# 2 0.001670 0.013571 -0.005464 0.000000 -0.005039 0.000000
# 3 -0.012778 -0.005464 0.025421 0.000000 0.011172 0.000000
# 4 0.000000 0.000000 0.000000 0.128838 0.000000 0.154533
# 5 -0.001118 -0.005039 0.011172 0.000000 0.028654 0.000000
# 6 0.000000 0.000000 0.000000 0.154533 0.000000 0.253378
#
#
# Mechanical properties :
#
#
# Convention : Reuss Voigt Hill
#
# Bulk Modulus (GPa) = 37.78119 40.23836 39.00977
# Shear Modulus (GPa) = 9.75708 29.19795 19.47752
#
# Velocity S-wave (km/s) = 1.95745 3.38616 2.76565
# Velocity P-wave (km/s) = 4.46604 5.57581 5.05149
#
# Compressibility (1/GPa) = 0.02646820
#
# Stress axis : x y z
#
# Youngs Moduli (GPa) = 48.49666 73.68687 39.33780
#
# Poissons Ratio (x) = -0.12305 0.50266
# Poissons Ratio (y) = -0.08098 0.21493
# Poissons Ratio (z) = 0.61969 0.40259
#
# Static dielectric constant tensor:
#      x y z
#    x 2.099130 0.000000 0.067730 
#    y 0.000000 1.935830 0.000000 
#    z 0.067730 0.000000 2.244480 
# 
# From -- ./inp_files/21279.got.cif
#   From: 2010.05.17/outbox.cif.g08.bks.cpg/sg8_11_cif.got.tgz:21279.got - 2010.06.03 19:46:02.
