data_PCOD9132710
_publ_section_title
;
Structure prediction by ZEFSAII (Michael W. Deem and Ramdas Pophale) SiO2 
 PCOD9132710
Probable space group: C M
;
_chemical_formula_sum "Si O2"
_cell_formula_units_Z 32
_cell_length_a 9.961157
_cell_length_b 17.048824
_cell_length_c 15.101461
_cell_angle_alpha 90.000000
_cell_angle_beta 36.354943
_cell_angle_gamma 90.000000
_cell_volume 1520.270702
_symmetry_space_group_name_H-M "C M"
_symmetry_group_IT_number 8
_symmetry_cell_setting 'monoclinic'
loop_
_space_group_symop_operation_xyz
x,y,z
x,-y,z
1/2+x,1/2+y,z
1/2+x,1/2-y,z
loop_
_atom_site_type_symbol
_atom_site_label
_atom_site_fract_x
_atom_site_fract_y
_atom_site_fract_z
Si Si1 0.034460 0.677046 0.756160
Si Si2 0.040038 0.352584 0.287131
Si Si3 0.701981 0.089486 0.840138
Si Si4 0.986595 0.166062 0.292704
Si Si5 0.029995 0.814698 0.076793
Si Si6 0.697854 0.649323 0.627184
Si Si7 0.904368 0.368482 0.166404
Si Si8 0.535311 0.090726 0.579927
O O1 0.116939 0.648340 0.808424
O O2 0.158277 0.757046 0.659702
O O3 0.071000 0.611016 0.663262
O O4 0.763341 0.689498 0.900551
O O5 0.997325 0.258920 0.302008
O O6 0.311142 0.359808 0.155463
O O7 0.965679 0.390973 0.233835
O O8 0.882634 0.374149 0.454063
O O9 0.958152 0.112420 0.729036
O O10 0.690305 0.000000 0.813821
O O11 0.554203 0.095497 0.008506
O O12 0.087325 0.150189 0.142407
O O13 0.139992 0.122589 0.283434
O O14 0.729382 0.139827 0.428060
O O15 0.952290 0.725025 0.132789
O O16 0.796144 0.618307 0.667737
O O17 0.565403 0.000000 0.546244
#
# Coordination Sequence:
#
# PCOD9132710 Si02
#       8
#     4   4   4   4   4   4   4   4
#     4  12  25  43  73 101 128 181 233 276 326 401
#     4  10  22  39  69 101 126 166 228 285 322 381
#     4  12  27  45  64 101 146 179 216 279 348 403
#     4  10  20  39  64  94 130 168 222 279 322 385
#     4  10  20  40  66  99 125 164 231 282 312 381
#     4  12  25  44  71 101 132 179 229 276 330 404
#     4  10  22  38  67  97 131 169 219 282 331 387
#     4  12  27  44  64  98 140 180 218 277 345 400
#
# _framework density 21.048883
#
# number of rings (size 3 to 8) (size 9 to 14) (size 15 to 20)
#    0.000    1.000    5.000    1.500    3.500    0.500 
#    0.000    1.250    0.000    0.000    0.000    0.000 
#    0.000    0.000    0.000    0.000    0.000    0.000 
#
# Total GULP energy -89362.026847 kJ/mol
# GULP energy per Si atom -5585.126678 kJ/mol
# Density = 2.100098 g / cm^3
# Si number density = 21.048883 Si / 1000 Ang^3
#
#
#
# Elastic Constant Matrix: (Units=GPa)
#
#
# Indices 1 2 3 4 5 6 
#
# 1 69.8523 1.5445 12.2583 0.0140 5.1980 -0.0071
# 2 1.5445 26.0068 -9.8955 0.0108 0.9051 0.0009
# 3 12.2583 -9.8955 59.7162 0.0192 -0.7950 0.0016
# 4 0.0140 0.0108 0.0192 1.5141 -0.0006 2.3532
# 5 5.1980 0.9051 -0.7950 -0.0006 37.9551 -0.0005
# 6 -0.0071 0.0009 0.0016 2.3532 -0.0005 18.9374
#
#
#
# Elastic Compliance Matrix: (Units=1/GPa)
#
#
# Indices 1 2 3 4 5 6 
#
# 1 0.015132 -0.002154 -0.003491 -0.000113 -0.002094 0.000020
# 2 -0.002154 0.041373 0.007291 -0.000450 -0.000539 0.000053
# 3 -0.003491 0.007291 0.018680 -0.000311 0.000696 0.000035
# 4 -0.000113 -0.000450 -0.000311 0.818523 0.000031 -0.101709
# 5 -0.002094 -0.000539 0.000696 0.000031 0.026661 -0.000004
# 6 0.000020 0.000053 0.000035 -0.101709 -0.000004 0.065444
#
#
# Mechanical properties :
#
#
# Convention : Reuss Voigt Hill
#
# Bulk Modulus (GPa) = 12.74270 18.15443 15.44857
# Shear Modulus (GPa) = 4.95697 21.79255 13.37476
#
# Velocity S-wave (km/s) = 1.53626 3.22115 2.52348
# Velocity P-wave (km/s) = 3.03542 4.74110 3.98069
#
# Compressibility (1/GPa) = 0.07847631
#
# Stress axis : x y z
#
# Youngs Moduli (GPa) = 66.08492 24.17064 53.53307
#
# Poissons Ratio (x) = 0.05207 0.18689
# Poissons Ratio (y) = 0.14235 -0.39031
# Poissons Ratio (z) = 0.23071 -0.17623
#
# Static dielectric constant tensor:
#      x y z
#    x 1.765020 -0.000010 0.011030 
#    y -0.000010 1.726190 0.000010 
#    z 0.011030 0.000010 1.763040 
# 
# From -- ./inp_files/25591.got.cif
#   From: 2010.05.17/outbox.cif.g08.bks.cpg/sg8_13_cif.got.tgz:25591.got - 2010.06.03 19:46:02.
