data_PCOD9132297
_publ_section_title
;
Structure prediction by ZEFSAII (Michael W. Deem and Ramdas Pophale) SiO2 
 PCOD9132297
Probable space group: C M
;
_chemical_formula_sum "Si O2"
_cell_formula_units_Z 28
_cell_length_a 9.120812
_cell_length_b 13.076914
_cell_length_c 17.261737
_cell_angle_alpha 90.000000
_cell_angle_beta 44.642757
_cell_angle_gamma 90.000000
_cell_volume 1446.716584
_symmetry_space_group_name_H-M "C M"
_symmetry_group_IT_number 8
_symmetry_cell_setting 'monoclinic'
loop_
_space_group_symop_operation_xyz
x,y,z
x,-y,z
1/2+x,1/2+y,z
1/2+x,1/2-y,z
loop_
_atom_site_type_symbol
_atom_site_label
_atom_site_fract_x
_atom_site_fract_y
_atom_site_fract_z
Si Si1 0.319120 0.808518 0.976980
Si Si2 0.200761 0.109746 0.173251
Si Si3 0.604341 0.886500 0.114250
Si Si4 0.269921 0.743674 0.826416
Si Si5 0.890007 0.724310 0.335377
Si Si6 0.506759 0.120211 0.446914
Si Si7 0.186771 0.119206 0.709914
O O1 0.249609 0.805645 0.914713
O O2 0.565684 0.826207 0.889714
O O3 0.186176 0.876063 0.086392
O O4 0.279325 0.695246 0.027863
O O5 0.443712 0.114039 0.103060
O O6 0.084377 0.197736 0.262401
O O7 0.117495 0.000000 0.228638
O O8 0.459059 0.851676 0.240446
O O9 0.685924 0.000000 0.096359
O O10 0.272186 0.820227 0.752736
O O11 0.476664 0.675896 0.760223
O O12 0.695034 0.798855 0.390707
O O13 0.884867 0.661346 0.416765
O O14 0.355835 0.123676 0.577728
O O15 0.570739 0.000000 0.411825
O O16 0.145035 0.000000 0.743551
#
# Coordination Sequence:
#
# PCOD9132297 Si02
#       7
#     4   4   4   4   4   4   4
#     4  10  20  35  57  86 117 152 194 239 291 348
#     4  10  20  34  54  85 120 155 193 236 286 349
#     4  10  20  35  57  86 119 158 197 235 285 353
#     4  10  21  39  61  85 116 153 198 247 296 348
#     4  11  21  39  59  88 122 155 196 242 291 351
#     4  11  23  40  63  89 117 156 199 246 301 351
#     4  10  23  42  63  87 117 153 199 251 302 350
#
# _framework density 19.354171000000001
#
# number of rings (size 3 to 8) (size 9 to 14) (size 15 to 20)
#    0.000    1.714    2.857    1.714    0.000    3.429 
#    0.000    3.571    0.000    8.571    0.000    0.000 
#    0.000    0.000    0.000    0.000    0.000    0.000 
#
# Total GULP energy -78059.802188 kJ/mol
# GULP energy per Si atom -5575.700156 kJ/mol
# Density = 1.931012 g / cm^3
# Si number density = 19.354171 Si / 1000 Ang^3
#
#
#
# Elastic Constant Matrix: (Units=GPa)
#
#
# Indices 1 2 3 4 5 6 
#
# 1 86.3730 28.7453 26.6101 0.0000 11.5323 0.0000
# 2 28.7453 114.0260 31.6009 0.0000 8.8769 0.0000
# 3 26.6101 31.6009 77.5201 0.0000 23.7297 -0.0001
# 4 0.0000 0.0000 0.0000 5.5214 0.0000 -3.4456
# 5 11.5323 8.8769 23.7297 0.0000 35.9792 0.0001
# 6 0.0000 0.0000 -0.0001 -3.4456 0.0001 22.1024
#
#
#
# Elastic Compliance Matrix: (Units=1/GPa)
#
#
# Indices 1 2 3 4 5 6 
#
# 1 0.013580 -0.002416 -0.003166 0.000000 -0.001669 0.000000
# 2 -0.002416 0.010319 -0.003552 0.000000 0.000571 0.000000
# 3 -0.003166 -0.003552 0.018614 0.000000 -0.010385 0.000000
# 4 0.000000 0.000000 0.000000 0.200634 0.000000 0.031277
# 5 -0.001669 0.000571 -0.010385 0.000000 0.035037 0.000000
# 6 0.000000 0.000000 0.000000 0.031277 0.000000 0.050120
#
#
# Mechanical properties :
#
#
# Convention : Reuss Voigt Hill
#
# Bulk Modulus (GPa) = 41.24624 50.20351 45.72488
# Shear Modulus (GPa) = 14.09830 25.45145 19.77488
#
# Velocity S-wave (km/s) = 2.70189 3.63028 3.19993
# Velocity P-wave (km/s) = 5.57594 6.60057 6.10978
#
# Compressibility (1/GPa) = 0.02424463
#
# Stress axis : x y z
#
# Youngs Moduli (GPa) = 73.63814 96.90924 53.72416
#
# Poissons Ratio (x) = 0.23415 0.17008
# Poissons Ratio (y) = 0.17792 0.19083
# Poissons Ratio (z) = 0.23312 0.34422
#
# Static dielectric constant tensor:
#      x y z
#    x 1.688020 0.000000 0.008130 
#    y 0.000000 1.681520 0.000000 
#    z 0.008130 0.000000 1.670700 
# 
# From -- ./inp_files/18758.got.cif
#   From: 2010.05.17/outbox.cif.g08.bks.cpg/sg8_10_cif.got.tgz:18758.got - 2010.06.03 19:46:02.
