data_PCOD9132151
_publ_section_title
;
Structure prediction by ZEFSAII (Michael W. Deem and Ramdas Pophale) SiO2 
 PCOD9132151
Probable space group: C M
;
_chemical_formula_sum "Si O2"
_cell_formula_units_Z 32
_cell_length_a 17.149472
_cell_length_b 13.822850
_cell_length_c 11.972315
_cell_angle_alpha 90.000000
_cell_angle_beta 147.719236
_cell_angle_gamma 90.000000
_cell_volume 1515.735695
_symmetry_space_group_name_H-M "C M"
_symmetry_group_IT_number 8
_symmetry_cell_setting 'monoclinic'
loop_
_space_group_symop_operation_xyz
x,y,z
x,-y,z
1/2+x,1/2+y,z
1/2+x,1/2-y,z
loop_
_atom_site_type_symbol
_atom_site_label
_atom_site_fract_x
_atom_site_fract_y
_atom_site_fract_z
Si Si1 0.250000 0.114601 0.315290
Si Si2 0.317042 0.607609 0.022433
Si Si3 0.834425 0.382484 0.658867
Si Si4 0.570739 0.698209 0.458257
Si Si5 0.050099 0.385639 0.542459
Si Si6 0.402933 0.614674 0.469534
Si Si7 0.162953 0.315074 0.037441
Si Si8 0.104311 0.113154 0.921510
O O1 0.261430 0.152447 0.453755
O O2 0.402733 0.135070 0.434906
O O3 0.254419 0.000000 0.336810
O O4 0.110473 0.127983 0.064186
O O5 0.361863 0.500000 0.043451
O O6 0.195754 0.640424 0.788011
O O7 0.227557 0.606996 0.030327
O O8 0.462756 0.663264 0.229857
O O9 0.843487 0.500000 0.675529
O O10 0.730543 0.342061 0.628898
O O11 0.995143 0.337192 0.854203
O O12 0.556598 0.813295 0.447853
O O13 0.512914 0.654358 0.506729
O O14 0.050654 0.500000 0.519131
O O15 0.381047 0.500000 0.425920
O O16 0.468106 0.624251 0.673198
O O17 0.255353 0.672945 0.262622
O O18 0.191357 0.213523 0.005777
O O19 0.155692 0.000000 0.966997
#
# Coordination Sequence:
#
# PCOD9132151 Si02
#       8
#     4   4   4   4   4   4   4   4
#     4   9  18  36  64  93 120 156 207 260 301 349
#     4  10  19  36  61  88 118 157 209 256 295 357
#     4  11  22  38  62  98 130 156 200 263 318 360
#     4  11  22  37  60  95 124 162 200 252 316 370
#     4  10  20  37  62  90 120 162 211 254 297 362
#     4  10  21  38  61  91 126 162 205 253 307 372
#     4  11  20  34  64  89 117 163 209 253 303 362
#     4  10  22  38  59  90 123 160 206 259 304 354
#
# _framework density 21.11186
#
# number of rings (size 3 to 8) (size 9 to 14) (size 15 to 20)
#    0.000    1.750    1.250    5.250    1.750    0.000 
#    2.250    0.625    0.000    1.500    0.000    0.000 
#    0.000    0.000    0.000    0.000    0.000    0.000 
#
# Total GULP energy -89080.241936 kJ/mol
# GULP energy per Si atom -5567.515121 kJ/mol
# Density = 2.106381 g / cm^3
# Si number density = 21.111860 Si / 1000 Ang^3
#
#
#
# Elastic Constant Matrix: (Units=GPa)
#
#
# Indices 1 2 3 4 5 6 
#
# 1 54.3543 15.3308 46.0709 0.0000 13.1887 0.0000
# 2 15.3308 109.8780 35.8990 0.0000 -2.1064 0.0000
# 3 46.0709 35.8990 145.0502 0.0000 -6.6014 0.0000
# 4 0.0000 0.0000 0.0000 35.8513 0.0000 -4.4861
# 5 13.1887 -2.1064 -6.6014 0.0000 27.0982 0.0000
# 6 0.0000 0.0000 0.0000 -4.4861 0.0000 12.3159
#
#
#
# Elastic Compliance Matrix: (Units=1/GPa)
#
#
# Indices 1 2 3 4 5 6 
#
# 1 0.032438 -0.001349 -0.010812 0.000000 -0.018526 0.000000
# 2 -0.001349 0.009959 -0.001993 0.000000 0.000945 0.000000
# 3 -0.010812 -0.001993 0.011178 0.000000 0.007831 0.000000
# 4 0.000000 0.000000 0.000000 0.029225 0.000000 0.010645
# 5 -0.018526 0.000945 0.007831 0.000000 0.047901 0.000000
# 6 0.000000 0.000000 0.000000 0.010645 0.000000 0.085073
#
#
# Mechanical properties :
#
#
# Convention : Reuss Voigt Hill
#
# Bulk Modulus (GPa) = 39.57853 55.98711 47.78282
# Shear Modulus (GPa) = 19.80162 29.18521 24.49341
#
# Velocity S-wave (km/s) = 3.06590 3.72211 3.40983
# Velocity P-wave (km/s) = 5.59649 6.71185 6.17939
#
# Compressibility (1/GPa) = 0.02526622
#
# Stress axis : x y z
#
# Youngs Moduli (GPa) = 30.82787 100.41645 89.46033
#
# Poissons Ratio (x) = 0.13541 0.96728
# Poissons Ratio (y) = 0.04157 0.17833
# Poissons Ratio (z) = 0.33332 0.20017
#
# Static dielectric constant tensor:
#      x y z
#    x 1.728930 0.000000 -0.028010 
#    y 0.000000 1.866400 0.000000 
#    z -0.028010 0.000000 1.818560 
# 
# From -- ./inp_files/23349.got.cif
#   From: 2010.05.17/outbox.cif.g08.bks.cpg/sg8_12_cif.got.tgz:23349.got - 2010.06.03 19:46:02.
