data_PCOD9132474
_publ_section_title
;
Structure prediction by ZEFSAII (Michael W. Deem and Ramdas Pophale) SiO2 
 PCOD9132474
Probable space group: C M
;
_chemical_formula_sum "Si O2"
_cell_formula_units_Z 24
_cell_length_a 5.192090
_cell_length_b 18.783423
_cell_length_c 12.321203
_cell_angle_alpha 90.000000
_cell_angle_beta 103.357061
_cell_angle_gamma 90.000000
_cell_volume 1169.123166
_symmetry_space_group_name_H-M "C M"
_symmetry_group_IT_number 8
_symmetry_cell_setting 'monoclinic'
loop_
_space_group_symop_operation_xyz
x,y,z
x,-y,z
1/2+x,1/2+y,z
1/2+x,1/2-y,z
loop_
_atom_site_type_symbol
_atom_site_label
_atom_site_fract_x
_atom_site_fract_y
_atom_site_fract_z
Si Si1 0.664670 0.085259 0.294090
Si Si2 0.604961 0.357558 0.615231
Si Si3 0.800359 0.299069 0.854045
Si Si4 0.949404 0.301731 0.104251
Si Si5 0.543129 0.706651 0.388242
Si Si6 0.558689 0.921345 0.532703
O O1 0.508654 0.132227 0.190050
O O2 0.938762 0.129968 0.336997
O O3 0.534588 0.091498 0.401409
O O4 0.693124 0.000000 0.273609
O O5 0.738675 0.345907 0.743396
O O6 0.614353 0.297170 0.523043
O O7 0.294193 0.372174 0.598832
O O8 0.785636 0.414813 0.569670
O O9 0.540386 0.252360 0.847371
O O10 0.875716 0.332223 0.977548
O O11 0.707476 0.249353 0.114521
O O12 0.791904 0.741280 0.354610
O O13 0.667511 0.000000 0.555399
#
# Coordination Sequence:
#
# PCOD9132474 Si02
#       6
#     4   4   4   4   4   4
#     4  10  22  40  60  86 120 157 198 242 292 347
#     4  11  20  35  58  86 116 150 193 239 291 349
#     4  10  20  36  59  85 114 147 189 243 295 341
#     4  10  22  41  63  86 116 155 198 244 293 345
#     4  11  21  35  56  85 116 147 186 234 285 341
#     4  10  22  37  55  82 119 158 192 236 293 349
#
# _framework density 20.528206999999998
#
# number of rings (size 3 to 8) (size 9 to 14) (size 15 to 20)
#    0.000    1.667    0.000    5.500    0.000    3.333 
#    0.000    8.333    0.000    0.000    0.000    0.000 
#    0.000    0.000    0.000    0.000    0.000    0.000 
#
# Total GULP energy -66954.501120 kJ/mol
# GULP energy per Si atom -5579.541760 kJ/mol
# Density = 2.048148 g / cm^3
# Si number density = 20.528207 Si / 1000 Ang^3
#
#
#
# Elastic Constant Matrix: (Units=GPa)
#
#
# Indices 1 2 3 4 5 6 
#
# 1 88.4165 27.3975 3.9081 0.0000 18.2822 0.0000
# 2 27.3975 112.6947 56.5338 0.0000 17.3812 0.0000
# 3 3.9081 56.5338 170.4308 0.0000 19.7231 0.0000
# 4 0.0000 0.0000 0.0000 14.3693 0.0000 -6.2219
# 5 18.2822 17.3812 19.7231 0.0000 18.1225 0.0000
# 6 0.0000 0.0000 0.0000 -6.2219 0.0000 22.1969
#
#
#
# Elastic Compliance Matrix: (Units=1/GPa)
#
#
# Indices 1 2 3 4 5 6 
#
# 1 0.015146 -0.002433 0.002240 0.000000 -0.015384 0.000000
# 2 -0.002433 0.011948 -0.003278 0.000000 -0.005437 0.000000
# 3 0.002240 -0.003278 0.007781 0.000000 -0.007584 0.000000
# 4 0.000000 0.000000 0.000000 0.079206 0.000000 0.022202
# 5 -0.015384 -0.005437 -0.007584 0.000000 0.084168 0.000000
# 6 0.000000 0.000000 0.000000 0.022202 0.000000 0.051275
#
#
# Mechanical properties :
#
#
# Convention : Reuss Voigt Hill
#
# Bulk Modulus (GPa) = 35.80060 60.80232 48.30146
# Shear Modulus (GPa) = 18.81268 29.85124 24.33196
#
# Velocity S-wave (km/s) = 3.03054 3.81748 3.44654
# Velocity P-wave (km/s) = 5.45190 7.00814 6.27842
#
# Compressibility (1/GPa) = 0.02793249
#
# Stress axis : x y z
#
# Youngs Moduli (GPa) = 66.02382 83.69419 128.51385
#
# Poissons Ratio (x) = 0.20365 -0.28789
# Poissons Ratio (y) = 0.16065 0.42132
# Poissons Ratio (z) = -0.14790 0.27438
#
# Static dielectric constant tensor:
#      x y z
#    x 1.741120 0.000000 0.015090 
#    y 0.000000 1.759300 0.000000 
#    z 0.015090 0.000000 1.781470 
# 
# From -- ./inp_files/18034.got.cif
#   From: 2010.05.17/outbox.cif.g08.bks.cpg/sg8_10_cif.got.tgz:18034.got - 2010.06.03 19:46:02.
