data_PCOD9132907
_publ_section_title
;
Structure prediction by ZEFSAII (Michael W. Deem and Ramdas Pophale) SiO2 
 PCOD9132907
Probable space group: C M
;
_chemical_formula_sum "Si O2"
_cell_formula_units_Z 32
_cell_length_a 10.562832
_cell_length_b 17.535951
_cell_length_c 14.127553
_cell_angle_alpha 90.000000
_cell_angle_beta 148.530199
_cell_angle_gamma 90.000000
_cell_volume 1366.117276
_symmetry_space_group_name_H-M "C M"
_symmetry_group_IT_number 8
_symmetry_cell_setting 'monoclinic'
loop_
_space_group_symop_operation_xyz
x,y,z
x,-y,z
1/2+x,1/2+y,z
1/2+x,1/2-y,z
loop_
_atom_site_type_symbol
_atom_site_label
_atom_site_fract_x
_atom_site_fract_y
_atom_site_fract_z
Si Si1 0.381810 0.295677 0.583900
Si Si2 0.082751 0.331786 0.007768
Si Si3 0.788010 0.215967 0.939808
Si Si4 0.985544 0.086609 0.815298
Si Si5 0.432295 0.914836 0.470734
Si Si6 0.136602 0.910634 0.624225
Si Si7 0.652336 0.411111 0.116231
Si Si8 0.098579 0.841599 0.401835
O O1 0.579411 0.228601 0.728009
O O2 0.461163 0.353386 0.717057
O O3 0.431981 0.348124 0.524936
O O4 0.132654 0.249658 0.438503
O O5 0.166911 0.284964 0.966741
O O6 0.976440 0.280321 0.024904
O O7 0.873486 0.388407 0.837317
O O8 0.327575 0.366592 0.204869
O O9 0.938198 0.138365 0.024488
O O10 0.709905 0.087057 0.677991
O O11 0.167005 0.108515 0.014850
O O12 0.037348 0.000000 0.815592
O O13 0.259566 0.857256 0.412728
O O14 0.340220 0.000000 0.433466
O O15 0.393221 0.904138 0.333123
O O16 0.190276 0.889183 0.549930
O O17 0.074014 0.000000 0.595020
O O18 0.583294 0.500000 0.073133
#
# Coordination Sequence:
#
# PCOD9132907 Si02
#       8
#     4   4   4   4   4   4   4   4
#     4  11  25  43  69  97 137 177 229 278 340 418
#     4  11  26  42  71  98 139 181 232 292 345 421
#     4  11  22  44  63  99 134 176 225 282 347 406
#     4  10  22  41  66  94 129 172 213 273 339 401
#     4  10  22  39  63  98 129 164 221 276 331 400
#     4  11  27  49  69  99 142 187 230 285 350 419
#     4  10  21  37  63  92 127 164 211 273 335 392
#     4  12  25  41  70 101 133 179 231 283 343 407
#
# _framework density 23.424050000000001
#
# number of rings (size 3 to 8) (size 9 to 14) (size 15 to 20)
#    0.000    1.250    2.500    2.250    7.000    1.500 
#    0.000    0.000    0.000    3.000    0.000    0.000 
#    0.000    0.000    0.000    0.000    0.000    0.000 
#
# Total GULP energy -89327.246753 kJ/mol
# GULP energy per Si atom -5582.952922 kJ/mol
# Density = 2.337074 g / cm^3
# Si number density = 23.424050 Si / 1000 Ang^3
#
#
#
# Elastic Constant Matrix: (Units=GPa)
#
#
# Indices 1 2 3 4 5 6 
#
# 1 50.3443 11.2326 -4.6861 0.0025 -12.4982 0.0001
# 2 11.2326 92.8437 12.6982 0.0044 -10.5551 0.0014
# 3 -4.6861 12.6982 86.9964 -0.0048 -12.8230 -0.0017
# 4 0.0025 0.0044 -0.0048 8.0546 -0.0019 -4.6741
# 5 -12.4982 -10.5551 -12.8230 -0.0019 31.4338 0.0014
# 6 0.0001 0.0014 -0.0017 -4.6741 0.0014 36.1316
#
#
#
# Elastic Compliance Matrix: (Units=1/GPa)
#
#
# Indices 1 2 3 4 5 6 
#
# 1 0.023003 -0.002091 0.002967 -0.000002 0.009654 0.000000
# 2 -0.002091 0.011497 -0.001430 -0.000007 0.002446 -0.000001
# 3 0.002967 -0.001430 0.012732 0.000010 0.005893 0.000002
# 4 -0.000002 -0.000007 0.000010 0.134230 0.000008 0.017364
# 5 0.009654 0.002446 0.005893 0.000008 0.038877 0.000000
# 6 0.000000 -0.000001 0.000002 0.017364 0.000000 0.029923
#
#
# Mechanical properties :
#
#
# Convention : Reuss Voigt Hill
#
# Bulk Modulus (GPa) = 21.68086 29.85265 25.76676
# Shear Modulus (GPa) = 18.74449 29.18663 23.96556
#
# Velocity S-wave (km/s) = 2.83189 3.53372 3.20209
# Velocity P-wave (km/s) = 4.46864 5.42417 4.96943
#
# Compressibility (1/GPa) = 0.04612362
#
# Stress axis : x y z
#
# Youngs Moduli (GPa) = 43.47313 86.97566 78.54228
#
# Poissons Ratio (x) = 0.18189 -0.23306
# Poissons Ratio (y) = 0.09091 0.11234
# Poissons Ratio (z) = -0.12900 0.12440
#
# Static dielectric constant tensor:
#      x y z
#    x 1.905420 0.000000 -0.002970 
#    y 0.000000 1.915600 0.000000 
#    z -0.002970 0.000000 1.908720 
# 
# From -- ./inp_files/26284.got.cif
#   From: 2010.05.17/outbox.cif.g08.bks.cpg/sg8_14_cif.got.tgz:26284.got - 2010.06.03 19:46:02.
