data_PCOD9132327
_publ_section_title
;
Structure prediction by ZEFSAII (Michael W. Deem and Ramdas Pophale) SiO2 
 PCOD9132327
Probable space group: C M
;
_chemical_formula_sum "Si O2"
_cell_formula_units_Z 32
_cell_length_a 32.747766
_cell_length_b 8.092904
_cell_length_c 12.637797
_cell_angle_alpha 90.000000
_cell_angle_beta 26.961601
_cell_angle_gamma 90.000000
_cell_volume 1518.561892
_symmetry_space_group_name_H-M "C M"
_symmetry_group_IT_number 8
_symmetry_cell_setting 'monoclinic'
loop_
_space_group_symop_operation_xyz
x,y,z
x,-y,z
1/2+x,1/2+y,z
1/2+x,1/2-y,z
loop_
_atom_site_type_symbol
_atom_site_label
_atom_site_fract_x
_atom_site_fract_y
_atom_site_fract_z
Si Si1 0.362540 0.303399 0.602090
Si Si2 0.676422 0.309294 0.933457
Si Si3 0.304650 0.192375 0.189543
Si Si4 0.540767 0.297101 0.072282
Si Si5 0.594132 0.810257 0.326280
Si Si6 0.496873 0.308385 0.745798
Si Si7 0.106307 0.797677 0.694364
Si Si8 0.287008 0.303036 0.993090
O O1 0.373734 0.500000 0.587020
O O2 0.268553 0.275240 0.757837
O O3 0.448258 0.239049 0.340080
O O4 0.349583 0.240393 0.752218
O O5 0.698648 0.500000 0.863971
O O6 0.625309 0.243334 0.948690
O O7 0.605762 0.296075 0.194151
O O8 0.210579 0.252820 0.454936
O O9 0.316381 0.000000 0.188965
O O10 0.393715 0.288154 0.017076
O O11 0.296305 0.212457 0.082156
O O12 0.540085 0.500000 0.075569
O O13 0.554620 0.246029 0.919343
O O14 0.514685 0.774187 0.591357
O O15 0.592245 0.000000 0.296497
O O16 0.685520 0.784164 0.183284
O O17 0.519527 0.500000 0.678923
O O18 0.559298 0.239000 0.695109
O O19 0.105210 0.000000 0.693520
O O20 0.302922 0.500000 0.973567
#
# Coordination Sequence:
#
# PCOD9132327 Si02
#       8
#     4   4   4   4   4   4   4   4
#     4   9  19  36  57  82 114 152 189 232 286 339
#     4  10  20  34  57  87 116 149 189 233 284 341
#     4  11  22  36  56  85 115 151 191 237 290 339
#     4   9  19  37  60  83 111 153 195 233 282 339
#     4  10  20  36  58  85 119 152 186 237 291 338
#     4  11  22  37  58  85 114 151 195 236 285 344
#     4   9  20  39  59  81 114 151 194 239 282 339
#     4   9  18  33  55  82 115 149 185 233 284 341
#
# _framework density 21.072569000000001
#
# number of rings (size 3 to 8) (size 9 to 14) (size 15 to 20)
#    0.000    2.250    1.250    2.250    1.750    3.000 
#    0.000    1.250    0.000    7.500    0.000    0.000 
#    0.000    0.000    0.000    0.000    0.000    0.000 
#
# Total GULP energy -89344.973067 kJ/mol
# GULP energy per Si atom -5584.060817 kJ/mol
# Density = 2.102461 g / cm^3
# Si number density = 21.072569 Si / 1000 Ang^3
#
#
#
# Elastic Constant Matrix: (Units=GPa)
#
#
# Indices 1 2 3 4 5 6 
#
# 1 36.2781 -6.5516 5.3873 0.0000 11.6994 0.0000
# 2 -6.5516 11.1146 -7.4829 0.0000 -0.4298 0.0000
# 3 5.3873 -7.4829 108.5487 0.0000 14.3294 0.0000
# 4 0.0000 0.0000 0.0000 19.8247 0.0000 -5.1570
# 5 11.6994 -0.4298 14.3294 0.0000 23.8914 0.0000
# 6 0.0000 0.0000 0.0000 -5.1570 0.0000 14.7647
#
#
#
# Elastic Compliance Matrix: (Units=1/GPa)
#
#
# Indices 1 2 3 4 5 6 
#
# 1 0.037621 0.022957 0.002273 0.000000 -0.019373 0.000000
# 2 0.022957 0.108486 0.008216 0.000000 -0.014218 0.000000
# 3 0.002273 0.008216 0.010636 0.000000 -0.007344 0.000000
# 4 0.000000 0.000000 0.000000 0.055483 0.000000 0.019379
# 5 -0.019373 -0.014218 -0.007344 0.000000 0.055492 0.000000
# 6 0.000000 0.000000 0.000000 0.019379 0.000000 0.074497
#
#
# Mechanical properties :
#
#
# Convention : Reuss Voigt Hill
#
# Bulk Modulus (GPa) = 4.47159 15.40522 9.93841
# Shear Modulus (GPa) = 14.29115 22.66875 18.47995
#
# Velocity S-wave (km/s) = 2.60703 3.28342 2.96458
# Velocity P-wave (km/s) = 3.34496 4.65842 4.05522
#
# Compressibility (1/GPa) = 0.22363406
#
# Stress axis : x y z
#
# Youngs Moduli (GPa) = 26.58105 9.21781 94.02454
#
# Poissons Ratio (x) = -0.21161 -0.21370
# Poissons Ratio (y) = -0.61022 -0.77251
# Poissons Ratio (z) = -0.06041 -0.07573
#
# Static dielectric constant tensor:
#      x y z
#    x 1.737760 0.000000 -0.012730 
#    y 0.000000 1.739210 0.000000 
#    z -0.012730 0.000000 1.767720 
# 
# From -- ./inp_files/24815.got.cif
#   From: 2010.05.17/outbox.cif.g08.bks.cpg/sg8_13_cif.got.tgz:24815.got - 2010.06.03 19:46:02.
