data_PCOD9132530
_publ_section_title
;
Structure prediction by ZEFSAII (Michael W. Deem and Ramdas Pophale) SiO2 
 PCOD9132530
Probable space group: C M
;
_chemical_formula_sum "Si O2"
_cell_formula_units_Z 32
_cell_length_a 9.133202
_cell_length_b 21.717740
_cell_length_c 8.145595
_cell_angle_alpha 90.000000
_cell_angle_beta 95.281812
_cell_angle_gamma 90.000000
_cell_volume 1608.838877
_symmetry_space_group_name_H-M "C M"
_symmetry_group_IT_number 8
_symmetry_cell_setting 'monoclinic'
loop_
_space_group_symop_operation_xyz
x,y,z
x,-y,z
1/2+x,1/2+y,z
1/2+x,1/2-y,z
loop_
_atom_site_type_symbol
_atom_site_label
_atom_site_fract_x
_atom_site_fract_y
_atom_site_fract_z
Si Si1 0.205970 0.342649 0.976180
Si Si2 0.724029 0.278582 0.185412
Si Si3 0.969074 0.278935 0.745574
Si Si4 0.522056 0.799626 0.393703
Si Si5 0.469663 0.067664 0.086181
Si Si6 0.517936 0.350230 0.925629
Si Si7 0.775265 0.391144 0.761691
Si Si8 0.442237 0.930427 0.451973
O O1 0.359097 0.376295 0.957969
O O2 0.105891 0.322756 0.811548
O O3 0.244857 0.277973 0.063786
O O4 0.097195 0.381603 0.080701
O O5 0.643089 0.243929 0.326347
O O6 0.883017 0.301201 0.256843
O O7 0.624021 0.330979 0.089322
O O8 0.971301 0.267038 0.554419
O O9 0.826501 0.319573 0.772381
O O10 0.980214 0.215595 0.840796
O O11 0.549803 0.870692 0.452745
O O12 0.390108 0.068200 0.255706
O O13 0.538588 0.000000 0.080531
O O14 0.364875 0.076711 0.918399
O O15 0.607590 0.390560 0.803277
O O16 0.826668 0.415377 0.587601
O O17 0.499788 0.000000 0.490667
#
# Coordination Sequence:
#
# PCOD9132530 Si02
#       8
#     4   4   4   4   4   4   4   4
#     4  10  20  37  55  86 119 157 192 245 303 364
#     4  11  21  35  56  88 122 155 196 241 307 366
#     4   9  21  34  55  82 120 156 200 236 299 366
#     4  11  22  35  57  90 121 155 197 253 304 357
#     4  10  20  39  64  82 109 156 210 254 294 352
#     4  11  21  35  55  85 123 162 186 246 307 372
#     4  10  21  37  58  85 117 157 205 246 301 355
#     4  10  21  38  60  86 113 152 209 253 285 346
#
# _framework density 19.890122000000002
#
# number of rings (size 3 to 8) (size 9 to 14) (size 15 to 20)
#    0.000    1.750    2.500    2.625    7.000    0.000 
#    0.000    1.250    0.000    0.750    0.000    7.000 
#    0.000    0.000    0.000    0.000    0.000    0.000 
#
# Total GULP energy -89134.753035 kJ/mol
# GULP energy per Si atom -5570.922065 kJ/mol
# Density = 1.984485 g / cm^3
# Si number density = 19.890122 Si / 1000 Ang^3
#
#
#
# Elastic Constant Matrix: (Units=GPa)
#
#
# Indices 1 2 3 4 5 6 
#
# 1 95.4779 12.3605 31.8713 0.0000 -21.7222 0.0000
# 2 12.3605 78.5284 16.1809 0.0000 -7.8660 0.0000
# 3 31.8713 16.1809 112.5834 0.0000 -19.7393 0.0000
# 4 0.0000 0.0000 0.0000 22.6691 0.0000 -2.9530
# 5 -21.7222 -7.8660 -19.7393 0.0000 25.2249 0.0000
# 6 0.0000 0.0000 0.0000 -2.9530 0.0000 9.8411
#
#
#
# Elastic Compliance Matrix: (Units=1/GPa)
#
#
# Indices 1 2 3 4 5 6 
#
# 1 0.013463 -0.000727 -0.001986 0.000000 0.009813 0.000000
# 2 -0.000727 0.013365 -0.001268 0.000000 0.002549 0.000000
# 3 -0.001986 -0.001268 0.010730 0.000000 0.006290 0.000000
# 4 0.000000 0.000000 0.000000 0.045907 0.000000 0.013775
# 5 0.009813 0.002549 0.006290 0.000000 0.053811 0.000000
# 6 0.000000 0.000000 0.000000 0.013775 0.000000 0.105749
#
#
# Mechanical properties :
#
#
# Convention : Reuss Voigt Hill
#
# Bulk Modulus (GPa) = 33.78893 45.26836 39.52865
# Shear Modulus (GPa) = 19.16787 26.62548 22.89668
#
# Velocity S-wave (km/s) = 3.10770 3.66270 3.39655
# Velocity P-wave (km/s) = 5.46825 6.37932 5.94127
#
# Compressibility (1/GPa) = 0.02959549
#
# Stress axis : x y z
#
# Youngs Moduli (GPa) = 74.27605 74.82037 93.19846
#
# Poissons Ratio (x) = 0.05439 0.18513
# Poissons Ratio (y) = 0.05399 0.11819
# Poissons Ratio (z) = 0.14754 0.09488
#
# Static dielectric constant tensor:
#      x y z
#    x 1.730560 0.000000 -0.019420 
#    y 0.000000 1.730050 0.000000 
#    z -0.019420 0.000000 1.738640 
# 
# From -- ./inp_files/8949.got.cif
#   From: 2010.05.17/outbox.cif.g08.bks.cpg/sg8_5_cif.got.tgz:8949.got - 2010.06.03 19:46:02.
