data_PCOD9132936
_publ_section_title
;
Structure prediction by ZEFSAII (Michael W. Deem and Ramdas Pophale) SiO2 
 PCOD9132936
Probable space group: C M
;
_chemical_formula_sum "Si O2"
_cell_formula_units_Z 32
_cell_length_a 12.182073
_cell_length_b 25.391252
_cell_length_c 5.067515
_cell_angle_alpha 90.000000
_cell_angle_beta 107.202109
_cell_angle_gamma 90.000000
_cell_volume 1497.356969
_symmetry_space_group_name_H-M "C M"
_symmetry_group_IT_number 8
_symmetry_cell_setting 'monoclinic'
loop_
_space_group_symop_operation_xyz
x,y,z
x,-y,z
1/2+x,1/2+y,z
1/2+x,1/2-y,z
loop_
_atom_site_type_symbol
_atom_site_label
_atom_site_fract_x
_atom_site_fract_y
_atom_site_fract_z
Si Si1 0.246220 0.814095 0.637950
Si Si2 0.026658 0.758857 0.489301
Si Si3 0.686996 0.623055 0.086160
Si Si4 0.219517 0.625318 0.970395
Si Si5 0.150934 0.561767 0.402513
Si Si6 0.403253 0.939175 0.397277
Si Si7 0.956034 0.174428 0.945973
Si Si8 0.981695 0.338186 0.748815
O O1 0.163833 0.765174 0.626395
O O2 0.234297 0.832498 0.325908
O O3 0.377093 0.809584 0.818607
O O4 0.198727 0.859985 0.791630
O O5 0.994455 0.698502 0.500318
O O6 0.997470 0.783534 0.190359
O O7 0.967247 0.796522 0.670326
O O8 0.776285 0.575627 0.201229
O O9 0.549357 0.626220 0.031336
O O10 0.179735 0.588590 0.700278
O O11 0.107957 0.661022 0.957451
O O12 0.227241 0.589474 0.234482
O O13 0.331789 0.654928 0.950131
O O14 0.174176 0.500000 0.425121
O O15 0.011463 0.567624 0.272072
O O16 0.434826 0.895985 0.642036
O O17 0.406592 0.000000 0.487743
#
# Coordination Sequence:
#
# PCOD9132936 Si02
#       8
#     4   4   4   4   4   4   4   4
#     4   9  19  36  56  80 112 152 192 242 294 351
#     4  10  22  38  58  83 117 161 203 240 307 355
#     4   9  18  37  59  80 113 153 192 242 300 348
#     4  11  22  38  60  90 122 159 204 248 302 375
#     4  10  21  38  61  88 121 157 199 255 308 354
#     4   9  19  38  62  89 118 156 204 257 307 351
#     4  10  22  40  59  86 123 162 196 249 298 369
#     4  10  22  37  60  88 121 158 203 257 298 365
#
# _framework density 21.370991
#
# number of rings (size 3 to 8) (size 9 to 14) (size 15 to 20)
#    0.000    2.250    0.000    1.875    1.750    4.500 
#    6.750    6.250    0.000    0.000    0.000    0.000 
#    0.000    0.000    0.000    0.000    0.000    0.000 
#
# Total GULP energy -89172.039272 kJ/mol
# GULP energy per Si atom -5573.252454 kJ/mol
# Density = 2.132235 g / cm^3
# Si number density = 21.370991 Si / 1000 Ang^3
#
#
#
# Elastic Constant Matrix: (Units=GPa)
#
#
# Indices 1 2 3 4 5 6 
#
# 1 80.8656 -3.1769 -36.7650 0.0000 1.5295 0.0000
# 2 -3.1769 53.6019 -20.5798 0.0000 -4.1153 0.0000
# 3 -36.7650 -20.5798 27.5640 0.0000 -25.0498 0.0000
# 4 0.0000 0.0000 0.0000 33.7817 0.0000 -10.6162
# 5 1.5295 -4.1153 -25.0498 0.0000 24.9554 0.0000
# 6 0.0000 0.0000 0.0000 -10.6162 0.0000 33.2579
#
#
#
# Elastic Compliance Matrix: (Units=1/GPa)
#
#
# Indices 1 2 3 4 5 6 
#
# 1 0.004396 -0.007995 -0.017643 0.000000 -0.019297 0.000000
# 2 -0.007995 0.009526 -0.019120 0.000000 -0.017132 0.000000
# 3 -0.017643 -0.019120 -0.038862 0.000000 -0.041081 0.000000
# 4 0.000000 0.000000 0.000000 0.032902 0.000000 0.010503
# 5 -0.019297 -0.017132 -0.041081 0.000000 -0.002808 0.000000
# 6 0.000000 0.000000 0.000000 0.010503 0.000000 0.033421
#
#
# Mechanical properties :
#
#
# Convention : Reuss Voigt Hill
#
# Bulk Modulus (GPa) = -8.73697 4.55424 -2.09136
# Shear Modulus (GPa) = 55.59365 33.23588 44.41476
#
# Velocity S-wave (km/s) = 5.10589 3.94786 4.56375
# Velocity P-wave (km/s) = 5.53742 4.78712 5.17588
#
# Compressibility (1/GPa) = -0.11445615
#
# Stress axis : x y z
#
# Youngs Moduli (GPa) = 227.47915 104.97753 -25.73181
#
# Poissons Ratio (x) = 0.83926 -0.45398
# Poissons Ratio (y) = 1.81863 -0.49200
# Poissons Ratio (z) = 4.01334 2.00722
#
# Static dielectric constant tensor:
#      x y z
#    x 1.861130 0.000000 0.021460 
#    y 0.000000 1.732980 0.000000 
#    z 0.021460 0.000000 1.775880 
# 
# From -- ./inp_files/3173.got.cif
#   From: 2010.05.17/outbox.cif.g08.bks.cpg/sg8_2_cif.got.tgz:3173.got - 2010.06.03 19:46:02.
