data_PCOD9132306
_publ_section_title
;
Structure prediction by ZEFSAII (Michael W. Deem and Ramdas Pophale) SiO2 
 PCOD9132306
Probable space group: C M
;
_chemical_formula_sum "Si O2"
_cell_formula_units_Z 32
_cell_length_a 20.922627
_cell_length_b 8.902774
_cell_length_c 25.741020
_cell_angle_alpha 90.000000
_cell_angle_beta 22.484480
_cell_angle_gamma 90.000000
_cell_volume 1833.677087
_symmetry_space_group_name_H-M "C M"
_symmetry_group_IT_number 8
_symmetry_cell_setting 'monoclinic'
loop_
_space_group_symop_operation_xyz
x,y,z
x,-y,z
1/2+x,1/2+y,z
1/2+x,1/2-y,z
loop_
_atom_site_type_symbol
_atom_site_label
_atom_site_fract_x
_atom_site_fract_y
_atom_site_fract_z
Si Si1 0.173070 0.679528 0.429430
Si Si2 0.212528 0.678964 0.126362
Si Si3 0.980811 0.320550 0.001454
Si Si4 0.865765 0.178958 0.710729
Si Si5 0.946367 0.180249 0.140693
Si Si6 0.753804 0.820250 0.973890
Si Si7 0.009765 0.679749 0.707902
Si Si8 0.358257 0.320797 0.398459
O O1 0.143485 0.500000 0.453234
O O2 0.278687 0.716603 0.299052
O O3 0.287882 0.715579 0.393608
O O4 0.999024 0.763934 0.568473
O O5 0.224139 0.500000 0.123142
O O6 0.028620 0.734616 0.280521
O O7 0.352844 0.756535 0.055712
O O8 0.236372 0.717218 0.047624
O O9 0.964483 0.500000 0.017478
O O10 0.173710 0.286248 0.842367
O O11 0.945653 0.248229 0.083961
O O12 0.915543 0.259894 0.727225
O O13 0.881978 0.000000 0.705631
O O14 0.962593 0.000000 0.126408
O O15 0.102260 0.246988 0.055527
O O16 0.923591 0.756813 0.821566
O O17 0.747018 0.000000 0.972895
O O18 0.991163 0.500000 0.724280
O O19 0.205222 0.714272 0.552081
O O20 0.388477 0.500000 0.377278
#
# Coordination Sequence:
#
# PCOD9132306 Si02
#       8
#     4   4   4   4   4   4   4   4
#     4   9  19  34  56  86 115 147 187 231 283 340
#     4  11  24  39  58  84 115 154 194 234 286 344
#     4  11  24  40  58  83 117 154 192 237 288 344
#     4  10  20  34  55  84 115 149 188 234 287 338
#     4  11  21  36  60  87 115 150 193 237 284 341
#     4  11  22  36  56  87 118 147 192 242 287 336
#     4  10  20  34  57  86 114 149 189 236 286 338
#     4   9  18  35  56  83 115 148 189 231 283 339
#
# _framework density 17.451274000000002
#
# number of rings (size 3 to 8) (size 9 to 14) (size 15 to 20)
#    0.000    1.750    2.500    3.000    0.000    6.500 
#    0.000    1.250    0.000    3.000    0.000    0.000 
#    0.000    0.000    0.000    0.000    0.000    0.000 
#
# Total GULP energy -89354.613966 kJ/mol
# GULP energy per Si atom -5584.663373 kJ/mol
# Density = 1.741155 g / cm^3
# Si number density = 17.451274 Si / 1000 Ang^3
#
#
#
# Elastic Constant Matrix: (Units=GPa)
#
#
# Indices 1 2 3 4 5 6 
#
# 1 94.5987 51.6451 70.5164 -0.0004 -3.8238 0.0001
# 2 51.6451 61.5349 67.8319 0.0003 -2.4025 0.0001
# 3 70.5164 67.8319 155.4076 0.0040 -0.2531 0.0006
# 4 -0.0004 0.0003 0.0040 34.3345 -0.0009 -0.8224
# 5 -3.8238 -2.4025 -0.2531 -0.0009 22.1531 -0.0001
# 6 0.0001 0.0001 0.0006 -0.8224 -0.0001 25.9876
#
#
#
# Elastic Compliance Matrix: (Units=1/GPa)
#
#
# Indices 1 2 3 4 5 6 
#
# 1 0.020516 -0.013260 -0.003518 0.000001 0.002063 0.000000
# 2 -0.013260 0.040125 -0.011494 0.000001 0.001931 0.000000
# 3 -0.003518 -0.011494 0.013045 -0.000002 -0.001705 0.000000
# 4 0.000001 0.000001 -0.000002 0.029147 0.000001 0.000922
# 5 0.002063 0.001931 -0.001705 0.000001 0.045686 0.000000
# 6 0.000000 0.000000 0.000000 0.000922 0.000000 0.038509
#
#
# Mechanical properties :
#
#
# Convention : Reuss Voigt Hill
#
# Bulk Modulus (GPa) = 58.33501 76.83646 67.58573
# Shear Modulus (GPa) = 20.05714 24.59822 22.32768
#
# Velocity S-wave (km/s) = 3.39384 3.75845 3.58079
# Velocity P-wave (km/s) = 6.98981 7.93469 7.47719
#
# Compressibility (1/GPa) = 0.01714237
#
# Stress axis : x y z
#
# Youngs Moduli (GPa) = 48.74228 24.92183 76.65717
#
# Poissons Ratio (x) = 0.33047 0.26969
# Poissons Ratio (y) = 0.64633 0.88109
# Poissons Ratio (z) = 0.17148 0.28645
#
# Static dielectric constant tensor:
#      x y z
#    x 1.558730 0.000000 0.012760 
#    y 0.000000 1.581350 0.000000 
#    z 0.012760 0.000000 1.601500 
# 
# From -- ./inp_files/33478.got.cif
#   From: 2010.05.17/outbox.cif.g08.bks.cpg/sg8_17_cif.got.tgz:33478.got - 2010.06.03 19:46:02.
