data_PCOD9132880
_publ_section_title
;
Structure prediction by ZEFSAII (Michael W. Deem and Ramdas Pophale) SiO2 
 PCOD9132880
Probable space group: C M
;
_chemical_formula_sum "Si O2"
_cell_formula_units_Z 24
_cell_length_a 10.582581
_cell_length_b 8.400927
_cell_length_c 14.001499
_cell_angle_alpha 90.000000
_cell_angle_beta 100.777011
_cell_angle_gamma 90.000000
_cell_volume 1222.827108
_symmetry_space_group_name_H-M "C M"
_symmetry_group_IT_number 8
_symmetry_cell_setting 'monoclinic'
loop_
_space_group_symop_operation_xyz
x,y,z
x,-y,z
1/2+x,1/2+y,z
1/2+x,1/2-y,z
loop_
_atom_site_type_symbol
_atom_site_label
_atom_site_fract_x
_atom_site_fract_y
_atom_site_fract_z
Si Si1 0.849530 0.692455 0.876830
Si Si2 0.988581 0.809332 0.544501
Si Si3 0.459839 0.809153 0.324699
Si Si4 0.268138 0.807817 0.654289
Si Si5 0.129268 0.692466 0.987979
Si Si6 0.684923 0.192675 0.212568
O O1 0.850519 0.500000 0.876115
O O2 0.811693 0.748060 0.765316
O O3 0.743784 0.747927 0.937452
O O4 0.991465 0.746895 0.928030
O O5 0.124741 0.752547 0.607191
O O6 0.977331 0.756350 0.433535
O O7 0.870515 0.745529 0.590029
O O8 0.986381 0.000000 0.548015
O O9 0.575484 0.755093 0.271820
O O10 0.323610 0.754945 0.263291
O O11 0.462599 0.000000 0.328906
O O12 0.266160 0.000000 0.655364
O O13 0.129553 0.500000 0.987044
O O14 0.149964 0.744295 0.100254
O O15 0.687983 0.000000 0.214129
#
# Coordination Sequence:
#
# PCOD9132880 Si02
#       6
#     4   4   4   4   4   4
#     4  10  21  38  59  85 117 150 188 233 278 331
#     4  11  23  38  58  85 115 148 189 234 281 336
#     4  11  23  39  60  84 112 149 190 233 284 337
#     4  10  22  39  59  85 116 150 189 232 279 333
#     4  10  21  37  58  85 116 150 189 232 279 332
#     4  10  22  39  58  84 116 149 189 234 279 333
#
# _framework density 19.626650000000001
#
# number of rings (size 3 to 8) (size 9 to 14) (size 15 to 20)
#    0.000    1.667    0.000    4.000    0.000    8.667 
#    0.000    0.000    0.000    0.000    0.000    0.000 
#    0.000    0.000    0.000    0.000    0.000    0.000 
#
# Total GULP energy -67098.546844 kJ/mol
# GULP energy per Si atom -5591.545570 kJ/mol
# Density = 1.958198 g / cm^3
# Si number density = 19.626650 Si / 1000 Ang^3
#
#
#
# Elastic Constant Matrix: (Units=GPa)
#
#
# Indices 1 2 3 4 5 6 
#
# 1 59.3539 -14.7694 -43.8137 0.0000 3.8553 0.0000
# 2 -14.7694 -2.1399 -14.4195 0.0000 3.3846 0.0000
# 3 -43.8137 -14.4195 40.7293 0.0000 3.5982 0.0000
# 4 0.0000 0.0000 0.0000 7.3104 0.0000 -14.0878
# 5 3.8553 3.3846 3.5982 0.0000 46.9687 0.0000
# 6 0.0000 0.0000 0.0000 -14.0878 0.0000 29.1466
#
#
#
# Elastic Compliance Matrix: (Units=1/GPa)
#
#
# Indices 1 2 3 4 5 6 
#
# 1 0.007353 -0.029613 -0.002728 0.000000 0.001739 0.000000
# 2 -0.029613 -0.010435 -0.036075 0.000000 0.005946 0.000000
# 3 -0.002728 -0.036075 0.008655 0.000000 0.002160 0.000000
# 4 0.000000 0.000000 0.000000 1.995428 0.000000 0.964477
# 5 0.001739 0.005946 0.002160 0.000000 0.020554 0.000000
# 6 0.000000 0.000000 0.000000 0.964477 0.000000 0.500483
#
#
# Mechanical properties :
#
#
# Convention : Reuss Voigt Hill
#
# Bulk Modulus (GPa) = -7.61850 -5.34021 -6.47935
# Shear Modulus (GPa) = 1.91196 28.08152 14.99674
#
# Velocity S-wave (km/s) = 0.98807 3.78668 2.76724
# Velocity P-wave (km/s) = 1.60886 4.04867 2.62710
#
# Compressibility (1/GPa) = -0.13125942
#
# Stress axis : x y z
#
# Youngs Moduli (GPa) = 136.00763 -95.82812 115.53947
#
# Poissons Ratio (x) = -2.83773 0.31521
# Poissons Ratio (y) = 4.02755 4.16809
# Poissons Ratio (z) = 0.37105 -3.45700
#
# Static dielectric constant tensor:
#      x y z
#    x 1.646940 0.000000 0.015860 
#    y 0.000000 1.676490 0.000000 
#    z 0.015860 0.000000 1.665070 
# 
# From -- ./inp_files/19693.got.cif
#   From: 2010.05.17/outbox.cif.g08.bks.cpg/sg8_10_cif.got.tgz:19693.got - 2010.06.03 19:46:02.
