data_PCOD9132173
_publ_section_title
;
Structure prediction by ZEFSAII (Michael W. Deem and Ramdas Pophale) SiO2 
 PCOD9132173
Probable space group: C M
;
_chemical_formula_sum "Si O2"
_cell_formula_units_Z 28
_cell_length_a 5.653591
_cell_length_b 30.588563
_cell_length_c 7.790264
_cell_angle_alpha 90.000000
_cell_angle_beta 122.426095
_cell_angle_gamma 90.000000
_cell_volume 1137.159024
_symmetry_space_group_name_H-M "C M"
_symmetry_group_IT_number 8
_symmetry_cell_setting 'monoclinic'
loop_
_space_group_symop_operation_xyz
x,y,z
x,-y,z
1/2+x,1/2+y,z
1/2+x,1/2-y,z
loop_
_atom_site_type_symbol
_atom_site_label
_atom_site_fract_x
_atom_site_fract_y
_atom_site_fract_z
Si Si1 0.350390 0.758947 0.443780
Si Si2 0.977068 0.911874 0.885490
Si Si3 0.677136 0.000000 0.678311
Si Si4 0.474029 0.596151 0.289764
Si Si5 0.666144 0.272344 0.900797
Si Si6 0.492586 0.500000 0.433651
Si Si7 0.496248 0.853837 0.629476
Si Si8 0.951450 0.359254 0.008520
O O1 0.518555 0.745728 0.339848
O O2 0.489132 0.729614 0.651432
O O3 0.428454 0.808986 0.511036
O O4 0.785554 0.878088 0.704110
O O5 0.284764 0.905164 0.929255
O O6 0.818493 0.957308 0.814119
O O7 0.011131 0.901030 0.099163
O O8 0.806273 0.000000 0.535069
O O9 0.338693 0.000000 0.571713
O O10 0.416932 0.545880 0.314154
O O11 0.748548 0.612711 0.491869
O O12 0.219514 0.629609 0.225950
O O13 0.449990 0.251920 0.951669
O O14 0.755870 0.320414 0.998361
O O15 0.517218 0.844637 0.840851
#
# Coordination Sequence:
#
# PCOD9132173 Si02
#       8
#     4   4   2   4   4   2   4   4
#     4  10  19  36  65  96 131 188 237 290 346 414
#     4  11  25  44  73 105 140 188 237 297 359 437
#     4  12  27  49  82 105 138 198 238 286 373 440
#     4  11  27  45  71 109 146 184 237 305 359 433
#     4  10  19  37  66  97 135 190 239 292 351 412
#     4  12  27  53  76 107 146 192 238 294 367 436
#     4  11  22  43  69  99 142 188 242 292 361 426
#     4  11  24  41  71 103 142 193 242 300 361 426
#
# _framework density 24.622765000000001
#
# number of rings (size 3 to 8) (size 9 to 14) (size 15 to 20)
#    0.000    1.143    4.286    3.000    6.000    1.714 
#    0.000    1.429    0.000    0.000    0.000    0.000 
#    0.000    0.000    0.000    0.000    0.000    0.000 
#
# Total GULP energy -78326.817349 kJ/mol
# GULP energy per Si atom -5594.772668 kJ/mol
# Density = 2.456672 g / cm^3
# Si number density = 24.622765 Si / 1000 Ang^3
#
#
#
# Elastic Constant Matrix: (Units=GPa)
#
#
# Indices 1 2 3 4 5 6 
#
# 1 134.7912 13.3230 35.6976 0.0000 12.3793 0.0000
# 2 13.3230 99.5993 12.5720 0.0000 7.1647 0.0000
# 3 35.6976 12.5720 82.9677 0.0000 -2.2491 0.0000
# 4 0.0000 0.0000 0.0000 11.6817 0.0000 15.7194
# 5 12.3793 7.1647 -2.2491 0.0000 34.9970 0.0000
# 6 0.0000 0.0000 0.0000 15.7194 0.0000 37.8474
#
#
#
# Elastic Compliance Matrix: (Units=1/GPa)
#
#
# Indices 1 2 3 4 5 6 
#
# 1 0.008767 -0.000460 -0.003790 0.000000 -0.003250 0.000000
# 2 -0.000460 0.010432 -0.001439 0.000000 -0.002065 0.000000
# 3 -0.003790 -0.001439 0.013970 0.000000 0.002533 0.000000
# 4 0.000000 0.000000 0.000000 0.194069 0.000000 -0.080604
# 5 -0.003250 -0.002065 0.002533 0.000000 0.030309 0.000000
# 6 0.000000 0.000000 0.000000 -0.080604 0.000000 0.059900
#
#
# Mechanical properties :
#
#
# Convention : Reuss Voigt Hill
#
# Bulk Modulus (GPa) = 45.89196 48.94928 47.42062
# Shear Modulus (GPa) = 14.87702 33.95626 24.41664
#
# Velocity S-wave (km/s) = 2.46071 3.71760 3.15243
# Velocity P-wave (km/s) = 5.17223 6.19276 5.70536
#
# Compressibility (1/GPa) = 0.02179031
#
# Stress axis : x y z
#
# Youngs Moduli (GPa) = 114.06786 95.85916 71.58021
#
# Poissons Ratio (x) = 0.04414 0.27131
# Poissons Ratio (y) = 0.05252 0.10298
# Poissons Ratio (z) = 0.43235 0.13790
#
# Static dielectric constant tensor:
#      x y z
#    x 1.999150 0.000000 -0.000130 
#    y 0.000000 1.955550 0.000000 
#    z -0.000130 0.000000 1.932500 
# 
# From -- ./inp_files/7168.got.cif
#   From: 2010.05.17/outbox.cif.g08.bks.cpg/sg8_4_cif.got.tgz:7168.got - 2010.06.03 19:46:02.
