data_PCOD9132588
_publ_section_title
;
Structure prediction by ZEFSAII (Michael W. Deem and Ramdas Pophale) SiO2 
 PCOD9132588
Probable space group: C M
;
_chemical_formula_sum "Si O2"
_cell_formula_units_Z 32
_cell_length_a 25.660412
_cell_length_b 8.885534
_cell_length_c 24.400283
_cell_angle_alpha 90.000000
_cell_angle_beta 17.328055
_cell_angle_gamma 90.000000
_cell_volume 1657.022690
_symmetry_space_group_name_H-M "C M"
_symmetry_group_IT_number 8
_symmetry_cell_setting 'monoclinic'
loop_
_space_group_symop_operation_xyz
x,y,z
x,-y,z
1/2+x,1/2+y,z
1/2+x,1/2-y,z
loop_
_atom_site_type_symbol
_atom_site_label
_atom_site_fract_x
_atom_site_fract_y
_atom_site_fract_z
Si Si1 0.008250 0.325442 0.139670
Si Si2 0.397521 0.680605 0.627815
Si Si3 0.015391 0.179764 0.015552
Si Si4 0.931131 0.826726 0.717003
Si Si5 0.731315 0.680178 0.219773
Si Si6 0.509012 0.825047 0.749690
Si Si7 0.711396 0.178305 0.120156
Si Si8 0.408027 0.677358 0.354132
O O1 0.953546 0.500000 0.193002
O O2 0.965271 0.245636 0.125601
O O3 0.933092 0.243173 0.268085
O O4 0.219656 0.322366 0.932917
O O5 0.363556 0.500000 0.662647
O O6 0.472104 0.718160 0.613501
O O7 0.543826 0.714272 0.436040
O O8 0.213306 0.763535 0.805145
O O9 0.882924 0.244882 0.103736
O O10 0.010636 0.000000 0.021310
O O11 0.005054 0.721792 0.689963
O O12 0.986734 0.000000 0.670190
O O13 0.753693 0.500000 0.197860
O O14 0.734032 0.741746 0.155665
O O15 0.705819 0.804978 0.573300
O O16 0.459181 0.000000 0.805259
O O17 0.371828 0.724034 0.919833
O O18 0.537505 0.237321 0.264724
O O19 0.704432 0.000000 0.133908
O O20 0.450482 0.500000 0.311180
#
# Coordination Sequence:
#
# PCOD9132588 Si02
#       8
#     4   4   4   4   4   4   4   4
#     4  10  20  37  62  92 129 169 207 255 313 374
#     4   9  21  41  64  92 125 166 212 258 314 372
#     4  11  23  39  62  95 132 167 206 258 313 373
#     4   9  18  35  60  92 127 163 205 254 311 373
#     4  11  24  44  69  93 123 168 215 263 311 372
#     4  11  24  40  62  93 127 166 209 259 315 373
#     4  12  26  45  66  91 125 168 213 263 315 373
#     4  11  24  41  63  94 126 163 209 260 318 376
#
# _framework density 19.311744999999998
#
# number of rings (size 3 to 8) (size 9 to 14) (size 15 to 20)
#    0.000    1.500    1.250    4.500    1.750    6.000 
#    0.000    1.250    0.000    0.000    0.000    0.000 
#    0.000    0.000    0.000    0.000    0.000    0.000 
#
# Total GULP energy -89478.161338 kJ/mol
# GULP energy per Si atom -5592.385084 kJ/mol
# Density = 1.926779 g / cm^3
# Si number density = 19.311745 Si / 1000 Ang^3
#
#
#
# Elastic Constant Matrix: (Units=GPa)
#
#
# Indices 1 2 3 4 5 6 
#
# 1 111.1909 33.2658 20.2832 0.0011 -21.3590 0.0002
# 2 33.2658 88.0569 17.4632 -0.0018 -20.5505 0.0006
# 3 20.2832 17.4632 13.0819 -0.0026 -37.3405 0.0014
# 4 0.0011 -0.0018 -0.0026 14.3857 0.0010 -1.9572
# 5 -21.3590 -20.5505 -37.3405 0.0010 3.5260 0.0002
# 6 0.0002 0.0006 0.0014 -1.9572 0.0002 38.4621
#
#
#
# Elastic Compliance Matrix: (Units=1/GPa)
#
#
# Indices 1 2 3 4 5 6 
#
# 1 0.011244 -0.002551 -0.004720 -0.000002 0.003261 0.000000
# 2 -0.002551 0.014264 -0.006094 0.000001 0.003150 0.000000
# 3 -0.004720 -0.006094 0.003117 0.000002 -0.031102 0.000000
# 4 -0.000002 0.000001 0.000002 0.069998 -0.000005 0.003562
# 5 0.003261 0.003150 -0.031102 -0.000005 -0.007652 0.000001
# 6 0.000000 0.000000 0.000000 0.003562 0.000001 0.026181
#
#
# Mechanical properties :
#
#
# Convention : Reuss Voigt Hill
#
# Bulk Modulus (GPa) = 527.45359 39.37267 283.41313
# Shear Modulus (GPa) = 34.59930 20.69594 27.64762
#
# Velocity S-wave (km/s) = 4.23734 3.27720 3.78782
# Velocity P-wave (km/s) = 17.25279 5.89510 12.89207
#
# Compressibility (1/GPa) = 0.00189590
#
# Stress axis : x y z
#
# Youngs Moduli (GPa) = 88.93546 70.10888 320.86646
#
# Poissons Ratio (x) = 0.17882 1.51449
# Poissons Ratio (y) = 0.22684 1.95522
# Poissons Ratio (z) = 0.41978 0.42721
#
# Static dielectric constant tensor:
#      x y z
#    x 1.644610 0.000000 -0.002930 
#    y 0.000000 1.644370 0.000000 
#    z -0.002930 0.000000 1.674540 
# 
# From -- ./inp_files/32343.got.cif
#   From: 2010.05.17/outbox.cif.g08.bks.cpg/sg8_17_cif.got.tgz:32343.got - 2010.06.03 19:46:02.
