data_PCOD9132445
_publ_section_title
;
Structure prediction by ZEFSAII (Michael W. Deem and Ramdas Pophale) SiO2 
 PCOD9132445
Probable space group: C M
;
_chemical_formula_sum "Si O2"
_cell_formula_units_Z 20
_cell_length_a 13.636122
_cell_length_b 9.526761
_cell_length_c 7.985887
_cell_angle_alpha 90.000000
_cell_angle_beta 59.735541
_cell_angle_gamma 90.000000
_cell_volume 896.037995
_symmetry_space_group_name_H-M "C M"
_symmetry_group_IT_number 8
_symmetry_cell_setting 'monoclinic'
loop_
_space_group_symop_operation_xyz
x,y,z
x,-y,z
1/2+x,1/2+y,z
1/2+x,1/2-y,z
loop_
_atom_site_type_symbol
_atom_site_label
_atom_site_fract_x
_atom_site_fract_y
_atom_site_fract_z
Si Si1 0.661381 0.000000 0.931211
Si Si2 0.454692 0.803989 0.012212
Si Si3 0.037678 0.753231 0.610695
Si Si4 0.875988 0.500000 0.347063
Si Si5 0.972092 0.000000 0.106622
Si Si6 0.402010 0.500000 0.547914
Si Si7 0.115974 0.500000 0.330021
Si Si8 0.656882 0.500000 0.717856
O O1 0.771724 0.000000 0.719759
O O2 0.578071 0.132874 0.963817
O O3 0.696459 0.000000 0.097241
O O4 0.434365 0.640613 0.050561
O O5 0.370691 0.873742 0.218128
O O6 0.457005 0.829468 0.811898
O O7 0.112491 0.640615 0.444839
O O8 0.111242 0.861661 0.659647
O O9 0.962739 0.858400 0.563379
O O10 0.788200 0.500000 0.571158
O O11 0.995411 0.500000 0.337370
O O12 0.926154 0.000000 0.331138
O O13 0.107779 0.000000 0.947980
#
# Coordination Sequence:
#
# PCOD9132445 Si02
#       8
#     2   4   4   2   2   2   2   2
#     4  10  22  38  59  83 112 150 189 223 277 339
#     4   9  20  39  58  83 114 148 185 227 275 339
#     4  10  21  38  57  82 117 146 182 234 279 322
#     4  10  20  38  61  83 110 150 189 223 275 339
#     4  10  20  36  57  80 112 148 186 226 272 330
#     4  11  22  38  58  84 113 147 187 235 278 321
#     4  10  20  38  59  86 114 142 184 238 276 322
#     4   9  22  40  58  80 113 153 187 221 278 341
#
# _framework density 22.320481000000001
#
# number of rings (size 3 to 8) (size 9 to 14) (size 15 to 20)
#    0.000    2.400    0.000    4.200    0.000    8.000 
#    0.000   11.000    0.000    0.000    0.000    0.000 
#    0.000    0.000    0.000    0.000    0.000    0.000 
#
# Total GULP energy -55724.611862 kJ/mol
# GULP energy per Si atom -5572.461186 kJ/mol
# Density = 2.226968 g / cm^3
# Si number density = 22.320481 Si / 1000 Ang^3
#
#
#
# Elastic Constant Matrix: (Units=GPa)
#
#
# Indices 1 2 3 4 5 6 
#
# 1 21.6058 10.4979 20.0136 0.0000 -6.1244 0.0000
# 2 10.4979 145.3739 24.3223 0.0000 7.2971 0.0000
# 3 20.0136 24.3223 182.7157 0.0000 -0.6086 0.0000
# 4 0.0000 0.0000 0.0000 10.3073 0.0000 2.8082
# 5 -6.1244 7.2971 -0.6086 0.0000 33.9470 0.0000
# 6 0.0000 0.0000 0.0000 2.8082 0.0000 6.4532
#
#
#
# Elastic Compliance Matrix: (Units=1/GPa)
#
#
# Indices 1 2 3 4 5 6 
#
# 1 0.056380 -0.003671 -0.005651 0.000000 0.010859 0.000000
# 2 -0.003671 0.007355 -0.000584 0.000000 -0.002254 0.000000
# 3 -0.005651 -0.000584 0.006167 0.000000 -0.000783 0.000000
# 4 0.000000 0.000000 0.000000 0.110068 0.000000 -0.047897
# 5 0.010859 -0.002254 -0.000783 0.000000 0.031887 0.000000
# 6 0.000000 0.000000 0.000000 -0.047897 0.000000 0.175806
#
#
# Mechanical properties :
#
#
# Convention : Reuss Voigt Hill
#
# Bulk Modulus (GPa) = 19.96420 51.04034 35.50227
# Shear Modulus (GPa) = 11.78768 29.79892 20.79330
#
# Velocity S-wave (km/s) = 2.30056 3.65780 3.05549
# Velocity P-wave (km/s) = 4.00256 6.38404 5.32806
#
# Compressibility (1/GPa) = 0.05008967
#
# Stress axis : x y z
#
# Youngs Moduli (GPa) = 17.73674 135.96514 162.15032
#
# Poissons Ratio (x) = 0.49914 0.91626
# Poissons Ratio (y) = 0.06511 0.09477
# Poissons Ratio (z) = 0.10023 0.07946
#
# Static dielectric constant tensor:
#      x y z
#    x 1.834290 0.000000 -0.027600 
#    y 0.000000 1.850660 0.000000 
#    z -0.027600 0.000000 1.898550 
# 
# From -- ./inp_files/14553.got.cif
#   From: 2010.05.17/outbox.cif.g08.bks.cpg/sg8_8_cif.got.tgz:14553.got - 2010.06.03 19:46:02.
