data_PCOD9132581
_publ_section_title
;
Structure prediction by ZEFSAII (Michael W. Deem and Ramdas Pophale) SiO2 
 PCOD9132581
Probable space group: C M
;
_chemical_formula_sum "Si O2"
_cell_formula_units_Z 32
_cell_length_a 25.200527
_cell_length_b 8.638030
_cell_length_c 16.382040
_cell_angle_alpha 90.000000
_cell_angle_beta 26.965568
_cell_angle_gamma 90.000000
_cell_volume 1617.061269
_symmetry_space_group_name_H-M "C M"
_symmetry_group_IT_number 8
_symmetry_cell_setting 'monoclinic'
loop_
_space_group_symop_operation_xyz
x,y,z
x,-y,z
1/2+x,1/2+y,z
1/2+x,1/2-y,z
loop_
_atom_site_type_symbol
_atom_site_label
_atom_site_fract_x
_atom_site_fract_y
_atom_site_fract_z
Si Si1 0.413310 0.819921 0.070590
Si Si2 0.012132 0.816933 0.098606
Si Si3 0.588879 0.178423 0.675776
Si Si4 0.395804 0.317292 0.830837
Si Si5 0.270117 0.188494 0.702639
Si Si6 0.222935 0.814062 0.204863
Si Si7 0.802220 0.316438 0.473557
Si Si8 0.961492 0.314520 0.569563
O O1 0.456129 0.718387 0.086857
O O2 0.293593 0.769073 0.190462
O O3 0.402122 0.000000 0.112389
O O4 0.510055 0.814018 0.866100
O O5 0.933967 0.725984 0.270125
O O6 0.007091 0.000000 0.121774
O O7 0.146638 0.764980 0.910857
O O8 0.519619 0.278587 0.704677
O O9 0.715642 0.238238 0.527238
O O10 0.592146 0.000000 0.644299
O O11 0.382729 0.500000 0.839141
O O12 0.399210 0.235613 0.738771
O O13 0.295642 0.253519 0.028751
O O14 0.275094 0.240554 0.602093
O O15 0.380190 0.237373 0.605650
O O16 0.270584 0.000000 0.700309
O O17 0.090396 0.757737 0.388489
O O18 0.228853 0.000000 0.192182
O O19 0.783316 0.500000 0.496356
O O20 0.971911 0.500000 0.553162
#
# Coordination Sequence:
#
# PCOD9132581 Si02
#       8
#     4   4   4   4   4   4   4   4
#     4   9  19  36  59  87 123 157 195 250 307 360
#     4  11  22  38  60  89 121 159 205 248 304 367
#     4  10  20  37  61  91 125 160 201 252 309 365
#     4  11  23  40  62  92 126 164 207 253 311 369
#     4   9  22  43  63  86 122 163 205 255 306 362
#     4  10  22  41  62  91 127 162 207 257 309 366
#     4  11  22  39  61  89 122 160 203 251 308 366
#     4  11  23  42  66  91 124 165 211 258 308 367
#
# _framework density 19.788983999999999
#
# number of rings (size 3 to 8) (size 9 to 14) (size 15 to 20)
#    0.000    1.750    1.250    3.750    1.750    3.500 
#    0.000    7.500    0.000    0.000    0.000    0.000 
#    0.000    0.000    0.000    0.000    0.000    0.000 
#
# Total GULP energy -89429.982779 kJ/mol
# GULP energy per Si atom -5589.373924 kJ/mol
# Density = 1.974394 g / cm^3
# Si number density = 19.788984 Si / 1000 Ang^3
#
#
#
# Elastic Constant Matrix: (Units=GPa)
#
#
# Indices 1 2 3 4 5 6 
#
# 1 55.4589 -0.0632 11.4343 0.0000 -20.2867 0.0000
# 2 -0.0632 38.8955 0.5767 0.0001 -8.6796 -0.0001
# 3 11.4343 0.5767 65.7768 0.0000 -24.1360 0.0000
# 4 0.0000 0.0001 0.0000 34.3257 0.0000 -0.9056
# 5 -20.2867 -8.6796 -24.1360 0.0000 30.1638 0.0000
# 6 0.0000 -0.0001 0.0000 -0.9056 0.0000 21.3553
#
#
#
# Elastic Compliance Matrix: (Units=1/GPa)
#
#
# Indices 1 2 3 4 5 6 
#
# 1 0.024932 0.004603 0.003206 0.000000 0.020658 0.000000
# 2 0.004603 0.028999 0.004450 0.000000 0.015001 0.000000
# 3 0.003206 0.004450 0.022463 0.000000 0.021410 0.000000
# 4 0.000000 0.000000 0.000000 0.029165 0.000000 0.001237
# 5 0.020658 0.015001 0.021410 0.000000 0.068494 0.000000
# 6 0.000000 0.000000 0.000000 0.001237 0.000000 0.046879
#
#
# Mechanical properties :
#
#
# Convention : Reuss Voigt Hill
#
# Bulk Modulus (GPa) = 9.90976 20.44743 15.17860
# Shear Modulus (GPa) = 21.73417 27.04787 24.39102
#
# Velocity S-wave (km/s) = 3.31765 3.70106 3.51459
# Velocity P-wave (km/s) = 4.43783 5.34967 4.91494
#
# Compressibility (1/GPa) = 0.10091060
#
# Stress axis : x y z
#
# Youngs Moduli (GPa) = 40.10874 34.48414 44.51779
#
# Poissons Ratio (x) = -0.15872 -0.14271
# Poissons Ratio (y) = -0.18461 -0.19810
# Poissons Ratio (z) = -0.12857 -0.15345
#
# Static dielectric constant tensor:
#      x y z
#    x 1.678640 0.000000 0.003710 
#    y 0.000000 1.668230 0.000000 
#    z 0.003710 0.000000 1.697430 
# 
# From -- ./inp_files/28195.got.cif
#   From: 2010.05.17/outbox.cif.g08.bks.cpg/sg8_15_cif.got.tgz:28195.got - 2010.06.03 19:46:02.
