data_PCOD9132275
_publ_section_title
;
Structure prediction by ZEFSAII (Michael W. Deem and Ramdas Pophale) SiO2 
 PCOD9132275
Probable space group: C M
;
_chemical_formula_sum "Si O2"
_cell_formula_units_Z 32
_cell_length_a 23.468229
_cell_length_b 7.562089
_cell_length_c 11.592834
_cell_angle_alpha 90.000000
_cell_angle_beta 132.355513
_cell_angle_gamma 90.000000
_cell_volume 1520.350165
_symmetry_space_group_name_H-M "C M"
_symmetry_group_IT_number 8
_symmetry_cell_setting 'monoclinic'
loop_
_space_group_symop_operation_xyz
x,y,z
x,-y,z
1/2+x,1/2+y,z
1/2+x,1/2-y,z
loop_
_atom_site_type_symbol
_atom_site_label
_atom_site_fract_x
_atom_site_fract_y
_atom_site_fract_z
Si Si1 0.426540 0.291694 0.609350
Si Si2 0.670432 0.205651 0.826188
Si Si3 0.806333 0.206916 0.856793
Si Si4 0.785221 0.782772 0.567999
Si Si5 0.471282 0.790127 0.182593
Si Si6 0.588113 0.785495 0.941263
Si Si7 0.510467 0.288527 0.498467
Si Si8 0.120301 0.716030 0.244622
O O1 0.412384 0.500000 0.572953
O O2 0.351295 0.219706 0.570155
O O3 0.501024 0.269862 0.792694
O O4 0.453400 0.220479 0.521472
O O5 0.743426 0.284877 0.859418
O O6 0.642264 0.280720 0.910592
O O7 0.595510 0.215191 0.641623
O O8 0.688491 0.000000 0.874383
O O9 0.801677 0.278719 0.720674
O O10 0.785459 0.000000 0.816926
O O11 0.891613 0.218308 0.024064
O O12 0.700476 0.729255 0.411244
O O13 0.787958 0.000000 0.571228
O O14 0.481992 0.753262 0.332274
O O15 0.546049 0.723182 0.215367
O O16 0.468371 0.000000 0.162139
O O17 0.589017 0.000000 0.940084
O O18 0.613342 0.727950 0.102235
O O19 0.516301 0.500000 0.518487
O O20 0.119764 0.500000 0.244994
#
# Coordination Sequence:
#
# PCOD9132275 Si02
#       8
#     4   4   4   4   4   4   4   4
#     4   9  18  32  52  76 101 131 165 203 247 297
#     4   9  18  33  54  79 105 135 169 205 249 301
#     4  10  20  34  53  77 104 134 170 210 252 301
#     4   9  17  31  52  75 100 131 167 207 250 297
#     4  11  22  35  52  74 102 135 172 213 256 302
#     4   9  17  31  53  77 102 132 164 201 245 296
#     4  10  20  34  53  77 104 134 170 210 252 301
#     4   9  18  32  51  75 100 130 169 209 249 297
#
# _framework density 21.047781000000001
#
# number of rings (size 3 to 8) (size 9 to 14) (size 15 to 20)
#    0.000    2.500    0.000    2.250    0.000    4.000 
#    0.000    4.375    0.000    3.000    0.000    0.000 
#    0.000    0.000    0.000    0.000    0.000    0.000 
#
# Total GULP energy -89338.902804 kJ/mol
# GULP energy per Si atom -5583.681425 kJ/mol
# Density = 2.099988 g / cm^3
# Si number density = 21.047781 Si / 1000 Ang^3
#
#
#
# Elastic Constant Matrix: (Units=GPa)
#
#
# Indices 1 2 3 4 5 6 
#
# 1 203.4915 -2.8324 113.8062 0.0000 17.9995 0.0000
# 2 -2.8324 46.9116 -25.3174 0.0000 0.5539 0.0000
# 3 113.8062 -25.3174 146.8094 0.0000 -13.8087 0.0000
# 4 0.0000 0.0000 0.0000 18.0327 0.0000 13.5769
# 5 17.9995 0.5539 -13.8087 0.0000 31.7817 0.0000
# 6 0.0000 0.0000 0.0000 13.5769 0.0000 -20.8891
#
#
#
# Elastic Compliance Matrix: (Units=1/GPa)
#
#
# Indices 1 2 3 4 5 6 
#
# 1 0.012475 -0.005443 -0.011744 0.000000 -0.012073 0.000000
# 2 -0.005443 0.025939 0.009321 0.000000 0.006680 0.000000
# 3 -0.011744 0.009321 0.018906 0.000000 0.014703 0.000000
# 4 0.000000 0.000000 0.000000 0.037234 0.000000 0.024200
# 5 -0.012073 0.006680 0.014703 0.000000 0.044574 0.000000
# 6 0.000000 0.000000 0.000000 0.024200 0.000000 -0.032143
#
#
# Mechanical properties :
#
#
# Convention : Reuss Voigt Hill
#
# Bulk Modulus (GPa) = 24.04570 63.16945 43.60758
# Shear Modulus (GPa) = 36.60836 26.55548 31.58192
#
# Velocity S-wave (km/s) = 4.17501 3.55586 3.87781
# Velocity P-wave (km/s) = 5.88983 6.85102 6.38853
#
# Compressibility (1/GPa) = 0.04158747
#
# Stress axis : x y z
#
# Youngs Moduli (GPa) = 80.16271 38.55140 52.89287
#
# Poissons Ratio (x) = 0.20982 0.62120
# Poissons Ratio (y) = 0.43629 -0.49299
# Poissons Ratio (z) = 0.94147 -0.35932
#
# Static dielectric constant tensor:
#      x y z
#    x 1.770130 0.000000 -0.017640 
#    y 0.000000 1.802800 0.000000 
#    z -0.017640 0.000000 1.696400 
# 
# From -- ./inp_files/23874.got.cif
#   From: 2010.05.17/outbox.cif.g08.bks.cpg/sg8_12_cif.got.tgz:23874.got - 2010.06.03 19:46:02.
