data_PCOD9132517
_publ_section_title
;
Structure prediction by ZEFSAII (Michael W. Deem and Ramdas Pophale) SiO2 
 PCOD9132517
Probable space group: C M
;
_chemical_formula_sum "Si O2"
_cell_formula_units_Z 32
_cell_length_a 14.763427
_cell_length_b 18.140475
_cell_length_c 12.100945
_cell_angle_alpha 90.000000
_cell_angle_beta 27.698074
_cell_angle_gamma 90.000000
_cell_volume 1506.373679
_symmetry_space_group_name_H-M "C M"
_symmetry_group_IT_number 8
_symmetry_cell_setting 'monoclinic'
loop_
_space_group_symop_operation_xyz
x,y,z
x,-y,z
1/2+x,1/2+y,z
1/2+x,1/2-y,z
loop_
_atom_site_type_symbol
_atom_site_label
_atom_site_fract_x
_atom_site_fract_y
_atom_site_fract_z
Si Si1 0.216760 0.914817 0.378830
Si Si2 0.507863 0.695204 0.999818
Si Si3 0.578566 0.790544 0.522148
Si Si4 0.303531 0.915598 0.801893
Si Si5 0.103347 0.916371 0.250030
Si Si6 0.340172 0.313761 0.620568
Si Si7 0.913198 0.177258 0.852784
Si Si8 0.651379 0.913995 0.998622
O O1 0.203679 0.900602 0.260894
O O2 0.433654 0.905366 0.190271
O O3 0.076688 0.868182 0.608681
O O4 0.162074 0.000000 0.451647
O O5 0.310947 0.715063 0.278696
O O6 0.641295 0.633817 0.914637
O O7 0.646498 0.765368 0.826065
O O8 0.438019 0.669627 0.955067
O O9 0.507396 0.872735 0.572778
O O10 0.496191 0.739247 0.512144
O O11 0.457994 0.759082 0.757969
O O12 0.307758 0.000000 0.757715
O O13 0.247285 0.915849 0.991761
O O14 0.942033 0.852525 0.407372
O O15 0.021916 0.000000 0.342509
O O16 0.288577 0.384631 0.751890
O O17 0.709199 0.142283 0.033593
O O18 0.684312 0.000000 0.989754
#
# Coordination Sequence:
#
# PCOD9132517 Si02
#       8
#     4   4   4   4   4   4   4   4
#     4  10  20  37  63  98 131 163 208 270 336 385
#     4  11  26  43  64  96 129 177 219 267 327 395
#     4  10  23  42  63  90 127 172 214 273 326 383
#     4  10  25  46  65  94 131 179 228 265 320 397
#     4  10  20  40  68  97 138 174 215 279 330 385
#     4  10  21  37  62  94 128 163 212 267 322 390
#     4  11  23  39  63  95 130 165 212 267 327 391
#     4  10  20  36  62  96 128 161 204 260 328 386
#
# _framework density 21.243068000000001
#
# number of rings (size 3 to 8) (size 9 to 14) (size 15 to 20)
#    0.000    1.750    2.500    1.500    3.500    3.500 
#    0.000    1.250    0.000    0.000    0.000    0.000 
#    0.000    0.000    0.000    0.000    0.000    0.000 
#
# Total GULP energy -89293.507728 kJ/mol
# GULP energy per Si atom -5580.844233 kJ/mol
# Density = 2.119472 g / cm^3
# Si number density = 21.243068 Si / 1000 Ang^3
#
#
#
# Elastic Constant Matrix: (Units=GPa)
#
#
# Indices 1 2 3 4 5 6 
#
# 1 85.7013 25.5594 17.6964 -0.0100 -4.6595 0.0066
# 2 25.5594 119.4888 38.4832 -0.0100 -11.7517 0.0080
# 3 17.6964 38.4832 48.4922 -0.0179 -22.3635 0.0154
# 4 -0.0100 -0.0100 -0.0179 34.7316 0.0181 -4.5158
# 5 -4.6595 -11.7517 -22.3635 0.0181 36.3301 -0.0183
# 6 0.0066 0.0080 0.0154 -4.5158 -0.0183 16.7468
#
#
#
# Elastic Compliance Matrix: (Units=1/GPa)
#
#
# Indices 1 2 3 4 5 6 
#
# 1 0.012909 -0.001579 -0.004092 0.000002 -0.001374 -0.000002
# 2 -0.001579 0.011613 -0.009776 -0.000001 -0.002464 0.000001
# 3 -0.004092 -0.009776 0.039341 0.000005 0.020530 -0.000006
# 4 0.000002 -0.000001 0.000005 0.029838 -0.000008 0.008046
# 5 -0.001374 -0.002464 0.020530 -0.000008 0.039190 0.000024
# 6 -0.000002 0.000001 -0.000006 0.008046 0.000024 0.061883
#
#
# Mechanical properties :
#
#
# Convention : Reuss Voigt Hill
#
# Bulk Modulus (GPa) = 30.33001 46.35115 38.34058
# Shear Modulus (GPa) = 21.12754 29.02458 25.07606
#
# Velocity S-wave (km/s) = 3.15709 3.70037 3.43947
# Velocity P-wave (km/s) = 5.25340 6.33433 5.81902
#
# Compressibility (1/GPa) = 0.03297065
#
# Stress axis : x y z
#
# Youngs Moduli (GPa) = 77.46243 86.11102 25.41849
#
# Poissons Ratio (x) = 0.13594 0.10401
# Poissons Ratio (y) = 0.12229 0.24849
# Poissons Ratio (z) = 0.31696 0.84183
#
# Static dielectric constant tensor:
#      x y z
#    x 1.786410 -0.000010 -0.023720 
#    y -0.000010 1.819140 0.000010 
#    z -0.023720 0.000010 1.775040 
# 
# From -- ./inp_files/22385.got.cif
#   From: 2010.05.17/outbox.cif.g08.bks.cpg/sg8_12_cif.got.tgz:22385.got - 2010.06.03 19:46:02.
