data_PCOD9132843
_publ_section_title
;
Structure prediction by ZEFSAII (Michael W. Deem and Ramdas Pophale) SiO2 
 PCOD9132843
Probable space group: C M
;
_chemical_formula_sum "Si O2"
_cell_formula_units_Z 24
_cell_length_a 15.398936
_cell_length_b 7.894391
_cell_length_c 15.229373
_cell_angle_alpha 90.000000
_cell_angle_beta 140.313951
_cell_angle_gamma 90.000000
_cell_volume 1182.243659
_symmetry_space_group_name_H-M "C M"
_symmetry_group_IT_number 8
_symmetry_cell_setting 'monoclinic'
loop_
_space_group_symop_operation_xyz
x,y,z
x,-y,z
1/2+x,1/2+y,z
1/2+x,1/2-y,z
loop_
_atom_site_type_symbol
_atom_site_label
_atom_site_fract_x
_atom_site_fract_y
_atom_site_fract_z
Si Si1 0.037450 0.301716 0.299570
Si Si2 0.057005 0.293414 0.513905
Si Si3 0.352462 0.799531 0.816993
Si Si4 0.329864 0.196166 0.472973
Si Si5 0.512241 0.697647 0.773970
Si Si6 0.822497 0.292193 0.991294
O O1 0.004847 0.500000 0.284684
O O2 0.043348 0.231880 0.403103
O O3 0.186507 0.286511 0.373510
O O4 0.924340 0.230376 0.145860
O O5 0.062256 0.500000 0.518998
O O6 0.197868 0.231915 0.665402
O O7 0.929886 0.239105 0.474647
O O8 0.452245 0.715891 0.824421
O O9 0.365823 0.738148 0.927381
O O10 0.378425 0.000000 0.835353
O O11 0.413930 0.210152 0.628936
O O12 0.300307 0.000000 0.431783
O O13 0.510037 0.500000 0.746882
O O14 0.666875 0.759269 0.887191
O O15 0.824513 0.500000 0.992914
#
# Coordination Sequence:
#
# PCOD9132843 Si02
#       6
#     4   4   4   4   4   4
#     4  10  21  40  61  83 116 157 194 233 288 348
#     4  10  21  36  58  85 115 152 194 235 285 342
#     4  11  21  36  59  87 117 149 194 243 284 337
#     4  11  22  36  57  89 119 149 194 243 286 336
#     4  11  21  37  60  86 114 154 197 236 288 345
#     4   9  21  39  59  84 117 155 193 234 287 346
#
# _framework density 20.300384999999999
#
# number of rings (size 3 to 8) (size 9 to 14) (size 15 to 20)
#    0.000    1.667    3.333    1.500    0.000    2.000 
#    0.000    5.000    0.000    0.000    0.000    0.000 
#    0.000    0.000    0.000    0.000    0.000    0.000 
#
# Total GULP energy -67047.285693 kJ/mol
# GULP energy per Si atom -5587.273808 kJ/mol
# Density = 2.025418 g / cm^3
# Si number density = 20.300385 Si / 1000 Ang^3
#
#
#
# Elastic Constant Matrix: (Units=GPa)
#
#
# Indices 1 2 3 4 5 6 
#
# 1 98.8965 -10.9810 12.6698 0.0000 -7.8605 0.0000
# 2 -10.9810 22.6971 -8.1307 0.0000 -3.8700 0.0000
# 3 12.6698 -8.1307 97.2618 0.0000 -9.2365 0.0000
# 4 0.0000 0.0000 0.0000 2.6394 0.0000 -7.9276
# 5 -7.8605 -3.8700 -9.2365 0.0000 30.8286 0.0000
# 6 0.0000 0.0000 0.0000 -7.9276 0.0000 17.7768
#
#
#
# Elastic Compliance Matrix: (Units=1/GPa)
#
#
# Indices 1 2 3 4 5 6 
#
# 1 0.011095 0.005706 -0.000650 0.000000 0.003350 0.000000
# 2 0.005706 0.049888 0.004282 0.000000 0.009000 0.000000
# 3 -0.000650 0.004282 0.011075 0.000000 0.003690 0.000000
# 4 0.000000 0.000000 0.000000 -1.116197 0.000000 -0.497770
# 5 0.003350 0.009000 0.003690 0.000000 0.035527 0.000000
# 6 0.000000 0.000000 0.000000 -0.497770 0.000000 -0.165728
#
#
# Mechanical properties :
#
#
# Convention : Reuss Voigt Hill
#
# Bulk Modulus (GPa) = 11.02139 22.88572 16.95355
# Shear Modulus (GPa) = -4.30006 25.26880 10.48437
#
# Velocity S-wave (km/s) = -1.45699 3.53192 2.27504
# Velocity P-wave (km/s) = 1.61571 5.28494 3.90776
#
# Compressibility (1/GPa) = 0.09073265
#
# Stress axis : x y z
#
# Youngs Moduli (GPa) = 90.13278 20.04505 90.29707
#
# Poissons Ratio (x) = -0.11438 0.05870
# Poissons Ratio (y) = -0.51431 -0.38663
# Poissons Ratio (z) = 0.05859 -0.08583
#
# Static dielectric constant tensor:
#      x y z
#    x 1.703580 0.000000 -0.019370 
#    y 0.000000 1.742030 0.000000 
#    z -0.019370 0.000000 1.685320 
# 
# From -- ./inp_files/12055.got.cif
#   From: 2010.05.17/outbox.cif.g08.bks.cpg/sg8_7_cif.got.tgz:12055.got - 2010.06.03 19:46:02.
