data_PCOD9132311
_publ_section_title
;
Structure prediction by ZEFSAII (Michael W. Deem and Ramdas Pophale) SiO2 
 PCOD9132311
Probable space group: C M
;
_chemical_formula_sum "Si O2"
_cell_formula_units_Z 32
_cell_length_a 23.239986
_cell_length_b 11.006791
_cell_length_c 6.460827
_cell_angle_alpha 90.000000
_cell_angle_beta 73.858257
_cell_angle_gamma 90.000000
_cell_volume 1587.511263
_symmetry_space_group_name_H-M "C M"
_symmetry_group_IT_number 8
_symmetry_cell_setting 'monoclinic'
loop_
_space_group_symop_operation_xyz
x,y,z
x,-y,z
1/2+x,1/2+y,z
1/2+x,1/2-y,z
loop_
_atom_site_type_symbol
_atom_site_label
_atom_site_fract_x
_atom_site_fract_y
_atom_site_fract_z
Si Si1 0.381620 0.781929 0.625000
Si Si2 0.266536 0.869656 0.553541
Si Si3 0.805673 0.130343 0.014429
Si Si4 0.659244 0.361704 0.964923
Si Si5 0.412962 0.638297 0.211227
Si Si6 0.964888 0.363997 0.896472
Si Si7 0.607318 0.136002 0.754030
Si Si8 0.190585 0.281930 0.316014
O O1 0.336774 0.856715 0.523928
O O2 0.410221 0.678404 0.452299
O O3 0.431097 0.849539 0.710701
O O4 0.334984 0.727711 0.836633
O O5 0.226369 0.865504 0.801637
O O6 0.237220 0.772294 0.434369
O O7 0.255279 0.000000 0.464595
O O8 0.845837 0.134497 0.182199
O O9 0.735433 0.143275 0.125267
O O10 0.816939 0.000000 0.902963
O O11 0.635204 0.500000 0.962164
O O12 0.626707 0.251725 0.874506
O O13 0.661986 0.321594 0.200509
O O14 0.437001 0.500000 0.160385
O O15 0.445499 0.748275 0.055731
O O16 0.949826 0.500000 0.995802
O O17 0.036103 0.358994 0.798319
O O18 0.641107 0.150462 0.500675
O O19 0.622380 0.000000 0.823234
#
# Coordination Sequence:
#
# PCOD9132311 Si02
#       8
#     4   4   4   4   4   4   4   4
#     4  11  20  38  60  92 124 163 200 250 310 366
#     4  10  20  34  55  88 126 160 198 243 301 372
#     4  10  20  34  55  88 126 160 198 243 301 372
#     4  10  22  40  62  90 125 164 207 256 307 367
#     4  10  22  40  62  90 125 164 207 256 307 367
#     4  10  24  44  64  90 124 164 214 263 306 365
#     4  10  24  44  64  90 124 164 214 263 306 365
#     4  11  20  38  60  92 124 163 200 250 310 366
#
# _framework density 20.157336999999998
#
# number of rings (size 3 to 8) (size 9 to 14) (size 15 to 20)
#    0.000    1.750    2.500    1.500    0.000    4.500 
#    0.000    2.500    0.000    0.000    0.000    0.000 
#    0.000    0.000    0.000    0.000    0.000    0.000 
#
# Total GULP energy -89136.025782 kJ/mol
# GULP energy per Si atom -5571.001611 kJ/mol
# Density = 2.011146 g / cm^3
# Si number density = 20.157337 Si / 1000 Ang^3
#
#
#
# Elastic Constant Matrix: (Units=GPa)
#
#
# Indices 1 2 3 4 5 6 
#
# 1 83.0036 53.0085 22.7164 0.0000 -10.0151 0.0000
# 2 53.0085 156.1231 36.9907 0.0000 -5.4335 0.0000
# 3 22.7164 36.9907 60.1312 0.0000 2.2546 0.0000
# 4 0.0000 0.0000 0.0000 28.3679 0.0000 1.1299
# 5 -10.0151 -5.4335 2.2546 0.0000 19.5477 0.0000
# 6 0.0000 0.0000 0.0000 1.1299 0.0000 25.0384
#
#
#
# Elastic Compliance Matrix: (Units=1/GPa)
#
#
# Indices 1 2 3 4 5 6 
#
# 1 0.016984 -0.004568 -0.003902 0.000000 0.007882 0.000000
# 2 -0.004568 0.008863 -0.003748 0.000000 0.000556 0.000000
# 3 -0.003902 -0.003748 0.020613 0.000000 -0.005418 0.000000
# 4 0.000000 0.000000 0.000000 0.035315 0.000000 -0.001594
# 5 0.007882 0.000556 -0.005418 0.000000 0.055975 0.000000
# 6 0.000000 0.000000 0.000000 -0.001594 0.000000 0.040011
#
#
# Mechanical properties :
#
#
# Convention : Reuss Voigt Hill
#
# Bulk Modulus (GPa) = 45.40159 58.29880 51.85019
# Shear Modulus (GPa) = 23.86232 27.02696 25.44464
#
# Velocity S-wave (km/s) = 3.44438 3.66567 3.55674
# Velocity P-wave (km/s) = 6.19603 6.84842 6.53038
#
# Compressibility (1/GPa) = 0.02202566
#
# Stress axis : x y z
#
# Youngs Moduli (GPa) = 58.88055 112.82395 48.51336
#
# Poissons Ratio (x) = 0.51534 0.18928
# Poissons Ratio (y) = 0.26895 0.18181
# Poissons Ratio (z) = 0.22973 0.42283
#
# Static dielectric constant tensor:
#      x y z
#    x 1.695520 0.000000 0.012270 
#    y 0.000000 1.785590 0.000000 
#    z 0.012270 0.000000 1.731720 
# 
# From -- ./inp_files/5996.got.cif
#   From: 2010.05.17/outbox.cif.g08.bks.cpg/sg8_3_cif.got.tgz:5996.got - 2010.06.03 19:46:02.
