data_PCOD9132434
_publ_section_title
;
Structure prediction by ZEFSAII (Michael W. Deem and Ramdas Pophale) SiO2 
 PCOD9132434
Probable space group: C M
;
_chemical_formula_sum "Si O2"
_cell_formula_units_Z 28
_cell_length_a 8.371751
_cell_length_b 20.786652
_cell_length_c 11.766329
_cell_angle_alpha 90.000000
_cell_angle_beta 37.253272
_cell_angle_gamma 90.000000
_cell_volume 1239.483670
_symmetry_space_group_name_H-M "C M"
_symmetry_group_IT_number 8
_symmetry_cell_setting 'monoclinic'
loop_
_space_group_symop_operation_xyz
x,y,z
x,-y,z
1/2+x,1/2+y,z
1/2+x,1/2-y,z
loop_
_atom_site_type_symbol
_atom_site_label
_atom_site_fract_x
_atom_site_fract_y
_atom_site_fract_z
Si Si1 0.533730 0.307454 0.296750
Si Si2 0.157215 0.337446 0.198016
Si Si3 0.256687 0.924233 0.318982
Si Si4 0.402681 0.316411 0.808371
Si Si5 0.615863 0.065839 0.896839
Si Si6 0.916732 0.690664 0.654625
Si Si7 0.202619 0.877188 0.983773
O O1 0.615321 0.233639 0.276448
O O2 0.581188 0.366336 0.359648
O O3 0.221685 0.307125 0.451434
O O4 0.695963 0.325573 0.091112
O O5 0.907311 0.385373 0.333738
O O6 0.244468 0.320551 0.017767
O O7 0.398702 0.376803 0.117437
O O8 0.166649 0.000000 0.387433
O O9 0.483143 0.932730 0.095187
O O10 0.311022 0.374893 0.781600
O O11 0.706927 0.316574 0.673441
O O12 0.343848 0.254026 0.767946
O O13 0.370640 0.068486 0.950023
O O14 0.767214 0.000000 0.796926
O O15 0.862193 0.636743 0.779360
#
# Coordination Sequence:
#
# PCOD9132434 Si02
#       7
#     4   4   4   4   4   4   4
#     4  11  22  37  62  88 122 165 206 250 308 369
#     4  10  20  35  63  91 122 161 206 259 301 366
#     4   9  20  38  61  91 128 166 203 255 318 369
#     4  10  21  37  58  89 123 153 200 257 305 352
#     4   9  19  39  64  85 120 167 202 244 312 373
#     4  11  23  36  60  90 122 151 200 258 299 355
#     4  10  21  38  58  90 118 153 203 249 302 356
#
# _framework density 22.590052
#
# number of rings (size 3 to 8) (size 9 to 14) (size 15 to 20)
#    0.000    2.000    1.429    1.714   12.000    0.571 
#    0.000    3.571    0.000    0.000    0.000    0.000 
#    0.000    0.000    0.000    0.000    0.000    0.000 
#
# Total GULP energy -78004.379666 kJ/mol
# GULP energy per Si atom -5571.741405 kJ/mol
# Density = 2.253864 g / cm^3
# Si number density = 22.590052 Si / 1000 Ang^3
#
#
#
# Elastic Constant Matrix: (Units=GPa)
#
#
# Indices 1 2 3 4 5 6 
#
# 1 101.6080 65.0568 26.1377 0.0000 -15.6979 0.0000
# 2 65.0568 129.0960 12.3866 0.0000 -21.1822 0.0000
# 3 26.1377 12.3866 81.8767 0.0000 -7.6466 0.0000
# 4 0.0000 0.0000 0.0000 -22.1174 0.0000 24.7936
# 5 -15.6979 -21.1822 -7.6466 0.0000 36.6470 0.0000
# 6 0.0000 0.0000 0.0000 24.7936 0.0000 -85.6305
#
#
#
# Elastic Compliance Matrix: (Units=1/GPa)
#
#
# Indices 1 2 3 4 5 6 
#
# 1 0.015745 -0.007287 -0.003761 0.000000 0.001748 0.000000
# 2 -0.007287 0.011988 0.000885 0.000000 0.003993 0.000000
# 3 -0.003761 0.000885 0.013439 0.000000 0.001705 0.000000
# 4 0.000000 0.000000 0.000000 -0.066940 0.000000 -0.019382
# 5 0.001748 0.003993 0.001705 0.000000 0.030700 0.000000
# 6 0.000000 0.000000 0.000000 -0.019382 0.000000 -0.017290
#
#
# Mechanical properties :
#
#
# Convention : Reuss Voigt Hill
#
# Bulk Modulus (GPa) = 47.96512 57.74921 52.85716
# Shear Modulus (GPa) = 335.23070 -0.28687 167.47191
#
# Velocity S-wave (km/s) = 12.19507 -0.35674 8.61952
# Velocity P-wave (km/s) = 14.81796 5.04478 11.06846
#
# Compressibility (1/GPa) = 0.02084849
#
# Stress axis : x y z
#
# Youngs Moduli (GPa) = 63.51351 83.41336 74.40876
#
# Poissons Ratio (x) = 0.60782 0.27982
# Poissons Ratio (y) = 0.46281 -0.06588
# Poissons Ratio (z) = 0.23885 -0.07386
#
# Static dielectric constant tensor:
#      x y z
#    x 1.874760 0.000000 0.021930 
#    y 0.000000 1.966410 0.000000 
#    z 0.021930 0.000000 1.863890 
# 
# From -- ./inp_files/15307.got.cif
#   From: 2010.05.17/outbox.cif.g08.bks.cpg/sg8_8_cif.got.tgz:15307.got - 2010.06.03 19:46:02.
