data_PCOD9132583
_publ_section_title
;
Structure prediction by ZEFSAII (Michael W. Deem and Ramdas Pophale) SiO2 
 PCOD9132583
Probable space group: C M
;
_chemical_formula_sum "Si O2"
_cell_formula_units_Z 28
_cell_length_a 14.533518
_cell_length_b 13.341863
_cell_length_c 9.426113
_cell_angle_alpha 90.000000
_cell_angle_beta 40.110761
_cell_angle_gamma 90.000000
_cell_volume 1177.567873
_symmetry_space_group_name_H-M "C M"
_symmetry_group_IT_number 8
_symmetry_cell_setting 'monoclinic'
loop_
_space_group_symop_operation_xyz
x,y,z
x,-y,z
1/2+x,1/2+y,z
1/2+x,1/2-y,z
loop_
_atom_site_type_symbol
_atom_site_label
_atom_site_fract_x
_atom_site_fract_y
_atom_site_fract_z
Si Si1 0.030250 0.683982 0.257180
Si Si2 0.884000 0.317738 0.984007
Si Si3 0.269462 0.113906 0.401213
Si Si4 0.340056 0.886991 0.717907
Si Si5 0.179739 0.314873 0.808384
Si Si6 0.974333 0.110968 0.435257
Si Si7 0.443687 0.387995 0.810507
O O1 0.882467 0.685449 0.341197
O O2 0.983895 0.626126 0.453032
O O3 0.060853 0.798348 0.264766
O O4 0.138539 0.641503 0.013387
O O5 0.040227 0.322736 0.874574
O O6 0.858028 0.199934 0.986019
O O7 0.877507 0.368978 0.838275
O O8 0.777153 0.364715 0.224698
O O9 0.111847 0.122235 0.649217
O O10 0.318831 0.000000 0.366206
O O11 0.236935 0.797280 0.782674
O O12 0.284368 0.000000 0.762431
O O13 0.309326 0.374565 0.584824
O O14 0.955470 0.124550 0.626705
O O15 0.028082 0.000000 0.340684
O O16 0.395278 0.500000 0.900855
#
# Coordination Sequence:
#
# PCOD9132583 Si02
#       7
#     4   4   4   4   4   4   4
#     4  10  21  40  60  88 120 157 199 253 305 357
#     4  11  22  39  63  92 124 156 206 255 307 360
#     4  10  22  39  63  90 119 161 205 247 306 372
#     4  11  23  40  63  94 122 158 212 257 299 361
#     4  10  23  40  61  88 125 163 193 254 313 368
#     4  10  21  37  58  86 118 158 198 242 304 362
#     4  10  20  37  62  86 116 159 203 246 298 364
#
# _framework density 23.777823000000001
#
# number of rings (size 3 to 8) (size 9 to 14) (size 15 to 20)
#    0.000    1.714    2.857    2.571    2.000    5.714 
#    0.000    2.143    0.000    0.857    0.000    0.000 
#    0.000    0.000    0.000    0.000    0.000    0.000 
#
# Total GULP energy -78244.061717 kJ/mol
# GULP energy per Si atom -5588.861551 kJ/mol
# Density = 2.372370 g / cm^3
# Si number density = 23.777823 Si / 1000 Ang^3
#
#
#
# Elastic Constant Matrix: (Units=GPa)
#
#
# Indices 1 2 3 4 5 6 
#
# 1 96.7208 13.3571 10.7308 0.0000 12.6453 0.0000
# 2 13.3571 102.0370 9.9681 0.0000 4.2913 0.0000
# 3 10.7308 9.9681 98.3956 0.0000 16.8150 0.0000
# 4 0.0000 0.0000 0.0000 23.3177 0.0000 0.3971
# 5 12.6453 4.2913 16.8150 0.0000 40.2276 0.0000
# 6 0.0000 0.0000 0.0000 0.3971 0.0000 19.4257
#
#
#
# Elastic Compliance Matrix: (Units=1/GPa)
#
#
# Indices 1 2 3 4 5 6 
#
# 1 0.010976 -0.001254 -0.000542 0.000000 -0.003090 0.000000
# 2 -0.001254 0.010059 -0.000825 0.000000 -0.000334 0.000000
# 3 -0.000542 -0.000825 0.011051 0.000000 -0.004361 0.000000
# 4 0.000000 0.000000 0.000000 0.042901 0.000000 -0.000877
# 5 -0.003090 -0.000334 -0.004361 0.000000 0.027688 0.000000
# 6 0.000000 0.000000 0.000000 -0.000877 0.000000 0.051496
#
#
# Mechanical properties :
#
#
# Convention : Reuss Voigt Hill
#
# Bulk Modulus (GPa) = 37.25196 40.58504 38.91850
# Shear Modulus (GPa) = 29.69789 34.13403 31.91596
#
# Velocity S-wave (km/s) = 3.53792 3.79296 3.66766
# Velocity P-wave (km/s) = 5.69121 6.02392 5.85992
#
# Compressibility (1/GPa) = 0.02684423
#
# Stress axis : x y z
#
# Youngs Moduli (GPa) = 91.10520 99.41174 90.48954
#
# Poissons Ratio (x) = 0.12466 0.04904
# Poissons Ratio (y) = 0.11424 0.07468
# Poissons Ratio (z) = 0.04937 0.08204
#
# Static dielectric constant tensor:
#      x y z
#    x 1.977630 0.000000 -0.030810 
#    y 0.000000 1.882710 0.000000 
#    z -0.030810 0.000000 1.929070 
# 
# From -- ./inp_files/13219.got.cif
#   From: 2010.05.17/outbox.cif.g08.bks.cpg/sg8_7_cif.got.tgz:13219.got - 2010.06.03 19:46:02.
