data_PCOD9132931
_publ_section_title
;
Structure prediction by ZEFSAII (Michael W. Deem and Ramdas Pophale) SiO2 
 PCOD9132931
Probable space group: C M
;
_chemical_formula_sum "Si O2"
_cell_formula_units_Z 32
_cell_length_a 9.392887
_cell_length_b 13.802214
_cell_length_c 11.437664
_cell_angle_alpha 90.000000
_cell_angle_beta 91.209364
_cell_angle_gamma 90.000000
_cell_volume 1482.478616
_symmetry_space_group_name_H-M "C M"
_symmetry_group_IT_number 8
_symmetry_cell_setting 'monoclinic'
loop_
_space_group_symop_operation_xyz
x,y,z
x,-y,z
1/2+x,1/2+y,z
1/2+x,1/2-y,z
loop_
_atom_site_type_symbol
_atom_site_label
_atom_site_fract_x
_atom_site_fract_y
_atom_site_fract_z
Si Si1 0.123950 0.731442 0.125000
Si Si2 0.329446 0.686739 0.740406
Si Si3 0.385041 0.798584 0.284819
Si Si4 0.626707 0.890301 0.905584
Si Si5 0.310752 0.107021 0.836786
Si Si6 0.993393 0.217189 0.518247
Si Si7 0.516681 0.389387 0.963423
Si Si8 0.800176 0.612211 0.504898
O O1 0.257032 0.764093 0.202409
O O2 0.018646 0.672450 0.207761
O O3 0.179782 0.676022 0.011287
O O4 0.026491 0.819340 0.074135
O O5 0.180709 0.640204 0.778243
O O6 0.302807 0.801395 0.752703
O O7 0.401665 0.662830 0.617895
O O8 0.429376 0.651837 0.850350
O O9 0.437458 0.717376 0.382458
O O10 0.322762 0.882234 0.365607
O O11 0.457626 0.881964 0.907202
O O12 0.667881 0.000000 0.925562
O O13 0.178464 0.109867 0.920009
O O14 0.312633 0.000000 0.782289
O O15 0.945946 0.329619 0.545711
O O16 0.155344 0.176998 0.525495
O O17 0.475529 0.500000 0.988025
O O18 0.785308 0.500000 0.538399
#
# Coordination Sequence:
#
# PCOD9132931 Si02
#       8
#     4   4   4   4   4   4   4   4
#     4  12  20  41  67  91 140 174 216 290 335 411
#     4  12  22  42  66  91 137 170 214 283 340 399
#     4  10  22  41  67  96 130 175 231 273 345 406
#     4  11  24  40  62  97 131 172 217 271 346 408
#     4  10  21  38  60  92 127 166 216 259 325 408
#     4  10  25  45  69 100 135 182 235 286 345 419
#     4  11  24  39  64 100 129 175 227 271 343 413
#     4  10  23  48  72  99 137 180 235 291 346 406
#
# _framework density 21.585470999999998
#
# number of rings (size 3 to 8) (size 9 to 14) (size 15 to 20)
#    0.750    0.500    3.750    1.875    3.500    2.500 
#    0.000    1.250    0.000    0.000    0.000    0.000 
#    0.000    0.000    0.000    0.000    0.000    0.000 
#
# Total GULP energy -89127.208678 kJ/mol
# GULP energy per Si atom -5570.450542 kJ/mol
# Density = 2.153634 g / cm^3
# Si number density = 21.585471 Si / 1000 Ang^3
#
#
#
# Elastic Constant Matrix: (Units=GPa)
#
#
# Indices 1 2 3 4 5 6 
#
# 1 96.7411 13.9001 15.9510 0.0000 4.3699 0.0000
# 2 13.9001 117.8675 14.3961 0.0000 12.0559 0.0000
# 3 15.9510 14.3961 100.2433 0.0000 2.1282 0.0000
# 4 0.0000 0.0000 0.0000 -6.3680 0.0000 -4.5864
# 5 4.3699 12.0559 2.1282 0.0000 33.4724 0.0000
# 6 0.0000 0.0000 0.0000 -4.5864 0.0000 46.4528
#
#
#
# Elastic Compliance Matrix: (Units=1/GPa)
#
#
# Indices 1 2 3 4 5 6 
#
# 1 0.010777 -0.000984 -0.001553 0.000000 -0.000954 0.000000
# 2 -0.000984 0.009045 -0.001077 0.000000 -0.003061 0.000000
# 3 -0.001553 -0.001077 0.010379 0.000000 -0.000069 0.000000
# 4 0.000000 0.000000 0.000000 -0.146609 0.000000 -0.014475
# 5 -0.000954 -0.003061 -0.000069 0.000000 0.031107 0.000000
# 6 0.000000 0.000000 0.000000 -0.014475 0.000000 0.020098
#
#
# Mechanical properties :
#
#
# Convention : Reuss Voigt Hill
#
# Bulk Modulus (GPa) = 43.53074 44.81625 44.17349
# Shear Modulus (GPa) = -99.37160 32.75174 -33.30993
#
# Velocity S-wave (km/s) = -6.79237 3.89949 -3.93257
# Velocity P-wave (km/s) = 6.42686 6.40952 0.33363
#
# Compressibility (1/GPa) = 0.02297227
#
# Stress axis : x y z
#
# Youngs Moduli (GPa) = 92.78648 110.56113 96.34731
#
# Poissons Ratio (x) = 0.10876 0.14967
# Poissons Ratio (y) = 0.09127 0.10381
# Poissons Ratio (z) = 0.14414 0.11912
#
# Static dielectric constant tensor:
#      x y z
#    x 1.816470 0.000000 -0.003860 
#    y 0.000000 1.813580 0.000000 
#    z -0.003860 0.000000 1.834620 
# 
# From -- ./inp_files/18880.got.cif
#   From: 2010.05.17/outbox.cif.g08.bks.cpg/sg8_10_cif.got.tgz:18880.got - 2010.06.03 19:46:02.
