data_PCOD9132748
_publ_section_title
;
Structure prediction by ZEFSAII (Michael W. Deem and Ramdas Pophale) SiO2 
 PCOD9132748
Probable space group: C M
;
_chemical_formula_sum "Si O2"
_cell_formula_units_Z 28
_cell_length_a 13.554875
_cell_length_b 25.374227
_cell_length_c 5.194648
_cell_angle_alpha 90.000000
_cell_angle_beta 50.454951
_cell_angle_gamma 90.000000
_cell_volume 1377.744892
_symmetry_space_group_name_H-M "C M"
_symmetry_group_IT_number 8
_symmetry_cell_setting 'monoclinic'
loop_
_space_group_symop_operation_xyz
x,y,z
x,-y,z
1/2+x,1/2+y,z
1/2+x,1/2-y,z
loop_
_atom_site_type_symbol
_atom_site_label
_atom_site_fract_x
_atom_site_fract_y
_atom_site_fract_z
Si Si1 0.420490 0.060125 0.740460
Si Si2 0.981871 0.379616 0.162814
Si Si3 0.128759 0.938920 0.315486
Si Si4 0.490800 0.339819 0.302519
Si Si5 0.212922 0.698709 0.692935
Si Si6 0.166944 0.233429 0.260975
Si Si7 0.211316 0.855703 0.543298
O O1 0.496465 0.077494 0.361673
O O2 0.447317 0.000000 0.764105
O O3 0.458027 0.095267 0.922565
O O4 0.266907 0.063011 0.944576
O O5 0.846420 0.352614 0.458460
O O6 0.097726 0.339816 0.958218
O O7 0.169276 0.914197 0.524248
O O8 0.028591 0.896352 0.366896
O O9 0.087231 0.000000 0.393722
O O10 0.346045 0.332877 0.455951
O O11 0.526939 0.290546 0.427807
O O12 0.592022 0.334486 0.901983
O O13 0.179564 0.726825 0.478710
O O14 0.220876 0.740070 0.915036
O O15 0.232391 0.179800 0.253800
#
# Coordination Sequence:
#
# PCOD9132748 Si02
#       7
#     4   4   4   4   4   4   4
#     4  10  20  40  69  95 126 170 219 269 323 385
#     4  11  23  41  63  98 127 168 211 273 319 393
#     4   9  20  39  67  99 129 169 219 277 327 382
#     4  11  24  45  66  99 132 174 221 275 323 401
#     4  12  28  41  69  92 141 171 221 265 340 382
#     4  11  26  43  63  95 126 182 214 269 313 398
#     4  10  22  41  67  92 131 164 224 266 325 385
#
# _framework density 20.323066000000001
#
# number of rings (size 3 to 8) (size 9 to 14) (size 15 to 20)
#    0.000    1.429    2.857    1.286    8.000    1.143 
#    0.000    1.429    0.000    0.000    0.000    0.000 
#    0.000    0.000    0.000    0.000    0.000    0.000 
#
# Total GULP energy -78093.574530 kJ/mol
# GULP energy per Si atom -5578.112466 kJ/mol
# Density = 2.027681 g / cm^3
# Si number density = 20.323066 Si / 1000 Ang^3
#
#
#
# Elastic Constant Matrix: (Units=GPa)
#
#
# Indices 1 2 3 4 5 6 
#
# 1 81.6301 55.9585 55.6228 0.0000 2.6861 0.0000
# 2 55.9585 120.9205 50.5422 0.0000 -18.7411 0.0000
# 3 55.6228 50.5422 87.8251 0.0000 -7.8357 0.0000
# 4 0.0000 0.0000 0.0000 25.3695 0.0000 12.9666
# 5 2.6861 -18.7411 -7.8357 0.0000 20.5525 0.0000
# 6 0.0000 0.0000 0.0000 12.9666 0.0000 13.0056
#
#
#
# Elastic Compliance Matrix: (Units=1/GPa)
#
#
# Indices 1 2 3 4 5 6 
#
# 1 0.030447 -0.010977 -0.014714 0.000000 -0.019599 0.000000
# 2 -0.010977 0.016208 -0.000961 0.000000 0.015847 0.000000
# 3 -0.014714 -0.000961 0.022104 0.000000 0.009474 0.000000
# 4 0.000000 0.000000 0.000000 0.080375 0.000000 -0.080134
# 5 -0.019599 0.015847 0.009474 0.000000 0.069280 0.000000
# 6 0.000000 0.000000 0.000000 -0.080134 0.000000 0.156783
#
#
# Mechanical properties :
#
#
# Convention : Reuss Voigt Hill
#
# Bulk Modulus (GPa) = 64.71335 68.29143 66.50239
# Shear Modulus (GPa) = 11.52998 20.33567 15.93283
#
# Velocity S-wave (km/s) = 2.38446 3.16669 2.80300
# Velocity P-wave (km/s) = 6.28429 6.85904 6.57795
#
# Compressibility (1/GPa) = 0.01545276
#
# Stress axis : x y z
#
# Youngs Moduli (GPa) = 32.84438 61.69919 45.24104
#
# Poissons Ratio (x) = 0.67728 0.66569
# Poissons Ratio (y) = 0.36053 0.04349
# Poissons Ratio (z) = 0.48328 0.05931
#
# Static dielectric constant tensor:
#      x y z
#    x 1.779050 0.000000 0.040450 
#    y 0.000000 1.754830 0.000000 
#    z 0.040450 0.000000 1.732910 
# 
# From -- ./inp_files/4339.got.cif
#   From: 2010.05.17/outbox.cif.g08.bks.cpg/sg8_3_cif.got.tgz:4339.got - 2010.06.03 19:46:02.
