data_PCOD9132308
_publ_section_title
;
Structure prediction by ZEFSAII (Michael W. Deem and Ramdas Pophale) SiO2 
 PCOD9132308
Probable space group: C M
;
_chemical_formula_sum "Si O2"
_cell_formula_units_Z 32
_cell_length_a 21.082929
_cell_length_b 8.713749
_cell_length_c 25.853031
_cell_angle_alpha 90.000000
_cell_angle_beta 22.463809
_cell_angle_gamma 90.000000
_cell_volume 1814.781123
_symmetry_space_group_name_H-M "C M"
_symmetry_group_IT_number 8
_symmetry_cell_setting 'monoclinic'
loop_
_space_group_symop_operation_xyz
x,y,z
x,-y,z
1/2+x,1/2+y,z
1/2+x,1/2-y,z
loop_
_atom_site_type_symbol
_atom_site_label
_atom_site_fract_x
_atom_site_fract_y
_atom_site_fract_z
Si Si1 0.344580 0.815334 0.328040
Si Si2 0.369310 0.815682 0.039355
Si Si3 0.552938 0.684629 0.470216
Si Si4 0.787742 0.315041 0.488777
Si Si5 0.201875 0.183684 0.056215
Si Si6 0.113925 0.315907 0.310301
Si Si7 0.049006 0.683882 0.750553
Si Si8 0.194726 0.816730 0.746728
O O1 0.200922 0.767008 0.396971
O O2 0.306604 0.764117 0.415359
O O3 0.526605 0.757553 0.175766
O O4 0.347867 0.000000 0.326082
O O5 0.552123 0.749009 0.891631
O O6 0.376969 0.000000 0.035928
O O7 0.262486 0.772713 0.068484
O O8 0.275064 0.748459 0.159640
O O9 0.543298 0.500000 0.476729
O O10 0.589713 0.745131 0.384980
O O11 0.376608 0.751698 0.620949
O O12 0.770752 0.500000 0.502700
O O13 0.633787 0.240489 0.634480
O O14 0.953985 0.275475 0.395565
O O15 0.184501 0.000000 0.068467
O O16 0.355433 0.225483 0.903296
O O17 0.122052 0.500000 0.307743
O O18 0.063113 0.500000 0.745103
O O19 0.144674 0.759907 0.726834
O O20 0.195043 0.000000 0.747609
#
# Coordination Sequence:
#
# PCOD9132308 Si02
#       8
#     4   4   4   4   4   4   4   4
#     4  10  22  39  58  81 112 151 189 228 277 338
#     4  10  20  35  57  86 116 147 186 233 283 334
#     4  11  23  39  58  81 114 154 193 231 280 340
#     4  10  20  35  56  85 114 143 188 235 280 329
#     4   9  19  34  54  82 113 145 182 228 279 331
#     4  11  21  35  58  87 116 145 187 239 283 329
#     4  10  20  34  55  85 115 145 186 233 283 334
#     4  11  21  35  56  83 114 150 189 233 285 333
#
# _framework density 17.63298
#
# number of rings (size 3 to 8) (size 9 to 14) (size 15 to 20)
#    0.000    1.750    2.500    3.375    0.000    4.500 
#    0.000    1.250    0.000    4.500    0.000    0.000 
#    0.000    0.000    0.000    0.000    0.000    0.000 
#
# Total GULP energy -89356.454019 kJ/mol
# GULP energy per Si atom -5584.778376 kJ/mol
# Density = 1.759285 g / cm^3
# Si number density = 17.632980 Si / 1000 Ang^3
#
#
#
# Elastic Constant Matrix: (Units=GPa)
#
#
# Indices 1 2 3 4 5 6 
#
# 1 102.3916 39.9441 77.6103 -0.0007 -9.6233 -0.0003
# 2 39.9441 54.0162 50.3375 -0.0004 -4.7441 -0.0001
# 3 77.6103 50.3375 177.3972 -0.0023 -7.7924 -0.0009
# 4 -0.0007 -0.0004 -0.0023 36.7887 -0.0004 2.8264
# 5 -9.6233 -4.7441 -7.7924 -0.0004 27.9672 0.0000
# 6 -0.0003 -0.0001 -0.0009 2.8264 0.0000 22.8178
#
#
#
# Elastic Compliance Matrix: (Units=1/GPa)
#
#
# Indices 1 2 3 4 5 6 
#
# 1 0.016830 -0.007393 -0.005129 0.000000 0.003108 0.000000
# 2 -0.007393 0.028564 -0.004829 0.000000 0.000956 0.000000
# 3 -0.005129 -0.004829 0.009251 0.000000 -0.000006 0.000000
# 4 0.000000 0.000000 0.000000 0.027443 0.000000 -0.003399
# 5 0.003108 0.000956 -0.000006 0.000000 0.036986 0.000000
# 6 0.000000 0.000000 0.000000 -0.003399 0.000000 0.044246
#
#
# Mechanical properties :
#
#
# Convention : Reuss Voigt Hill
#
# Bulk Modulus (GPa) = 50.14150 74.39875 62.27013
# Shear Modulus (GPa) = 24.42959 28.57562 26.50260
#
# Velocity S-wave (km/s) = 3.72620 4.03001 3.88108
# Velocity P-wave (km/s) = 6.85643 7.99620 7.44815
#
# Compressibility (1/GPa) = 0.01994356
#
# Stress axis : x y z
#
# Youngs Moduli (GPa) = 59.41719 35.00921 108.09950
#
# Poissons Ratio (x) = 0.25883 0.55441
# Poissons Ratio (y) = 0.43929 0.52198
# Poissons Ratio (z) = 0.30473 0.16905
#
# Static dielectric constant tensor:
#      x y z
#    x 1.582120 0.000000 0.001720 
#    y 0.000000 1.591820 0.000000 
#    z 0.001720 0.000000 1.595690 
# 
# From -- ./inp_files/32626.got.cif
#   From: 2010.05.17/outbox.cif.g08.bks.cpg/sg8_17_cif.got.tgz:32626.got - 2010.06.03 19:46:02.
