data_PCOD9132683
_publ_section_title
;
Structure prediction by ZEFSAII (Michael W. Deem and Ramdas Pophale) SiO2 
 PCOD9132683
Probable space group: C M
;
_chemical_formula_sum "Si O2"
_cell_formula_units_Z 28
_cell_length_a 7.089832
_cell_length_b 14.607083
_cell_length_c 11.719180
_cell_angle_alpha 90.000000
_cell_angle_beta 63.257696
_cell_angle_gamma 90.000000
_cell_volume 1083.845260
_symmetry_space_group_name_H-M "C M"
_symmetry_group_IT_number 8
_symmetry_cell_setting 'monoclinic'
loop_
_space_group_symop_operation_xyz
x,y,z
x,-y,z
1/2+x,1/2+y,z
1/2+x,1/2-y,z
loop_
_atom_site_type_symbol
_atom_site_label
_atom_site_fract_x
_atom_site_fract_y
_atom_site_fract_z
Si Si1 0.255650 0.630973 0.879650
Si Si2 0.981569 0.396695 0.161824
Si Si3 0.365287 0.308252 0.200691
Si Si4 0.160978 0.844595 0.923104
Si Si5 0.396968 0.598507 0.425549
Si Si6 0.466033 0.138027 0.657544
Si Si7 0.560602 0.645627 0.613399
O O1 0.191021 0.737279 0.887827
O O2 0.463184 0.621708 0.903155
O O3 0.354760 0.602884 0.732228
O O4 0.071018 0.593274 0.008339
O O5 0.912399 0.500000 0.214397
O O6 0.172033 0.362577 0.193775
O O7 0.848096 0.302000 0.193729
O O8 0.376415 0.330099 0.330250
O O9 0.573362 0.344480 0.075129
O O10 0.372556 0.886107 0.808839
O O11 0.441508 0.500000 0.360484
O O12 0.561684 0.621347 0.480692
O O13 0.174154 0.594415 0.551153
O O14 0.525937 0.245797 0.637921
O O15 0.272765 0.121103 0.622742
#
# Coordination Sequence:
#
# PCOD9132683 Si02
#       7
#     4   4   4   4   4   4   4
#     4   8  16  31  60  98 129 166 221 284 338 409
#     4  10  21  42  72  99 133 185 233 282 353 419
#     4  10  23  43  67  99 141 179 229 290 345 416
#     4   8  16  34  61  96 124 174 221 275 350 401
#     4  12  27  43  64 100 144 188 232 287 355 422
#     4  10  20  39  70  99 127 179 233 286 347 415
#     4  10  20  38  68  99 137 177 230 288 350 414
#
# _framework density 25.833946999999998
#
# number of rings (size 3 to 8) (size 9 to 14) (size 15 to 20)
#    0.000    2.286    1.429    0.429    4.000    1.143 
#    0.000    7.857    0.000    0.000    0.000    0.000 
#    0.000    0.000    0.000    0.000    0.000    0.000 
#
# Total GULP energy -78214.414476 kJ/mol
# GULP energy per Si atom -5586.743891 kJ/mol
# Density = 2.577515 g / cm^3
# Si number density = 25.833947 Si / 1000 Ang^3
#
#
#
# Elastic Constant Matrix: (Units=GPa)
#
#
# Indices 1 2 3 4 5 6 
#
# 1 107.6539 2.6850 57.7021 0.0000 -1.6702 0.0000
# 2 2.6850 144.4198 37.4851 0.0000 -8.5017 0.0000
# 3 57.7021 37.4851 145.7314 0.0000 15.9370 0.0000
# 4 0.0000 0.0000 0.0000 -1.1472 0.0000 5.7415
# 5 -1.6702 -8.5017 15.9370 0.0000 48.8015 0.0000
# 6 0.0000 0.0000 0.0000 5.7415 0.0000 -16.4647
#
#
#
# Elastic Compliance Matrix: (Units=1/GPa)
#
#
# Indices 1 2 3 4 5 6 
#
# 1 0.012210 0.001328 -0.005442 0.000000 0.002426 0.000000
# 2 0.001328 0.007755 -0.002772 0.000000 0.002302 0.000000
# 3 -0.005442 -0.002772 0.010166 0.000000 -0.003989 0.000000
# 4 0.000000 0.000000 0.000000 1.169604 0.000000 0.407862
# 5 0.002426 0.002302 -0.003989 0.000000 0.022278 0.000000
# 6 0.000000 0.000000 0.000000 0.407862 0.000000 0.081493
#
#
# Mechanical properties :
#
#
# Convention : Reuss Voigt Hill
#
# Bulk Modulus (GPa) = 61.12694 65.94996 63.53845
# Shear Modulus (GPa) = 3.78006 26.23343 15.00675
#
# Velocity S-wave (km/s) = 1.21095 3.19009 2.41279
# Velocity P-wave (km/s) = 5.06636 6.25722 5.69301
#
# Compressibility (1/GPa) = 0.01635940
#
# Stress axis : x y z
#
# Youngs Moduli (GPa) = 81.89857 128.95534 98.36848
#
# Poissons Ratio (x) = -0.17128 0.53528
# Poissons Ratio (y) = -0.10878 0.27270
# Poissons Ratio (z) = 0.44566 0.35750
#
# Static dielectric constant tensor:
#      x y z
#    x 2.050880 0.000000 -0.048580 
#    y 0.000000 2.023480 0.000000 
#    z -0.048580 0.000000 2.020170 
# 
# From -- ./inp_files/18831.got.cif
#   From: 2010.05.17/outbox.cif.g08.bks.cpg/sg8_10_cif.got.tgz:18831.got - 2010.06.03 19:46:02.
