data_PCOD9132160
_publ_section_title
;
Structure prediction by ZEFSAII (Michael W. Deem and Ramdas Pophale) SiO2 
 PCOD9132160
Probable space group: C M
;
_chemical_formula_sum "Si O2"
_cell_formula_units_Z 20
_cell_length_a 14.542696
_cell_length_b 9.754322
_cell_length_c 12.297967
_cell_angle_alpha 90.000000
_cell_angle_beta 151.118789
_cell_angle_gamma 90.000000
_cell_volume 842.593707
_symmetry_space_group_name_H-M "C M"
_symmetry_group_IT_number 8
_symmetry_cell_setting 'monoclinic'
loop_
_space_group_symop_operation_xyz
x,y,z
x,-y,z
1/2+x,1/2+y,z
1/2+x,1/2-y,z
loop_
_atom_site_type_symbol
_atom_site_label
_atom_site_fract_x
_atom_site_fract_y
_atom_site_fract_z
Si Si1 0.058800 0.651720 0.778710
Si Si2 0.323055 0.851383 0.946271
Si Si3 0.869738 0.160156 0.293501
Si Si4 0.086726 0.154639 0.130146
Si Si5 0.784848 0.268773 0.674222
O O1 0.062149 0.500000 0.730361
O O2 0.127312 0.777092 0.775340
O O3 0.864853 0.679271 0.643090
O O4 0.218516 0.651344 0.038831
O O5 0.484339 0.735143 0.122625
O O6 0.328036 0.867860 0.821177
O O7 0.350038 0.000000 0.026222
O O8 0.058402 0.238950 0.448179
O O9 0.908135 0.000000 0.365512
O O10 0.760564 0.252568 0.269111
O O11 0.926535 0.150570 0.866400
O O12 0.138327 0.000000 0.210303
#
# Coordination Sequence:
#
# PCOD9132160 Si02
#       5
#     4   4   4   4   4
#     4  10  20  36  58  84 118 153 189 236 286 344
#     4  10  20  38  61  82 114 155 193 238 286 339
#     4  10  19  36  63  86 113 154 194 233 284 345
#     4   9  20  36  57  84 115 149 188 235 285 335
#     4   9  21  38  63  82 114 153 194 232 285 343
#
# _framework density 23.736232999999999
#
# number of rings (size 3 to 8) (size 9 to 14) (size 15 to 20)
#    1.200    1.200    0.000    3.000    0.000    4.000 
#    3.600    0.000    0.000    0.000    0.000    0.000 
#    0.000    0.000    0.000    0.000    0.000    0.000 
#
# Total GULP energy -55675.247943 kJ/mol
# GULP energy per Si atom -5567.524794 kJ/mol
# Density = 2.368221 g / cm^3
# Si number density = 23.736233 Si / 1000 Ang^3
#
#
#
# Elastic Constant Matrix: (Units=GPa)
#
#
# Indices 1 2 3 4 5 6 
#
# 1 116.6039 64.5488 19.7090 0.0000 45.2781 0.0000
# 2 64.5488 182.0876 27.3724 0.0000 23.9815 0.0000
# 3 19.7090 27.3724 130.6158 0.0000 37.7088 0.0000
# 4 0.0000 0.0000 0.0000 2.5800 0.0000 -5.1522
# 5 45.2781 23.9815 37.7088 0.0000 48.8059 0.0000
# 6 0.0000 0.0000 0.0000 -5.1522 0.0000 3.0348
#
#
#
# Elastic Compliance Matrix: (Units=1/GPa)
#
#
# Indices 1 2 3 4 5 6 
#
# 1 0.016375 -0.004214 0.002832 0.000000 -0.015308 0.000000
# 2 -0.004214 0.006983 -0.001243 0.000000 0.001439 0.000000
# 3 0.002832 -0.001243 0.010389 0.000000 -0.010043 0.000000
# 4 0.000000 0.000000 0.000000 -0.162154 0.000000 -0.275289
# 5 -0.015308 0.001439 -0.010043 0.000000 0.041744 0.000000
# 6 0.000000 0.000000 0.000000 -0.275289 0.000000 -0.137851
#
#
# Mechanical properties :
#
#
# Convention : Reuss Voigt Hill
#
# Bulk Modulus (GPa) = 35.09295 72.50753 53.80024
# Shear Modulus (GPa) = -23.83609 32.06261 4.11326
#
# Velocity S-wave (km/s) = -3.17236 3.67929 1.31783
# Velocity P-wave (km/s) = 1.18243 6.97589 5.00306
#
# Compressibility (1/GPa) = 0.02849575
#
# Stress axis : x y z
#
# Youngs Moduli (GPa) = 61.07039 143.20199 96.25949
#
# Poissons Ratio (x) = 0.60349 -0.27259
# Poissons Ratio (y) = 0.25736 0.11964
# Poissons Ratio (z) = -0.17294 0.17798
#
# Static dielectric constant tensor:
#      x y z
#    x 1.907620 0.000000 -0.047260 
#    y 0.000000 1.916350 0.000000 
#    z -0.047260 0.000000 2.026160 
# 
# From -- ./inp_files/29410.got.cif
#   From: 2010.05.17/outbox.cif.g08.bks.cpg/sg8_15_cif.got.tgz:29410.got - 2010.06.03 19:46:02.
