data_PCOD9132593
_publ_section_title
;
Structure prediction by ZEFSAII (Michael W. Deem and Ramdas Pophale) SiO2 
 PCOD9132593
Probable space group: C M
;
_chemical_formula_sum "Si O2"
_cell_formula_units_Z 32
_cell_length_a 13.423552
_cell_length_b 26.733728
_cell_length_c 8.573563
_cell_angle_alpha 90.000000
_cell_angle_beta 29.624058
_cell_angle_gamma 90.000000
_cell_volume 1520.845178
_symmetry_space_group_name_H-M "C M"
_symmetry_group_IT_number 8
_symmetry_cell_setting 'monoclinic'
loop_
_space_group_symop_operation_xyz
x,y,z
x,-y,z
1/2+x,1/2+y,z
1/2+x,1/2-y,z
loop_
_atom_site_type_symbol
_atom_site_label
_atom_site_fract_x
_atom_site_fract_y
_atom_site_fract_z
Si Si1 0.413900 0.682540 0.721840
Si Si2 0.819739 0.090361 0.665748
Si Si3 0.106995 0.103998 0.696131
Si Si4 0.998654 0.858901 0.148277
Si Si5 0.225184 0.212843 0.041674
Si Si6 0.560563 0.129386 0.579601
Si Si7 0.242923 0.554427 0.106701
Si Si8 0.427531 0.942271 0.026835
O O1 0.285717 0.646494 0.780695
O O2 0.496992 0.648495 0.749405
O O3 0.608467 0.700855 0.360237
O O4 0.286316 0.729763 0.948000
O O5 0.991064 0.102352 0.304587
O O6 0.833241 0.060614 0.809491
O O7 0.645623 0.063404 0.808548
O O8 0.280690 0.082895 0.352176
O O9 0.151968 0.123983 0.805724
O O10 0.941079 0.060406 0.943441
O O11 0.774840 0.858284 0.374666
O O12 0.071104 0.806137 0.117868
O O13 0.423329 0.178273 0.753049
O O14 0.605561 0.099479 0.357915
O O15 0.441900 0.090597 0.852186
O O16 0.147576 0.500000 0.251912
O O17 0.376552 0.000000 0.068090
#
# Coordination Sequence:
#
# PCOD9132593 Si02
#       8
#     4   4   4   4   4   4   4   4
#     4  10  23  41  63  89 127 166 209 260 321 372
#     4   9  21  40  59  89 125 160 210 259 310 375
#     4  10  21  40  60  92 128 161 210 259 312 379
#     4   9  22  42  61  89 126 168 204 256 313 366
#     4  11  23  43  64  93 126 168 208 261 319 380
#     4  10  22  41  64  90 131 162 214 261 310 381
#     4  10  20  37  63  89 122 168 209 255 314 369
#     4  11  21  38  63  91 125 167 208 263 321 374
#
# _framework density 21.040931
#
# number of rings (size 3 to 8) (size 9 to 14) (size 15 to 20)
#    0.000    2.000    1.250    1.125    7.000    0.000 
#    9.000    1.875    0.000    1.500    0.000    0.000 
#    0.000    0.000    0.000    0.000    0.000    0.000 
#
# Total GULP energy -89185.125149 kJ/mol
# GULP energy per Si atom -5574.070322 kJ/mol
# Density = 2.099304 g / cm^3
# Si number density = 21.040931 Si / 1000 Ang^3
#
#
#
# Elastic Constant Matrix: (Units=GPa)
#
#
# Indices 1 2 3 4 5 6 
#
# 1 54.4370 16.4838 9.5543 0.0000 8.6407 0.0000
# 2 16.4838 118.0737 27.4509 0.0000 2.5290 0.0000
# 3 9.5543 27.4509 82.8268 0.0000 16.3546 0.0000
# 4 0.0000 0.0000 0.0000 28.9047 0.0000 -5.8449
# 5 8.6407 2.5290 16.3546 0.0000 34.7980 0.0000
# 6 0.0000 0.0000 0.0000 -5.8449 0.0000 17.0755
#
#
#
# Elastic Compliance Matrix: (Units=1/GPa)
#
#
# Indices 1 2 3 4 5 6 
#
# 1 0.019959 -0.002559 -0.000565 0.000000 -0.004505 0.000000
# 2 -0.002559 0.009527 -0.003143 0.000000 0.001420 0.000000
# 3 -0.000565 -0.003143 0.014448 0.000000 -0.006422 0.000000
# 4 0.000000 0.000000 0.000000 0.037169 0.000000 0.012723
# 5 -0.004505 0.001420 -0.006422 0.000000 0.032771 0.000000
# 6 0.000000 0.000000 0.000000 0.012723 0.000000 0.062918
#
#
# Mechanical properties :
#
#
# Convention : Reuss Voigt Hill
#
# Bulk Modulus (GPa) = 31.84570 40.25726 36.05148
# Shear Modulus (GPa) = 25.02614 29.61222 27.31918
#
# Velocity S-wave (km/s) = 3.45251 3.75555 3.60722
# Velocity P-wave (km/s) = 5.57325 6.16279 5.87542
#
# Compressibility (1/GPa) = 0.03140141
#
# Stress axis : x y z
#
# Youngs Moduli (GPa) = 50.10338 104.96827 69.21325
#
# Poissons Ratio (x) = 0.26857 0.03910
# Poissons Ratio (y) = 0.12819 0.21751
# Poissons Ratio (z) = 0.02830 0.32988
#
# Static dielectric constant tensor:
#      x y z
#    x 1.791890 0.000000 0.001710 
#    y 0.000000 1.745600 0.000000 
#    z 0.001710 0.000000 1.795610 
# 
# From -- ./inp_files/13810.got.cif
#   From: 2010.05.17/outbox.cif.g08.bks.cpg/sg8_7_cif.got.tgz:13810.got - 2010.06.03 19:46:02.
