data_PCOD9132085
_publ_section_title
;
Structure prediction by ZEFSAII (Michael W. Deem and Ramdas Pophale) SiO2 
 PCOD9132085
Probable space group: C M
;
_chemical_formula_sum "Si O2"
_cell_formula_units_Z 20
_cell_length_a 13.801658
_cell_length_b 10.201966
_cell_length_c 7.662896
_cell_angle_alpha 90.000000
_cell_angle_beta 60.416566
_cell_angle_gamma 90.000000
_cell_volume 938.310178
_symmetry_space_group_name_H-M "C M"
_symmetry_group_IT_number 8
_symmetry_cell_setting 'monoclinic'
loop_
_space_group_symop_operation_xyz
x,y,z
x,-y,z
1/2+x,1/2+y,z
1/2+x,1/2-y,z
loop_
_atom_site_type_symbol
_atom_site_label
_atom_site_fract_x
_atom_site_fract_y
_atom_site_fract_z
Si Si1 0.772090 0.723631 0.457260
Si Si2 0.077300 0.853092 0.377962
Si Si3 0.396607 0.648996 0.055737
Si Si4 0.824635 0.849392 0.746206
Si Si5 0.511992 0.852178 0.159804
O O1 0.668092 0.664288 0.448800
O O2 0.816030 0.844349 0.296574
O O3 0.754957 0.765520 0.670950
O O4 0.885059 0.638522 0.347591
O O5 0.953149 0.845239 0.567494
O O6 0.080911 0.735959 0.234510
O O7 0.089833 0.000000 0.289343
O O8 0.436913 0.500000 0.995431
O O9 0.490253 0.757684 0.013025
O O10 0.330096 0.690421 0.942514
O O11 0.789250 0.000000 0.767526
O O12 0.551812 0.000000 0.095572
#
# Coordination Sequence:
#
# PCOD9132085 Si02
#       5
#     4   4   4   4   4
#     4   9  19  33  57  78 109 138 181 215 271 306
#     4  10  19  35  59  80 107 142 180 221 269 319
#     4   9  18  35  58  78 108 145 178 216 267 319
#     4   9  18  35  56  81 107 140 180 220 266 320
#     4   9  19  34  54  79 109 139 177 220 265 314
#
# _framework density 21.314912
#
# number of rings (size 3 to 8) (size 9 to 14) (size 15 to 20)
#    1.200    1.600    0.000    1.800    0.000    1.600 
#    3.600    5.000    0.000    0.000    0.000    0.000 
#    0.000    0.000    0.000    0.000    0.000    0.000 
#
# Total GULP energy -55673.286048 kJ/mol
# GULP energy per Si atom -5567.328605 kJ/mol
# Density = 2.126640 g / cm^3
# Si number density = 21.314912 Si / 1000 Ang^3
#
#
#
# Elastic Constant Matrix: (Units=GPa)
#
#
# Indices 1 2 3 4 5 6 
#
# 1 128.3452 61.0467 37.6259 0.0000 14.6647 0.0000
# 2 61.0467 145.1909 40.3107 0.0000 26.2818 0.0000
# 3 37.6259 40.3107 73.7202 0.0000 32.9241 0.0000
# 4 0.0000 0.0000 0.0000 18.3915 0.0000 15.8897
# 5 14.6647 26.2818 32.9241 0.0000 42.0097 0.0000
# 6 0.0000 0.0000 0.0000 15.8897 0.0000 -0.5484
#
#
#
# Elastic Compliance Matrix: (Units=1/GPa)
#
#
# Indices 1 2 3 4 5 6 
#
# 1 0.010531 -0.003590 -0.004267 0.000000 0.001913 0.000000
# 2 -0.003590 0.009513 -0.001956 0.000000 -0.003165 0.000000
# 3 -0.004267 -0.001956 0.024001 0.000000 -0.016097 0.000000
# 4 0.000000 0.000000 0.000000 0.002088 0.000000 0.060516
# 5 0.001913 -0.003165 -0.016097 0.000000 0.037732 0.000000
# 6 0.000000 0.000000 0.000000 0.060516 0.000000 -0.070045
#
#
# Mechanical properties :
#
#
# Convention : Reuss Voigt Hill
#
# Bulk Modulus (GPa) = 40.94887 69.46922 55.20905
# Shear Modulus (GPa) = 120.23370 25.85545 73.04458
#
# Velocity S-wave (km/s) = 7.51869 3.48662 5.86034
# Velocity P-wave (km/s) = 9.72766 6.99080 8.47050
#
# Compressibility (1/GPa) = 0.02442070
#
# Stress axis : x y z
#
# Youngs Moduli (GPa) = 94.95707 105.12166 41.66469
#
# Poissons Ratio (x) = 0.37735 0.17777
# Poissons Ratio (y) = 0.34086 0.08149
# Poissons Ratio (z) = 0.40515 0.20560
#
# Static dielectric constant tensor:
#      x y z
#    x 1.787540 0.000000 -0.018950 
#    y 0.000000 1.755710 0.000000 
#    z -0.018950 0.000000 1.788410 
# 
# From -- ./inp_files/11919.got.cif
#   From: 2010.05.17/outbox.cif.g08.bks.cpg/sg8_6_cif.got.tgz:11919.got - 2010.06.03 19:46:02.
