data_PCOD9132072
_publ_section_title
;
Structure prediction by ZEFSAII (Michael W. Deem and Ramdas Pophale) SiO2 
 PCOD9132072
Probable space group: C M
;
_chemical_formula_sum "Si O2"
_cell_formula_units_Z 32
_cell_length_a 13.958088
_cell_length_b 17.160407
_cell_length_c 11.742770
_cell_angle_alpha 90.000000
_cell_angle_beta 31.879162
_cell_angle_gamma 90.000000
_cell_volume 1485.472194
_symmetry_space_group_name_H-M "C M"
_symmetry_group_IT_number 8
_symmetry_cell_setting 'monoclinic'
loop_
_space_group_symop_operation_xyz
x,y,z
x,-y,z
1/2+x,1/2+y,z
1/2+x,1/2-y,z
loop_
_atom_site_type_symbol
_atom_site_label
_atom_site_fract_x
_atom_site_fract_y
_atom_site_fract_z
Si Si1 0.344080 0.912740 0.475350
Si Si2 0.892850 0.760203 0.019139
Si Si3 0.009660 0.084641 0.974587
Si Si4 0.021112 0.914913 0.362632
Si Si5 0.426581 0.753748 0.742990
Si Si6 0.724375 0.359618 0.364917
Si Si7 0.818816 0.755533 0.593527
Si Si8 0.307727 0.914834 0.873085
O O1 0.137717 0.916736 0.733095
O O2 0.341423 0.903292 0.341478
O O3 0.404405 0.828115 0.466766
O O4 0.421398 0.000000 0.426902
O O5 0.877102 0.843100 0.096885
O O6 0.814110 0.764598 0.970992
O O7 0.105993 0.745157 0.783538
O O8 0.824592 0.693010 0.170158
O O9 0.154685 0.096540 0.929886
O O10 0.923989 0.000000 0.075781
O O11 0.092827 0.911695 0.420122
O O12 0.910526 0.834794 0.454882
O O13 0.931013 0.000000 0.433566
O O14 0.194461 0.912829 0.104103
O O15 0.603100 0.701139 0.558058
O O16 0.332786 0.739595 0.716491
O O17 0.451839 0.846439 0.723009
O O18 0.388099 0.000000 0.775633
#
# Coordination Sequence:
#
# PCOD9132072 Si02
#       8
#     4   4   4   4   4   4   4   4
#     4  10  19  35  57  84 113 148 196 243 292 350
#     4  11  21  38  58  88 123 160 197 250 303 360
#     4   9  18  34  58  83 109 150 202 248 294 348
#     4  10  22  39  60  89 120 161 207 247 298 364
#     4  11  20  38  55  90 117 156 203 242 301 359
#     4  11  22  35  61  87 120 159 200 241 304 363
#     4  10  22  38  61  87 119 158 201 252 302 352
#     4  10  19  35  59  84 115 156 203 251 298 354
#
# _framework density 21.541971
#
# number of rings (size 3 to 8) (size 9 to 14) (size 15 to 20)
#    0.000    1.750    6.250    0.375    1.750    0.000 
#    0.000    2.500    0.000    0.750    0.000    0.000 
#    0.000    0.000    0.000    0.000    0.000    0.000 
#
# Total GULP energy -89128.721393 kJ/mol
# GULP energy per Si atom -5570.545087 kJ/mol
# Density = 2.149294 g / cm^3
# Si number density = 21.541971 Si / 1000 Ang^3
#
#
#
# Elastic Constant Matrix: (Units=GPa)
#
#
# Indices 1 2 3 4 5 6 
#
# 1 55.8947 18.5867 15.2579 -0.0012 26.5982 0.0005
# 2 18.5867 190.9291 20.4045 0.0005 -2.5209 -0.0002
# 3 15.2579 20.4045 47.3272 -0.0005 19.7113 0.0007
# 4 -0.0012 0.0005 -0.0005 19.1076 0.0006 -2.6811
# 5 26.5982 -2.5209 19.7113 0.0006 27.0834 -0.0001
# 6 0.0005 -0.0002 0.0007 -2.6811 -0.0001 21.7092
#
#
#
# Elastic Compliance Matrix: (Units=1/GPa)
#
#
# Indices 1 2 3 4 5 6 
#
# 1 0.038415 -0.005210 0.008289 0.000004 -0.044244 -0.000001
# 2 -0.005210 0.006398 -0.004962 -0.000001 0.009323 0.000000
# 3 0.008289 -0.004962 0.034696 0.000002 -0.033854 -0.000001
# 4 0.000004 -0.000001 0.000002 0.053258 -0.000007 0.006577
# 5 -0.044244 0.009323 -0.033854 -0.000007 0.105881 0.000002
# 6 -0.000001 0.000000 -0.000001 0.006577 0.000002 0.046876
#
#
# Mechanical properties :
#
#
# Convention : Reuss Voigt Hill
#
# Bulk Modulus (GPa) = 13.20246 44.73879 28.97063
# Shear Modulus (GPa) = 15.89637 29.57351 22.73494
#
# Velocity S-wave (km/s) = 2.71943 3.70919 3.25218
# Velocity P-wave (km/s) = 4.00030 6.25759 5.25166
#
# Compressibility (1/GPa) = 0.07574344
#
# Stress axis : x y z
#
# Youngs Moduli (GPa) = 26.03178 156.29741 28.82143
#
# Poissons Ratio (x) = 0.81424 -0.23889
# Poissons Ratio (y) = 0.13561 0.14301
# Poissons Ratio (z) = -0.21577 0.77553
#
# Static dielectric constant tensor:
#      x y z
#    x 1.890060 0.000000 0.026780 
#    y 0.000000 1.849790 0.000000 
#    z 0.026780 0.000000 1.778000 
# 
# From -- ./inp_files/22222.got.cif
#   From: 2010.05.17/outbox.cif.g08.bks.cpg/sg8_12_cif.got.tgz:22222.got - 2010.06.03 19:46:02.
