data_PCOD9132821
_publ_section_title
;
Structure prediction by ZEFSAII (Michael W. Deem and Ramdas Pophale) SiO2 
 PCOD9132821
Probable space group: C M
;
_chemical_formula_sum "Si O2"
_cell_formula_units_Z 32
_cell_length_a 26.059643
_cell_length_b 7.581687
_cell_length_c 24.931980
_cell_angle_alpha 90.000000
_cell_angle_beta 17.648874
_cell_angle_gamma 90.000000
_cell_volume 1493.467355
_symmetry_space_group_name_H-M "C M"
_symmetry_group_IT_number 8
_symmetry_cell_setting 'monoclinic'
loop_
_space_group_symop_operation_xyz
x,y,z
x,-y,z
1/2+x,1/2+y,z
1/2+x,1/2-y,z
loop_
_atom_site_type_symbol
_atom_site_label
_atom_site_fract_x
_atom_site_fract_y
_atom_site_fract_z
Si Si1 0.838400 0.792296 0.790220
Si Si2 0.015034 0.284435 0.917891
Si Si3 0.826051 0.783665 0.681483
Si Si4 0.545000 0.705348 0.163122
Si Si5 0.647554 0.715344 0.293849
Si Si6 0.651544 0.295182 0.546799
Si Si7 0.020585 0.785892 0.305516
Si Si8 0.123970 0.711882 0.694411
O O1 0.812230 0.721969 0.756376
O O2 0.004926 0.718891 0.654660
O O3 0.872466 0.000000 0.750135
O O4 0.669797 0.778669 0.994009
O O5 0.021376 0.500000 0.910129
O O6 0.172674 0.225446 0.796235
O O7 0.026402 0.227332 0.844448
O O8 0.836450 0.231398 0.120494
O O9 0.001485 0.727982 0.479518
O O10 0.821793 0.000000 0.685385
O O11 0.586481 0.500000 0.124145
O O12 0.342443 0.719181 0.354563
O O13 0.578186 0.780719 0.189889
O O14 0.642478 0.500000 0.298090
O O15 0.609399 0.774894 0.271092
O O16 0.675146 0.500000 0.510357
O O17 0.584355 0.281481 0.674897
O O18 0.821259 0.747227 0.508364
O O19 0.036040 0.000000 0.288998
O O20 0.106704 0.500000 0.708098
#
# Coordination Sequence:
#
# PCOD9132821 Si02
#       8
#     4   4   4   4   4   4   4   4
#     4  10  22  37  55  79 112 152 187 221 268 330
#     4   9  16  25  45  75 103 133 171 222 276 314
#     4   9  17  31  47  70 106 139 173 219 266 317
#     4  10  21  36  57  83 109 143 184 232 278 318
#     4   9  15  24  42  71 102 130 163 212 271 319
#     4  10  21  36  53  78 114 152 183 219 269 329
#     4   8  14  26  44  71 106 130 157 211 272 318
#     4   9  16  29  50  77 108 137 172 224 274 319
#
# _framework density 21.426649999999999
#
# number of rings (size 3 to 8) (size 9 to 14) (size 15 to 20)
#    0.000    2.750    1.250    1.500    1.750    2.000 
#    0.000    3.750    0.000    0.750    0.000    0.875 
#    0.000    0.000    0.000    0.000    0.000    0.000 
#
# Total GULP energy -89274.356690 kJ/mol
# GULP energy per Si atom -5579.647293 kJ/mol
# Density = 2.137788 g / cm^3
# Si number density = 21.426650 Si / 1000 Ang^3
#
#
#
# Elastic Constant Matrix: (Units=GPa)
#
#
# Indices 1 2 3 4 5 6 
#
# 1 100.4926 -5.1280 61.2825 -0.0040 28.2426 -0.0021
# 2 -5.1280 40.9259 -7.3184 -0.0586 -0.2150 0.0168
# 3 61.2825 -7.3184 122.3401 -0.0611 24.8428 0.0196
# 4 -0.0040 -0.0586 -0.0611 5.3342 0.0177 3.2848
# 5 28.2426 -0.2150 24.8428 0.0177 21.5643 -0.0013
# 6 -0.0021 0.0168 0.0196 3.2848 -0.0013 12.4715
#
#
#
# Elastic Compliance Matrix: (Units=1/GPa)
#
#
# Indices 1 2 3 4 5 6 
#
# 1 0.018346 0.001216 -0.005535 0.000020 -0.017638 0.000003
# 2 0.001216 0.024840 0.001501 0.000386 -0.003075 -0.000137
# 3 -0.005535 0.001501 0.012481 0.000231 -0.007115 -0.000084
# 4 0.000020 0.000386 0.000231 0.223773 -0.000475 -0.058939
# 5 -0.017638 -0.003075 -0.007115 -0.000475 0.077640 0.000145
# 6 0.000003 -0.000137 -0.000084 -0.058939 0.000145 0.095706
#
#
# Mechanical properties :
#
#
# Convention : Reuss Voigt Hill
#
# Bulk Modulus (GPa) = 19.98747 40.15900 30.07324
# Shear Modulus (GPa) = 10.52414 22.20216 16.36315
#
# Velocity S-wave (km/s) = 2.21864 3.22249 2.76648
# Velocity P-wave (km/s) = 3.98895 5.71219 4.92650
#
# Compressibility (1/GPa) = 0.05003134
#
# Stress axis : x y z
#
# Youngs Moduli (GPa) = 54.50895 40.25810 80.11988
#
# Poissons Ratio (x) = -0.04896 0.44348
# Poissons Ratio (y) = -0.06630 -0.12029
# Poissons Ratio (z) = 0.30172 -0.06044
#
# Static dielectric constant tensor:
#      x y z
#    x 1.770650 0.000000 -0.006270 
#    y 0.000000 1.832310 0.000010 
#    z -0.006270 0.000010 1.751450 
# 
# From -- ./inp_files/32348.got.cif
#   From: 2010.05.17/outbox.cif.g08.bks.cpg/sg8_17_cif.got.tgz:32348.got - 2010.06.03 19:46:02.
