data_PCOD9132962
_publ_section_title
;
Structure prediction by ZEFSAII (Michael W. Deem and Ramdas Pophale) SiO2 
 PCOD9132962
Probable space group: C M
;
_chemical_formula_sum "Si O2"
_cell_formula_units_Z 30
_cell_length_a 14.227831
_cell_length_b 15.655634
_cell_length_c 9.999316
_cell_angle_alpha 90.000000
_cell_angle_beta 145.344903
_cell_angle_gamma 90.000000
_cell_volume 1266.523526
_symmetry_space_group_name_H-M "C M"
_symmetry_group_IT_number 8
_symmetry_cell_setting 'monoclinic'
loop_
_space_group_symop_operation_xyz
x,y,z
x,-y,z
1/2+x,1/2+y,z
1/2+x,1/2-y,z
loop_
_atom_site_type_symbol
_atom_site_label
_atom_site_fract_x
_atom_site_fract_y
_atom_site_fract_z
Si Si1 0.737940 0.769387 0.277620
Si Si2 0.152902 0.859466 0.545193
Si Si3 0.487819 0.853132 0.181919
Si Si4 0.295698 0.306679 0.048097
Si Si5 0.505269 0.406865 0.652397
Si Si6 0.108263 0.095891 0.070967
Si Si7 0.866643 0.500000 0.837063
Si Si8 0.736338 0.837968 0.693861
O O1 0.594331 0.791924 0.210725
O O2 0.714471 0.805419 0.099134
O O3 0.737863 0.667495 0.268064
O O4 0.893188 0.822516 0.514797
O O5 0.109130 0.902332 0.638163
O O6 0.218063 0.763110 0.636996
O O7 0.973136 0.854295 0.266905
O O8 0.287171 0.923909 0.647882
O O9 0.346846 0.790796 0.074133
O O10 0.604566 0.881511 0.441374
O O11 0.436953 0.927009 0.023499
O O12 0.199500 0.343247 0.808754
O O13 0.414037 0.500000 0.542843
O O14 0.606095 0.407438 0.906776
O O15 0.133366 0.000000 0.150193
O O16 0.921034 0.127814 0.885330
#
# Coordination Sequence:
#
# PCOD9132962 Si02
#       8
#     4   4   4   4   4   4   2   4
#     4  11  22  41  67  97 131 172 223 274 331 396
#     4  10  21  38  66  96 127 164 226 272 330 388
#     4  11  24  39  68  99 129 173 226 272 331 391
#     4  10  22  42  66  96 129 181 209 275 341 397
#     4  10  21  39  68  97 123 168 226 275 327 401
#     4  11  23  37  65  94 129 176 220 276 326 397
#     4  12  22  40  68 100 124 170 228 290 304 398
#     4  11  21  43  60  96 135 172 216 267 340 396
#
# _framework density 23.686888
#
# number of rings (size 3 to 8) (size 9 to 14) (size 15 to 20)
#    0.000    1.333    4.667    0.800    1.867    0.000 
#    1.200    0.000    0.000    0.800    0.000    0.000 
#    0.000    0.000    0.000    0.000    0.000    0.000 
#
# Total GULP energy -83560.992691 kJ/mol
# GULP energy per Si atom -5570.732846 kJ/mol
# Density = 2.363298 g / cm^3
# Si number density = 23.686888 Si / 1000 Ang^3
#
#
#
# Elastic Constant Matrix: (Units=GPa)
#
#
# Indices 1 2 3 4 5 6 
#
# 1 80.9006 -2.7398 16.9269 0.0000 -20.4114 0.0000
# 2 -2.7398 148.9509 50.5497 0.0000 -4.8086 0.0000
# 3 16.9269 50.5497 88.2905 0.0000 -20.1974 0.0000
# 4 0.0000 0.0000 0.0000 -12.0159 0.0000 -47.1046
# 5 -20.4114 -4.8086 -20.1974 0.0000 25.8590 0.0000
# 6 0.0000 0.0000 0.0000 -47.1046 0.0000 -16.4051
#
#
#
# Elastic Compliance Matrix: (Units=1/GPa)
#
#
# Indices 1 2 3 4 5 6 
#
# 1 0.015543 0.000946 -0.000821 0.000000 0.011803 0.000000
# 2 0.000946 0.008542 -0.005525 0.000000 -0.001980 0.000000
# 3 -0.000821 -0.005525 0.017367 0.000000 0.011889 0.000000
# 4 0.000000 0.000000 0.000000 0.008114 0.000000 -0.023299
# 5 0.011803 -0.001980 0.011889 0.000000 0.056905 0.000000
# 6 0.000000 0.000000 0.000000 -0.023299 0.000000 0.005943
#
#
# Mechanical properties :
#
#
# Convention : Reuss Voigt Hill
#
# Bulk Modulus (GPa) = 32.62634 49.73506 41.18070
# Shear Modulus (GPa) = 37.47223 16.38128 26.92676
#
# Velocity S-wave (km/s) = 3.98173 2.63264 3.37527
# Velocity P-wave (km/s) = 5.91124 5.50304 5.71079
#
# Compressibility (1/GPa) = 0.03065009
#
# Stress axis : x y z
#
# Youngs Moduli (GPa) = 64.33944 117.06702 57.58165
#
# Poissons Ratio (x) = -0.11070 0.04729
# Poissons Ratio (y) = -0.06084 0.31814
# Poissons Ratio (z) = 0.05284 0.64680
#
# Static dielectric constant tensor:
#      x y z
#    x 1.964350 0.000000 0.030480 
#    y 0.000000 2.045290 0.000000 
#    z 0.030480 0.000000 2.013370 
# 
# From -- ./inp_files/23285.got.cif
#   From: 2010.05.17/outbox.cif.g08.bks.cpg/sg8_12_cif.got.tgz:23285.got - 2010.06.03 19:46:02.
