data_PCOD9132390
_publ_section_title
;
Structure prediction by ZEFSAII (Michael W. Deem and Ramdas Pophale) SiO2 
 PCOD9132390
Probable space group: C M
;
_chemical_formula_sum "Si O2"
_cell_formula_units_Z 26
_cell_length_a 27.694076
_cell_length_b 7.309309
_cell_length_c 5.042019
_cell_angle_alpha 90.000000
_cell_angle_beta 89.430285
_cell_angle_gamma 90.000000
_cell_volume 1020.578017
_symmetry_space_group_name_H-M "C M"
_symmetry_group_IT_number 8
_symmetry_cell_setting 'monoclinic'
loop_
_space_group_symop_operation_xyz
x,y,z
x,-y,z
1/2+x,1/2+y,z
1/2+x,1/2-y,z
loop_
_atom_site_type_symbol
_atom_site_label
_atom_site_fract_x
_atom_site_fract_y
_atom_site_fract_z
Si Si1 0.496760 0.000000 0.314670
Si Si2 0.634679 0.779404 0.941077
Si Si3 0.793431 0.776951 0.199480
Si Si4 0.539318 0.704913 0.624398
Si Si5 0.691098 0.777380 0.436047
Si Si6 0.349602 0.277901 0.695869
Si Si7 0.946965 0.218891 0.988410
O O1 0.537704 0.843002 0.383619
O O2 0.457165 0.838417 0.244887
O O3 0.585757 0.713819 0.808117
O O4 0.677229 0.724940 0.733700
O O5 0.632234 0.000000 0.942684
O O6 0.649406 0.718446 0.232962
O O7 0.742362 0.716534 0.318899
O O8 0.835351 0.720407 0.402471
O O9 0.792284 0.000000 0.196298
O O10 0.807597 0.722004 0.903244
O O11 0.531245 0.500000 0.532852
O O12 0.493739 0.766459 0.806471
O O13 0.692230 0.000000 0.433624
O O14 0.350902 0.500000 0.688283
O O15 0.399924 0.224990 0.826299
O O16 0.945230 0.000000 0.037869
#
# Coordination Sequence:
#
# PCOD9132390 Si02
#       7
#     2   4   4   4   4   4   4
#     4  12  24  42  68  92 132 172 228 268 336 384
#     4  10  20  35  57  88 126 166 214 267 325 387
#     4   9  16  30  53  88 125 160 209 269 321 379
#     4  11  25  42  64  95 131 174 220 272 330 398
#     4   9  18  31  55  89 124 161 212 268 321 386
#     4   9  18  32  56  87 125 164 211 264 321 384
#     4  10  24  42  63  96 133 174 219 272 328 394
#
# _framework density 25.475756000000001
#
# number of rings (size 3 to 8) (size 9 to 14) (size 15 to 20)
#    0.000    2.154    0.769    1.846    4.308    3.692 
#    0.000    0.000    0.000    0.000   12.000    0.000 
#    0.000    0.000    0.000    0.000    0.000    0.000 
#
# Total GULP energy -72543.742823 kJ/mol
# GULP energy per Si atom -5580.287909 kJ/mol
# Density = 2.541777 g / cm^3
# Si number density = 25.475756 Si / 1000 Ang^3
#
#
#
# Elastic Constant Matrix: (Units=GPa)
#
#
# Indices 1 2 3 4 5 6 
#
# 1 86.2998 0.3909 -11.7591 0.0000 9.3656 0.0000
# 2 0.3909 95.4021 3.9160 0.0000 1.3472 0.0000
# 3 -11.7591 3.9160 81.7658 0.0000 7.4078 0.0000
# 4 0.0000 0.0000 0.0000 11.2342 0.0000 16.7897
# 5 9.3656 1.3472 7.4078 0.0000 42.0334 0.0000
# 6 0.0000 0.0000 0.0000 16.7897 0.0000 2.5417
#
#
#
# Elastic Compliance Matrix: (Units=1/GPa)
#
#
# Indices 1 2 3 4 5 6 
#
# 1 0.012199 -0.000090 0.002037 0.000000 -0.003074 0.000000
# 2 -0.000090 0.010506 -0.000495 0.000000 -0.000229 0.000000
# 3 0.002037 -0.000495 0.012791 0.000000 -0.002692 0.000000
# 4 0.000000 0.000000 0.000000 -0.010033 0.000000 0.066273
# 5 -0.003074 -0.000229 -0.002692 0.000000 0.024957 0.000000
# 6 0.000000 0.000000 0.000000 0.066273 0.000000 -0.044345
#
#
# Mechanical properties :
#
#
# Convention : Reuss Voigt Hill
#
# Bulk Modulus (GPa) = 26.04225 27.61814 26.83020
# Shear Modulus (GPa) = 313.04631 29.22320 171.13476
#
# Velocity S-wave (km/s) = 11.09715 3.39056 8.20496
# Velocity P-wave (km/s) = 13.20759 5.11784 10.01580
#
# Compressibility (1/GPa) = 0.03839914
#
# Stress axis : x y z
#
# Youngs Moduli (GPa) = 81.97295 95.18474 78.18196
#
# Poissons Ratio (x) = 0.00858 -0.15928
# Poissons Ratio (y) = 0.00739 0.03873
# Poissons Ratio (z) = -0.16700 0.04715
#
# Static dielectric constant tensor:
#      x y z
#    x 2.014820 0.000000 -0.064270 
#    y 0.000000 1.999040 0.000000 
#    z -0.064270 0.000000 2.057190 
# 
# From -- ./inp_files/6192.got.cif
#   From: 2010.05.17/outbox.cif.g08.bks.cpg/sg8_4_cif.got.tgz:6192.got - 2010.06.03 19:46:02.
