data_PCOD9132741
_publ_section_title
;
Structure prediction by ZEFSAII (Michael W. Deem and Ramdas Pophale) SiO2 
 PCOD9132741
Probable space group: C M
;
_chemical_formula_sum "Si O2"
_cell_formula_units_Z 32
_cell_length_a 11.946936
_cell_length_b 18.765947
_cell_length_c 8.471597
_cell_angle_alpha 90.000000
_cell_angle_beta 52.112837
_cell_angle_gamma 90.000000
_cell_volume 1498.964423
_symmetry_space_group_name_H-M "C M"
_symmetry_group_IT_number 8
_symmetry_cell_setting 'monoclinic'
loop_
_space_group_symop_operation_xyz
x,y,z
x,-y,z
1/2+x,1/2+y,z
1/2+x,1/2-y,z
loop_
_atom_site_type_symbol
_atom_site_label
_atom_site_fract_x
_atom_site_fract_y
_atom_site_fract_z
Si Si1 0.146910 0.795988 0.838670
Si Si2 0.084121 0.417695 0.305558
Si Si3 0.782828 0.156652 0.574107
Si Si4 0.249671 0.172272 0.079622
Si Si5 0.508970 0.080172 0.743064
Si Si6 0.552413 0.417590 0.443730
Si Si7 0.322510 0.309968 0.174342
Si Si8 0.278741 0.082897 0.527915
O O1 0.209267 0.729539 0.690542
O O2 0.184056 0.785997 0.989197
O O3 0.228695 0.866065 0.709832
O O4 0.979460 0.807809 0.966024
O O5 0.123611 0.500000 0.238202
O O6 0.033445 0.413634 0.533155
O O7 0.215442 0.364315 0.179960
O O8 0.939984 0.398589 0.336032
O O9 0.662150 0.096487 0.684119
O O10 0.829164 0.166541 0.351353
O O11 0.916089 0.133276 0.563341
O O12 0.398528 0.137824 0.901974
O O13 0.144958 0.108690 0.215854
O O14 0.263698 0.229732 0.207067
O O15 0.461267 0.000000 0.820471
O O16 0.509460 0.500000 0.466883
O O17 0.660577 0.410528 0.495472
O O18 0.284856 0.000000 0.571287
#
# Coordination Sequence:
#
# PCOD9132741 Si02
#       8
#     4   4   4   4   4   4   4   4
#     4  12  25  42  66  99 134 176 219 275 332 402
#     4   9  20  41  69  95 126 171 219 270 330 390
#     4  11  24  44  67  96 135 176 217 277 331 394
#     4  12  24  40  65  98 133 171 222 274 331 397
#     4  10  20  40  66  92 124 168 220 269 320 383
#     4  11  25  43  67  99 137 179 222 276 335 394
#     4  11  25  43  66 102 131 173 223 277 337 394
#     4  10  23  43  68  97 134 180 222 272 338 398
#
# _framework density 21.348071999999998
#
# number of rings (size 3 to 8) (size 9 to 14) (size 15 to 20)
#    0.000    1.250    3.750    1.500    3.500    2.500 
#    0.000    0.000    0.000    0.000    0.000    0.000 
#    0.000    0.000    0.000    0.000    0.000    0.000 
#
# Total GULP energy -89428.886642 kJ/mol
# GULP energy per Si atom -5589.305415 kJ/mol
# Density = 2.129948 g / cm^3
# Si number density = 21.348072 Si / 1000 Ang^3
#
#
#
# Elastic Constant Matrix: (Units=GPa)
#
#
# Indices 1 2 3 4 5 6 
#
# 1 119.7905 48.9367 27.5528 0.0000 -37.1537 0.0000
# 2 48.9367 99.4354 32.1906 0.0000 -24.8602 0.0000
# 3 27.5528 32.1906 45.9977 0.0000 -30.2293 0.0000
# 4 0.0000 0.0000 0.0000 21.8100 0.0000 -3.7216
# 5 -37.1537 -24.8602 -30.2293 0.0000 37.9420 0.0000
# 6 0.0000 0.0000 0.0000 -3.7216 0.0000 27.2848
#
#
#
# Elastic Compliance Matrix: (Units=1/GPa)
#
#
# Indices 1 2 3 4 5 6 
#
# 1 0.013421 -0.004539 0.003820 0.000000 0.013212 0.000000
# 2 -0.004539 0.014667 -0.008713 0.000000 -0.001776 0.000000
# 3 0.003820 -0.008713 0.050915 0.000000 0.038597 0.000000
# 4 0.000000 0.000000 0.000000 0.046943 0.000000 0.006403
# 5 0.013212 -0.001776 0.038597 0.000000 0.068880 0.000000
# 6 0.000000 0.000000 0.000000 0.006403 0.000000 0.037524
#
#
# Mechanical properties :
#
#
# Convention : Reuss Voigt Hill
#
# Bulk Modulus (GPa) = 16.62804 53.62041 35.12422
# Shear Modulus (GPa) = 18.43239 27.84360 23.13799
#
# Velocity S-wave (km/s) = 2.94159 3.61538 3.29575
# Velocity P-wave (km/s) = 4.39809 6.52685 5.56520
#
# Compressibility (1/GPa) = 0.06013937
#
# Stress axis : x y z
#
# Youngs Moduli (GPa) = 74.50916 68.17985 19.64043
#
# Poissons Ratio (x) = 0.30944 -0.07502
# Poissons Ratio (y) = 0.33817 0.17113
# Poissons Ratio (z) = -0.28459 0.59406
#
# Static dielectric constant tensor:
#      x y z
#    x 1.824420 0.000000 0.013180 
#    y 0.000000 1.737510 0.000000 
#    z 0.013180 0.000000 1.749770 
# 
# From -- ./inp_files/11457.got.cif
#   From: 2010.05.17/outbox.cif.g08.bks.cpg/sg8_6_cif.got.tgz:11457.got - 2010.06.03 19:46:02.
