data_PCOD9132283
_publ_section_title
;
Structure prediction by ZEFSAII (Michael W. Deem and Ramdas Pophale) SiO2 
 PCOD9132283
Probable space group: C M
;
_chemical_formula_sum "Si O2"
_cell_formula_units_Z 28
_cell_length_a 24.710442
_cell_length_b 11.117436
_cell_length_c 9.806333
_cell_angle_alpha 90.000000
_cell_angle_beta 147.224900
_cell_angle_gamma 90.000000
_cell_volume 1458.358178
_symmetry_space_group_name_H-M "C M"
_symmetry_group_IT_number 8
_symmetry_cell_setting 'monoclinic'
loop_
_space_group_symop_operation_xyz
x,y,z
x,-y,z
1/2+x,1/2+y,z
1/2+x,1/2-y,z
loop_
_atom_site_type_symbol
_atom_site_label
_atom_site_fract_x
_atom_site_fract_y
_atom_site_fract_z
Si Si1 0.517310 0.139256 0.846920
Si Si2 0.011816 0.203383 0.107930
Si Si3 0.215693 0.637133 0.092939
Si Si4 0.919650 0.635736 0.141099
Si Si5 0.301471 0.372727 0.565319
Si Si6 0.730460 0.629798 0.549923
Si Si7 0.837856 0.642181 0.260499
O O1 0.412445 0.154435 0.546864
O O2 0.526234 0.000000 0.902941
O O3 0.523706 0.213703 0.998760
O O4 0.608294 0.163942 0.934967
O O5 0.985577 0.278053 0.187702
O O6 0.115318 0.135330 0.347350
O O7 0.913190 0.129446 0.859915
O O8 0.211567 0.500000 0.022834
O O9 0.291569 0.627530 0.381810
O O10 0.254272 0.752910 0.090876
O O11 0.959132 0.500000 0.213578
O O12 0.904395 0.664566 0.266569
O O13 0.808595 0.636539 0.839369
O O14 0.253463 0.500000 0.509822
O O15 0.252629 0.248580 0.510179
O O16 0.749851 0.500000 0.520837
O O17 0.804567 0.500000 0.184473
#
# Coordination Sequence:
#
# PCOD9132283 Si02
#       7
#     4   4   4   4   4   4   4
#     4  10  20  34  57  85 113 143 186 231 282 334
#     4  11  19  34  57  86 112 145 184 237 280 328
#     4  10  20  36  55  82 115 145 183 233 280 329
#     4   9  21  38  57  81 116 152 189 228 277 335
#     4  10  20  34  53  82 115 146 180 228 280 331
#     4  10  21  36  56  83 114 148 185 230 278 332
#     4  10  21  40  59  81 112 153 192 229 274 335
#
# _framework density 19.199672
#
# number of rings (size 3 to 8) (size 9 to 14) (size 15 to 20)
#    0.000    2.000    2.857    0.857    0.000    2.857 
#    0.000    4.286    0.000    0.000    0.000    0.000 
#    0.000    0.000    0.000    0.000    0.000    0.000 
#
# Total GULP energy -77978.820486 kJ/mol
# GULP energy per Si atom -5569.915749 kJ/mol
# Density = 1.915597 g / cm^3
# Si number density = 19.199672 Si / 1000 Ang^3
#
#
#
# Elastic Constant Matrix: (Units=GPa)
#
#
# Indices 1 2 3 4 5 6 
#
# 1 57.7440 60.3919 2.8303 0.0000 4.3597 0.0000
# 2 60.3919 145.8919 26.8137 0.0000 18.2022 0.0000
# 3 2.8303 26.8137 26.5471 0.0000 15.2079 0.0000
# 4 0.0000 0.0000 0.0000 11.3250 0.0000 3.3667
# 5 4.3597 18.2022 15.2079 0.0000 23.3915 0.0000
# 6 0.0000 0.0000 0.0000 3.3667 0.0000 25.3696
#
#
#
# Elastic Compliance Matrix: (Units=1/GPa)
#
#
# Indices 1 2 3 4 5 6 
#
# 1 0.033950 -0.016365 0.014723 0.000000 -0.003165 0.000000
# 2 -0.016365 0.016344 -0.014700 0.000000 -0.000111 0.000000
# 3 0.014723 -0.014700 0.073246 0.000000 -0.038926 0.000000
# 4 0.000000 0.000000 0.000000 0.091926 0.000000 -0.012199
# 5 -0.003165 -0.000111 -0.038926 0.000000 0.068735 0.000000
# 6 0.000000 0.000000 0.000000 -0.012199 0.000000 0.041036
#
#
# Mechanical properties :
#
#
# Convention : Reuss Voigt Hill
#
# Bulk Modulus (GPa) = 11.00629 45.58387 28.29508
# Shear Modulus (GPa) = 12.87970 21.36035 17.12002
#
# Velocity S-wave (km/s) = 2.59285 3.33909 2.98935
# Velocity P-wave (km/s) = 3.83520 6.21768 5.16567
#
# Compressibility (1/GPa) = 0.09085716
#
# Stress axis : x y z
#
# Youngs Moduli (GPa) = 29.45469 61.18373 13.65257
#
# Poissons Ratio (x) = 1.00126 -0.20101
# Poissons Ratio (y) = 0.48202 0.20069
# Poissons Ratio (z) = -0.43366 0.89940
#
# Static dielectric constant tensor:
#      x y z
#    x 1.657580 0.000000 0.017030 
#    y 0.000000 1.737980 0.000000 
#    z 0.017030 0.000000 1.691160 
# 
# From -- ./inp_files/24639.got.cif
#   From: 2010.05.17/outbox.cif.g08.bks.cpg/sg8_13_cif.got.tgz:24639.got - 2010.06.03 19:46:02.
