data_PCOD9132460
_publ_section_title
;
Structure prediction by ZEFSAII (Michael W. Deem and Ramdas Pophale) SiO2 
 PCOD9132460
Probable space group: C M
;
_chemical_formula_sum "Si O2"
_cell_formula_units_Z 32
_cell_length_a 20.483379
_cell_length_b 8.655573
_cell_length_c 12.448332
_cell_angle_alpha 90.000000
_cell_angle_beta 53.850593
_cell_angle_gamma 90.000000
_cell_volume 1782.137356
_symmetry_space_group_name_H-M "C M"
_symmetry_group_IT_number 8
_symmetry_cell_setting 'monoclinic'
loop_
_space_group_symop_operation_xyz
x,y,z
x,-y,z
1/2+x,1/2+y,z
1/2+x,1/2-y,z
loop_
_atom_site_type_symbol
_atom_site_label
_atom_site_fract_x
_atom_site_fract_y
_atom_site_fract_z
Si Si1 0.517510 0.315529 0.791660
Si Si2 0.760718 0.815304 0.292334
Si Si3 0.607054 0.684812 0.329150
Si Si4 0.939493 0.685124 0.082202
Si Si5 0.492670 0.185372 0.267798
Si Si6 0.852739 0.184733 0.556715
Si Si7 0.466687 0.815817 0.618753
Si Si8 0.706272 0.685106 0.576124
O O1 0.508593 0.500000 0.791112
O O2 0.472191 0.235753 0.736174
O O3 0.612727 0.278443 0.688442
O O4 0.483083 0.257784 0.937667
O O5 0.693689 0.753998 0.274319
O O6 0.848723 0.748938 0.180745
O O7 0.733534 0.755658 0.435986
O O8 0.762505 0.000000 0.290589
O O9 0.609350 0.500000 0.328995
O O10 0.569997 0.745142 0.253381
O O11 0.543483 0.743008 0.481340
O O12 0.936841 0.500000 0.074490
O O13 0.985052 0.722116 0.149762
O O14 0.414920 0.254850 0.404913
O O15 0.491560 0.000000 0.282543
O O16 0.888439 0.251858 0.632515
O O17 0.765188 0.246922 0.609421
O O18 0.854381 0.000000 0.557114
O O19 0.470414 0.000000 0.605055
O O20 0.715720 0.500000 0.561842
#
# Coordination Sequence:
#
# PCOD9132460 Si02
#       8
#     4   4   4   4   4   4   4   4
#     4  11  24  41  62  87 122 160 200 246 299 360
#     4  12  23  37  61  90 120 155 202 249 297 351
#     4  11  21  35  58  88 121 153 196 249 301 350
#     4  11  24  41  62  87 123 161 198 244 300 360
#     4  10  20  36  58  85 119 156 196 243 298 355
#     4  11  21  34  58  89 120 153 197 248 299 350
#     4  11  21  36  59  86 120 157 199 245 300 355
#     4  11  22  38  60  88 121 155 198 250 300 349
#
# _framework density 17.955966
#
# number of rings (size 3 to 8) (size 9 to 14) (size 15 to 20)
#    0.000    1.000    2.500    7.500    0.000    3.000 
#    0.000    1.250    0.000    3.000    0.000    0.000 
#    0.000    0.000    0.000    0.000    0.000    0.000 
#
# Total GULP energy -89470.519069 kJ/mol
# GULP energy per Si atom -5591.907442 kJ/mol
# Density = 1.791510 g / cm^3
# Si number density = 17.955966 Si / 1000 Ang^3
#
#
#
# Elastic Constant Matrix: (Units=GPa)
#
#
# Indices 1 2 3 4 5 6 
#
# 1 143.0055 45.7889 55.6446 0.0000 13.5199 0.0000
# 2 45.7889 96.7612 37.0053 0.0000 3.9881 0.0000
# 3 55.6446 37.0053 93.8243 0.0000 9.3083 0.0000
# 4 0.0000 0.0000 0.0000 29.5877 0.0000 1.8127
# 5 13.5199 3.9881 9.3083 0.0000 25.2293 0.0000
# 6 0.0000 0.0000 0.0000 1.8127 0.0000 32.4502
#
#
#
# Elastic Compliance Matrix: (Units=1/GPa)
#
#
# Indices 1 2 3 4 5 6 
#
# 1 0.009949 -0.002874 -0.004446 0.000000 -0.003237 0.000000
# 2 -0.002874 0.013002 -0.003500 0.000000 0.000777 0.000000
# 3 -0.004446 -0.003500 0.014931 0.000000 -0.002573 0.000000
# 4 0.000000 0.000000 0.000000 0.033914 0.000000 -0.001894
# 5 -0.003237 0.000777 -0.002573 0.000000 0.042198 0.000000
# 6 0.000000 0.000000 0.000000 -0.001894 0.000000 0.030922
#
#
# Mechanical properties :
#
#
# Convention : Reuss Voigt Hill
#
# Bulk Modulus (GPa) = 61.57431 67.82984 64.70207
# Shear Modulus (GPa) = 29.07500 30.46358 29.76929
#
# Velocity S-wave (km/s) = 4.02834 4.12341 4.07616
# Velocity P-wave (km/s) = 7.48352 7.77996 7.63318
#
# Compressibility (1/GPa) = 0.01624054
#
# Stress axis : x y z
#
# Youngs Moduli (GPa) = 100.51323 76.91381 66.97656
#
# Poissons Ratio (x) = 0.22108 0.29775
# Poissons Ratio (y) = 0.28892 0.23444
# Poissons Ratio (z) = 0.44684 0.26922
#
# Static dielectric constant tensor:
#      x y z
#    x 1.623280 0.000000 0.009570 
#    y 0.000000 1.597210 0.000000 
#    z 0.009570 0.000000 1.579910 
# 
# From -- ./inp_files/23826.got.cif
#   From: 2010.05.17/outbox.cif.g08.bks.cpg/sg8_12_cif.got.tgz:23826.got - 2010.06.03 19:46:02.
