data_PCOD9132484
_publ_section_title
;
Structure prediction by ZEFSAII (Michael W. Deem and Ramdas Pophale) SiO2 
 PCOD9132484
Probable space group: C M
;
_chemical_formula_sum "Si O2"
_cell_formula_units_Z 32
_cell_length_a 18.835467
_cell_length_b 13.268291
_cell_length_c 14.823145
_cell_angle_alpha 90.000000
_cell_angle_beta 26.468433
_cell_angle_gamma 90.000000
_cell_volume 1651.121127
_symmetry_space_group_name_H-M "C M"
_symmetry_group_IT_number 8
_symmetry_cell_setting 'monoclinic'
loop_
_space_group_symop_operation_xyz
x,y,z
x,-y,z
1/2+x,1/2+y,z
1/2+x,1/2-y,z
loop_
_atom_site_type_symbol
_atom_site_label
_atom_site_fract_x
_atom_site_fract_y
_atom_site_fract_z
Si Si1 0.419020 0.288682 0.543370
Si Si2 0.680868 0.274502 0.661969
Si Si3 0.447979 0.383399 0.051482
Si Si4 0.622612 0.613320 0.172805
Si Si5 0.966209 0.256467 0.206628
Si Si6 0.086608 0.382707 0.450372
Si Si7 0.781409 0.117484 0.876122
Si Si8 0.452481 0.797526 0.780456
O O1 0.281810 0.281082 0.624672
O O2 0.575868 0.328204 0.316064
O O3 0.461596 0.178304 0.532198
O O4 0.370912 0.359506 0.680368
O O5 0.805208 0.296287 0.438542
O O6 0.544853 0.209090 0.768645
O O7 0.586177 0.362763 0.821345
O O8 0.459663 0.500000 0.072389
O O9 0.456986 0.296889 0.119163
O O10 0.270483 0.373582 0.211640
O O11 0.569172 0.500000 0.242168
O O12 0.531076 0.666586 0.195832
O O13 0.808910 0.623945 0.944504
O O14 0.102787 0.341245 0.061267
O O15 0.046434 0.500000 0.499910
O O16 0.070710 0.332181 0.566851
O O17 0.869629 0.190799 0.847594
O O18 0.784279 0.000000 0.896698
#
# Coordination Sequence:
#
# PCOD9132484 Si02
#       8
#     4   4   4   4   4   4   4   4
#     4  10  21  38  61  88 122 159 202 257 305 368
#     4  11  22  39  62  91 126 158 200 258 316 356
#     4  11  22  38  63  95 126 162 208 257 313 370
#     4  10  20  36  59  89 121 159 206 252 310 367
#     4  10  21  40  62  88 127 164 200 264 306 372
#     4  10  21  39  63  89 123 164 205 252 312 370
#     4  10  21  40  62  83 117 168 207 243 310 374
#     4  10  21  38  61  87 126 158 203 259 307 367
#
# _framework density 19.380770999999999
#
# number of rings (size 3 to 8) (size 9 to 14) (size 15 to 20)
#    0.000    1.750    2.500    1.875    0.000    1.500 
#    0.000    9.375    0.000    0.000    0.000    0.000 
#    0.000    0.000    0.000    0.000    0.000    0.000 
#
# Total GULP energy -89208.831510 kJ/mol
# GULP energy per Si atom -5575.551969 kJ/mol
# Density = 1.933666 g / cm^3
# Si number density = 19.380771 Si / 1000 Ang^3
#
#
#
# Elastic Constant Matrix: (Units=GPa)
#
#
# Indices 1 2 3 4 5 6 
#
# 1 74.2074 20.4472 10.4797 -0.0001 -2.1724 0.0000
# 2 20.4472 106.6622 11.9122 -0.0001 -0.6935 0.0000
# 3 10.4797 11.9122 82.2349 -0.0001 3.1099 0.0000
# 4 -0.0001 -0.0001 -0.0001 17.2634 0.0001 1.5504
# 5 -2.1724 -0.6935 3.1099 0.0001 23.1728 0.0000
# 6 0.0000 0.0000 0.0000 1.5504 0.0000 3.6447
#
#
#
# Elastic Compliance Matrix: (Units=1/GPa)
#
#
# Indices 1 2 3 4 5 6 
#
# 1 0.014448 -0.002590 -0.001522 0.000000 0.001481 0.000000
# 2 -0.002590 0.009999 -0.001126 0.000000 0.000208 0.000000
# 3 -0.001522 -0.001126 0.012588 0.000000 -0.001866 0.000000
# 4 0.000000 0.000000 0.000000 0.060227 0.000000 -0.025620
# 5 0.001481 0.000208 -0.001866 0.000000 0.043549 0.000001
# 6 0.000000 0.000000 0.000000 -0.025620 0.000001 0.285272
#
#
# Mechanical properties :
#
#
# Convention : Reuss Voigt Hill
#
# Bulk Modulus (GPa) = 37.65308 38.75360 38.20334
# Shear Modulus (GPa) = 11.22555 23.50054 17.36304
#
# Velocity S-wave (km/s) = 2.40929 3.48598 2.99639
# Velocity P-wave (km/s) = 5.21630 6.02013 5.63258
#
# Compressibility (1/GPa) = 0.02655825
#
# Stress axis : x y z
#
# Youngs Moduli (GPa) = 69.21517 100.00979 79.44108
#
# Poissons Ratio (x) = 0.25903 0.12091
# Poissons Ratio (y) = 0.17927 0.08947
# Poissons Ratio (z) = 0.10534 0.11263
#
# Static dielectric constant tensor:
#      x y z
#    x 1.669910 0.000000 0.014360 
#    y 0.000000 1.638810 0.000000 
#    z 0.014360 0.000000 1.704260 
# 
# From -- ./inp_files/16278.got.cif
#   From: 2010.05.17/outbox.cif.g08.bks.cpg/sg8_9_cif.got.tgz:16278.got - 2010.06.03 19:46:02.
