data_PCOD9132323
_publ_section_title
;
Structure prediction by ZEFSAII (Michael W. Deem and Ramdas Pophale) SiO2 
 PCOD9132323
Probable space group: C M
;
_chemical_formula_sum "Si O2"
_cell_formula_units_Z 32
_cell_length_a 18.281372
_cell_length_b 14.206943
_cell_length_c 11.864648
_cell_angle_alpha 90.000000
_cell_angle_beta 150.325471
_cell_angle_gamma 90.000000
_cell_volume 1525.573219
_symmetry_space_group_name_H-M "C M"
_symmetry_group_IT_number 8
_symmetry_cell_setting 'monoclinic'
loop_
_space_group_symop_operation_xyz
x,y,z
x,-y,z
1/2+x,1/2+y,z
1/2+x,1/2-y,z
loop_
_atom_site_type_symbol
_atom_site_label
_atom_site_fract_x
_atom_site_fract_y
_atom_site_fract_z
Si Si1 0.921700 0.800561 0.566110
Si Si2 0.026971 0.394230 0.665349
Si Si3 0.243373 0.608650 0.757678
Si Si4 0.614345 0.604096 0.496144
Si Si5 0.705228 0.891844 0.438342
Si Si6 0.234453 0.111799 0.905358
Si Si7 0.801138 0.101869 0.200579
Si Si8 0.977171 0.254088 0.169547
O O1 0.851802 0.848960 0.580673
O O2 0.818305 0.824015 0.321136
O O3 0.926058 0.688531 0.574685
O O4 0.084206 0.845049 0.757419
O O5 0.965733 0.500000 0.579239
O O6 0.098773 0.370067 0.639928
O O7 0.164258 0.392404 0.935201
O O8 0.284445 0.500000 0.842109
O O9 0.211876 0.611839 0.583177
O O10 0.370312 0.681045 0.963506
O O11 0.645427 0.500000 0.489312
O O12 0.711395 0.616305 0.738452
O O13 0.446967 0.603995 0.319702
O O14 0.605018 0.691379 0.400076
O O15 0.565817 0.829438 0.214246
O O16 0.687043 0.000000 0.381068
O O17 0.253920 0.000000 0.960030
O O18 0.371967 0.181980 0.110140
O O19 0.800328 0.000000 0.257838
#
# Coordination Sequence:
#
# PCOD9132323 Si02
#       8
#     4   4   4   4   4   4   4   4
#     4  11  21  39  62  86 117 162 197 241 300 355
#     4  10  20  37  64  93 115 150 203 255 291 342
#     4  10  21  39  61  89 123 159 195 239 300 366
#     4   9  17  31  54  84 110 140 187 244 288 330
#     4  11  26  41  56  85 130 165 189 234 308 369
#     4  10  20  34  57  85 112 143 198 251 281 331
#     4   9  17  32  59  88 114 146 198 247 288 338
#     4  12  20  35  59  88 111 157 197 243 288 343
#
# _framework density 20.975721
#
# number of rings (size 3 to 8) (size 9 to 14) (size 15 to 20)
#    0.000    1.750    2.500    3.375    1.750    1.000 
#    0.000    1.250    0.000    2.250    0.000    0.000 
#    0.000    0.000    0.000    0.000    0.000    0.000 
#
# Total GULP energy -89317.843641 kJ/mol
# GULP energy per Si atom -5582.365228 kJ/mol
# Density = 2.092798 g / cm^3
# Si number density = 20.975721 Si / 1000 Ang^3
#
#
#
# Elastic Constant Matrix: (Units=GPa)
#
#
# Indices 1 2 3 4 5 6 
#
# 1 33.9446 27.8117 5.1421 0.0000 11.0378 0.0000
# 2 27.8117 154.0819 26.9832 0.0000 11.5788 0.0000
# 3 5.1421 26.9832 29.0266 0.0000 5.2192 0.0000
# 4 0.0000 0.0000 0.0000 10.5342 0.0000 -1.0336
# 5 11.0378 11.5788 5.2192 0.0000 18.9233 0.0000
# 6 0.0000 0.0000 0.0000 -1.0336 0.0000 8.2950
#
#
#
# Elastic Compliance Matrix: (Units=1/GPa)
#
#
# Indices 1 2 3 4 5 6 
#
# 1 0.040955 -0.006233 0.002260 0.000000 -0.020698 0.000000
# 2 -0.006233 0.008855 -0.007162 0.000000 0.000193 0.000000
# 3 0.002260 -0.007162 0.042253 0.000000 -0.008590 0.000000
# 4 0.000000 0.000000 0.000000 0.096104 0.000000 0.011975
# 5 -0.020698 0.000193 -0.008590 0.000000 0.067170 0.000000
# 6 0.000000 0.000000 0.000000 0.011975 0.000000 0.122047
#
#
# Mechanical properties :
#
#
# Convention : Reuss Voigt Hill
#
# Bulk Modulus (GPa) = 14.32791 37.43636 25.88213
# Shear Modulus (GPa) = 11.82270 18.02490 14.92380
#
# Velocity S-wave (km/s) = 2.37668 2.93460 2.67025
# Velocity P-wave (km/s) = 3.79170 5.41929 4.67684
#
# Compressibility (1/GPa) = 0.06979387
#
# Stress axis : x y z
#
# Youngs Moduli (GPa) = 24.41733 112.93328 23.66696
#
# Poissons Ratio (x) = 0.70388 -0.05350
# Poissons Ratio (y) = 0.15219 0.16950
# Poissons Ratio (z) = -0.05519 0.80882
#
# Static dielectric constant tensor:
#      x y z
#    x 1.751190 0.000000 -0.020310 
#    y 0.000000 1.885100 0.000000 
#    z -0.020310 0.000000 1.783210 
# 
# From -- ./inp_files/23341.got.cif
#   From: 2010.05.17/outbox.cif.g08.bks.cpg/sg8_12_cif.got.tgz:23341.got - 2010.06.03 19:46:02.
