data_PCOD9132136
_publ_section_title
;
Structure prediction by ZEFSAII (Michael W. Deem and Ramdas Pophale) SiO2 
 PCOD9132136
Probable space group: C M
;
_chemical_formula_sum "Si O2"
_cell_formula_units_Z 32
_cell_length_a 15.015433
_cell_length_b 7.759013
_cell_length_c 11.346015
_cell_angle_alpha 90.000000
_cell_angle_beta 78.924401
_cell_angle_gamma 90.000000
_cell_volume 1297.246452
_symmetry_space_group_name_H-M "C M"
_symmetry_group_IT_number 8
_symmetry_cell_setting 'monoclinic'
loop_
_space_group_symop_operation_xyz
x,y,z
x,-y,z
1/2+x,1/2+y,z
1/2+x,1/2-y,z
loop_
_atom_site_type_symbol
_atom_site_label
_atom_site_fract_x
_atom_site_fract_y
_atom_site_fract_z
Si Si1 0.274220 0.712199 0.045140
Si Si2 0.831307 0.302763 0.393935
Si Si3 0.842116 0.201140 0.642818
Si Si4 0.620642 0.793180 0.479243
Si Si5 0.675784 0.210610 0.832583
Si Si6 0.938933 0.803622 0.140631
Si Si7 0.108715 0.701903 0.231370
Si Si8 0.010871 0.708802 0.736162
O O1 0.276981 0.500000 0.044026
O O2 0.374583 0.771283 0.054846
O O3 0.204368 0.772494 0.163580
O O4 0.225650 0.768070 0.938017
O O5 0.837254 0.500000 0.354811
O O6 0.874314 0.288128 0.513961
O O7 0.727164 0.249024 0.441786
O O8 0.879572 0.200311 0.276855
O O9 0.743698 0.263713 0.710343
O O10 0.910756 0.224097 0.734571
O O11 0.834180 0.000000 0.617363
O O12 0.579957 0.727426 0.365491
O O13 0.568356 0.729638 0.607095
O O14 0.612859 0.000000 0.490236
O O15 0.572933 0.264384 0.830735
O O16 0.675608 0.000000 0.834365
O O17 0.032886 0.716979 0.151152
O O18 0.959845 0.000000 0.105656
O O19 0.123800 0.500000 0.246656
O O20 0.005524 0.500000 0.739433
#
# Coordination Sequence:
#
# PCOD9132136 Si02
#       8
#     4   4   4   4   4   4   4   4
#     4   9  19  37  60  84 115 158 199 235 284 344
#     4  12  23  36  59  88 118 150 191 241 292 347
#     4  11  22  38  60  87 119 155 194 236 288 346
#     4  10  19  36  59  84 114 152 189 233 294 353
#     4   9  19  37  60  84 115 158 199 235 284 344
#     4  11  22  38  60  87 119 155 194 236 288 346
#     4  10  20  36  59  86 118 153 192 238 288 344
#     4  10  20  36  59  86 118 153 192 238 288 344
#
# _framework density 24.667636000000002
#
# number of rings (size 3 to 8) (size 9 to 14) (size 15 to 20)
#    0.000    1.750    2.500    2.625    0.000    3.000 
#    0.000    0.000    0.000    5.250    0.000    0.000 
#    0.000    0.000    0.000    0.000    0.000    0.000 
#
# Total GULP energy -89440.936881 kJ/mol
# GULP energy per Si atom -5590.058555 kJ/mol
# Density = 2.461149 g / cm^3
# Si number density = 24.667636 Si / 1000 Ang^3
#
#
#
# Elastic Constant Matrix: (Units=GPa)
#
#
# Indices 1 2 3 4 5 6 
#
# 1 105.9451 -13.1118 3.9556 0.0000 28.0916 0.0000
# 2 -13.1118 44.2991 -0.1903 0.0000 -1.4773 0.0000
# 3 3.9556 -0.1903 64.0361 0.0000 32.2601 0.0000
# 4 0.0000 0.0000 0.0000 9.4564 0.0000 11.2523
# 5 28.0916 -1.4773 32.2601 0.0000 44.3426 0.0000
# 6 0.0000 0.0000 0.0000 11.2523 0.0000 23.0732
#
#
#
# Elastic Compliance Matrix: (Units=1/GPa)
#
#
# Indices 1 2 3 4 5 6 
#
# 1 0.012772 0.003412 0.005115 0.000000 -0.011699 0.000000
# 2 0.003412 0.023520 0.000874 0.000000 -0.002014 0.000000
# 3 0.005115 0.000874 0.026710 0.000000 -0.022643 0.000000
# 4 0.000000 0.000000 0.000000 0.251959 0.000000 -0.122876
# 5 -0.011699 -0.002014 -0.022643 0.000000 0.046369 0.000000
# 6 0.000000 0.000000 0.000000 -0.122876 0.000000 0.103264
#
#
# Mechanical properties :
#
#
# Convention : Reuss Voigt Hill
#
# Bulk Modulus (GPa) = 12.22442 21.73191 16.97816
# Shear Modulus (GPa) = 10.56943 30.28291 20.42617
#
# Velocity S-wave (km/s) = 2.07221 3.50757 2.88072
# Velocity P-wave (km/s) = 3.26983 5.02325 4.23821
#
# Compressibility (1/GPa) = 0.08180349
#
# Stress axis : x y z
#
# Youngs Moduli (GPa) = 78.29550 42.51634 37.43914
#
# Poissons Ratio (x) = -0.14507 -0.19149
# Poissons Ratio (y) = -0.26716 -0.03270
# Poissons Ratio (z) = -0.40046 -0.03714
#
# Static dielectric constant tensor:
#      x y z
#    x 1.954430 0.000000 0.028920 
#    y 0.000000 1.889120 0.000000 
#    z 0.028920 0.000000 2.028280 
# 
# From -- ./inp_files/21368.got.cif
#   From: 2010.05.17/outbox.cif.g08.bks.cpg/sg8_11_cif.got.tgz:21368.got - 2010.06.03 19:46:02.
