data_PCOD9132847
_publ_section_title
;
Structure prediction by ZEFSAII (Michael W. Deem and Ramdas Pophale) SiO2 
 PCOD9132847
Probable space group: C M
;
_chemical_formula_sum "Si O2"
_cell_formula_units_Z 32
_cell_length_a 17.724452
_cell_length_b 15.880823
_cell_length_c 5.307962
_cell_angle_alpha 90.000000
_cell_angle_beta 97.859612
_cell_angle_gamma 90.000000
_cell_volume 1480.043998
_symmetry_space_group_name_H-M "C M"
_symmetry_group_IT_number 8
_symmetry_cell_setting 'monoclinic'
loop_
_space_group_symop_operation_xyz
x,y,z
x,-y,z
1/2+x,1/2+y,z
1/2+x,1/2-y,z
loop_
_atom_site_type_symbol
_atom_site_label
_atom_site_fract_x
_atom_site_fract_y
_atom_site_fract_z
Si Si1 0.042160 0.910719 0.250000
Si Si2 0.171349 0.908813 0.667419
Si Si3 0.577296 0.732751 0.902057
Si Si4 0.854163 0.695728 0.189009
Si Si5 0.852324 0.595469 0.694332
Si Si6 0.720419 0.179891 0.143036
Si Si7 0.792451 0.899113 0.677363
Si Si8 0.443370 0.683340 0.557130
O O1 0.129615 0.911852 0.379581
O O2 0.992761 0.894650 0.477506
O O3 0.019779 0.000000 0.126604
O O4 0.036679 0.830691 0.074582
O O5 0.136552 0.827092 0.780533
O O6 0.260893 0.904574 0.683147
O O7 0.152639 0.000000 0.782724
O O8 0.506015 0.750461 0.686879
O O9 0.630667 0.801293 0.059669
O O10 0.866035 0.629660 0.420933
O O11 0.767980 0.732086 0.157194
O O12 0.902572 0.775359 0.299032
O O13 0.876885 0.656401 0.933071
O O14 0.880227 0.500000 0.739046
O O15 0.742704 0.135190 0.416508
O O16 0.751961 0.127070 0.919437
O O17 0.873982 0.850877 0.694901
O O18 0.801811 0.000000 0.665227
#
# Coordination Sequence:
#
# PCOD9132847 Si02
#       8
#     4   4   4   4   4   4   4   4
#     4  10  21  36  58  93 135 171 205 254 331 414
#     4   9  19  33  52  87 123 160 196 243 306 381
#     4  11  22  37  62  93 130 170 214 262 331 397
#     4  11  22  40  61  92 128 164 222 264 324 392
#     4  11  22  37  63  89 124 167 209 264 318 382
#     4  11  24  41  71  96 132 177 224 276 331 397
#     4  11  25  46  69  99 133 177 229 283 337 399
#     4  10  25  38  64  93 131 174 217 278 342 402
#
# _framework density 21.620978000000001
#
# number of rings (size 3 to 8) (size 9 to 14) (size 15 to 20)
#    0.000    1.500    1.250    3.750    8.750    1.500 
#    0.000    0.000    0.000    4.500    0.000    0.000 
#    0.000    0.000    0.000    0.000    0.000    0.000 
#
# Total GULP energy -89293.139138 kJ/mol
# GULP energy per Si atom -5580.821196 kJ/mol
# Density = 2.157177 g / cm^3
# Si number density = 21.620978 Si / 1000 Ang^3
#
#
#
# Elastic Constant Matrix: (Units=GPa)
#
#
# Indices 1 2 3 4 5 6 
#
# 1 71.4607 13.2861 22.7380 0.0000 17.0549 0.0000
# 2 13.2861 75.9929 22.1730 0.0000 4.8134 0.0000
# 3 22.7380 22.1730 95.5544 0.0000 10.5963 0.0000
# 4 0.0000 0.0000 0.0000 67.5832 0.0000 -12.6603
# 5 17.0549 4.8134 10.5963 0.0000 36.1670 0.0000
# 6 0.0000 0.0000 0.0000 -12.6603 0.0000 13.1042
#
#
#
# Elastic Compliance Matrix: (Units=1/GPa)
#
#
# Indices 1 2 3 4 5 6 
#
# 1 0.016859 -0.001677 -0.002859 0.000000 -0.006889 0.000000
# 2 -0.001677 0.014313 -0.002893 0.000000 -0.000267 0.000000
# 3 -0.002859 -0.002893 0.012015 0.000000 -0.001787 0.000000
# 4 0.000000 0.000000 0.000000 0.018066 0.000000 0.017454
# 5 -0.006889 -0.000267 -0.001787 0.000000 0.031457 0.000000
# 6 0.000000 0.000000 0.000000 0.017454 0.000000 0.093174
#
#
# Mechanical properties :
#
#
# Convention : Reuss Voigt Hill
#
# Bulk Modulus (GPa) = 35.29755 39.93358 37.61557
# Shear Modulus (GPa) = 23.78845 35.69161 29.74003
#
# Velocity S-wave (km/s) = 3.32060 4.06739 3.71282
# Velocity P-wave (km/s) = 5.57341 6.36932 5.98461
#
# Compressibility (1/GPa) = 0.02833058
#
# Stress axis : x y z
#
# Youngs Moduli (GPa) = 59.31425 69.86533 83.22999
#
# Poissons Ratio (x) = 0.11717 0.23793
# Poissons Ratio (y) = 0.09948 0.24076
# Poissons Ratio (z) = 0.16956 0.20210
#
# Static dielectric constant tensor:
#      x y z
#    x 1.799720 0.000000 -0.006090 
#    y 0.000000 1.773590 0.000000 
#    z -0.006090 0.000000 1.879910 
# 
# From -- ./inp_files/5647.got.cif
#   From: 2010.05.17/outbox.cif.g08.bks.cpg/sg8_3_cif.got.tgz:5647.got - 2010.06.03 19:46:02.
