data_PCOD9132027
_publ_section_title
;
Structure prediction by ZEFSAII (Michael W. Deem and Ramdas Pophale) SiO2 
 PCOD9132027
Probable space group: C M
;
_chemical_formula_sum "Si O2"
_cell_formula_units_Z 32
_cell_length_a 21.672717
_cell_length_b 8.140645
_cell_length_c 22.563479
_cell_angle_alpha 90.000000
_cell_angle_beta 22.485863
_cell_angle_gamma 90.000000
_cell_volume 1522.506344
_symmetry_space_group_name_H-M "C M"
_symmetry_group_IT_number 8
_symmetry_cell_setting 'monoclinic'
loop_
_space_group_symop_operation_xyz
x,y,z
x,-y,z
1/2+x,1/2+y,z
1/2+x,1/2-y,z
loop_
_atom_site_type_symbol
_atom_site_label
_atom_site_fract_x
_atom_site_fract_y
_atom_site_fract_z
Si Si1 0.802910 0.184918 0.125000
Si Si2 0.943737 0.800272 0.226114
Si Si3 0.847267 0.689062 0.544112
Si Si4 0.522214 0.304026 0.288881
Si Si5 0.607135 0.688124 0.398939
Si Si6 0.131444 0.316026 0.831339
Si Si7 0.569577 0.192260 0.558827
Si Si8 0.213144 0.198394 0.891359
O O1 0.661626 0.216512 0.203103
O O2 0.747662 0.212333 0.241978
O O3 0.863351 0.000000 0.065353
O O4 0.940815 0.315559 0.993409
O O5 0.020643 0.760352 0.221538
O O6 0.755509 0.741348 0.397346
O O7 0.933880 0.000000 0.229145
O O8 0.068069 0.743931 0.064037
O O9 0.900666 0.500000 0.499453
O O10 0.691643 0.711119 0.722122
O O11 0.856210 0.748779 0.468761
O O12 0.971589 0.804215 0.468989
O O13 0.539467 0.500000 0.278571
O O14 0.649228 0.500000 0.375108
O O15 0.540770 0.782165 0.514371
O O16 0.197669 0.500000 0.769841
O O17 0.172209 0.245351 0.859925
O O18 0.400204 0.256128 0.737795
O O19 0.579589 0.000000 0.565858
O O20 0.217188 0.000000 0.891757
#
# Coordination Sequence:
#
# PCOD9132027 Si02
#       8
#     4   4   4   4   4   4   4   4
#     4  11  22  37  58  84 116 155 197 241 300 366
#     4   9  20  38  59  86 118 158 207 250 293 356
#     4  11  21  36  58  83 115 155 193 237 296 359
#     4  10  20  39  60  83 116 155 202 251 293 342
#     4  11  20  33  55  85 118 150 191 243 298 350
#     4  12  23  37  58  90 123 151 190 246 308 360
#     4  10  19  34  58  85 118 161 204 243 297 361
#     4  10  20  36  60  88 122 161 200 243 297 364
#
# _framework density 21.017973999999999
#
# number of rings (size 3 to 8) (size 9 to 14) (size 15 to 20)
#    0.000    1.500    1.250    7.125    0.000    1.000 
#    2.250    2.500    0.000    0.000    0.000    0.000 
#    0.000    0.000    0.000    0.000    0.000    0.000 
#
# Total GULP energy -89132.594718 kJ/mol
# GULP energy per Si atom -5570.787170 kJ/mol
# Density = 2.097014 g / cm^3
# Si number density = 21.017974 Si / 1000 Ang^3
#
#
#
# Elastic Constant Matrix: (Units=GPa)
#
#
# Indices 1 2 3 4 5 6 
#
# 1 40.2042 4.7100 46.9487 -0.0006 10.4377 0.0002
# 2 4.7100 66.5303 14.0569 -0.0028 4.5901 0.0016
# 3 46.9487 14.0569 138.5729 -0.0012 5.1273 0.0008
# 4 -0.0006 -0.0028 -0.0012 19.4046 0.0002 2.9495
# 5 10.4377 4.5901 5.1273 0.0002 28.2409 -0.0001
# 6 0.0002 0.0016 0.0008 2.9495 -0.0001 18.6695
#
#
#
# Elastic Compliance Matrix: (Units=1/GPa)
#
#
# Indices 1 2 3 4 5 6 
#
# 1 0.046355 0.000945 -0.015264 0.000001 -0.014515 0.000000
# 2 0.000945 0.015520 -0.001800 0.000002 -0.002545 -0.000002
# 3 -0.015264 -0.001800 0.012434 0.000000 0.003677 0.000000
# 4 0.000001 0.000002 0.000000 0.052802 -0.000001 -0.008342
# 5 -0.014515 -0.002545 0.003677 -0.000001 0.040520 0.000001
# 6 0.000000 -0.000002 0.000000 -0.008342 0.000001 0.054881
#
#
# Mechanical properties :
#
#
# Convention : Reuss Voigt Hill
#
# Bulk Modulus (GPa) = 23.76959 41.85986 32.81473
# Shear Modulus (GPa) = 18.60284 25.23577 21.91931
#
# Velocity S-wave (km/s) = 2.97828 3.46884 3.23287
# Velocity P-wave (km/s) = 4.81254 6.00027 5.43892
#
# Compressibility (1/GPa) = 0.04207057
#
# Stress axis : x y z
#
# Youngs Moduli (GPa) = 21.57252 64.43375 80.42153
#
# Poissons Ratio (x) = -0.06088 1.22756
# Poissons Ratio (y) = -0.02038 0.14478
# Poissons Ratio (z) = 0.32928 0.11600
#
# Static dielectric constant tensor:
#      x y z
#    x 1.754700 0.000000 -0.000640 
#    y 0.000000 1.720950 0.000000 
#    z -0.000640 0.000000 1.875380 
# 
# From -- ./inp_files/32357.got.cif
#   From: 2010.05.17/outbox.cif.g08.bks.cpg/sg8_17_cif.got.tgz:32357.got - 2010.06.03 19:46:02.
