data_PCOD9132983
_publ_section_title
;
Structure prediction by ZEFSAII (Michael W. Deem and Ramdas Pophale) SiO2 
 PCOD9132983
Probable space group: C M
;
_chemical_formula_sum "Si O2"
_cell_formula_units_Z 32
_cell_length_a 26.420795
_cell_length_b 8.492980
_cell_length_c 21.836095
_cell_angle_alpha 90.000000
_cell_angle_beta 17.402303
_cell_angle_gamma 90.000000
_cell_volume 1465.436796
_symmetry_space_group_name_H-M "C M"
_symmetry_group_IT_number 8
_symmetry_cell_setting 'monoclinic'
loop_
_space_group_symop_operation_xyz
x,y,z
x,-y,z
1/2+x,1/2+y,z
1/2+x,1/2-y,z
loop_
_atom_site_type_symbol
_atom_site_label
_atom_site_fract_x
_atom_site_fract_y
_atom_site_fract_z
Si Si1 0.109370 0.690003 0.693830
Si Si2 0.843012 0.686961 0.219496
Si Si3 0.803185 0.308360 0.127911
Si Si4 0.218006 0.184169 0.784616
Si Si5 0.488762 0.187554 0.264246
Si Si6 0.016774 0.811690 0.363657
Si Si7 0.784332 0.186009 0.835013
Si Si8 0.041268 0.315147 0.636513
O O1 0.127071 0.500000 0.676234
O O2 0.294846 0.762226 0.481532
O O3 0.021521 0.728272 0.730363
O O4 0.985368 0.741848 0.891388
O O5 0.816751 0.500000 0.257882
O O6 0.778409 0.737328 0.226667
O O7 0.734539 0.778887 0.394711
O O8 0.041358 0.723597 0.991624
O O9 0.802916 0.500000 0.127458
O O10 0.658252 0.256135 0.248532
O O11 0.337615 0.242323 0.591907
O O12 0.311307 0.222069 0.740994
O O13 0.184568 0.000000 0.817363
O O14 0.556907 0.262050 0.248358
O O15 0.500140 0.000000 0.255996
O O16 0.605786 0.234221 0.071887
O O17 0.007315 0.000000 0.377628
O O18 0.924385 0.220691 0.724572
O O19 0.782829 0.000000 0.822836
O O20 0.004574 0.500000 0.672243
#
# Coordination Sequence:
#
# PCOD9132983 Si02
#       8
#     4   4   4   4   4   4   4   4
#     4  10  21  39  62  87 117 156 201 247 301 363
#     4  11  22  39  63  89 121 161 203 246 302 370
#     4   9  20  38  61  87 113 150 199 244 289 355
#     4  12  25  41  62  91 125 159 205 260 310 362
#     4  11  24  40  60  90 124 159 204 255 304 359
#     4  11  22  40  65  90 121 161 203 248 308 376
#     4  11  24  42  63  88 122 165 209 253 309 370
#     4  11  23  39  62  92 123 157 202 255 307 361
#
# _framework density 21.836493000000001
#
# number of rings (size 3 to 8) (size 9 to 14) (size 15 to 20)
#    0.000    1.250    0.000    6.000    0.000    8.000 
#    0.000    3.750    0.000    0.000    0.000    0.000 
#    0.000    0.000    0.000    0.000    0.000    0.000 
#
# Total GULP energy -89568.260456 kJ/mol
# GULP energy per Si atom -5598.016279 kJ/mol
# Density = 2.178679 g / cm^3
# Si number density = 21.836493 Si / 1000 Ang^3
#
#
#
# Elastic Constant Matrix: (Units=GPa)
#
#
# Indices 1 2 3 4 5 6 
#
# 1 57.2306 10.5097 -16.3170 -0.0008 3.0374 0.0004
# 2 10.5097 31.0265 -0.8700 -0.0001 9.5214 0.0006
# 3 -16.3170 -0.8700 62.1297 -0.0010 3.9432 0.0011
# 4 -0.0008 -0.0001 -0.0010 27.4457 0.0010 -3.2199
# 5 3.0374 9.5214 3.9432 0.0010 41.8374 -0.0007
# 6 0.0004 0.0006 0.0011 -3.2199 -0.0007 29.7846
#
#
#
# Elastic Compliance Matrix: (Units=1/GPa)
#
#
# Indices 1 2 3 4 5 6 
#
# 1 0.020195 -0.006550 0.005242 0.000001 -0.000470 0.000000
# 2 -0.006550 0.036836 -0.000707 0.000000 -0.007841 -0.000001
# 3 0.005242 -0.000707 0.017581 0.000001 -0.001877 -0.000001
# 4 0.000001 0.000000 0.000001 0.036904 -0.000001 0.003989
# 5 -0.000470 -0.007841 -0.001877 -0.000001 0.025897 0.000001
# 6 0.000000 -0.000001 -0.000001 0.003989 0.000001 0.034006
#
#
# Mechanical properties :
#
#
# Convention : Reuss Voigt Hill
#
# Bulk Modulus (GPa) = 14.16765 15.22579 14.69672
# Shear Modulus (GPa) = 25.12868 30.28448 27.70658
#
# Velocity S-wave (km/s) = 3.39597 3.72812 3.56591
# Velocity P-wave (km/s) = 4.67750 5.05169 4.86819
#
# Compressibility (1/GPa) = 0.07058333
#
# Stress axis : x y z
#
# Youngs Moduli (GPa) = 49.51618 27.14766 56.87872
#
# Poissons Ratio (x) = 0.17781 -0.29816
# Poissons Ratio (y) = 0.32432 0.04020
# Poissons Ratio (z) = -0.25956 0.01919
#
# Static dielectric constant tensor:
#      x y z
#    x 1.797580 0.000000 -0.023090 
#    y 0.000000 1.732490 0.000000 
#    z -0.023090 0.000000 1.780120 
# 
# From -- ./inp_files/31630.got.cif
#   From: 2010.05.17/outbox.cif.g08.bks.cpg/sg8_16_cif.got.tgz:31630.got - 2010.06.03 19:46:02.
