data_PCOD9132990
_publ_section_title
;
Structure prediction by ZEFSAII (Michael W. Deem and Ramdas Pophale) SiO2 
 PCOD9132990
Probable space group: C M
;
_chemical_formula_sum "Si O2"
_cell_formula_units_Z 32
_cell_length_a 25.816959
_cell_length_b 9.179669
_cell_length_c 24.395095
_cell_angle_alpha 90.000000
_cell_angle_beta 17.001037
_cell_angle_gamma 90.000000
_cell_volume 1690.424076
_symmetry_space_group_name_H-M "C M"
_symmetry_group_IT_number 8
_symmetry_cell_setting 'monoclinic'
loop_
_space_group_symop_operation_xyz
x,y,z
x,-y,z
1/2+x,1/2+y,z
1/2+x,1/2-y,z
loop_
_atom_site_type_symbol
_atom_site_label
_atom_site_fract_x
_atom_site_fract_y
_atom_site_fract_z
Si Si1 0.986240 0.175481 0.974160
Si Si2 0.265894 0.331620 0.506064
Si Si3 0.804617 0.325554 0.576970
Si Si4 0.200176 0.327061 0.450940
Si Si5 0.692522 0.331001 0.063702
Si Si6 0.494708 0.826297 0.080690
Si Si7 0.212611 0.674769 0.154664
Si Si8 0.302130 0.826850 0.830717
O O1 0.179129 0.214386 0.754443
O O2 0.979242 0.000000 0.990339
O O3 0.951700 0.259151 0.065027
O O4 0.844778 0.212463 0.069965
O O5 0.219540 0.500000 0.563273
O O6 0.227749 0.238800 0.598382
O O7 0.180999 0.285928 0.534414
O O8 0.478487 0.323098 0.281510
O O9 0.801175 0.500000 0.576355
O O10 0.009996 0.279883 0.373717
O O11 0.247245 0.500000 0.402790
O O12 0.351850 0.235806 0.268352
O O13 0.012056 0.309286 0.611833
O O14 0.745296 0.500000 0.015721
O O15 0.759918 0.244430 0.048276
O O16 0.754322 0.281264 0.941375
O O17 0.493867 0.000000 0.080728
O O18 0.683673 0.763520 0.909023
O O19 0.215043 0.500000 0.146399
O O20 0.260137 0.000000 0.868333
#
# Coordination Sequence:
#
# PCOD9132990 Si02
#       8
#     4   4   4   4   4   4   4   4
#     4  10  22  40  60  80 110 156 203 242 287 358
#     4   9  17  32  56  85 119 151 185 235 291 349
#     4   9  19  35  55  82 114 148 188 235 289 346
#     4  10  21  39  63  88 117 159 204 243 292 361
#     4   9  17  32  56  85 119 151 185 235 291 349
#     4  12  26  42  60  86 122 158 199 258 307 348
#     4   9  19  35  55  82 114 148 188 235 289 346
#     4  10  21  39  63  88 117 159 204 243 292 361
#
# _framework density 18.930160000000001
#
# number of rings (size 3 to 8) (size 9 to 14) (size 15 to 20)
#    0.000    2.250    1.250    1.125    1.750    3.500 
#    0.000    2.500    0.000    0.000    0.000    0.000 
#    0.000    0.000    0.000    0.000    0.000    0.000 
#
# Total GULP energy -89334.385709 kJ/mol
# GULP energy per Si atom -5583.399107 kJ/mol
# Density = 1.888707 g / cm^3
# Si number density = 18.930160 Si / 1000 Ang^3
#
#
#
# Elastic Constant Matrix: (Units=GPa)
#
#
# Indices 1 2 3 4 5 6 
#
# 1 89.7922 33.8717 6.2237 -0.0011 -16.0086 -0.0002
# 2 33.8717 36.6369 15.5640 -0.0023 -7.2924 0.0006
# 3 6.2237 15.5640 30.3425 0.0001 -9.9772 0.0009
# 4 -0.0011 -0.0023 0.0001 13.1508 -0.0007 1.4982
# 5 -16.0086 -7.2924 -9.9772 -0.0007 26.6504 -0.0002
# 6 -0.0002 0.0006 0.0009 1.4982 -0.0002 35.5164
#
#
#
# Elastic Compliance Matrix: (Units=1/GPa)
#
#
# Indices 1 2 3 4 5 6 
#
# 1 0.020066 -0.020722 0.009821 -0.000001 0.010060 0.000000
# 2 -0.020722 0.056546 -0.027095 0.000008 -0.007118 -0.000001
# 3 0.009821 -0.027095 0.050568 -0.000003 0.017417 -0.000001
# 4 -0.000001 0.000008 -0.000003 0.076408 0.000002 -0.003223
# 5 0.010060 -0.007118 0.017417 0.000002 0.048139 0.000000
# 6 0.000000 -0.000001 -0.000001 -0.003223 0.000000 0.028292
#
#
# Mechanical properties :
#
#
# Convention : Reuss Voigt Hill
#
# Bulk Modulus (GPa) = 19.53552 29.78783 24.66167
# Shear Modulus (GPa) = 13.40217 21.80433 17.60325
#
# Velocity S-wave (km/s) = 2.66368 3.39754 3.05274
# Velocity P-wave (km/s) = 4.44999 5.58219 5.04793
#
# Compressibility (1/GPa) = 0.05118882
#
# Stress axis : x y z
#
# Youngs Moduli (GPa) = 49.83459 17.68460 19.77539
#
# Poissons Ratio (x) = 0.36645 -0.19422
# Poissons Ratio (y) = 1.03265 0.53582
# Poissons Ratio (z) = -0.48943 0.47917
#
# Static dielectric constant tensor:
#      x y z
#    x 1.631760 0.000000 -0.016050 
#    y 0.000000 1.629870 0.000000 
#    z -0.016050 0.000000 1.685640 
# 
# From -- ./inp_files/32410.got.cif
#   From: 2010.05.17/outbox.cif.g08.bks.cpg/sg8_17_cif.got.tgz:32410.got - 2010.06.03 19:46:02.
