data_PCOD9132700
_publ_section_title
;
Structure prediction by ZEFSAII (Michael W. Deem and Ramdas Pophale) SiO2 
 PCOD9132700
Probable space group: C M
;
_chemical_formula_sum "Si O2"
_cell_formula_units_Z 28
_cell_length_a 30.503354
_cell_length_b 8.295163
_cell_length_c 5.989328
_cell_angle_alpha 90.000000
_cell_angle_beta 50.101156
_cell_angle_gamma 90.000000
_cell_volume 1162.644148
_symmetry_space_group_name_H-M "C M"
_symmetry_group_IT_number 8
_symmetry_cell_setting 'monoclinic'
loop_
_space_group_symop_operation_xyz
x,y,z
x,-y,z
1/2+x,1/2+y,z
1/2+x,1/2-y,z
loop_
_atom_site_type_symbol
_atom_site_label
_atom_site_fract_x
_atom_site_fract_y
_atom_site_fract_z
Si Si1 0.670648 0.500000 0.468218
Si Si2 0.349355 0.185401 0.886956
Si Si3 0.048025 0.681879 0.295290
Si Si4 0.934258 0.315389 0.968771
Si Si5 0.135266 0.684074 0.386694
Si Si6 0.233341 0.000000 0.754095
Si Si7 0.766603 0.825357 0.807312
Si Si8 0.958752 0.174522 0.323158
O O1 0.637970 0.328342 0.557108
O O2 0.701041 0.500000 0.616444
O O3 0.702712 0.500000 0.109487
O O4 0.375127 0.228373 0.042437
O O5 0.303101 0.291399 0.911697
O O6 0.408531 0.203063 0.556097
O O7 0.329972 0.000000 0.950737
O O8 0.063590 0.500000 0.178953
O O9 0.096860 0.740693 0.301971
O O10 0.988897 0.677462 0.628010
O O11 0.023608 0.779779 0.167923
O O12 0.928840 0.500000 0.071197
O O13 0.951425 0.181218 0.085568
O O14 0.115790 0.500000 0.512851
O O15 0.200129 0.664639 0.091133
O O16 0.269159 0.834543 0.648211
O O17 0.783429 0.000000 0.656856
O O18 0.945599 0.000000 0.465333
#
# Coordination Sequence:
#
# PCOD9132700 Si02
#       8
#     2   4   4   4   4   2   4   4
#     4  10  22  42  68  92 136 170 224 274 325 394
#     4  10  20  39  63  84 118 162 207 261 316 380
#     4   9  19  39  62  82 117 161 205 256 311 377
#     4   9  19  37  59  83 113 157 207 254 312 379
#     4   9  20  40  64  93 127 169 216 266 330 391
#     4  10  22  44  64  96 132 176 218 274 331 390
#     4  10  20  39  65  93 127 167 217 268 328 393
#     4  11  22  35  55  88 121 156 205 259 318 381
#
# _framework density 24.083031999999999
#
# number of rings (size 3 to 8) (size 9 to 14) (size 15 to 20)
#    0.000    2.286    0.714    2.571    1.000    3.429 
#   10.286    0.000    0.000    0.000    0.000    0.000 
#    0.000    0.000    0.000    0.000    0.000    0.000 
#
# Total GULP energy -77984.771022 kJ/mol
# GULP energy per Si atom -5570.340787 kJ/mol
# Density = 2.402822 g / cm^3
# Si number density = 24.083032 Si / 1000 Ang^3
#
#
#
# Elastic Constant Matrix: (Units=GPa)
#
#
# Indices 1 2 3 4 5 6 
#
# 1 219.2458 66.7092 31.7850 0.0000 10.2757 0.0000
# 2 66.7092 150.0641 0.3626 0.0000 27.9735 0.0000
# 3 31.7850 0.3626 60.4940 0.0000 -3.1155 0.0000
# 4 0.0000 0.0000 0.0000 2.7006 0.0000 2.8531
# 5 10.2757 27.9735 -3.1155 0.0000 31.4806 0.0000
# 6 0.0000 0.0000 0.0000 2.8531 0.0000 22.1579
#
#
#
# Elastic Compliance Matrix: (Units=1/GPa)
#
#
# Indices 1 2 3 4 5 6 
#
# 1 0.005779 -0.002582 -0.003015 0.000000 0.000110 0.000000
# 2 -0.002582 0.009151 0.000931 0.000000 -0.007196 0.000000
# 3 -0.003015 0.000931 0.018210 0.000000 0.001959 0.000000
# 4 0.000000 0.000000 0.000000 0.428584 0.000000 -0.055186
# 5 0.000110 -0.007196 0.001959 0.000000 0.038318 0.000000
# 6 0.000000 0.000000 0.000000 -0.055186 0.000000 0.052236
#
#
# Mechanical properties :
#
#
# Convention : Reuss Voigt Hill
#
# Bulk Modulus (GPa) = 42.00320 69.72417 55.86368
# Shear Modulus (GPa) = 8.77892 33.33096 21.05494
#
# Velocity S-wave (km/s) = 1.91133 3.72425 2.96000
# Velocity P-wave (km/s) = 4.72755 6.89259 5.91006
#
# Compressibility (1/GPa) = 0.02380771
#
# Stress axis : x y z
#
# Youngs Moduli (GPa) = 173.04967 109.27918 54.91461
#
# Poissons Ratio (x) = 0.28216 0.16557
# Poissons Ratio (y) = 0.44682 -0.05114
# Poissons Ratio (z) = 0.52177 -0.10176
#
# Static dielectric constant tensor:
#      x y z
#    x 1.955940 0.000000 0.103750 
#    y 0.000000 2.007120 0.000000 
#    z 0.103750 0.000000 2.082790 
# 
# From -- ./inp_files/6334.got.cif
#   From: 2010.05.17/outbox.cif.g08.bks.cpg/sg8_4_cif.got.tgz:6334.got - 2010.06.03 19:46:02.
