data_PCOD9132804
_publ_section_title
;
Structure prediction by ZEFSAII (Michael W. Deem and Ramdas Pophale) SiO2 
 PCOD9132804
Probable space group: C M
;
_chemical_formula_sum "Si O2"
_cell_formula_units_Z 28
_cell_length_a 12.388268
_cell_length_b 13.429827
_cell_length_c 7.998164
_cell_angle_alpha 90.000000
_cell_angle_beta 82.487727
_cell_angle_gamma 90.000000
_cell_volume 1319.251583
_symmetry_space_group_name_H-M "C M"
_symmetry_group_IT_number 8
_symmetry_cell_setting 'monoclinic'
loop_
_space_group_symop_operation_xyz
x,y,z
x,-y,z
1/2+x,1/2+y,z
1/2+x,1/2-y,z
loop_
_atom_site_type_symbol
_atom_site_label
_atom_site_fract_x
_atom_site_fract_y
_atom_site_fract_z
Si Si1 0.632610 0.247144 0.369720
Si Si2 0.906372 0.610394 0.019540
Si Si3 0.777222 0.614052 0.525992
Si Si4 0.513706 0.888910 0.633248
Si Si5 0.746235 0.884419 0.072006
Si Si6 0.478461 0.686821 0.139803
Si Si7 0.695287 0.688901 0.895951
O O1 0.736303 0.314308 0.389899
O O2 0.592079 0.193993 0.545409
O O3 0.668915 0.162270 0.231108
O O4 0.539114 0.316238 0.305829
O O5 0.922236 0.500000 0.084318
O O6 0.974629 0.621104 0.832390
O O7 0.781829 0.628618 0.991977
O O8 0.944143 0.698164 0.128589
O O9 0.749522 0.500000 0.495166
O O10 0.904190 0.618918 0.544695
O O11 0.716852 0.650048 0.706816
O O12 0.559764 0.000000 0.604085
O O13 0.870249 0.874050 0.116089
O O14 0.722466 0.000000 0.038935
O O15 0.727248 0.805322 0.924055
O O16 0.574211 0.668900 0.985631
#
# Coordination Sequence:
#
# PCOD9132804 Si02
#       7
#     4   4   4   4   4   4   4
#     4  11  21  36  54  80 113 147 180 219 267 324
#     4   9  18  34  56  81 104 135 184 233 272 315
#     4  10  21  38  59  83 109 139 180 228 274 322
#     4   9  18  34  57  80 105 140 182 228 274 316
#     4  10  22  38  55  79 112 147 183 221 264 319
#     4  10  21  35  53  78 111 145 178 221 267 321
#     4   9  19  37  58  81 108 139 181 230 272 317
#
# _framework density 21.224156000000001
#
# number of rings (size 3 to 8) (size 9 to 14) (size 15 to 20)
#    0.000    2.286    0.000    3.429    0.000    4.571 
#    0.000   12.143    0.000    0.000    0.000    0.000 
#    0.000    0.000    0.000    0.000    0.000    0.000 
#
# Total GULP energy -78215.490096 kJ/mol
# GULP energy per Si atom -5586.820721 kJ/mol
# Density = 2.117585 g / cm^3
# Si number density = 21.224156 Si / 1000 Ang^3
#
#
#
# Elastic Constant Matrix: (Units=GPa)
#
#
# Indices 1 2 3 4 5 6 
#
# 1 72.2860 0.7931 0.5294 0.0000 -12.4813 0.0000
# 2 0.7931 105.1976 11.8405 0.0000 -6.1575 0.0000
# 3 0.5294 11.8405 33.2699 0.0000 -10.0553 0.0000
# 4 0.0000 0.0000 0.0000 17.9295 0.0000 -5.1404
# 5 -12.4813 -6.1575 -10.0553 0.0000 29.6279 0.0000
# 6 0.0000 0.0000 0.0000 -5.1404 0.0000 11.3402
#
#
#
# Elastic Compliance Matrix: (Units=1/GPa)
#
#
# Indices 1 2 3 4 5 6 
#
# 1 0.015023 0.000088 0.001836 0.000000 0.006970 0.000000
# 2 0.000088 0.009928 -0.003231 0.000000 0.001004 0.000000
# 3 0.001836 -0.003231 0.034776 0.000000 0.011904 0.000000
# 4 0.000000 0.000000 0.000000 0.064105 0.000000 0.029058
# 5 0.006970 0.001004 0.011904 0.000000 0.040937 0.000000
# 6 0.000000 0.000000 0.000000 0.029058 0.000000 0.101354
#
#
# Mechanical properties :
#
#
# Convention : Reuss Voigt Hill
#
# Bulk Modulus (GPa) = 17.50923 26.34216 21.92569
# Shear Modulus (GPa) = 17.37476 24.95223 21.16349
#
# Velocity S-wave (km/s) = 2.86428 3.43250 3.16118
# Velocity P-wave (km/s) = 4.38251 5.30544 4.86591
#
# Compressibility (1/GPa) = 0.05711275
#
# Stress axis : x y z
#
# Youngs Moduli (GPa) = 66.56440 100.72833 28.75557
#
# Poissons Ratio (x) = -0.00887 -0.05280
# Poissons Ratio (y) = -0.00586 0.09292
# Poissons Ratio (z) = -0.12223 0.32548
#
# Static dielectric constant tensor:
#      x y z
#    x 1.778500 0.000000 0.016900 
#    y 0.000000 1.744760 0.000000 
#    z 0.016900 0.000000 1.783830 
# 
# From -- ./inp_files/10618.got.cif
#   From: 2010.05.17/outbox.cif.g08.bks.cpg/sg8_6_cif.got.tgz:10618.got - 2010.06.03 19:46:02.
