data_PCOD9132235
_publ_section_title
;
Structure prediction by ZEFSAII (Michael W. Deem and Ramdas Pophale) SiO2 
 PCOD9132235
Probable space group: C M
;
_chemical_formula_sum "Si O2"
_cell_formula_units_Z 32
_cell_length_a 11.309406
_cell_length_b 27.747362
_cell_length_c 5.215944
_cell_angle_alpha 90.000000
_cell_angle_beta 82.111099
_cell_angle_gamma 90.000000
_cell_volume 1621.304955
_symmetry_space_group_name_H-M "C M"
_symmetry_group_IT_number 8
_symmetry_cell_setting 'monoclinic'
loop_
_space_group_symop_operation_xyz
x,y,z
x,-y,z
1/2+x,1/2+y,z
1/2+x,1/2-y,z
loop_
_atom_site_type_symbol
_atom_site_label
_atom_site_fract_x
_atom_site_fract_y
_atom_site_fract_z
Si Si1 0.292330 0.610818 0.576770
Si Si2 0.732589 0.055014 0.089652
Si Si3 0.150599 0.183622 0.858343
Si Si4 0.830317 0.632875 0.108362
Si Si5 0.466509 0.056317 0.329558
Si Si6 0.985907 0.812665 0.402004
Si Si7 0.856436 0.284136 0.498442
Si Si8 0.034201 0.644167 0.675236
O O1 0.264021 0.571849 0.365913
O O2 0.407002 0.639465 0.449855
O O3 0.175573 0.644852 0.632103
O O4 0.295852 0.586922 0.855417
O O5 0.587466 0.058263 0.119944
O O6 0.765804 0.000000 0.039443
O O7 0.064615 0.186479 0.638355
O O8 0.259942 0.219325 0.755930
O O9 0.231195 0.136526 0.914347
O O10 0.069192 0.191371 0.129264
O O11 0.804067 0.676224 0.315276
O O12 0.852183 0.580804 0.226937
O O13 0.961924 0.645325 0.960870
O O14 0.494323 0.093919 0.550853
O O15 0.450721 0.000000 0.404880
O O16 0.893984 0.768368 0.404297
O O17 0.978320 0.310442 0.547065
#
# Coordination Sequence:
#
# PCOD9132235 Si02
#       8
#     4   4   4   4   4   4   4   4
#     4  11  22  39  60  98 128 161 208 261 308 383
#     4  10  20  38  63  93 131 163 201 261 327 376
#     4  11  25  45  61  91 123 172 212 257 316 366
#     4  10  19  41  65  88 129 172 205 264 323 374
#     4   9  18  33  60  99 131 163 208 264 327 382
#     4  12  27  41  66  93 127 172 216 258 304 382
#     4  10  24  42  65  90 124 172 209 263 316 367
#     4   9  20  35  59  94 131 163 205 258 325 374
#
# _framework density 19.737186999999999
#
# number of rings (size 3 to 8) (size 9 to 14) (size 15 to 20)
#    0.000    1.750    2.500    1.125    5.250    1.000 
#    0.000    0.000    0.000    4.500    0.000    0.000 
#    0.000    0.000    0.000    0.000    0.000    0.000 
#
# Total GULP energy -89125.612626 kJ/mol
# GULP energy per Si atom -5570.350789 kJ/mol
# Density = 1.969226 g / cm^3
# Si number density = 19.737187 Si / 1000 Ang^3
#
#
#
# Elastic Constant Matrix: (Units=GPa)
#
#
# Indices 1 2 3 4 5 6 
#
# 1 45.7515 16.2581 20.5475 0.0000 -15.7089 0.0000
# 2 16.2581 64.9793 11.0798 0.0000 -11.7471 0.0000
# 3 20.5475 11.0798 110.2412 0.0000 -22.6028 0.0000
# 4 0.0000 0.0000 0.0000 12.4858 0.0000 -2.6073
# 5 -15.7089 -11.7471 -22.6028 0.0000 32.8534 0.0000
# 6 0.0000 0.0000 0.0000 -2.6073 0.0000 7.4907
#
#
#
# Elastic Compliance Matrix: (Units=1/GPa)
#
#
# Indices 1 2 3 4 5 6 
#
# 1 0.028186 -0.004799 -0.002747 0.000000 0.009871 0.000000
# 2 -0.004799 0.017296 -0.000054 0.000000 0.003853 0.000000
# 3 -0.002747 -0.000054 0.010845 0.000000 0.006128 0.000000
# 4 0.000000 0.000000 0.000000 0.086368 0.000000 0.030062
# 5 0.009871 0.003853 0.006128 0.000000 0.040752 0.000000
# 6 0.000000 0.000000 0.000000 0.030062 0.000000 0.143963
#
#
# Mechanical properties :
#
#
# Convention : Reuss Voigt Hill
#
# Bulk Modulus (GPa) = 24.31566 35.19364 29.75465
# Shear Modulus (GPa) = 14.03239 22.10510 18.06874
#
# Velocity S-wave (km/s) = 2.66928 3.35023 3.02895
# Velocity P-wave (km/s) = 4.67403 5.73020 5.22885
#
# Compressibility (1/GPa) = 0.04112576
#
# Stress axis : x y z
#
# Youngs Moduli (GPa) = 35.47908 57.81696 92.20853
#
# Poissons Ratio (x) = 0.27748 0.25332
# Poissons Ratio (y) = 0.17027 0.00497
# Poissons Ratio (z) = 0.09747 0.00312
#
# Static dielectric constant tensor:
#      x y z
#    x 1.720730 0.000000 0.036820 
#    y 0.000000 1.676380 0.000000 
#    z 0.036820 0.000000 1.747590 
# 
# From -- ./inp_files/3160.got.cif
#   From: 2010.05.17/outbox.cif.g08.bks.cpg/sg8_2_cif.got.tgz:3160.got - 2010.06.03 19:46:02.
