data_PCOD9132973
_publ_section_title
;
Structure prediction by ZEFSAII (Michael W. Deem and Ramdas Pophale) SiO2 
 PCOD9132973
Probable space group: C M
;
_chemical_formula_sum "Si O2"
_cell_formula_units_Z 24
_cell_length_a 16.480066
_cell_length_b 9.133018
_cell_length_c 19.128330
_cell_angle_alpha 90.000000
_cell_angle_beta 22.445401
_cell_angle_gamma 90.000000
_cell_volume 1099.232342
_symmetry_space_group_name_H-M "C M"
_symmetry_group_IT_number 8
_symmetry_cell_setting 'monoclinic'
loop_
_space_group_symop_operation_xyz
x,y,z
x,-y,z
1/2+x,1/2+y,z
1/2+x,1/2-y,z
loop_
_atom_site_type_symbol
_atom_site_label
_atom_site_fract_x
_atom_site_fract_y
_atom_site_fract_z
Si Si1 0.508240 0.671029 0.705670
Si Si2 0.480854 0.828404 0.340782
Si Si3 0.628336 0.674836 0.820267
Si Si4 0.837534 0.170100 0.177199
Si Si5 0.776046 0.326265 0.003286
Si Si6 0.559810 0.328929 0.498741
O O1 0.462711 0.500000 0.756370
O O2 0.740434 0.708810 0.552370
O O3 0.327203 0.767618 0.885330
O O4 0.545367 0.688134 0.593609
O O5 0.645971 0.812921 0.272883
O O6 0.481613 0.000000 0.319710
O O7 0.566280 0.734596 0.207990
O O8 0.615708 0.500000 0.818542
O O9 0.465610 0.757096 0.899147
O O10 0.864382 0.734254 0.625110
O O11 0.543931 0.704610 0.966436
O O12 0.774121 0.270230 0.292448
O O13 0.846375 0.000000 0.191661
O O14 0.779269 0.500000 0.002674
O O15 0.532388 0.500000 0.504030
#
# Coordination Sequence:
#
# PCOD9132973 Si02
#       6
#     4   4   4   4   4   4
#     4  10  22  39  57  80 115 156 189 221 273 337
#     4   9  19  38  61  81 106 147 191 228 275 334
#     4  10  21  39  61  82 110 150 189 227 277 335
#     4   9  19  36  59  82 105 143 191 233 276 330
#     4  11  22  36  59  88 113 141 184 238 283 323
#     4  11  23  36  55  85 117 149 186 231 278 325
#
# _framework density 21.833418000000002
#
# number of rings (size 3 to 8) (size 9 to 14) (size 15 to 20)
#    0.000    2.000    0.000    4.500    0.000    8.000 
#    0.000    5.000    0.000    0.000    0.000    0.000 
#    0.000    0.000    0.000    0.000    0.000    0.000 
#
# Total GULP energy -67105.537381 kJ/mol
# GULP energy per Si atom -5592.128115 kJ/mol
# Density = 2.178372 g / cm^3
# Si number density = 21.833418 Si / 1000 Ang^3
#
#
#
# Elastic Constant Matrix: (Units=GPa)
#
#
# Indices 1 2 3 4 5 6 
#
# 1 36.8757 19.6161 8.7101 -0.0028 9.5179 0.0009
# 2 19.6161 99.7538 76.8060 -0.0038 28.8511 0.0026
# 3 8.7101 76.8060 125.0281 -0.0019 30.9865 0.0014
# 4 -0.0028 -0.0038 -0.0019 37.6622 0.0015 10.6145
# 5 9.5179 28.8511 30.9865 0.0015 32.2011 -0.0008
# 6 0.0009 0.0026 0.0014 10.6145 -0.0008 18.2404
#
#
#
# Elastic Compliance Matrix: (Units=1/GPa)
#
#
# Indices 1 2 3 4 5 6 
#
# 1 0.031821 -0.007405 0.003964 0.000003 -0.006586 -0.000003
# 2 -0.007405 0.022282 -0.011512 0.000002 -0.006697 -0.000004
# 3 0.003964 -0.011512 0.016452 0.000000 -0.006688 0.000000
# 4 0.000003 0.000002 0.000000 0.031761 -0.000005 -0.018482
# 5 -0.006586 -0.006697 -0.006688 -0.000005 0.045438 0.000007
# 6 -0.000003 -0.000004 0.000000 -0.018482 0.000007 0.065579
#
#
# Mechanical properties :
#
#
# Convention : Reuss Voigt Hill
#
# Bulk Modulus (GPa) = 24.60137 52.43576 38.51857
# Shear Modulus (GPa) = 19.47144 28.05577 23.76361
#
# Velocity S-wave (km/s) = 2.98957 3.58857 3.30268
# Velocity P-wave (km/s) = 4.81757 6.42175 5.67661
#
# Compressibility (1/GPa) = 0.04064814
#
# Stress axis : x y z
#
# Youngs Moduli (GPa) = 31.42617 44.87999 60.78394
#
# Poissons Ratio (x) = 0.33234 -0.24097
# Poissons Ratio (y) = 0.23271 0.69976
# Poissons Ratio (z) = -0.12458 0.51667
#
# Static dielectric constant tensor:
#      x y z
#    x 1.856630 0.000000 0.021100 
#    y 0.000000 1.719450 0.000000 
#    z 0.021100 0.000000 1.780820 
# 
# From -- ./inp_files/14240.got.cif
#   From: 2010.05.17/outbox.cif.g08.bks.cpg/sg8_8_cif.got.tgz:14240.got - 2010.06.03 19:46:02.
