data_PCOD9132895
_publ_section_title
;
Structure prediction by ZEFSAII (Michael W. Deem and Ramdas Pophale) SiO2 
 PCOD9132895
Probable space group: C M
;
_chemical_formula_sum "Si O2"
_cell_formula_units_Z 32
_cell_length_a 11.462855
_cell_length_b 26.643464
_cell_length_c 9.102574
_cell_angle_alpha 90.000000
_cell_angle_beta 34.133078
_cell_angle_gamma 90.000000
_cell_volume 1559.915590
_symmetry_space_group_name_H-M "C M"
_symmetry_group_IT_number 8
_symmetry_cell_setting 'monoclinic'
loop_
_space_group_symop_operation_xyz
x,y,z
x,-y,z
1/2+x,1/2+y,z
1/2+x,1/2-y,z
loop_
_atom_site_type_symbol
_atom_site_label
_atom_site_fract_x
_atom_site_fract_y
_atom_site_fract_z
Si Si1 0.375000 0.817998 0.405250
Si Si2 0.206309 0.630384 0.883333
Si Si3 0.356679 0.628541 0.410977
Si Si4 0.994532 0.223209 0.658383
Si Si5 0.038049 0.621476 0.503730
Si Si6 0.146481 0.940929 0.939819
Si Si7 0.141977 0.222535 0.182336
Si Si8 0.859753 0.059881 0.973446
O O1 0.136300 0.806190 0.627348
O O2 0.433269 0.839141 0.503400
O O3 0.487954 0.764376 0.276479
O O4 0.476657 0.857474 0.184739
O O5 0.226111 0.617861 0.693002
O O6 0.324796 0.683100 0.781147
O O7 0.328207 0.589577 0.854703
O O8 0.196469 0.646070 0.452779
O O9 0.536215 0.669336 0.256806
O O10 0.466417 0.579161 0.233429
O O11 0.134405 0.232116 0.366790
O O12 0.865268 0.267046 0.874518
O O13 0.853075 0.589132 0.763777
O O14 0.174232 0.582723 0.265132
O O15 0.067073 0.929900 0.854868
O O16 0.175790 0.000000 0.921048
O O17 0.842453 0.000000 0.973809
#
# Coordination Sequence:
#
# PCOD9132895 Si02
#       8
#     4   4   4   4   4   4   4   4
#     4  10  22  38  61  85 118 159 209 257 305 374
#     4   9  20  40  57  88 118 161 200 253 312 367
#     4  10  23  39  62  89 129 160 209 258 320 373
#     4  10  22  41  61  84 124 159 210 259 310 374
#     4  10  21  38  62  89 120 165 207 258 314 375
#     4  10  21  37  60  91 123 162 210 262 314 373
#     4  10  24  39  60  90 118 166 208 259 315 379
#     4   9  18  36  62  88 117 156 208 258 306 371
#
# _framework density 20.513932
#
# number of rings (size 3 to 8) (size 9 to 14) (size 15 to 20)
#    0.000    2.250    0.000    1.125    3.500    7.000 
#    0.000    0.000    0.000    0.000    0.000    0.000 
#    0.000    0.000    0.000    0.000    0.000    0.000 
#
# Total GULP energy -89283.603599 kJ/mol
# GULP energy per Si atom -5580.225225 kJ/mol
# Density = 2.046724 g / cm^3
# Si number density = 20.513932 Si / 1000 Ang^3
#
#
#
# Elastic Constant Matrix: (Units=GPa)
#
#
# Indices 1 2 3 4 5 6 
#
# 1 76.2184 16.0275 47.5753 0.0000 12.6161 0.0000
# 2 16.0275 59.5928 13.9959 0.0000 9.4087 0.0000
# 3 47.5753 13.9959 77.5864 0.0000 11.6283 0.0000
# 4 0.0000 0.0000 0.0000 17.8256 0.0000 -1.7802
# 5 12.6161 9.4087 11.6283 0.0000 32.8653 0.0000
# 6 0.0000 0.0000 0.0000 -1.7802 0.0000 26.2939
#
#
#
# Elastic Compliance Matrix: (Units=1/GPa)
#
#
# Indices 1 2 3 4 5 6 
#
# 1 0.022029 -0.002450 -0.012571 0.000000 -0.003307 0.000000
# 2 -0.002450 0.018339 -0.001225 0.000000 -0.003876 0.000000
# 3 -0.012571 -0.001225 0.021164 0.000000 -0.002312 0.000000
# 4 0.000000 0.000000 0.000000 0.056481 0.000000 0.003824
# 5 -0.003307 -0.003876 -0.002312 0.000000 0.033625 0.000000
# 6 0.000000 0.000000 0.000000 0.003824 0.000000 0.038290
#
#
# Mechanical properties :
#
#
# Convention : Reuss Voigt Hill
#
# Bulk Modulus (GPa) = 34.43307 40.95499 37.69403
# Shear Modulus (GPa) = 21.54236 24.45024 22.99630
#
# Velocity S-wave (km/s) = 3.24409 3.45611 3.35178
# Velocity P-wave (km/s) = 5.55462 5.99451 5.77875
#
# Compressibility (1/GPa) = 0.02904185
#
# Stress axis : x y z
#
# Youngs Moduli (GPa) = 45.39393 54.52805 47.24896
#
# Poissons Ratio (x) = 0.13361 0.59394
# Poissons Ratio (y) = 0.11123 0.05787
# Poissons Ratio (z) = 0.57063 0.06678
#
# Static dielectric constant tensor:
#      x y z
#    x 1.729190 0.000000 0.016900 
#    y 0.000000 1.717260 0.000000 
#    z 0.016900 0.000000 1.755030 
# 
# From -- ./inp_files/3307.got.cif
#   From: 2010.05.17/outbox.cif.g08.bks.cpg/sg8_2_cif.got.tgz:3307.got - 2010.06.03 19:46:02.
