data_PCOD9132408
_publ_section_title
;
Structure prediction by ZEFSAII (Michael W. Deem and Ramdas Pophale) SiO2 
 PCOD9132408
Probable space group: C M
;
_chemical_formula_sum "Si O2"
_cell_formula_units_Z 30
_cell_length_a 20.430331
_cell_length_b 9.591506
_cell_length_c 14.376526
_cell_angle_alpha 90.000000
_cell_angle_beta 26.844828
_cell_angle_gamma 90.000000
_cell_volume 1272.174774
_symmetry_space_group_name_H-M "C M"
_symmetry_group_IT_number 8
_symmetry_cell_setting 'monoclinic'
loop_
_space_group_symop_operation_xyz
x,y,z
x,-y,z
1/2+x,1/2+y,z
1/2+x,1/2-y,z
loop_
_atom_site_type_symbol
_atom_site_label
_atom_site_fract_x
_atom_site_fract_y
_atom_site_fract_z
Si Si1 0.771650 0.337818 0.611950
Si Si2 0.387707 0.840436 0.272285
Si Si3 0.035681 0.340843 0.388523
Si Si4 0.432560 0.338093 0.041376
Si Si5 0.229887 0.000000 0.994824
Si Si6 0.519194 0.340770 0.580312
Si Si7 0.177699 0.293890 0.009373
Si Si8 0.959835 0.344214 0.824164
O O1 0.817133 0.500000 0.547270
O O2 0.804757 0.279842 0.467871
O O3 0.879586 0.281467 0.552647
O O4 0.604479 0.335789 0.844904
O O5 0.556248 0.847326 0.091314
O O6 0.340749 0.000000 0.313333
O O7 0.364607 0.744029 0.212991
O O8 0.021244 0.500000 0.443494
O O9 0.085325 0.243722 0.409665
O O10 0.124456 0.341174 0.180188
O O11 0.386591 0.500000 0.087800
O O12 0.423372 0.247663 0.959362
O O13 0.164850 0.873516 0.016210
O O14 0.313822 0.883230 0.953165
O O15 0.568387 0.500000 0.522087
O O16 0.542380 0.253424 0.645404
O O17 0.343695 0.341072 0.787149
O O18 0.023785 0.500000 0.763527
#
# Coordination Sequence:
#
# PCOD9132408 Si02
#       8
#     4   4   4   4   2   4   4   4
#     4   8  18  36  55  83 119 154 186 230 289 356
#     4  10  20  36  59  88 122 156 189 231 300 362
#     4  10  20  35  58  87 122 156 189 232 299 365
#     4  11  21  36  61  87 116 154 201 244 289 345
#     4   8  20  36  62  80 110 154 198 242 306 328
#     4  11  21  35  57  87 115 149 198 247 291 343
#     4  10  20  36  60  85 122 154 194 241 297 354
#     4   9  20  40  58  80 107 160 199 243 288 345
#
# _framework density 23.581664
#
# number of rings (size 3 to 8) (size 9 to 14) (size 15 to 20)
#    0.400    1.867    0.000    4.000    2.800    0.000 
#    0.000    4.667    2.933    0.000    0.000    0.000 
#    0.000    0.000    0.000    0.000    0.000    0.000 
#
# Total GULP energy -83537.489790 kJ/mol
# GULP energy per Si atom -5569.165986 kJ/mol
# Density = 2.352799 g / cm^3
# Si number density = 23.581664 Si / 1000 Ang^3
#
#
#
# Elastic Constant Matrix: (Units=GPa)
#
#
# Indices 1 2 3 4 5 6 
#
# 1 97.0492 57.1422 39.7029 0.0000 32.0541 0.0000
# 2 57.1422 207.5135 27.7749 0.0000 39.0041 0.0000
# 3 39.7029 27.7749 75.4478 0.0000 12.7634 0.0000
# 4 0.0000 0.0000 0.0000 13.8535 0.0000 6.9572
# 5 32.0541 39.0041 12.7634 0.0000 49.4928 0.0000
# 6 0.0000 0.0000 0.0000 6.9572 0.0000 33.3790
#
#
#
# Elastic Compliance Matrix: (Units=1/GPa)
#
#
# Indices 1 2 3 4 5 6 
#
# 1 0.016890 -0.002367 -0.006777 0.000000 -0.007326 0.000000
# 2 -0.002367 0.006131 -0.000474 0.000000 -0.003177 0.000000
# 3 -0.006777 -0.000474 0.016928 0.000000 0.000398 0.000000
# 4 0.000000 0.000000 0.000000 0.080623 0.000000 -0.016804
# 5 -0.007326 -0.003177 0.000398 0.000000 0.027350 0.000000
# 6 0.000000 0.000000 0.000000 -0.016804 0.000000 0.033461
#
#
# Mechanical properties :
#
#
# Convention : Reuss Voigt Hill
#
# Bulk Modulus (GPa) = 48.28063 69.91673 59.09868
# Shear Modulus (GPa) = 24.09350 36.37109 30.23230
#
# Velocity S-wave (km/s) = 3.19988 3.93153 3.58442
# Velocity P-wave (km/s) = 5.84556 7.09383 6.49973
#
# Compressibility (1/GPa) = 0.02071224
#
# Stress axis : x y z
#
# Youngs Moduli (GPa) = 59.20713 163.09805 59.07389
#
# Poissons Ratio (x) = 0.38603 0.40037
# Poissons Ratio (y) = 0.14013 0.02801
# Poissons Ratio (z) = 0.40127 0.07735
#
# Static dielectric constant tensor:
#      x y z
#    x 1.933730 0.000000 -0.030150 
#    y 0.000000 1.901330 0.000000 
#    z -0.030150 0.000000 1.932330 
# 
# From -- ./inp_files/28116.got.cif
#   From: 2010.05.17/outbox.cif.g08.bks.cpg/sg8_15_cif.got.tgz:28116.got - 2010.06.03 19:46:02.
