data_PCOD9132218
_publ_section_title
;
Structure prediction by ZEFSAII (Michael W. Deem and Ramdas Pophale) SiO2 
 PCOD9132218
Probable space group: C M
;
_chemical_formula_sum "Si O2"
_cell_formula_units_Z 28
_cell_length_a 19.944207
_cell_length_b 13.103648
_cell_length_c 5.204814
_cell_angle_alpha 90.000000
_cell_angle_beta 70.039870
_cell_angle_gamma 90.000000
_cell_volume 1278.526983
_symmetry_space_group_name_H-M "C M"
_symmetry_group_IT_number 8
_symmetry_cell_setting 'monoclinic'
loop_
_space_group_symop_operation_xyz
x,y,z
x,-y,z
1/2+x,1/2+y,z
1/2+x,1/2-y,z
loop_
_atom_site_type_symbol
_atom_site_label
_atom_site_fract_x
_atom_site_fract_y
_atom_site_fract_z
Si Si1 0.174040 0.617494 0.666290
Si Si2 0.045948 0.228144 0.776199
Si Si3 0.777874 0.615787 0.313648
Si Si4 0.932200 0.388691 0.847649
Si Si5 0.362929 0.749563 0.576971
Si Si6 0.994574 0.120459 0.321301
Si Si7 0.246072 0.306159 0.089840
O O1 0.149420 0.500000 0.700234
O O2 0.115173 0.701179 0.667167
O O3 0.233508 0.629538 0.364590
O O4 0.200908 0.647542 0.915363
O O5 0.026134 0.171423 0.538533
O O6 0.983329 0.309494 0.914909
O O7 0.043986 0.151308 0.016479
O O8 0.752557 0.500000 0.403554
O O9 0.798042 0.691583 0.521284
O O10 0.731091 0.687123 0.186940
O O11 0.855423 0.604859 0.081092
O O12 0.964556 0.500000 0.789434
O O13 0.914717 0.341681 0.593655
O O14 0.414584 0.666716 0.383212
O O15 0.326758 0.697505 0.874199
O O16 0.990490 0.000000 0.356005
#
# Coordination Sequence:
#
# PCOD9132218 Si02
#       7
#     4   4   4   4   4   4   4
#     4  12  26  46  69  93 127 175 221 272 323 381
#     4  11  23  44  66  92 130 166 218 272 314 388
#     4  10  19  38  66  97 133 169 210 268 328 379
#     4   9  18  33  61  98 127 161 204 263 331 376
#     4  10  20  39  65  98 135 171 210 269 318 392
#     4  11  24  42  67  97 131 169 210 265 330 389
#     4  11  24  44  64  97 137 169 221 273 314 391
#
# _framework density 21.900203000000001
#
# number of rings (size 3 to 8) (size 9 to 14) (size 15 to 20)
#    0.000    1.429    2.857    2.571    0.000    1.714 
#    0.000    5.714    0.000    0.000    0.000    0.000 
#    0.000    0.000    0.000    0.000    0.000    0.000 
#
# Total GULP energy -78073.827364 kJ/mol
# GULP energy per Si atom -5576.701955 kJ/mol
# Density = 2.185036 g / cm^3
# Si number density = 21.900203 Si / 1000 Ang^3
#
#
#
# Elastic Constant Matrix: (Units=GPa)
#
#
# Indices 1 2 3 4 5 6 
#
# 1 40.3612 37.1750 26.5849 0.0000 6.8756 0.0000
# 2 37.1750 141.5121 42.1883 0.0000 5.5653 0.0000
# 3 26.5849 42.1883 98.3247 0.0000 17.4928 0.0000
# 4 0.0000 0.0000 0.0000 15.7002 0.0000 -6.7951
# 5 6.8756 5.5653 17.4928 0.0000 25.4853 0.0000
# 6 0.0000 0.0000 0.0000 -6.7951 0.0000 24.8203
#
#
#
# Elastic Compliance Matrix: (Units=1/GPa)
#
#
# Indices 1 2 3 4 5 6 
#
# 1 0.036362 -0.007658 -0.005807 0.000000 -0.004152 0.000000
# 2 -0.007658 0.009727 -0.002384 0.000000 0.001578 0.000000
# 3 -0.005807 -0.002384 0.014116 0.000000 -0.007602 0.000000
# 4 0.000000 0.000000 0.000000 0.072255 0.000000 0.019781
# 5 -0.004152 0.001578 -0.007602 0.000000 0.045232 0.000000
# 6 0.000000 0.000000 0.000000 0.019781 0.000000 0.045705
#
#
# Mechanical properties :
#
#
# Convention : Reuss Voigt Hill
#
# Bulk Modulus (GPa) = 35.07895 54.67715 44.87805
# Shear Modulus (GPa) = 18.89681 24.81781 21.85731
#
# Velocity S-wave (km/s) = 2.94063 3.36999 3.16261
# Velocity P-wave (km/s) = 5.25187 6.33744 5.82002
#
# Compressibility (1/GPa) = 0.02850712
#
# Stress axis : x y z
#
# Youngs Moduli (GPa) = 27.50148 102.80893 70.84302
#
# Poissons Ratio (x) = 0.78727 0.41139
# Poissons Ratio (y) = 0.21060 0.16887
# Poissons Ratio (z) = 0.15970 0.24507
#
# Static dielectric constant tensor:
#      x y z
#    x 1.840050 0.000000 0.008400 
#    y 0.000000 1.830840 0.000000 
#    z 0.008400 0.000000 1.865210 
# 
# From -- ./inp_files/5364.got.cif
#   From: 2010.05.17/outbox.cif.g08.bks.cpg/sg8_3_cif.got.tgz:5364.got - 2010.06.03 19:46:02.
