data_PCOD9132120
_publ_section_title
;
Structure prediction by ZEFSAII (Michael W. Deem and Ramdas Pophale) SiO2 
 PCOD9132120
Probable space group: C M
;
_chemical_formula_sum "Si O2"
_cell_formula_units_Z 28
_cell_length_a 5.397393
_cell_length_b 28.415832
_cell_length_c 9.472410
_cell_angle_alpha 90.000000
_cell_angle_beta 125.921231
_cell_angle_gamma 90.000000
_cell_volume 1176.510241
_symmetry_space_group_name_H-M "C M"
_symmetry_group_IT_number 8
_symmetry_cell_setting 'monoclinic'
loop_
_space_group_symop_operation_xyz
x,y,z
x,-y,z
1/2+x,1/2+y,z
1/2+x,1/2-y,z
loop_
_atom_site_type_symbol
_atom_site_label
_atom_site_fract_x
_atom_site_fract_y
_atom_site_fract_z
Si Si1 0.627500 0.396232 0.346120
Si Si2 0.289935 0.362843 0.508938
Si Si3 0.073019 0.277199 0.758537
Si Si4 0.234499 0.000000 0.396663
Si Si5 0.853954 0.129331 0.985762
Si Si6 0.160434 0.257734 0.368334
Si Si7 0.218013 0.906232 0.854380
Si Si8 0.469699 0.500000 0.627148
O O1 0.428191 0.389792 0.419916
O O2 0.606858 0.450917 0.294431
O O3 0.989010 0.385603 0.478528
O O4 0.508883 0.360402 0.187735
O O5 0.221625 0.310553 0.437767
O O6 0.556959 0.364560 0.712201
O O7 0.360988 0.246055 0.806350
O O8 0.206646 0.326743 0.854825
O O9 0.846506 0.275586 0.543301
O O10 0.600868 0.000000 0.495524
O O11 0.136999 0.000000 0.530280
O O12 0.572272 0.095824 0.935186
O O13 0.112550 0.104133 0.977742
O O14 0.306645 0.251706 0.266060
O O15 0.074275 0.954032 0.747517
#
# Coordination Sequence:
#
# PCOD9132120 Si02
#       8
#     4   4   4   2   4   4   4   2
#     4  12  26  44  69  99 143 186 223 281 346 423
#     4  12  23  43  69  99 130 182 237 278 334 412
#     4  10  20  39  63  91 130 176 217 271 338 398
#     4  12  22  48  66  98 142 186 222 274 358 406
#     4  12  26  44  68 105 139 180 228 282 356 402
#     4  10  19  35  61  93 124 165 223 279 330 383
#     4  12  23  42  70  99 134 172 233 292 328 411
#     4  12  24  42  70 106 130 172 236 288 342 384
#
# _framework density 23.799195999999998
#
# number of rings (size 3 to 8) (size 9 to 14) (size 15 to 20)
#    0.000    0.571    2.857    7.714    0.000    1.143 
#    0.000    4.286    0.000    0.000    0.000    0.000 
#    0.000    0.000    0.000    0.000    0.000    0.000 
#
# Total GULP energy -78350.908106 kJ/mol
# GULP energy per Si atom -5596.493436 kJ/mol
# Density = 2.374503 g / cm^3
# Si number density = 23.799196 Si / 1000 Ang^3
#
#
#
# Elastic Constant Matrix: (Units=GPa)
#
#
# Indices 1 2 3 4 5 6 
#
# 1 126.3540 51.4962 -2.8544 0.0000 -16.6990 0.0000
# 2 51.4962 78.1835 -3.4043 0.0000 -0.1969 0.0000
# 3 -2.8544 -3.4043 42.8955 0.0000 -3.9680 0.0000
# 4 0.0000 0.0000 0.0000 14.1343 0.0000 -2.4938
# 5 -16.6990 -0.1969 -3.9680 0.0000 21.3849 0.0000
# 6 0.0000 0.0000 0.0000 -2.4938 0.0000 31.2450
#
#
#
# Elastic Compliance Matrix: (Units=1/GPa)
#
#
# Indices 1 2 3 4 5 6 
#
# 1 0.012615 -0.008235 0.001109 0.000000 0.009981 0.000000
# 2 -0.008235 0.018213 0.000324 0.000000 -0.006203 0.000000
# 3 0.001109 0.000324 0.023903 0.000000 0.005304 0.000000
# 4 0.000000 0.000000 0.000000 0.071760 0.000000 0.005727
# 5 0.009981 -0.006203 0.005304 0.000000 0.055483 0.000000
# 6 0.000000 0.000000 0.000000 0.005727 0.000000 0.032462
#
#
# Mechanical properties :
#
#
# Convention : Reuss Voigt Hill
#
# Bulk Modulus (GPa) = 24.31596 37.54533 30.93065
# Shear Modulus (GPa) = 20.68257 26.83254 23.75756
#
# Velocity S-wave (km/s) = 2.95116 3.36140 3.16294
# Velocity P-wave (km/s) = 4.67458 5.55657 5.13455
#
# Compressibility (1/GPa) = 0.04112525
#
# Stress axis : x y z
#
# Youngs Moduli (GPa) = 79.27238 54.90527 41.83638
#
# Poissons Ratio (x) = 0.45217 -0.04640
# Poissons Ratio (y) = 0.65284 -0.01354
# Poissons Ratio (z) = -0.08792 -0.01777
#
# Static dielectric constant tensor:
#      x y z
#    x 1.968360 0.000000 0.010300 
#    y 0.000000 1.912270 0.000000 
#    z 0.010300 0.000000 1.923290 
# 
# From -- ./inp_files/7079.got.cif
#   From: 2010.05.17/outbox.cif.g08.bks.cpg/sg8_4_cif.got.tgz:7079.got - 2010.06.03 19:46:02.
