data_PCOD9132802
_publ_section_title
;
Structure prediction by ZEFSAII (Michael W. Deem and Ramdas Pophale) SiO2 
 PCOD9132802
Probable space group: C M
;
_chemical_formula_sum "Si O2"
_cell_formula_units_Z 32
_cell_length_a 19.181055
_cell_length_b 8.203958
_cell_length_c 26.142693
_cell_angle_alpha 90.000000
_cell_angle_beta 23.736630
_cell_angle_gamma 90.000000
_cell_volume 1655.952326
_symmetry_space_group_name_H-M "C M"
_symmetry_group_IT_number 8
_symmetry_cell_setting 'monoclinic'
loop_
_space_group_symop_operation_xyz
x,y,z
x,-y,z
1/2+x,1/2+y,z
1/2+x,1/2-y,z
loop_
_atom_site_type_symbol
_atom_site_label
_atom_site_fract_x
_atom_site_fract_y
_atom_site_fract_z
Si Si1 0.455700 0.699945 0.636740
Si Si2 0.667534 0.694067 0.395255
Si Si3 0.051845 0.803588 0.159975
Si Si4 0.504688 0.805786 0.398285
Si Si5 0.207898 0.803016 0.162530
Si Si6 0.068231 0.698543 0.873989
Si Si7 0.911507 0.303029 0.871407
Si Si8 0.618653 0.304051 0.633934
O O1 0.455596 0.500000 0.636882
O O2 0.562622 0.755599 0.515323
O O3 0.256146 0.753171 0.766046
O O4 0.545229 0.755334 0.628998
O O5 0.662354 0.500000 0.400769
O O6 0.578409 0.747138 0.402677
O O7 0.866590 0.747142 0.265282
O O8 0.093648 0.749801 0.190132
O O9 0.053877 0.000000 0.158917
O O10 0.214756 0.750296 0.015852
O O11 0.629125 0.757949 0.268031
O O12 0.311258 0.740574 0.516920
O O13 0.494632 0.000000 0.407062
O O14 0.206946 0.000000 0.163902
O O15 0.405035 0.750057 0.018201
O O16 0.068555 0.500000 0.874143
O O17 0.025423 0.747212 0.844346
O O18 0.913395 0.500000 0.868493
O O19 0.991237 0.238456 0.765813
O O20 0.629393 0.500000 0.623140
#
# Coordination Sequence:
#
# PCOD9132802 Si02
#       8
#     4   4   4   4   4   4   4   4
#     4   9  18  33  53  77 104 134 173 221 267 311
#     4  11  22  36  57  80 102 138 188 229 267 325
#     4   9  19  36  56  80 113 145 174 219 273 316
#     4  11  23  37  52  75 112 147 177 225 279 317
#     4   9  18  34  57  82 106 140 183 217 258 323
#     4   8  15  31  55  79 104 134 171 217 260 303
#     4   9  18  34  56  80 107 141 176 211 258 316
#     4  10  21  35  52  77 108 141 176 219 270 317
#
# _framework density 19.324227
#
# number of rings (size 3 to 8) (size 9 to 14) (size 15 to 20)
#    0.000    2.500    0.000    3.750    0.000    5.000 
#    0.000    4.375    0.000    2.250    0.000    0.000 
#    0.000    0.000    0.000    0.000    0.000    0.000 
#
# Total GULP energy -89313.673174 kJ/mol
# GULP energy per Si atom -5582.104573 kJ/mol
# Density = 1.928024 g / cm^3
# Si number density = 19.324227 Si / 1000 Ang^3
#
#
#
# Elastic Constant Matrix: (Units=GPa)
#
#
# Indices 1 2 3 4 5 6 
#
# 1 193.0896 14.9023 139.3713 0.0013 -8.9208 -0.0004
# 2 14.9023 7.8827 11.1825 -0.0007 -6.1321 -0.0005
# 3 139.3713 11.1825 162.2625 -0.0007 -4.9443 -0.0005
# 4 0.0013 -0.0007 -0.0007 22.7324 0.0013 8.8164
# 5 -8.9208 -6.1321 -4.9443 0.0013 38.7957 0.0000
# 6 -0.0004 -0.0005 -0.0005 8.8164 0.0000 8.6656
#
#
#
# Elastic Compliance Matrix: (Units=1/GPa)
#
#
# Indices 1 2 3 4 5 6 
#
# 1 0.014403 -0.010604 -0.011636 -0.000002 0.000153 0.000001
# 2 -0.010604 0.167957 -0.001739 0.000001 0.023888 0.000008
# 3 -0.011636 -0.001739 0.016250 0.000002 -0.000879 -0.000001
# 4 -0.000002 0.000001 0.000002 0.072661 -0.000002 -0.073925
# 5 0.000153 0.023888 -0.000879 -0.000002 0.029475 0.000004
# 6 0.000001 0.000008 -0.000001 -0.073925 0.000004 0.190612
#
#
# Mechanical properties :
#
#
# Convention : Reuss Voigt Hill
#
# Bulk Modulus (GPa) = 6.63777 77.12745 41.88261
# Shear Modulus (GPa) = 8.48130 27.22399 17.85265
#
# Velocity S-wave (km/s) = 2.09725 3.75747 3.04278
# Velocity P-wave (km/s) = 3.05074 7.66966 5.83656
#
# Compressibility (1/GPa) = 0.15065304
#
# Stress axis : x y z
#
# Youngs Moduli (GPa) = 69.43047 5.95390 61.53837
#
# Poissons Ratio (x) = 0.06313 0.71604
# Poissons Ratio (y) = 0.73621 0.10704
# Poissons Ratio (z) = 0.80786 0.01036
#
# Static dielectric constant tensor:
#      x y z
#    x 1.665080 0.000000 -0.016850 
#    y 0.000000 1.679720 0.000000 
#    z -0.016850 0.000000 1.664630 
# 
# From -- ./inp_files/33039.got.cif
#   From: 2010.05.17/outbox.cif.g08.bks.cpg/sg8_17_cif.got.tgz:33039.got - 2010.06.03 19:46:02.
