data_PCOD9132656
_publ_section_title
;
Structure prediction by ZEFSAII (Michael W. Deem and Ramdas Pophale) SiO2 
 PCOD9132656
Probable space group: C M
;
_chemical_formula_sum "Si O2"
_cell_formula_units_Z 32
_cell_length_a 13.300919
_cell_length_b 16.188027
_cell_length_c 11.066326
_cell_angle_alpha 90.000000
_cell_angle_beta 37.808326
_cell_angle_gamma 90.000000
_cell_volume 1460.679711
_symmetry_space_group_name_H-M "C M"
_symmetry_group_IT_number 8
_symmetry_cell_setting 'monoclinic'
loop_
_space_group_symop_operation_xyz
x,y,z
x,-y,z
1/2+x,1/2+y,z
1/2+x,1/2-y,z
loop_
_atom_site_type_symbol
_atom_site_label
_atom_site_fract_x
_atom_site_fract_y
_atom_site_fract_z
Si Si1 0.043640 0.772815 0.083460
Si Si2 0.259091 0.092678 0.536750
Si Si3 0.659865 0.093721 0.883892
Si Si4 0.509059 0.853942 0.788831
Si Si5 0.704132 0.740556 0.431514
Si Si6 0.806636 0.593556 0.754375
Si Si7 0.199930 0.754723 0.179023
Si Si8 0.367983 0.408131 0.914356
O O1 0.068599 0.774714 0.202249
O O2 0.856073 0.795925 0.241812
O O3 0.081792 0.681037 0.999474
O O4 0.171537 0.837118 0.908093
O O5 0.282360 0.157499 0.409064
O O6 0.358589 0.108936 0.565851
O O7 0.062992 0.097359 0.749684
O O8 0.296244 0.000000 0.461934
O O9 0.632605 0.101695 0.764593
O O10 0.825535 0.097038 0.809932
O O11 0.595586 0.000000 0.972630
O O12 0.601480 0.778469 0.636522
O O13 0.437917 0.901156 0.738379
O O14 0.352121 0.818192 0.011210
O O15 0.615931 0.730997 0.388073
O O16 0.739340 0.500000 0.818096
O O17 0.271711 0.664970 0.072532
O O18 0.314668 0.500000 0.004521
#
# Coordination Sequence:
#
# PCOD9132656 Si02
#       8
#     4   4   4   4   4   4   4   4
#     4  10  22  38  63  93 122 164 207 250 315 366
#     4  10  21  37  60  90 122 160 212 256 303 365
#     4  10  20  38  64  91 126 162 204 253 308 371
#     4  11  22  39  63  89 128 164 206 249 311 374
#     4  12  23  37  62  93 124 162 206 259 311 364
#     4  10  22  43  67  89 123 169 209 255 311 372
#     4  10  21  39  57  90 123 162 205 249 310 372
#     4   9  18  37  63  87 116 161 208 257 307 360
#
# _framework density 21.907609000000001
#
# number of rings (size 3 to 8) (size 9 to 14) (size 15 to 20)
#    0.000    1.750    2.500    1.875    1.750    1.500 
#    0.000    3.125    0.000    0.000    0.000    0.000 
#    0.000    0.000    0.000    0.000    0.000    0.000 
#
# Total GULP energy -89126.086940 kJ/mol
# GULP energy per Si atom -5570.380434 kJ/mol
# Density = 2.185775 g / cm^3
# Si number density = 21.907609 Si / 1000 Ang^3
#
#
#
# Elastic Constant Matrix: (Units=GPa)
#
#
# Indices 1 2 3 4 5 6 
#
# 1 144.0626 30.8353 12.9994 -0.0006 37.5005 0.0007
# 2 30.8353 107.1066 19.1618 -0.0004 20.9927 0.0007
# 3 12.9994 19.1618 23.9224 -0.0004 16.5059 0.0008
# 4 -0.0006 -0.0004 -0.0004 8.1891 0.0005 5.9707
# 5 37.5005 20.9927 16.5059 0.0005 27.5544 -0.0006
# 6 0.0007 0.0007 0.0008 5.9707 -0.0006 26.9196
#
#
#
# Elastic Compliance Matrix: (Units=1/GPa)
#
#
# Indices 1 2 3 4 5 6 
#
# 1 0.011610 -0.000885 0.008244 0.000004 -0.020066 -0.000002
# 2 -0.000885 0.011428 -0.005960 0.000001 -0.003933 0.000000
# 3 0.008244 -0.005960 0.079608 0.000012 -0.054367 -0.000006
# 4 0.000004 0.000001 0.000012 0.145671 -0.000016 -0.032309
# 5 -0.020066 -0.003933 -0.054367 -0.000016 0.099164 0.000008
# 6 -0.000002 0.000000 -0.000006 -0.032309 0.000008 0.044314
#
#
# Mechanical properties :
#
#
# Convention : Reuss Voigt Hill
#
# Bulk Modulus (GPa) = 9.48350 44.56496 27.02423
# Shear Modulus (GPa) = 11.78846 26.67229 19.23038
#
# Velocity S-wave (km/s) = 2.32221 3.49304 2.96597
# Velocity P-wave (km/s) = 3.39536 6.05432 4.90833
#
# Compressibility (1/GPa) = 0.10544625
#
# Stress axis : x y z
#
# Youngs Moduli (GPa) = 86.13236 87.50276 12.56158
#
# Poissons Ratio (x) = 0.07741 -0.10356
# Poissons Ratio (y) = 0.07619 0.07486
# Poissons Ratio (z) = -0.71012 0.52150
#
# Static dielectric constant tensor:
#      x y z
#    x 1.871810 0.000000 0.003100 
#    y 0.000000 1.824370 0.000000 
#    z 0.003100 0.000000 1.785200 
# 
# From -- ./inp_files/22219.got.cif
#   From: 2010.05.17/outbox.cif.g08.bks.cpg/sg8_12_cif.got.tgz:22219.got - 2010.06.03 19:46:02.
