data_PCOD9132666
_publ_section_title
;
Structure prediction by ZEFSAII (Michael W. Deem and Ramdas Pophale) SiO2 
 PCOD9132666
Probable space group: C M
;
_chemical_formula_sum "Si O2"
_cell_formula_units_Z 28
_cell_length_a 8.878025
_cell_length_b 29.521263
_cell_length_c 4.758655
_cell_angle_alpha 90.000000
_cell_angle_beta 72.186822
_cell_angle_gamma 90.000000
_cell_volume 1187.406458
_symmetry_space_group_name_H-M "C M"
_symmetry_group_IT_number 8
_symmetry_cell_setting 'monoclinic'
loop_
_space_group_symop_operation_xyz
x,y,z
x,-y,z
1/2+x,1/2+y,z
1/2+x,1/2-y,z
loop_
_atom_site_type_symbol
_atom_site_label
_atom_site_fract_x
_atom_site_fract_y
_atom_site_fract_z
Si Si1 0.849380 0.000000 0.432451
Si Si2 0.125388 0.500000 0.061621
Si Si3 0.587306 0.336399 0.464568
Si Si4 0.635177 0.097885 0.914019
Si Si5 0.796845 0.321721 0.806244
Si Si6 0.051973 0.309157 0.216381
Si Si7 0.857036 0.904233 0.289852
Si Si8 0.373760 0.733878 0.930231
O O1 0.931849 0.953508 0.304080
O O2 0.685576 0.000000 0.345540
O O3 0.788666 0.000000 0.785084
O O4 0.053595 0.549451 0.032964
O O5 0.686593 0.353464 0.676325
O O6 0.468014 0.366903 0.358650
O O7 0.485826 0.296374 0.668977
O O8 0.723956 0.326015 0.159188
O O9 0.546853 0.143934 0.042122
O O10 0.797694 0.099831 0.006523
O O11 0.694432 0.096690 0.562384
O O12 0.776651 0.267389 0.781156
O O13 0.967469 0.322120 0.555825
O O14 0.967148 0.267380 0.094313
O O15 0.236154 0.295802 0.152767
#
# Coordination Sequence:
#
# PCOD9132666 Si02
#       8
#     2   2   4   4   4   4   4   4
#     4   8  16  32  60  98 133 159 210 274 325 389
#     4   8  16  34  60 100 131 163 212 276 327 385
#     4  12  25  44  67  94 131 174 221 272 338 391
#     4  10  21  38  68  99 134 170 220 275 333 392
#     4  12  27  44  63  93 130 176 219 278 326 399
#     4  12  27  46  69  97 136 179 228 279 335 396
#     4  10  20  38  66 100 131 170 217 273 334 392
#     4  12  26  47  67  93 131 176 230 278 325 394
#
# _framework density 23.580803
#
# number of rings (size 3 to 8) (size 9 to 14) (size 15 to 20)
#    0.000    1.143    4.286    1.714    2.000    0.000 
#    0.000    0.000    0.000    1.714    0.000    1.000 
#    0.000    0.000    0.000    0.000    0.000    0.000 
#
# Total GULP energy -78000.779544 kJ/mol
# GULP energy per Si atom -5571.484253 kJ/mol
# Density = 2.352713 g / cm^3
# Si number density = 23.580803 Si / 1000 Ang^3
#
#
#
# Elastic Constant Matrix: (Units=GPa)
#
#
# Indices 1 2 3 4 5 6 
#
# 1 69.2087 47.4354 44.9222 0.0000 -8.7993 0.0000
# 2 47.4354 125.7013 27.6300 0.0000 -13.4460 0.0000
# 3 44.9222 27.6300 137.9102 0.0000 -1.0882 0.0000
# 4 0.0000 0.0000 0.0000 22.6605 0.0000 13.6152
# 5 -8.7993 -13.4460 -1.0882 0.0000 27.4834 0.0000
# 6 0.0000 0.0000 0.0000 13.6152 0.0000 24.9274
#
#
#
# Elastic Compliance Matrix: (Units=1/GPa)
#
#
# Indices 1 2 3 4 5 6 
#
# 1 0.024039 -0.007260 -0.006345 0.000000 0.003893 0.000000
# 2 -0.007260 0.010980 0.000189 0.000000 0.003055 0.000000
# 3 -0.006345 0.000189 0.009268 0.000000 -0.001572 0.000000
# 4 0.000000 0.000000 0.000000 0.065686 0.000000 -0.035877
# 5 0.003893 0.003055 -0.001572 0.000000 0.039064 0.000000
# 6 0.000000 0.000000 0.000000 -0.035877 0.000000 0.059712
#
#
# Mechanical properties :
#
#
# Convention : Reuss Voigt Hill
#
# Bulk Modulus (GPa) = 57.29203 63.64391 60.46797
# Shear Modulus (GPa) = 20.71256 29.20311 24.95783
#
# Velocity S-wave (km/s) = 2.96694 3.52295 3.25683
# Velocity P-wave (km/s) = 6.00714 6.60277 6.31198
#
# Compressibility (1/GPa) = 0.01745443
#
# Stress axis : x y z
#
# Youngs Moduli (GPa) = 41.59986 91.07183 107.90330
#
# Poissons Ratio (x) = 0.66120 0.68464
# Poissons Ratio (y) = 0.30202 -0.02041
# Poissons Ratio (z) = 0.26395 -0.01722
#
# Static dielectric constant tensor:
#      x y z
#    x 2.035550 0.000000 0.031540 
#    y 0.000000 1.995880 0.000000 
#    z 0.031540 0.000000 1.891720 
# 
# From -- ./inp_files/1855.got.cif
#   From: 2010.05.17/outbox.cif.g08.bks.cpg/sg8_1_cif.got.tgz:1855.got - 2010.06.03 19:46:02.
