data_PCOD9132708
_publ_section_title
;
Structure prediction by ZEFSAII (Michael W. Deem and Ramdas Pophale) SiO2 
 PCOD9132708
Probable space group: C M
;
_chemical_formula_sum "Si O2"
_cell_formula_units_Z 28
_cell_length_a 31.553277
_cell_length_b 8.233614
_cell_length_c 5.134222
_cell_angle_alpha 90.000000
_cell_angle_beta 119.071462
_cell_angle_gamma 90.000000
_cell_volume 1165.811082
_symmetry_space_group_name_H-M "C M"
_symmetry_group_IT_number 8
_symmetry_cell_setting 'monoclinic'
loop_
_space_group_symop_operation_xyz
x,y,z
x,-y,z
1/2+x,1/2+y,z
1/2+x,1/2-y,z
loop_
_atom_site_type_symbol
_atom_site_label
_atom_site_fract_x
_atom_site_fract_y
_atom_site_fract_z
Si Si1 0.343630 0.000000 0.844220
Si Si2 0.605719 0.197100 0.729367
Si Si3 0.249700 0.317414 0.297522
Si Si4 0.662561 0.195787 0.401144
Si Si5 0.276246 0.000000 0.132373
Si Si6 0.439841 0.808095 0.603243
Si Si7 0.364399 0.324639 0.745586
Si Si8 0.497989 0.308317 0.272760
O O1 0.373528 0.165444 0.944675
O O2 0.317484 0.000000 0.483462
O O3 0.302911 0.000000 0.939385
O O4 0.644457 0.251919 0.627038
O O5 0.553091 0.259225 0.496059
O O6 0.604150 0.000000 0.728491
O O7 0.624533 0.252152 0.067087
O O8 0.235129 0.500000 0.159191
O O9 0.215481 0.272240 0.437943
O O10 0.306229 0.330629 0.542651
O O11 0.247894 0.167291 0.094694
O O12 0.659904 0.000000 0.402933
O O13 0.392037 0.711335 0.558600
O O14 0.466692 0.738408 0.432453
O O15 0.429559 0.000000 0.549948
O O16 0.476545 0.782487 0.957447
O O17 0.380151 0.500000 0.894088
O O18 0.495282 0.500000 0.215406
#
# Coordination Sequence:
#
# PCOD9132708 Si02
#       8
#     2   4   4   4   2   4   4   4
#     4  10  22  40  58  88 126 166 214 262 320 378
#     4  10  20  39  64  91 126 170 217 269 332 399
#     4   9  20  40  64  95 133 176 221 269 326 388
#     4   9  19  36  62  92 125 167 218 267 322 396
#     4  10  22  38  60  86 124 168 214 264 314 378
#     4  12  25  45  71  99 134 181 231 279 343 417
#     4  10  21  41  67  97 134 176 223 273 330 392
#     4  12  26  45  68 101 138 172 224 288 350 411
#
# _framework density 24.017617000000001
#
# number of rings (size 3 to 8) (size 9 to 14) (size 15 to 20)
#    0.000    1.714    0.714    3.429    0.000    6.286 
#    2.571    7.143    0.000    0.000    0.000    0.000 
#    0.000    0.000    0.000    0.000    0.000    0.000 
#
# Total GULP energy -78357.155313 kJ/mol
# GULP energy per Si atom -5596.939665 kJ/mol
# Density = 2.396295 g / cm^3
# Si number density = 24.017617 Si / 1000 Ang^3
#
#
#
# Elastic Constant Matrix: (Units=GPa)
#
#
# Indices 1 2 3 4 5 6 
#
# 1 123.6634 29.4799 14.9896 0.0000 17.6535 0.0000
# 2 29.4799 172.3982 11.1978 0.0000 -14.8125 0.0000
# 3 14.9896 11.1978 82.8014 0.0000 7.0389 0.0000
# 4 0.0000 0.0000 0.0000 13.6458 0.0000 -7.1639
# 5 17.6535 -14.8125 7.0389 0.0000 42.1994 0.0000
# 6 0.0000 0.0000 0.0000 -7.1639 0.0000 31.9521
#
#
#
# Elastic Compliance Matrix: (Units=1/GPa)
#
#
# Indices 1 2 3 4 5 6 
#
# 1 0.009291 -0.001896 -0.001053 0.000000 -0.004377 0.000000
# 2 -0.001896 0.006451 -0.000800 0.000000 0.003191 0.000000
# 3 -0.001053 -0.000800 0.012540 0.000000 -0.001932 0.000000
# 4 0.000000 0.000000 0.000000 0.083059 0.000000 0.018623
# 5 -0.004377 0.003191 -0.001932 0.000000 0.026970 0.000000
# 6 0.000000 0.000000 0.000000 0.018623 0.000000 0.035472
#
#
# Mechanical properties :
#
#
# Convention : Reuss Voigt Hill
#
# Bulk Modulus (GPa) = 48.11889 54.46640 51.29264
# Shear Modulus (GPa) = 26.56583 39.10584 32.83583
#
# Velocity S-wave (km/s) = 3.32941 4.03949 3.70152
# Velocity P-wave (km/s) = 5.90409 6.66960 6.29849
#
# Compressibility (1/GPa) = 0.02078186
#
# Stress axis : x y z
#
# Youngs Moduli (GPa) = 107.63073 155.01520 79.74311
#
# Poissons Ratio (x) = 0.29397 0.08400
# Poissons Ratio (y) = 0.20411 0.06383
# Poissons Ratio (z) = 0.11338 0.12407
#
# Static dielectric constant tensor:
#      x y z
#    x 1.880360 0.000000 0.031460 
#    y 0.000000 1.948650 0.000000 
#    z 0.031460 0.000000 1.950590 
# 
# From -- ./inp_files/6358.got.cif
#   From: 2010.05.17/outbox.cif.g08.bks.cpg/sg8_4_cif.got.tgz:6358.got - 2010.06.03 19:46:02.
