data_PCOD9132065
_publ_section_title
;
Structure prediction by ZEFSAII (Michael W. Deem and Ramdas Pophale) SiO2 
 PCOD9132065
Probable space group: C M
;
_chemical_formula_sum "Si O2"
_cell_formula_units_Z 32
_cell_length_a 21.042983
_cell_length_b 8.947976
_cell_length_c 25.872710
_cell_angle_alpha 90.000000
_cell_angle_beta 157.602950
_cell_angle_gamma 90.000000
_cell_volume 1856.200860
_symmetry_space_group_name_H-M "C M"
_symmetry_group_IT_number 8
_symmetry_cell_setting 'monoclinic'
loop_
_space_group_symop_operation_xyz
x,y,z
x,-y,z
1/2+x,1/2+y,z
1/2+x,1/2-y,z
loop_
_atom_site_type_symbol
_atom_site_label
_atom_site_fract_x
_atom_site_fract_y
_atom_site_fract_z
Si Si1 0.941530 0.678472 0.645980
Si Si2 0.532264 0.820253 0.104631
Si Si3 0.129215 0.320540 0.361387
Si Si4 0.620146 0.821917 0.671266
Si Si5 0.474296 0.178483 0.941774
Si Si6 0.271380 0.820950 0.363604
Si Si7 0.194904 0.820310 0.913228
Si Si8 0.746642 0.679560 0.072069
O O1 0.923371 0.500000 0.634801
O O2 0.762916 0.754020 0.501805
O O3 0.051381 0.713659 0.677168
O O4 0.040732 0.741617 0.769301
O O5 0.686476 0.740881 0.248389
O O6 0.552065 0.000000 0.122957
O O7 0.510195 0.777858 0.028347
O O8 0.364340 0.780587 0.009938
O O9 0.143258 0.500000 0.369687
O O10 0.177869 0.253637 0.342068
O O11 0.937861 0.281134 0.229143
O O12 0.466978 0.784683 0.517977
O O13 0.791366 0.738324 0.789894
O O14 0.648470 0.000000 0.690310
O O15 0.475153 0.000000 0.939815
O O16 0.614221 0.244598 0.009749
O O17 0.254659 0.000000 0.354658
O O18 0.175670 0.000000 0.894997
O O19 0.213994 0.780219 0.987610
O O20 0.731228 0.500000 0.064449
#
# Coordination Sequence:
#
# PCOD9132065 Si02
#       8
#     4   4   4   4   4   4   4   4
#     4  10  20  33  54  87 116 142 181 234 281 321
#     4  10  20  36  56  83 113 143 187 231 276 332
#     4  10  19  35  57  81 111 151 187 223 276 333
#     4   9  19  35  53  79 114 147 181 221 275 333
#     4  11  23  37  57  83 112 147 185 229 278 329
#     4  10  20  33  55  87 114 141 182 235 282 321
#     4  10  19  36  58  82 111 145 188 231 273 330
#     4  10  22  39  58  80 111 150 187 224 275 337
#
# _framework density 17.239512999999999
#
# number of rings (size 3 to 8) (size 9 to 14) (size 15 to 20)
#    0.000    2.000    2.500    2.250    0.000    5.500 
#    0.000    1.250    0.000    1.500    0.000    0.000 
#    0.000    0.000    0.000    0.000    0.000    0.000 
#
# Total GULP energy -89317.869387 kJ/mol
# GULP energy per Si atom -5582.366837 kJ/mol
# Density = 1.720028 g / cm^3
# Si number density = 17.239513 Si / 1000 Ang^3
#
#
#
# Elastic Constant Matrix: (Units=GPa)
#
#
# Indices 1 2 3 4 5 6 
#
# 1 109.5649 44.8422 84.7425 0.0004 8.2373 0.0004
# 2 44.8422 42.3900 66.5276 -0.0001 4.8573 -0.0001
# 3 84.7425 66.5276 183.7344 -0.0026 2.9430 -0.0015
# 4 0.0004 -0.0001 -0.0026 31.2838 -0.0010 0.2428
# 5 8.2373 4.8573 2.9430 -0.0010 24.3960 -0.0007
# 6 0.0004 -0.0001 -0.0015 0.2428 -0.0007 26.3846
#
#
#
# Elastic Compliance Matrix: (Units=1/GPa)
#
#
# Indices 1 2 3 4 5 6 
#
# 1 0.016988 -0.012553 -0.003245 -0.000001 -0.002845 -0.000001
# 2 -0.012553 0.065738 -0.017906 -0.000001 -0.006690 -0.000001
# 3 -0.003245 -0.017906 0.013374 0.000001 0.003047 0.000001
# 4 -0.000001 -0.000001 0.000001 0.031968 0.000002 -0.000294
# 5 -0.002845 -0.006690 0.003047 0.000002 0.042915 0.000001
# 6 -0.000001 -0.000001 0.000001 -0.000294 0.000001 0.037904
#
#
# Mechanical properties :
#
#
# Convention : Reuss Voigt Hill
#
# Bulk Modulus (GPa) = 34.85151 80.87934 57.86542
# Shear Modulus (GPa) = 17.49131 25.71802 21.60467
#
# Velocity S-wave (km/s) = 3.18874 3.86658 3.54391
# Velocity P-wave (km/s) = 5.81527 8.18235 7.09818
#
# Compressibility (1/GPa) = 0.02869317
#
# Stress axis : x y z
#
# Youngs Moduli (GPa) = 58.86576 15.21200 74.77328
#
# Poissons Ratio (x) = 0.19095 0.24260
# Poissons Ratio (y) = 0.73891 1.33889
# Poissons Ratio (z) = 0.19099 0.27239
#
# Static dielectric constant tensor:
#      x y z
#    x 1.561090 0.000000 -0.009400 
#    y 0.000000 1.573370 0.000000 
#    z -0.009400 0.000000 1.578670 
# 
# From -- ./inp_files/23578.got.cif
#   From: 2010.05.17/outbox.cif.g08.bks.cpg/sg8_12_cif.got.tgz:23578.got - 2010.06.03 19:46:02.
