data_PCOD9132396
_publ_section_title
;
Structure prediction by ZEFSAII (Michael W. Deem and Ramdas Pophale) SiO2 
 PCOD9132396
Probable space group: C M
;
_chemical_formula_sum "Si O2"
_cell_formula_units_Z 32
_cell_length_a 22.555342
_cell_length_b 9.005281
_cell_length_c 11.304746
_cell_angle_alpha 90.000000
_cell_angle_beta 49.981589
_cell_angle_gamma 90.000000
_cell_volume 1758.507901
_symmetry_space_group_name_H-M "C M"
_symmetry_group_IT_number 8
_symmetry_cell_setting 'monoclinic'
loop_
_space_group_symop_operation_xyz
x,y,z
x,-y,z
1/2+x,1/2+y,z
1/2+x,1/2-y,z
loop_
_atom_site_type_symbol
_atom_site_label
_atom_site_fract_x
_atom_site_fract_y
_atom_site_fract_z
Si Si1 0.454440 0.323050 0.383150
Si Si2 0.335976 0.178221 0.152166
Si Si3 0.993990 0.321768 0.087734
Si Si4 0.182382 0.322162 0.452153
Si Si5 0.033572 0.823144 0.531299
Si Si6 0.304216 0.177073 0.682070
Si Si7 0.155828 0.678543 0.760328
Si Si8 0.883651 0.322434 0.827965
O O1 0.444694 0.500000 0.386994
O O2 0.490463 0.258141 0.218108
O O3 0.507164 0.290990 0.430496
O O4 0.371410 0.248179 0.514972
O O5 0.416178 0.214370 0.115294
O O6 0.264165 0.259678 0.303731
O O7 0.324341 0.000000 0.174978
O O8 0.345901 0.217407 0.001321
O O9 0.994995 0.500000 0.104038
O O10 0.070692 0.281269 0.916266
O O11 0.181123 0.500000 0.445095
O O12 0.113368 0.253685 0.463416
O O13 0.167489 0.280882 0.608200
O O14 0.964399 0.760166 0.701479
O O15 0.039699 0.000000 0.537004
O O16 0.222347 0.244850 0.751771
O O17 0.328791 0.209515 0.786071
O O18 0.303953 0.000000 0.666615
O O19 0.163871 0.500000 0.759149
O O20 0.898853 0.500000 0.809813
#
# Coordination Sequence:
#
# PCOD9132396 Si02
#       8
#     4   4   4   4   4   4   4   4
#     4  10  21  37  57  82 113 146 180 224 275 323
#     4  10  21  38  58  81 112 146 181 225 275 324
#     4  10  21  37  58  82 109 145 185 225 272 325
#     4  11  23  38  57  81 110 145 184 226 274 326
#     4  10  21  37  58  83 111 144 182 225 273 324
#     4  10  20  35  58  85 111 145 186 223 266 323
#     4  10  22  39  57  80 112 146 181 226 277 323
#     4   9  19  37  59  82 112 147 181 222 272 324
#
# _framework density 18.197244999999999
#
# number of rings (size 3 to 8) (size 9 to 14) (size 15 to 20)
#    0.000    2.000    0.000    3.000    0.000    9.500 
#    0.000    5.000    0.000    0.000    0.000    0.000 
#    0.000    0.000    0.000    0.000    0.000    0.000 
#
# Total GULP energy -89392.483070 kJ/mol
# GULP energy per Si atom -5587.030192 kJ/mol
# Density = 1.815583 g / cm^3
# Si number density = 18.197245 Si / 1000 Ang^3
#
#
#
# Elastic Constant Matrix: (Units=GPa)
#
#
# Indices 1 2 3 4 5 6 
#
# 1 118.3954 57.8324 93.2465 0.0000 -25.9749 0.0000
# 2 57.8324 40.9695 65.8565 0.0000 -7.2386 0.0000
# 3 93.2465 65.8565 183.5707 0.0000 -4.3379 0.0000
# 4 0.0000 0.0000 0.0000 34.0303 0.0000 -5.5173
# 5 -25.9749 -7.2386 -4.3379 0.0000 31.1707 0.0000
# 6 0.0000 0.0000 0.0000 -5.5173 0.0000 30.9908
#
#
#
# Elastic Compliance Matrix: (Units=1/GPa)
#
#
# Indices 1 2 3 4 5 6 
#
# 1 0.035425 -0.043525 -0.001927 0.000000 0.019144 0.000000
# 2 -0.043525 0.114813 -0.019371 0.000000 -0.012304 0.000000
# 3 -0.001927 -0.019371 0.013275 0.000000 -0.004257 0.000000
# 4 0.000000 0.000000 0.000000 0.030259 0.000000 0.005387
# 5 0.019144 -0.012304 -0.004257 0.000000 0.044585 0.000000
# 6 0.000000 0.000000 0.000000 0.005387 0.000000 0.033227
#
#
# Mechanical properties :
#
#
# Convention : Reuss Voigt Hill
#
# Bulk Modulus (GPa) = 29.52836 86.31183 57.92010
# Shear Modulus (GPa) = 12.12066 27.63837 19.87951
#
# Velocity S-wave (km/s) = 2.58363 3.90143 3.30880
# Velocity P-wave (km/s) = 5.01620 8.23585 6.81878
#
# Compressibility (1/GPa) = 0.03386574
#
# Stress axis : x y z
#
# Youngs Moduli (GPa) = 28.22875 8.70983 75.32818
#
# Poissons Ratio (x) = 0.37910 0.14517
# Poissons Ratio (y) = 1.22867 1.45919
# Poissons Ratio (z) = 0.05440 0.16872
#
# Static dielectric constant tensor:
#      x y z
#    x 1.608300 0.000000 0.013340 
#    y 0.000000 1.606420 0.000000 
#    z 0.013340 0.000000 1.594740 
# 
# From -- ./inp_files/23853.got.cif
#   From: 2010.05.17/outbox.cif.g08.bks.cpg/sg8_12_cif.got.tgz:23853.got - 2010.06.03 19:46:02.
