data_PCOD9132916
_publ_section_title
;
Structure prediction by ZEFSAII (Michael W. Deem and Ramdas Pophale) SiO2 
 PCOD9132916
Probable space group: C M
;
_chemical_formula_sum "Si O2"
_cell_formula_units_Z 26
_cell_length_a 18.473754
_cell_length_b 7.704832
_cell_length_c 7.438865
_cell_angle_alpha 90.000000
_cell_angle_beta 70.447875
_cell_angle_gamma 90.000000
_cell_volume 997.772302
_symmetry_space_group_name_H-M "C M"
_symmetry_group_IT_number 8
_symmetry_cell_setting 'monoclinic'
loop_
_space_group_symop_operation_xyz
x,y,z
x,-y,z
1/2+x,1/2+y,z
1/2+x,1/2-y,z
loop_
_atom_site_type_symbol
_atom_site_label
_atom_site_fract_x
_atom_site_fract_y
_atom_site_fract_z
Si Si1 0.692080 0.500000 0.216070
Si Si2 0.522897 0.195166 0.385209
Si Si3 0.087025 0.706989 0.676512
Si Si4 0.794469 0.194253 0.289735
Si Si5 0.959831 0.712053 0.059595
Si Si6 0.714199 0.309583 0.851246
Si Si7 0.866854 0.807512 0.627619
O O1 0.737309 0.347663 0.292744
O O2 0.671695 0.349461 0.073426
O O3 0.579151 0.286807 0.482526
O O4 0.497605 0.273262 0.216438
O O5 0.441096 0.186941 0.560590
O O6 0.550505 0.000000 0.321336
O O7 0.080143 0.500000 0.657364
O O8 0.160138 0.734632 0.742417
O O9 0.015516 0.768497 0.854851
O O10 0.874175 0.218761 0.115623
O O11 0.824679 0.207758 0.469758
O O12 0.762283 0.000000 0.291440
O O13 0.955937 0.500000 0.067018
O O14 0.739750 0.500000 0.765392
O O15 0.794711 0.216074 0.818582
O O16 0.898847 0.000000 0.619466
#
# Coordination Sequence:
#
# PCOD9132916 Si02
#       7
#     2   4   4   4   4   4   4
#     4  10  24  40  62  88 132 162 208 254 322 368
#     4   9  19  35  60  89 117 158 203 248 316 371
#     4  10  21  38  59  82 122 166 206 258 310 371
#     4  10  21  38  64  98 123 160 207 259 319 369
#     4   9  18  35  60  89 124 159 203 257 311 375
#     4  10  24  40  55  84 119 165 210 244 314 371
#     4  10  21  38  63  92 122 155 207 264 306 374
#
# _framework density 26.058050999999999
#
# number of rings (size 3 to 8) (size 9 to 14) (size 15 to 20)
#    0.462    1.846    0.769    0.923    4.308    2.462 
#    2.769    0.000    0.000    0.000    0.000    0.000 
#    0.000    0.000    0.000    0.000    0.000    0.000 
#
# Total GULP energy -72404.176583 kJ/mol
# GULP energy per Si atom -5569.552045 kJ/mol
# Density = 2.599874 g / cm^3
# Si number density = 26.058051 Si / 1000 Ang^3
#
#
#
# Elastic Constant Matrix: (Units=GPa)
#
#
# Indices 1 2 3 4 5 6 
#
# 1 117.0365 19.0993 48.1000 0.0000 14.3266 0.0000
# 2 19.0993 103.5336 -12.5556 0.0000 18.7227 0.0000
# 3 48.1000 -12.5556 102.3302 0.0000 27.5822 0.0000
# 4 0.0000 0.0000 0.0000 5.9064 0.0000 15.7975
# 5 14.3266 18.7227 27.5822 0.0000 60.9577 0.0000
# 6 0.0000 0.0000 0.0000 15.7975 0.0000 28.1316
#
#
#
# Elastic Compliance Matrix: (Units=1/GPa)
#
#
# Indices 1 2 3 4 5 6 
#
# 1 0.011369 -0.002992 -0.005966 0.000000 0.000947 0.000000
# 2 -0.002992 0.011556 0.004090 0.000000 -0.004697 0.000000
# 3 -0.005966 0.004090 0.014850 0.000000 -0.006574 0.000000
# 4 0.000000 0.000000 0.000000 -0.337293 0.000000 0.189409
# 5 0.000947 -0.004697 -0.006574 0.000000 0.020599 0.000000
# 6 0.000000 0.000000 0.000000 0.189409 0.000000 -0.070817
#
#
# Mechanical properties :
#
#
# Convention : Reuss Voigt Hill
#
# Bulk Modulus (GPa) = 35.66380 48.02085 41.84232
# Shear Modulus (GPa) = -15.12159 36.88292 10.88066
#
# Velocity S-wave (km/s) = -2.41156 3.76628 2.04563
# Velocity P-wave (km/s) = 2.44168 6.11405 4.65529
#
# Compressibility (1/GPa) = 0.02803964
#
# Stress axis : x y z
#
# Youngs Moduli (GPa) = 87.96108 86.53490 67.33866
#
# Poissons Ratio (x) = 0.25890 0.40174
# Poissons Ratio (y) = 0.26317 -0.27543
# Poissons Ratio (z) = 0.52478 -0.35395
#
# Static dielectric constant tensor:
#      x y z
#    x 2.106950 0.000000 -0.051610 
#    y 0.000000 2.027590 0.000000 
#    z -0.051610 0.000000 2.158560 
# 
# From -- ./inp_files/14391.got.cif
#   From: 2010.05.17/outbox.cif.g08.bks.cpg/sg8_8_cif.got.tgz:14391.got - 2010.06.03 19:46:02.
