data_PCOD9132099
_publ_section_title
;
Structure prediction by ZEFSAII (Michael W. Deem and Ramdas Pophale) SiO2 
 PCOD9132099
Probable space group: C M
;
_chemical_formula_sum "Si O2"
_cell_formula_units_Z 32
_cell_length_a 20.772513
_cell_length_b 8.832334
_cell_length_c 25.513161
_cell_angle_alpha 90.000000
_cell_angle_beta 22.653890
_cell_angle_gamma 90.000000
_cell_volume 1802.909390
_symmetry_space_group_name_H-M "C M"
_symmetry_group_IT_number 8
_symmetry_cell_setting 'monoclinic'
loop_
_space_group_symop_operation_xyz
x,y,z
x,-y,z
1/2+x,1/2+y,z
1/2+x,1/2-y,z
loop_
_atom_site_type_symbol
_atom_site_label
_atom_site_fract_x
_atom_site_fract_y
_atom_site_fract_z
Si Si1 0.851470 0.820123 0.928630
Si Si2 0.957614 0.319548 0.660897
Si Si3 0.783485 0.319452 0.369389
Si Si4 0.098436 0.319737 0.940890
Si Si5 0.115670 0.679066 0.656871
Si Si6 0.821024 0.818428 0.074760
Si Si7 0.436977 0.180772 0.368555
Si Si8 0.043066 0.180455 0.096968
O O1 0.022174 0.768582 0.772790
O O2 0.825608 0.000000 0.941326
O O3 0.848768 0.787158 0.992377
O O4 0.701676 0.733936 0.012028
O O5 0.954328 0.500000 0.655616
O O6 0.098938 0.244373 0.518562
O O7 0.015625 0.291316 0.677570
O O8 0.775976 0.249147 0.789868
O O9 0.780660 0.500000 0.363763
O O10 0.886312 0.288887 0.346044
O O11 0.879473 0.239002 0.250163
O O12 0.110496 0.500000 0.934382
O O13 0.953689 0.267609 0.010373
O O14 0.059164 0.253735 0.027817
O O15 0.110015 0.500000 0.671131
O O16 0.303625 0.733773 0.504684
O O17 0.629501 0.777665 0.232207
O O18 0.839172 0.000000 0.068691
O O19 0.418826 0.000000 0.389882
O O20 0.042982 0.000000 0.092490
#
# Coordination Sequence:
#
# PCOD9132099 Si02
#       8
#     4   4   4   4   4   4   4   4
#     4  11  21  37  61  88 117 152 196 244 292 346
#     4  10  20  36  57  86 120 156 193 239 295 348
#     4  10  19  35  59  89 119 151 193 243 292 346
#     4  12  25  40  60  86 118 159 200 244 294 350
#     4  10  20  33  55  88 120 151 190 241 290 341
#     4  10  22  41  61  85 118 155 195 240 295 355
#     4   9  18  35  58  84 116 154 191 234 290 349
#     4  12  23  37  59  88 120 154 196 247 294 345
#
# _framework density 17.749089999999999
#
# number of rings (size 3 to 8) (size 9 to 14) (size 15 to 20)
#    0.000    1.500    2.500    3.750    0.000    3.000 
#    0.000    1.250    0.000    4.500    0.000    0.000 
#    0.000    0.000    0.000    0.000    0.000    0.000 
#
# Total GULP energy -89416.466303 kJ/mol
# GULP energy per Si atom -5588.529144 kJ/mol
# Density = 1.770869 g / cm^3
# Si number density = 17.749090 Si / 1000 Ang^3
#
#
#
# Elastic Constant Matrix: (Units=GPa)
#
#
# Indices 1 2 3 4 5 6 
#
# 1 68.4103 47.0761 54.6011 0.0005 -7.4934 0.0000
# 2 47.0761 79.0274 55.3794 -0.0003 -7.7378 0.0001
# 3 54.6011 55.3794 146.7272 0.0013 -7.4755 0.0001
# 4 0.0005 -0.0003 0.0013 34.3054 -0.0006 -1.5354
# 5 -7.4934 -7.7378 -7.4755 -0.0006 24.2091 0.0001
# 6 0.0000 0.0001 0.0001 -1.5354 0.0001 25.5662
#
#
#
# Elastic Compliance Matrix: (Units=1/GPa)
#
#
# Indices 1 2 3 4 5 6 
#
# 1 0.027950 -0.012478 -0.005541 0.000000 0.002952 0.000000
# 2 -0.012478 0.023080 -0.003951 0.000001 0.002295 0.000000
# 3 -0.005541 -0.003951 0.010380 0.000000 0.000227 0.000000
# 4 0.000000 0.000001 0.000000 0.029228 0.000001 0.001755
# 5 0.002952 0.002295 0.000227 0.000001 0.043024 0.000000
# 6 0.000000 0.000000 0.000000 0.001755 0.000000 0.039220
#
#
# Mechanical properties :
#
#
# Convention : Reuss Voigt Hill
#
# Bulk Modulus (GPa) = 57.23808 67.58647 62.41228
# Shear Modulus (GPa) = 22.45721 25.95669 24.20695
#
# Velocity S-wave (km/s) = 3.56091 3.82831 3.69703
# Velocity P-wave (km/s) = 7.01607 7.59624 7.31191
#
# Compressibility (1/GPa) = 0.01747089
#
# Stress axis : x y z
#
# Youngs Moduli (GPa) = 35.77808 43.32740 96.33750
#
# Poissons Ratio (x) = 0.54062 0.53382
# Poissons Ratio (y) = 0.44643 0.38063
# Poissons Ratio (z) = 0.19825 0.17119
#
# Static dielectric constant tensor:
#      x y z
#    x 1.578030 0.000000 0.001670 
#    y 0.000000 1.589940 0.000000 
#    z 0.001670 0.000000 1.599270 
# 
# From -- ./inp_files/33041.got.cif
#   From: 2010.05.17/outbox.cif.g08.bks.cpg/sg8_17_cif.got.tgz:33041.got - 2010.06.03 19:46:02.
