data_PCOD9132264
_publ_section_title
;
Structure prediction by ZEFSAII (Michael W. Deem and Ramdas Pophale) SiO2 
 PCOD9132264
Probable space group: C M
;
_chemical_formula_sum "Si O2"
_cell_formula_units_Z 32
_cell_length_a 19.139618
_cell_length_b 12.718601
_cell_length_c 5.936232
_cell_angle_alpha 90.000000
_cell_angle_beta 109.785354
_cell_angle_gamma 90.000000
_cell_volume 1359.746714
_symmetry_space_group_name_H-M "C M"
_symmetry_group_IT_number 8
_symmetry_cell_setting 'monoclinic'
loop_
_space_group_symop_operation_xyz
x,y,z
x,-y,z
1/2+x,1/2+y,z
1/2+x,1/2-y,z
loop_
_atom_site_type_symbol
_atom_site_label
_atom_site_fract_x
_atom_site_fract_y
_atom_site_fract_z
Si Si1 0.161210 0.323866 0.820020
Si Si2 0.101251 0.114988 0.256184
Si Si3 0.259123 0.114988 0.906224
Si Si4 0.018847 0.785038 0.533091
Si Si5 0.918746 0.382223 0.319320
Si Si6 0.341527 0.785038 0.629317
Si Si7 0.941628 0.882223 0.843088
Si Si8 0.699165 0.823866 0.342387
O O1 0.207884 0.215016 0.887089
O O2 0.074414 0.292520 0.725934
O O3 0.180187 0.364258 0.581204
O O4 0.180187 0.379067 0.081204
O O5 0.072268 0.130316 0.477819
O O6 0.152491 0.215015 0.275319
O O7 0.134739 0.000000 0.257276
O O8 0.024159 0.121456 0.034961
O O9 0.288106 0.130316 0.684589
O O10 0.225635 0.000000 0.905132
O O11 0.336215 0.121456 0.127448
O O12 0.977480 0.706617 0.314307
O O13 0.957890 0.850333 0.602460
O O14 0.947470 0.500000 0.320706
O O15 0.902485 0.350333 0.559949
O O16 0.382894 0.706617 0.848101
O O17 0.285961 0.707481 0.436473
O O18 0.912904 0.000000 0.841702
#
# Coordination Sequence:
#
# PCOD9132264 Si02
#       8
#     4   4   4   4   4   4   4   4
#     4  10  20  35  55  83 112 150 183 229 282 336
#     4  10  20  33  54  81 110 141 181 229 283 337
#     4  10  20  33  54  81 110 141 181 229 283 337
#     4  10  20  34  53  78 112 144 181 229 281 333
#     4  10  20  34  54  79 108 144 186 227 276 335
#     4  10  20  34  53  78 112 144 181 229 281 333
#     4  10  20  34  54  79 108 144 186 227 276 335
#     4  10  20  35  55  83 112 150 183 229 282 336
#
# _framework density 23.533791999999998
#
# number of rings (size 3 to 8) (size 9 to 14) (size 15 to 20)
#    0.000    2.000    2.500    1.500    0.000    6.000 
#    0.000    0.000    0.000    7.500    0.000    0.000 
#    0.000    0.000    0.000    0.000    0.000    0.000 
#
# Total GULP energy -89088.376424 kJ/mol
# GULP energy per Si atom -5568.023527 kJ/mol
# Density = 2.348023 g / cm^3
# Si number density = 23.533792 Si / 1000 Ang^3
#
#
#
# Elastic Constant Matrix: (Units=GPa)
#
#
# Indices 1 2 3 4 5 6 
#
# 1 56.9115 14.2625 10.3698 0.0000 3.5927 0.0000
# 2 14.2625 86.9006 25.7220 0.0000 11.1188 0.0000
# 3 10.3698 25.7220 112.1140 0.0000 10.6139 0.0000
# 4 0.0000 0.0000 0.0000 5.7836 0.0000 8.3855
# 5 3.5927 11.1188 10.6139 0.0000 52.8321 0.0000
# 6 0.0000 0.0000 0.0000 8.3855 0.0000 9.1954
#
#
#
# Elastic Compliance Matrix: (Units=1/GPa)
#
#
# Indices 1 2 3 4 5 6 
#
# 1 0.018459 -0.002656 -0.001052 0.000000 -0.000485 0.000000
# 2 -0.002656 0.012954 -0.002533 0.000000 -0.002037 0.000000
# 3 -0.001052 -0.002533 0.009726 0.000000 -0.001349 0.000000
# 4 0.000000 0.000000 0.000000 -0.536638 0.000000 0.489377
# 5 -0.000485 -0.002037 -0.001349 0.000000 0.019661 0.000000
# 6 0.000000 0.000000 0.000000 0.489377 0.000000 -0.337528
#
#
# Mechanical properties :
#
#
# Convention : Reuss Voigt Hill
#
# Bulk Modulus (GPa) = 34.89752 39.62609 37.26181
# Shear Modulus (GPa) = -6.31846 27.26699 10.47426
#
# Velocity S-wave (km/s) = -1.64033 3.40756 2.11196
# Velocity P-wave (km/s) = 3.35757 5.68827 4.67064
#
# Compressibility (1/GPa) = 0.02865533
#
# Stress axis : x y z
#
# Youngs Moduli (GPa) = 54.17387 77.19735 102.81952
#
# Poissons Ratio (x) = 0.20505 0.10817
# Poissons Ratio (y) = 0.14389 0.26049
# Poissons Ratio (z) = 0.05699 0.19558
#
# Static dielectric constant tensor:
#      x y z
#    x 1.924630 0.000000 -0.011230 
#    y 0.000000 1.850870 0.000000 
#    z -0.011230 0.000000 2.063610 
# 
# From -- ./inp_files/5644.got.cif
#   From: 2010.05.17/outbox.cif.g08.bks.cpg/sg8_3_cif.got.tgz:5644.got - 2010.06.03 19:46:02.
