data_PCOD9132568
_publ_section_title
;
Structure prediction by ZEFSAII (Michael W. Deem and Ramdas Pophale) SiO2 
 PCOD9132568
Probable space group: C M
;
_chemical_formula_sum "Si O2"
_cell_formula_units_Z 32
_cell_length_a 24.444758
_cell_length_b 8.562627
_cell_length_c 14.016380
_cell_angle_alpha 90.000000
_cell_angle_beta 30.845973
_cell_angle_gamma 90.000000
_cell_volume 1504.246397
_symmetry_space_group_name_H-M "C M"
_symmetry_group_IT_number 8
_symmetry_cell_setting 'monoclinic'
loop_
_space_group_symop_operation_xyz
x,y,z
x,-y,z
1/2+x,1/2+y,z
1/2+x,1/2-y,z
loop_
_atom_site_type_symbol
_atom_site_label
_atom_site_fract_x
_atom_site_fract_y
_atom_site_fract_z
Si Si1 0.380320 0.688026 0.753900
Si Si2 0.506691 0.317390 0.954496
Si Si3 0.708381 0.320621 0.274870
Si Si4 0.918206 0.313952 0.488236
Si Si5 0.456148 0.180221 0.833261
Si Si6 0.785873 0.313239 0.357385
Si Si7 0.227148 0.682814 0.650013
Si Si8 0.146002 0.313618 0.174174
O O1 0.384857 0.500000 0.736501
O O2 0.407256 0.772949 0.615853
O O3 0.452798 0.738958 0.735195
O O4 0.258469 0.736954 0.961958
O O5 0.482944 0.500000 0.997240
O O6 0.515221 0.270385 0.829775
O O7 0.618584 0.275150 0.835081
O O8 0.408492 0.221721 0.145757
O O9 0.672066 0.500000 0.331451
O O10 0.714731 0.258999 0.373229
O O11 0.646301 0.233008 0.285016
O O12 0.832135 0.319611 0.054480
O O13 0.910046 0.500000 0.485010
O O14 0.825123 0.230644 0.570036
O O15 0.038541 0.258602 0.283319
O O16 0.490651 0.000000 0.775805
O O17 0.771628 0.500000 0.389025
O O18 0.759013 0.227438 0.494686
O O19 0.205245 0.500000 0.690712
O O20 0.145087 0.500000 0.171145
#
# Coordination Sequence:
#
# PCOD9132568 Si02
#       8
#     4   4   4   4   4   4   4   4
#     4  10  20  37  60  88 118 152 193 240 293 353
#     4  11  22  39  63  91 121 157 197 244 301 360
#     4   8  16  31  56  87 118 148 184 229 282 343
#     4  11  24  42  59  81 114 154 199 248 297 352
#     4   9  17  33  57  88 121 154 191 237 292 353
#     4  10  21  40  63  90 123 158 194 241 297 356
#     4  12  26  43  61  85 116 156 205 254 299 354
#     4   9  20  37  59  84 115 151 187 231 287 343
#
# _framework density 21.273112999999999
#
# number of rings (size 3 to 8) (size 9 to 14) (size 15 to 20)
#    0.000    2.000    0.000    4.500    0.000    7.000 
#    0.000    6.250    0.000    0.000    0.000    0.000 
#    0.000    0.000    0.000    0.000    0.000    0.000 
#
# Total GULP energy -89439.409860 kJ/mol
# GULP energy per Si atom -5589.963116 kJ/mol
# Density = 2.122469 g / cm^3
# Si number density = 21.273113 Si / 1000 Ang^3
#
#
#
# Elastic Constant Matrix: (Units=GPa)
#
#
# Indices 1 2 3 4 5 6 
#
# 1 54.5105 -1.6963 16.1438 0.0000 -23.0832 0.0000
# 2 -1.6963 44.1402 -14.8766 0.0000 -3.4412 0.0000
# 3 16.1438 -14.8766 50.9393 0.0000 -15.2044 0.0000
# 4 0.0000 0.0000 0.0000 17.6719 0.0000 2.2462
# 5 -23.0832 -3.4412 -15.2044 0.0000 36.4337 0.0000
# 6 0.0000 0.0000 0.0000 2.2462 0.0000 37.6090
#
#
#
# Elastic Compliance Matrix: (Units=1/GPa)
#
#
# Indices 1 2 3 4 5 6 
#
# 1 0.025723 0.001016 -0.003384 0.000000 0.014981 0.000000
# 2 0.001016 0.026462 0.009531 0.000000 0.007121 0.000000
# 3 -0.003384 0.009531 0.026405 0.000000 0.009776 0.000000
# 4 0.000000 0.000000 0.000000 0.057020 0.000000 -0.003406
# 5 0.014981 0.007121 0.009776 0.000000 0.041691 0.000000
# 6 0.000000 0.000000 0.000000 -0.003406 0.000000 0.026793
#
#
# Mechanical properties :
#
#
# Convention : Reuss Voigt Hill
#
# Bulk Modulus (GPa) = 10.76237 16.52577 13.64407
# Shear Modulus (GPa) = 22.65128 28.34419 25.49774
#
# Velocity S-wave (km/s) = 3.26664 3.65416 3.46582
# Velocity P-wave (km/s) = 4.39296 5.05856 4.73747
#
# Compressibility (1/GPa) = 0.09291631
#
# Stress axis : x y z
#
# Youngs Moduli (GPa) = 38.87612 37.79059 37.87151
#
# Poissons Ratio (x) = -0.03839 0.12815
# Poissons Ratio (y) = -0.03950 -0.36097
# Poissons Ratio (z) = 0.13155 -0.36020
#
# Static dielectric constant tensor:
#      x y z
#    x 1.746670 0.000000 -0.022840 
#    y 0.000000 1.713240 0.000000 
#    z -0.022840 0.000000 1.837360 
# 
# From -- ./inp_files/28194.got.cif
#   From: 2010.05.17/outbox.cif.g08.bks.cpg/sg8_15_cif.got.tgz:28194.got - 2010.06.03 19:46:02.
