data_PCOD9132829
_publ_section_title
;
Structure prediction by ZEFSAII (Michael W. Deem and Ramdas Pophale) SiO2 
 PCOD9132829
Probable space group: C M
;
_chemical_formula_sum "Si O2"
_cell_formula_units_Z 24
_cell_length_a 5.052102
_cell_length_b 21.870282
_cell_length_c 11.687828
_cell_angle_alpha 90.000000
_cell_angle_beta 114.271495
_cell_angle_gamma 90.000000
_cell_volume 1177.249142
_symmetry_space_group_name_H-M "C M"
_symmetry_group_IT_number 8
_symmetry_cell_setting 'monoclinic'
loop_
_space_group_symop_operation_xyz
x,y,z
x,-y,z
1/2+x,1/2+y,z
1/2+x,1/2-y,z
loop_
_atom_site_type_symbol
_atom_site_label
_atom_site_fract_x
_atom_site_fract_y
_atom_site_fract_z
Si Si1 0.890400 0.099016 0.708230
Si Si2 0.723720 0.567693 0.556496
Si Si3 0.110099 0.000000 0.914345
Si Si4 0.618024 0.785396 0.645549
Si Si5 0.764879 0.000000 0.078730
Si Si6 0.418327 0.205709 0.349909
Si Si7 0.216104 0.929510 0.290726
O O1 0.571046 0.070772 0.628930
O O2 0.807601 0.164393 0.742393
O O3 0.058906 0.107670 0.619450
O O4 0.073699 0.058023 0.825922
O O5 0.625842 0.500000 0.571874
O O6 0.640435 0.578004 0.411020
O O7 0.421178 0.000000 0.030865
O O8 0.854616 0.000000 0.962044
O O9 0.828882 0.729203 0.660964
O O10 0.534788 0.805679 0.501014
O O11 0.926757 0.942277 0.166038
O O12 0.644414 0.248801 0.321969
O O13 0.362286 0.136757 0.289669
O O14 0.361640 0.000000 0.308961
#
# Coordination Sequence:
#
# PCOD9132829 Si02
#       7
#     4   4   2   4   2   4   4
#     4  12  22  36  63  86 129 152 197 253 302 371
#     4  11  20  35  57  97 118 151 190 245 324 367
#     4  12  24  42  60  90 114 168 208 264 296 352
#     4  10  21  36  55  88 126 160 192 235 309 383
#     4  10  26  42  62  82 124 162 216 254 308 346
#     4  10  21  36  60  92 131 161 194 241 314 390
#     4   9  22  42  63  92 130 162 204 262 309 377
#
# _framework density 20.386510000000001
#
# number of rings (size 3 to 8) (size 9 to 14) (size 15 to 20)
#    0.500    1.000    3.333    2.000    4.667    2.667 
#    0.000    0.000    0.000    6.000    0.000    0.000 
#    0.000    0.000    0.000    0.000    0.000    0.000 
#
# Total GULP energy -66848.010875 kJ/mol
# GULP energy per Si atom -5570.667573 kJ/mol
# Density = 2.034011 g / cm^3
# Si number density = 20.386510 Si / 1000 Ang^3
#
#
#
# Elastic Constant Matrix: (Units=GPa)
#
#
# Indices 1 2 3 4 5 6 
#
# 1 86.9589 39.6463 8.7837 0.0000 7.6805 0.0000
# 2 39.6463 147.3428 19.7888 0.0000 15.3258 0.0000
# 3 8.7837 19.7888 53.6466 0.0000 4.3960 0.0000
# 4 0.0000 0.0000 0.0000 4.5422 0.0000 13.5699
# 5 7.6805 15.3258 4.3960 0.0000 20.6247 0.0000
# 6 0.0000 0.0000 0.0000 13.5699 0.0000 26.4535
#
#
#
# Elastic Compliance Matrix: (Units=1/GPa)
#
#
# Indices 1 2 3 4 5 6 
#
# 1 0.013254 -0.003213 -0.000790 0.000000 -0.002380 0.000000
# 2 -0.003213 0.008425 -0.002205 0.000000 -0.004594 0.000000
# 3 -0.000790 -0.002205 0.019770 0.000000 -0.002281 0.000000
# 4 0.000000 0.000000 0.000000 -0.413419 0.000000 0.212073
# 5 -0.002380 -0.004594 -0.002281 0.000000 0.053272 0.000000
# 6 0.000000 0.000000 0.000000 0.212073 0.000000 -0.070986
#
#
# Mechanical properties :
#
#
# Convention : Reuss Voigt Hill
#
# Bulk Modulus (GPa) = 34.44271 47.15398 40.79835
# Shear Modulus (GPa) = -13.60219 24.97271 5.68526
#
# Velocity S-wave (km/s) = -2.58585 3.50374 1.67176
# Velocity P-wave (km/s) = 2.83126 6.28876 4.87671
#
# Compressibility (1/GPa) = 0.02903372
#
# Stress axis : x y z
#
# Youngs Moduli (GPa) = 75.44622 118.68803 50.58099
#
# Poissons Ratio (x) = 0.38132 0.03996
# Poissons Ratio (y) = 0.24239 0.11155
# Poissons Ratio (z) = 0.05961 0.26176
#
# Static dielectric constant tensor:
#      x y z
#    x 1.719120 0.000000 0.008690 
#    y 0.000000 1.830710 0.000000 
#    z 0.008690 0.000000 1.698280 
# 
# From -- ./inp_files/18040.got.cif
#   From: 2010.05.17/outbox.cif.g08.bks.cpg/sg8_10_cif.got.tgz:18040.got - 2010.06.03 19:46:02.
