data_PCOD9132232
_publ_section_title
;
Structure prediction by ZEFSAII (Michael W. Deem and Ramdas Pophale) SiO2 
 PCOD9132232
Probable space group: C M
;
_chemical_formula_sum "Si O2"
_cell_formula_units_Z 32
_cell_length_a 18.786350
_cell_length_b 14.795140
_cell_length_c 13.524039
_cell_angle_alpha 90.000000
_cell_angle_beta 23.488205
_cell_angle_gamma 90.000000
_cell_volume 1498.172809
_symmetry_space_group_name_H-M "C M"
_symmetry_group_IT_number 8
_symmetry_cell_setting 'monoclinic'
loop_
_space_group_symop_operation_xyz
x,y,z
x,-y,z
1/2+x,1/2+y,z
1/2+x,1/2-y,z
loop_
_atom_site_type_symbol
_atom_site_label
_atom_site_fract_x
_atom_site_fract_y
_atom_site_fract_z
Si Si1 0.206610 0.177037 0.819920
Si Si2 0.281807 0.395299 0.113702
Si Si3 0.641932 0.901888 0.748933
Si Si4 0.015353 0.309146 0.299198
Si Si5 0.076507 0.901014 0.569643
Si Si6 0.771555 0.139844 0.805610
Si Si7 0.033636 0.100474 0.215415
Si Si8 0.375471 0.757861 0.141658
O O1 0.309751 0.165843 0.585163
O O2 0.321831 0.255519 0.724574
O O3 0.164385 0.102431 0.954388
O O4 0.014776 0.222316 0.044925
O O5 0.251527 0.500000 0.177691
O O6 0.122655 0.354684 0.251578
O O7 0.307370 0.329762 0.172657
O O8 0.454802 0.390606 0.821925
O O9 0.717382 0.896776 0.766826
O O10 0.823463 0.895357 0.455237
O O11 0.559953 0.000000 0.837459
O O12 0.500682 0.822839 0.914437
O O13 0.053724 0.199993 0.242524
O O14 0.098758 0.357139 0.096715
O O15 0.218265 0.821352 0.380201
O O16 0.936503 0.900368 0.655881
O O17 0.164224 0.000000 0.460964
O O18 0.056823 0.000000 0.234905
#
# Coordination Sequence:
#
# PCOD9132232 Si02
#       8
#     4   4   4   4   4   4   4   4
#     4  10  21  36  58  88 118 157 201 243 297 347
#     4  10  24  42  61  85 121 161 201 247 297 355
#     4  10  20  36  58  90 122 155 199 250 299 352
#     4  10  19  40  63  88 118 157 201 253 301 351
#     4  10  21  38  60  89 120 157 199 247 301 359
#     4   9  18  34  60  84 116 155 200 248 300 345
#     4  10  21  37  60  88 120 154 195 244 299 354
#     4  11  22  35  62  86 123 158 200 240 302 357
#
# _framework density 21.359352000000001
#
# number of rings (size 3 to 8) (size 9 to 14) (size 15 to 20)
#    0.000    2.000    2.500    1.500    1.750    2.500 
#    0.000    0.625    0.000    0.000    0.000    0.000 
#    0.000    0.000    0.000    0.000    0.000    0.000 
#
# Total GULP energy -89133.523748 kJ/mol
# GULP energy per Si atom -5570.845234 kJ/mol
# Density = 2.131074 g / cm^3
# Si number density = 21.359352 Si / 1000 Ang^3
#
#
#
# Elastic Constant Matrix: (Units=GPa)
#
#
# Indices 1 2 3 4 5 6 
#
# 1 30.6000 22.1427 10.7036 -0.0001 -1.7356 0.0001
# 2 22.1427 164.4059 37.4386 -0.0003 -5.2848 0.0003
# 3 10.7036 37.4386 100.3778 -0.0007 10.6590 0.0004
# 4 -0.0001 -0.0003 -0.0007 26.1959 0.0001 5.7536
# 5 -1.7356 -5.2848 10.6590 0.0001 21.2165 0.0000
# 6 0.0001 0.0003 0.0004 5.7536 0.0000 15.3687
#
#
#
# Elastic Compliance Matrix: (Units=1/GPa)
#
#
# Indices 1 2 3 4 5 6 
#
# 1 0.036885 -0.004246 -0.002702 0.000000 0.003317 0.000000
# 2 -0.004246 0.007330 -0.002576 0.000000 0.002772 0.000000
# 3 -0.002702 -0.002576 0.011940 0.000000 -0.006861 0.000000
# 4 0.000000 0.000000 0.000000 0.041594 0.000000 -0.015572
# 5 0.003317 0.002772 -0.006861 0.000000 0.051542 0.000000
# 6 0.000000 0.000000 0.000000 -0.015572 0.000000 0.070897
#
#
# Mechanical properties :
#
#
# Convention : Reuss Voigt Hill
#
# Bulk Modulus (GPa) = 26.94811 48.43928 37.69369
# Shear Modulus (GPa) = 19.87251 27.56281 23.71766
#
# Velocity S-wave (km/s) = 3.05354 3.59616 3.33590
# Velocity P-wave (km/s) = 5.00760 6.32223 5.70292
#
# Compressibility (1/GPa) = 0.03710835
#
# Stress axis : x y z
#
# Youngs Moduli (GPa) = 27.11102 136.42578 83.75461
#
# Poissons Ratio (x) = 0.57926 0.22629
# Poissons Ratio (y) = 0.11511 0.21571
# Poissons Ratio (z) = 0.07325 0.35137
#
# Static dielectric constant tensor:
#      x y z
#    x 1.791320 0.000000 0.036670 
#    y 0.000000 1.824360 0.000000 
#    z 0.036670 0.000000 1.837850 
# 
# From -- ./inp_files/27983.got.cif
#   From: 2010.05.17/outbox.cif.g08.bks.cpg/sg8_14_cif.got.tgz:27983.got - 2010.06.03 19:46:02.
