data_PCOD9132000
_publ_section_title
;
Structure prediction by ZEFSAII (Michael W. Deem and Ramdas Pophale) SiO2 
 PCOD9132000
Probable space group: C M
;
_chemical_formula_sum "Si O2"
_cell_formula_units_Z 28
_cell_length_a 6.885907
_cell_length_b 30.876769
_cell_length_c 5.314271
_cell_angle_alpha 90.000000
_cell_angle_beta 78.214573
_cell_angle_gamma 90.000000
_cell_volume 1106.072567
_symmetry_space_group_name_H-M "C M"
_symmetry_group_IT_number 8
_symmetry_cell_setting 'monoclinic'
loop_
_space_group_symop_operation_xyz
x,y,z
x,-y,z
1/2+x,1/2+y,z
1/2+x,1/2-y,z
loop_
_atom_site_type_symbol
_atom_site_label
_atom_site_fract_x
_atom_site_fract_y
_atom_site_fract_z
Si Si1 0.490460 0.253842 0.714330
Si Si2 0.270669 0.549735 0.854140
Si Si3 0.475867 0.308949 0.212492
Si Si4 0.789360 0.598093 0.491153
Si Si5 0.768903 0.100388 0.354083
Si Si6 0.786881 0.549063 0.993881
Si Si7 0.298633 0.182392 0.778891
O O1 0.487579 0.278148 0.446246
O O2 0.518977 0.200378 0.732106
O O3 0.731776 0.268752 0.716723
O O4 0.413178 0.281220 0.982790
O O5 0.333567 0.500000 0.802979
O O6 0.329239 0.580138 0.605822
O O7 0.028706 0.549191 0.924944
O O8 0.331017 0.569834 0.104945
O O9 0.347570 0.351517 0.289974
O O10 0.696459 0.325319 0.070285
O O11 0.730954 0.565742 0.732563
O O12 0.734123 0.645531 0.608436
O O13 0.029288 0.600456 0.419422
O O14 0.726481 0.580137 0.238759
O O15 0.722795 0.500000 0.058828
#
# Coordination Sequence:
#
# PCOD9132000 Si02
#       7
#     4   4   4   4   4   4   4
#     4  10  25  40  64  85 117 160 197 249 300 350
#     4   9  17  31  54  86 119 153 194 245 296 347
#     4  10  24  40  60  86 115 161 190 257 289 361
#     4  10  21  33  62  89 119 156 200 246 294 353
#     4  10  19  34  56  88 116 154 197 249 291 351
#     4   9  18  34  56  89 123 154 196 245 294 345
#     4  10  26  42  64  89 121 160 202 251 298 363
#
# _framework density 25.314793000000002
#
# number of rings (size 3 to 8) (size 9 to 14) (size 15 to 20)
#    0.857    1.429    0.000    1.714    6.000    3.429 
#    0.000    0.000    0.000    5.143    0.000    0.000 
#    0.000    0.000    0.000    0.000    0.000    0.000 
#
# Total GULP energy -78228.364298 kJ/mol
# GULP energy per Si atom -5587.740307 kJ/mol
# Density = 2.525718 g / cm^3
# Si number density = 25.314793 Si / 1000 Ang^3
#
#
#
# Elastic Constant Matrix: (Units=GPa)
#
#
# Indices 1 2 3 4 5 6 
#
# 1 72.6540 15.7889 31.7121 0.0000 8.0107 0.0000
# 2 15.7889 164.4016 99.8293 0.0000 -0.7957 0.0000
# 3 31.7121 99.8293 221.6315 0.0000 11.9840 0.0000
# 4 0.0000 0.0000 0.0000 56.9007 0.0000 -5.9938
# 5 8.0107 -0.7957 11.9840 0.0000 41.6425 0.0000
# 6 0.0000 0.0000 0.0000 -5.9938 0.0000 28.0290
#
#
#
# Elastic Compliance Matrix: (Units=1/GPa)
#
#
# Indices 1 2 3 4 5 6 
#
# 1 0.014903 -0.000309 -0.001867 0.000000 -0.002336 0.000000
# 2 -0.000309 0.008445 -0.003831 0.000000 0.001323 0.000000
# 3 -0.001867 -0.003831 0.006592 0.000000 -0.001611 0.000000
# 4 0.000000 0.000000 0.000000 0.017979 0.000000 0.003845
# 5 -0.002336 0.001323 -0.001611 0.000000 0.024952 0.000000
# 6 0.000000 0.000000 0.000000 0.003845 0.000000 0.036499
#
#
# Mechanical properties :
#
#
# Convention : Reuss Voigt Hill
#
# Bulk Modulus (GPa) = 55.78448 83.70531 69.74489
# Shear Modulus (GPa) = 39.25827 46.07156 42.66492
#
# Velocity S-wave (km/s) = 3.94230 4.27071 4.10979
# Velocity P-wave (km/s) = 6.54266 7.57999 7.08035
#
# Compressibility (1/GPa) = 0.01792613
#
# Stress axis : x y z
#
# Youngs Moduli (GPa) = 67.09863 118.40995 151.69903
#
# Poissons Ratio (x) = 0.03658 0.28323
# Poissons Ratio (y) = 0.02073 0.58121
# Poissons Ratio (z) = 0.12528 0.45367
#
# Static dielectric constant tensor:
#      x y z
#    x 2.366260 0.000000 -0.043390 
#    y 0.000000 1.955580 0.000000 
#    z -0.043390 0.000000 1.881140 
# 
# From -- ./inp_files/1807.got.cif
#   From: 2010.05.17/outbox.cif.g08.bks.cpg/sg8_1_cif.got.tgz:1807.got - 2010.06.03 19:46:02.
