data_PCOD9132458
_publ_section_title
;
Structure prediction by ZEFSAII (Michael W. Deem and Ramdas Pophale) SiO2 
 PCOD9132458
Probable space group: C M
;
_chemical_formula_sum "Si O2"
_cell_formula_units_Z 32
_cell_length_a 23.005163
_cell_length_b 8.679252
_cell_length_c 28.233601
_cell_angle_alpha 90.000000
_cell_angle_beta 162.216480
_cell_angle_gamma 90.000000
_cell_volume 1721.763091
_symmetry_space_group_name_H-M "C M"
_symmetry_group_IT_number 8
_symmetry_cell_setting 'monoclinic'
loop_
_space_group_symop_operation_xyz
x,y,z
x,-y,z
1/2+x,1/2+y,z
1/2+x,1/2-y,z
loop_
_atom_site_type_symbol
_atom_site_label
_atom_site_fract_x
_atom_site_fract_y
_atom_site_fract_z
Si Si1 0.416150 0.184261 0.618710
Si Si2 0.173818 0.186476 0.999913
Si Si3 0.602581 0.185757 0.304456
Si Si4 0.843293 0.185242 0.923666
Si Si5 0.119302 0.316099 0.061635
Si Si6 0.857554 0.814211 0.678011
Si Si7 0.154742 0.314674 0.236209
Si Si8 0.930449 0.685163 0.374136
O O1 0.252285 0.247228 0.457510
O O2 0.624945 0.230755 0.761868
O O3 0.388345 0.245313 0.650162
O O4 0.408606 0.000000 0.613316
O O5 0.023052 0.232615 0.842720
O O6 0.168123 0.000000 0.999620
O O7 0.387406 0.231458 0.150723
O O8 0.122906 0.258453 0.010836
O O9 0.649718 0.231624 0.287134
O O10 0.611163 0.000000 0.313363
O O11 0.857408 0.000000 0.933285
O O12 0.937358 0.253650 0.949329
O O13 0.972665 0.247723 0.067080
O O14 0.124264 0.500000 0.067948
O O15 0.301607 0.248529 0.231180
O O16 0.649442 0.771570 0.536279
O O17 0.862508 0.000000 0.677880
O O18 0.149147 0.500000 0.228776
O O19 0.337315 0.252727 0.349441
O O20 0.914898 0.500000 0.362911
#
# Coordination Sequence:
#
# PCOD9132458 Si02
#       8
#     4   4   4   4   4   4   4   4
#     4  11  24  38  57  84 113 144 184 232 278 324
#     4  10  21  39  59  81 111 148 186 227 274 330
#     4  10  22  38  58  82 112 149 186 224 275 332
#     4  10  21  38  58  82 112 148 184 224 276 333
#     4  11  22  36  57  85 113 146 185 229 274 322
#     4  10  22  39  60  82 110 148 187 226 275 331
#     4  10  20  36  59  86 112 144 185 230 273 322
#     4  10  20  36  58  84 113 149 185 222 273 332
#
# _framework density 18.585601
#
# number of rings (size 3 to 8) (size 9 to 14) (size 15 to 20)
#    0.000    1.750    0.000    5.625    0.000   10.000 
#    0.000    3.750    0.000    0.000    0.000    0.000 
#    0.000    0.000    0.000    0.000    0.000    0.000 
#
# Total GULP energy -89424.264588 kJ/mol
# GULP energy per Si atom -5589.016537 kJ/mol
# Density = 1.854330 g / cm^3
# Si number density = 18.585601 Si / 1000 Ang^3
#
#
#
# Elastic Constant Matrix: (Units=GPa)
#
#
# Indices 1 2 3 4 5 6 
#
# 1 199.3656 53.4035 127.5856 -0.0082 -9.4406 0.0085
# 2 53.4035 50.9751 52.0032 0.0106 3.1488 -0.0019
# 3 127.5856 52.0032 189.3905 0.0742 16.6288 -0.0243
# 4 -0.0082 0.0106 0.0742 17.9298 -0.0045 -4.9580
# 5 -9.4406 3.1488 16.6288 -0.0045 23.4419 0.0066
# 6 0.0085 -0.0019 -0.0243 -4.9580 0.0066 31.6798
#
#
#
# Elastic Compliance Matrix: (Units=1/GPa)
#
#
# Indices 1 2 3 4 5 6 
#
# 1 0.011615 -0.005407 -0.007267 0.000040 0.010559 -0.000005
# 2 -0.005407 0.029836 -0.004273 -0.000003 -0.003154 0.000000
# 3 -0.007267 -0.004273 0.012323 -0.000053 -0.011094 0.000005
# 4 0.000040 -0.000003 -0.000053 0.058296 0.000063 0.009124
# 5 0.010559 -0.003154 -0.011094 0.000063 0.055204 -0.000013
# 6 -0.000005 0.000000 0.000005 0.009124 -0.000013 0.032994
#
#
# Mechanical properties :
#
#
# Convention : Reuss Voigt Hill
#
# Bulk Modulus (GPa) = 50.30192 100.63512 75.46852
# Shear Modulus (GPa) = 20.76517 28.39289 24.57903
#
# Velocity S-wave (km/s) = 3.34619 3.91280 3.64053
# Velocity P-wave (km/s) = 6.48483 8.64163 7.63972
#
# Compressibility (1/GPa) = 0.01987996
#
# Stress axis : x y z
#
# Youngs Moduli (GPa) = 86.09778 33.51667 81.14940
#
# Poissons Ratio (x) = 0.18122 0.58970
# Poissons Ratio (y) = 0.46551 0.34676
# Poissons Ratio (z) = 0.62566 0.14322
#
# Static dielectric constant tensor:
#      x y z
#    x 1.612870 0.000000 0.013960 
#    y 0.000000 1.627600 -0.000010 
#    z 0.013960 -0.000010 1.622600 
# 
# From -- ./inp_files/33066.got.cif
#   From: 2010.05.17/outbox.cif.g08.bks.cpg/sg8_17_cif.got.tgz:33066.got - 2010.06.03 19:46:02.
