data_PCOD9132341
_publ_section_title
;
Structure prediction by ZEFSAII (Michael W. Deem and Ramdas Pophale) SiO2 
 PCOD9132341
Probable space group: C M
;
_chemical_formula_sum "Si O2"
_cell_formula_units_Z 24
_cell_length_a 9.813865
_cell_length_b 13.139072
_cell_length_c 16.798951
_cell_angle_alpha 90.000000
_cell_angle_beta 150.393474
_cell_angle_gamma 90.000000
_cell_volume 1070.162771
_symmetry_space_group_name_H-M "C M"
_symmetry_group_IT_number 8
_symmetry_cell_setting 'monoclinic'
loop_
_space_group_symop_operation_xyz
x,y,z
x,-y,z
1/2+x,1/2+y,z
1/2+x,1/2-y,z
loop_
_atom_site_type_symbol
_atom_site_label
_atom_site_fract_x
_atom_site_fract_y
_atom_site_fract_z
Si Si1 0.453030 0.500000 0.131310
Si Si2 0.326552 0.219190 0.811916
Si Si3 0.545610 0.000000 0.373447
Si Si4 0.836346 0.000000 0.677201
Si Si5 0.345853 0.290945 0.986684
Si Si6 0.917241 0.500000 0.934841
Si Si7 0.500598 0.797343 0.509419
Si Si8 0.472628 0.227221 0.309802
O O1 0.784850 0.500000 0.303799
O O2 0.385153 0.402399 0.042639
O O3 0.254208 0.500000 0.107637
O O4 0.360479 0.105117 0.860429
O O5 0.120120 0.218348 0.633533
O O6 0.232323 0.285088 0.839466
O O7 0.621213 0.259354 0.929846
O O8 0.516276 0.106408 0.311872
O O9 0.806838 0.000000 0.564905
O O10 0.669798 0.899173 0.616288
O O11 0.158803 0.000000 0.865342
O O12 0.651857 0.244291 0.138782
O O13 0.544866 0.768837 0.440286
O O14 0.173585 0.796901 0.359985
#
# Coordination Sequence:
#
# PCOD9132341 Si02
#       8
#     2   4   2   2   4   2   4   4
#     4   8  18  33  56  83 110 142 184 225 270 324
#     4  11  21  36  58  84 110 145 185 227 274 328
#     4   8  16  34  57  79 108 149 184 215 268 339
#     4  10  20  35  53  79 112 146 182 227 274 324
#     4  10  20  36  57  83 113 145 183 227 273 325
#     4  10  20  36  56  79 110 149 184 217 272 343
#     4  11  22  37  57  81 110 147 186 228 275 325
#     4  10  20  37  58  82 111 147 185 226 272 326
#
# _framework density 22.426496
#
# number of rings (size 3 to 8) (size 9 to 14) (size 15 to 20)
#    0.000    2.000    0.000    5.000    0.000    2.000 
#    0.000    4.167    0.000    0.000    0.000    0.000 
#    0.000    0.000    0.000    0.000    0.000    0.000 
#
# Total GULP energy -66935.357447 kJ/mol
# GULP energy per Si atom -5577.946454 kJ/mol
# Density = 2.237545 g / cm^3
# Si number density = 22.426496 Si / 1000 Ang^3
#
#
#
# Elastic Constant Matrix: (Units=GPa)
#
#
# Indices 1 2 3 4 5 6 
#
# 1 97.7508 21.5266 16.8001 0.0003 22.4835 0.0000
# 2 21.5266 50.4675 14.9736 0.0008 11.3232 0.0003
# 3 16.8001 14.9736 72.1639 0.0053 25.1211 0.0010
# 4 0.0003 0.0008 0.0053 19.1999 0.0008 9.2987
# 5 22.4835 11.3232 25.1211 0.0008 56.6021 -0.0001
# 6 0.0000 0.0003 0.0010 9.2987 -0.0001 24.0005
#
#
#
# Elastic Compliance Matrix: (Units=1/GPa)
#
#
# Indices 1 2 3 4 5 6 
#
# 1 0.012104 -0.004136 -0.000679 0.000000 -0.003679 0.000000
# 2 -0.004136 0.022882 -0.003268 0.000000 -0.001484 0.000000
# 3 -0.000679 -0.003268 0.016998 -0.000005 -0.006621 0.000001
# 4 0.000000 0.000000 -0.000005 0.064114 0.000001 -0.024840
# 5 -0.003679 -0.001484 -0.006621 0.000001 0.022364 0.000000
# 6 0.000000 0.000000 0.000001 -0.024840 0.000000 0.051290
#
#
# Mechanical properties :
#
#
# Convention : Reuss Voigt Hill
#
# Bulk Modulus (GPa) = 27.91939 36.33143 32.12541
# Shear Modulus (GPa) = 22.95086 31.09930 27.02508
#
# Velocity S-wave (km/s) = 3.20250 3.72791 3.47515
# Velocity P-wave (km/s) = 5.11381 5.89620 5.51888
#
# Compressibility (1/GPa) = 0.03581740
#
# Stress axis : x y z
#
# Youngs Moduli (GPa) = 82.61851 43.70338 58.82941
#
# Poissons Ratio (x) = 0.18075 0.03994
# Poissons Ratio (y) = 0.34170 0.19228
# Poissons Ratio (z) = 0.05609 0.14284
#
# Static dielectric constant tensor:
#      x y z
#    x 1.841140 0.000000 0.054960 
#    y 0.000000 1.835740 0.000000 
#    z 0.054960 0.000000 1.928360 
# 
# From -- ./inp_files/15151.got.cif
#   From: 2010.05.17/outbox.cif.g08.bks.cpg/sg8_8_cif.got.tgz:15151.got - 2010.06.03 19:46:02.
