data_PCOD9132364
_publ_section_title
;
Structure prediction by ZEFSAII (Michael W. Deem and Ramdas Pophale) SiO2 
 PCOD9132364
Probable space group: C M
;
_chemical_formula_sum "Si O2"
_cell_formula_units_Z 32
_cell_length_a 22.878690
_cell_length_b 7.946043
_cell_length_c 28.206499
_cell_angle_alpha 90.000000
_cell_angle_beta 161.942527
_cell_angle_gamma 90.000000
_cell_volume 1589.469085
_symmetry_space_group_name_H-M "C M"
_symmetry_group_IT_number 8
_symmetry_cell_setting 'monoclinic'
loop_
_space_group_symop_operation_xyz
x,y,z
x,-y,z
1/2+x,1/2+y,z
1/2+x,1/2-y,z
loop_
_atom_site_type_symbol
_atom_site_label
_atom_site_fract_x
_atom_site_fract_y
_atom_site_fract_z
Si Si1 0.634810 0.199031 0.463150
Si Si2 0.151044 0.803995 0.214178
Si Si3 0.883611 0.298457 0.837161
Si Si4 0.715047 0.195054 0.159593
Si Si5 0.672932 0.794428 0.386022
Si Si6 0.945125 0.204362 0.775971
Si Si7 0.862729 0.296480 0.071363
Si Si8 0.962565 0.203769 0.530385
O O1 0.417752 0.220805 0.309616
O O2 0.669521 0.268137 0.437069
O O3 0.775884 0.266680 0.611951
O O4 0.674305 0.000000 0.490888
O O5 0.151361 0.707859 0.164909
O O6 0.333419 0.757769 0.386512
O O7 0.971148 0.765879 0.108445
O O8 0.158365 0.000000 0.208572
O O9 0.878242 0.500000 0.840314
O O10 0.920892 0.263487 0.810962
O O11 0.675877 0.233543 0.690725
O O12 0.053486 0.232084 0.000724
O O13 0.742506 0.000000 0.168104
O O14 0.488453 0.743567 0.213681
O O15 0.852690 0.742387 0.493222
O O16 0.671846 0.000000 0.386226
O O17 0.943137 0.000000 0.775443
O O18 0.147840 0.257907 0.911781
O O19 0.866707 0.500000 0.072838
O O20 0.964352 0.000000 0.531548
#
# Coordination Sequence:
#
# PCOD9132364 Si02
#       8
#     4   4   4   4   4   4   4   4
#     4  10  20  35  56  84 112 142 181 225 268 317
#     4  11  22  36  56  83 111 142 178 222 271 323
#     4  10  22  37  56  80 108 143 185 228 270 316
#     4  11  23  38  55  78 108 145 184 225 271 323
#     4   8  15  30  54  78 104 139 178 215 259 313
#     4  10  21  35  56  83 111 143 181 223 270 321
#     4   9  18  35  56  78 107 147 185 220 264 318
#     4   9  18  36  59  82 109 145 182 220 267 321
#
# _framework density 20.132508999999999
#
# number of rings (size 3 to 8) (size 9 to 14) (size 15 to 20)
#    0.000    2.250    0.000    3.750    0.000    6.500 
#    0.000    7.500    0.000    0.000    0.000    0.000 
#    0.000    0.000    0.000    0.000    0.000    0.000 
#
# Total GULP energy -89348.168661 kJ/mol
# GULP energy per Si atom -5584.260541 kJ/mol
# Density = 2.008669 g / cm^3
# Si number density = 20.132509 Si / 1000 Ang^3
#
#
#
# Elastic Constant Matrix: (Units=GPa)
#
#
# Indices 1 2 3 4 5 6 
#
# 1 126.5420 -13.9637 83.2272 -0.0693 -15.8339 -0.1055
# 2 -13.9637 17.7532 -1.7737 0.0032 0.0340 -0.0150
# 3 83.2272 -1.7737 175.1607 0.1003 6.2949 0.0495
# 4 -0.0693 0.0032 0.1003 -7.3723 -0.0496 -35.8530
# 5 -15.8339 0.0340 6.2949 -0.0496 26.7512 -0.0703
# 6 -0.1055 -0.0150 0.0495 -35.8530 -0.0703 -35.0478
#
#
#
# Elastic Compliance Matrix: (Units=1/GPa)
#
#
# Indices 1 2 3 4 5 6 
#
# 1 0.015617 0.011493 -0.007701 -0.000023 0.011041 -0.000061
# 2 0.011493 0.064844 -0.005089 -0.000053 0.007917 -0.000031
# 3 -0.007701 -0.005089 0.009561 0.000002 -0.006801 0.000050
# 4 -0.000023 -0.000053 0.000002 0.034125 -0.000043 -0.034909
# 5 0.011041 0.007917 -0.006801 -0.000043 0.045506 -0.000094
# 6 -0.000061 -0.000031 0.000050 -0.034909 -0.000094 0.007179
#
#
# Mechanical properties :
#
#
# Convention : Reuss Voigt Hill
#
# Bulk Modulus (GPa) = 11.43788 50.49282 30.96535
# Shear Modulus (GPa) = 23.97302 13.66396 18.81849
#
# Velocity S-wave (km/s) = 3.45449 2.60802 3.06065
# Velocity P-wave (km/s) = 4.64811 5.84839 5.28245
#
# Compressibility (1/GPa) = 0.08742882
#
# Stress axis : x y z
#
# Youngs Moduli (GPa) = 64.03275 15.42164 104.59253
#
# Poissons Ratio (x) = -0.17724 0.80544
# Poissons Ratio (y) = -0.73592 0.53224
# Poissons Ratio (z) = 0.49310 0.07848
#
# Static dielectric constant tensor:
#      x y z
#    x 1.677830 0.000000 -0.003460 
#    y 0.000000 1.746380 -0.000020 
#    z -0.003460 -0.000020 1.703910 
# 
# From -- ./inp_files/16875.got.cif
#   From: 2010.05.17/outbox.cif.g08.bks.cpg/sg8_9_cif.got.tgz:16875.got - 2010.06.03 19:46:02.
