data_PCOD9132084
_publ_section_title
;
Structure prediction by ZEFSAII (Michael W. Deem and Ramdas Pophale) SiO2 
 PCOD9132084
Probable space group: C M
;
_chemical_formula_sum "Si O2"
_cell_formula_units_Z 32
_cell_length_a 20.775086
_cell_length_b 8.877086
_cell_length_c 12.376307
_cell_angle_alpha 90.000000
_cell_angle_beta 52.512012
_cell_angle_gamma 90.000000
_cell_volume 1811.093348
_symmetry_space_group_name_H-M "C M"
_symmetry_group_IT_number 8
_symmetry_cell_setting 'monoclinic'
loop_
_space_group_symop_operation_xyz
x,y,z
x,-y,z
1/2+x,1/2+y,z
1/2+x,1/2-y,z
loop_
_atom_site_type_symbol
_atom_site_label
_atom_site_fract_x
_atom_site_fract_y
_atom_site_fract_z
Si Si1 0.742080 0.820644 0.556590
Si Si2 0.987187 0.179465 0.822230
Si Si3 0.632946 0.321772 0.843143
Si Si4 0.099189 0.320135 0.531967
Si Si5 0.902177 0.180836 0.266321
Si Si6 0.078600 0.679561 0.119246
Si Si7 0.155940 0.820313 0.253169
Si Si8 0.346040 0.179638 0.096628
O O1 0.708558 0.733020 0.694206
O O2 0.679888 0.788346 0.521418
O O3 0.832099 0.783027 0.424831
O O4 0.737483 0.000000 0.581910
O O5 0.053336 0.207590 0.850094
O O6 0.025390 0.251013 0.675789
O O7 0.978647 0.000000 0.819541
O O8 0.904027 0.254936 0.944617
O O9 0.637052 0.500000 0.858895
O O10 0.622913 0.234804 0.965030
O O11 0.091013 0.500000 0.531281
O O12 0.110816 0.245966 0.403932
O O13 0.872373 0.242170 0.181311
O O14 0.987783 0.253937 0.207116
O O15 0.910447 0.000000 0.251440
O O16 0.075878 0.500000 0.125101
O O17 0.123079 0.744418 0.178617
O O18 0.251798 0.790174 0.169784
O O19 0.144291 0.000000 0.259953
O O20 0.357685 0.000000 0.093995
#
# Coordination Sequence:
#
# PCOD9132084 Si02
#       8
#     4   4   4   4   4   4   4   4
#     4   9  19  34  57  87 118 151 189 238 289 343
#     4  10  20  34  57  87 119 154 192 240 293 341
#     4  10  20  35  57  85 118 154 192 238 291 344
#     4  10  19  35  58  86 119 153 194 239 290 345
#     4  11  21  37  60  88 120 152 193 242 291 344
#     4  12  25  40  60  85 118 158 199 240 292 350
#     4  11  24  41  60  85 120 157 196 240 294 351
#     4  11  22  36  59  89 118 151 195 245 290 342
#
# _framework density 17.668883999999998
#
# number of rings (size 3 to 8) (size 9 to 14) (size 15 to 20)
#    0.000    1.500    2.500    3.375    0.000    4.000 
#    0.000    1.250    0.000    6.000    0.000    0.000 
#    0.000    0.000    0.000    0.000    0.000    0.000 
#
# Total GULP energy -89414.834637 kJ/mol
# GULP energy per Si atom -5588.427165 kJ/mol
# Density = 1.762867 g / cm^3
# Si number density = 17.668884 Si / 1000 Ang^3
#
#
#
# Elastic Constant Matrix: (Units=GPa)
#
#
# Indices 1 2 3 4 5 6 
#
# 1 84.3754 67.0304 69.6789 0.0000 8.0629 0.0000
# 2 67.0304 99.7938 88.0034 0.0000 7.4947 0.0000
# 3 69.6789 88.0034 172.0293 0.0000 4.4174 0.0000
# 4 0.0000 0.0000 0.0000 37.8772 0.0000 1.8634
# 5 8.0629 7.4947 4.4174 0.0000 20.3904 0.0000
# 6 0.0000 0.0000 0.0000 1.8634 0.0000 27.0509
#
#
#
# Elastic Compliance Matrix: (Units=1/GPa)
#
#
# Indices 1 2 3 4 5 6 
#
# 1 0.026577 -0.014808 -0.003077 0.000000 -0.004400 0.000000
# 2 -0.014808 0.026969 -0.007737 0.000000 -0.002381 0.000000
# 3 -0.003077 -0.007737 0.010974 0.000000 0.001683 0.000000
# 4 0.000000 0.000000 0.000000 0.026491 0.000000 -0.001825
# 5 -0.004400 -0.002381 0.001683 0.000000 0.051293 0.000000
# 6 0.000000 0.000000 0.000000 -0.001825 0.000000 0.037093
#
#
# Mechanical properties :
#
#
# Convention : Reuss Voigt Hill
#
# Bulk Modulus (GPa) = 75.32258 89.51378 82.41818
# Shear Modulus (GPa) = 21.27071 25.82942 23.55006
#
# Velocity S-wave (km/s) = 3.47342 3.82757 3.65479
# Velocity P-wave (km/s) = 7.66869 8.38484 8.03475
#
# Compressibility (1/GPa) = 0.01327623
#
# Stress axis : x y z
#
# Youngs Moduli (GPa) = 37.62707 37.07990 91.12429
#
# Poissons Ratio (x) = 0.54907 0.28036
# Poissons Ratio (y) = 0.55717 0.70506
# Poissons Ratio (z) = 0.11576 0.28690
#
# Static dielectric constant tensor:
#      x y z
#    x 1.575560 0.000000 -0.008760 
#    y 0.000000 1.584800 0.000000 
#    z -0.008760 0.000000 1.589500 
# 
# From -- ./inp_files/23840.got.cif
#   From: 2010.05.17/outbox.cif.g08.bks.cpg/sg8_12_cif.got.tgz:23840.got - 2010.06.03 19:46:02.
