data_PCOD9132116
_publ_section_title
;
Structure prediction by ZEFSAII (Michael W. Deem and Ramdas Pophale) SiO2 
 PCOD9132116
Probable space group: C M
;
_chemical_formula_sum "Si O2"
_cell_formula_units_Z 32
_cell_length_a 15.790701
_cell_length_b 8.472823
_cell_length_c 23.354593
_cell_angle_alpha 90.000000
_cell_angle_beta 31.461700
_cell_angle_gamma 90.000000
_cell_volume 1630.845623
_symmetry_space_group_name_H-M "C M"
_symmetry_group_IT_number 8
_symmetry_cell_setting 'monoclinic'
loop_
_space_group_symop_operation_xyz
x,y,z
x,-y,z
1/2+x,1/2+y,z
1/2+x,1/2-y,z
loop_
_atom_site_type_symbol
_atom_site_label
_atom_site_fract_x
_atom_site_fract_y
_atom_site_fract_z
Si Si1 0.955300 0.812172 0.557020
Si Si2 0.502187 0.314394 0.330213
Si Si3 0.805356 0.809635 0.337748
Si Si4 0.766778 0.684959 0.556957
Si Si5 0.330380 0.686642 0.191801
Si Si6 0.154069 0.690784 0.804439
Si Si7 0.130343 0.311666 0.947903
Si Si8 0.468785 0.189019 0.797312
O O1 0.884559 0.721312 0.542853
O O2 0.836676 0.771782 0.678078
O O3 0.141252 0.766865 0.456387
O O4 0.939430 0.000000 0.555698
O O5 0.540118 0.500000 0.311163
O O6 0.454607 0.270840 0.293038
O O7 0.344475 0.279154 0.459746
O O8 0.653710 0.220718 0.267787
O O9 0.830466 0.759306 0.257847
O O10 0.785189 0.000000 0.350303
O O11 0.765856 0.500000 0.544317
O O12 0.590502 0.739963 0.679703
O O13 0.362241 0.500000 0.172962
O O14 0.467809 0.770382 0.075534
O O15 0.140972 0.500000 0.813535
O O16 0.120878 0.748134 0.887561
O O17 0.034765 0.743433 0.821804
O O18 0.152179 0.500000 0.933744
O O19 0.286481 0.238506 0.889010
O O20 0.484205 0.000000 0.786728
#
# Coordination Sequence:
#
# PCOD9132116 Si02
#       8
#     4   4   4   4   4   4   4   4
#     4  10  19  35  61  90 123 161 202 249 303 363
#     4  11  23  40  62  91 120 159 206 254 307 366
#     4  10  23  40  60  88 123 160 202 252 309 363
#     4  11  21  36  59  90 128 164 197 248 309 366
#     4  11  24  44  63  86 122 164 205 254 306 362
#     4   8  19  38  59  86 121 159 197 243 302 357
#     4  11  23  41  64  90 120 161 206 252 302 364
#     4  10  21  40  62  89 121 160 203 250 302 363
#
# _framework density 19.621721000000001
#
# number of rings (size 3 to 8) (size 9 to 14) (size 15 to 20)
#    0.000    1.750    1.250    3.750    1.750    2.500 
#    0.000   11.875    0.000    0.000    0.000    0.000 
#    0.000    0.000    0.000    0.000    0.000    0.000 
#
# Total GULP energy -89393.883671 kJ/mol
# GULP energy per Si atom -5587.117729 kJ/mol
# Density = 1.957706 g / cm^3
# Si number density = 19.621721 Si / 1000 Ang^3
#
#
#
# Elastic Constant Matrix: (Units=GPa)
#
#
# Indices 1 2 3 4 5 6 
#
# 1 108.7427 6.6027 51.3689 0.0000 14.6491 0.0000
# 2 6.6027 23.2104 -2.7099 0.0000 -2.8084 0.0000
# 3 51.3689 -2.7099 87.9831 -0.0004 11.8560 0.0001
# 4 0.0000 0.0000 -0.0004 35.3946 0.0002 -5.5483
# 5 14.6491 -2.8084 11.8560 0.0002 8.7057 0.0000
# 6 0.0000 0.0000 0.0001 -5.5483 0.0000 23.4758
#
#
#
# Elastic Compliance Matrix: (Units=1/GPa)
#
#
# Indices 1 2 3 4 5 6 
#
# 1 0.015366 -0.007474 -0.006605 0.000000 -0.019273 0.000000
# 2 -0.007474 0.048505 0.002516 0.000000 0.024797 0.000000
# 3 -0.006605 0.002516 0.016770 0.000000 -0.010913 0.000000
# 4 0.000000 0.000000 0.000000 0.029340 -0.000001 0.006934
# 5 -0.019273 0.024797 -0.010913 -0.000001 0.170160 0.000000
# 6 0.000000 0.000000 0.000000 0.006934 0.000000 0.044236
#
#
# Mechanical properties :
#
#
# Convention : Reuss Voigt Hill
#
# Bulk Modulus (GPa) = 17.38664 36.71772 27.05218
# Shear Modulus (GPa) = 13.63612 24.49352 19.06482
#
# Velocity S-wave (km/s) = 2.63905 3.53694 3.12046
# Velocity P-wave (km/s) = 4.26219 5.95259 5.17685
#
# Compressibility (1/GPa) = 0.05751542
#
# Stress axis : x y z
#
# Youngs Moduli (GPa) = 65.07815 20.61663 59.63030
#
# Poissons Ratio (x) = 0.15410 0.39383
# Poissons Ratio (y) = 0.48642 -0.15005
# Poissons Ratio (z) = 0.42982 -0.05188
#
# Static dielectric constant tensor:
#      x y z
#    x 1.707970 0.000000 0.010420 
#    y 0.000000 1.668210 0.000000 
#    z 0.010420 0.000000 1.652850 
# 
# From -- ./inp_files/21511.got.cif
#   From: 2010.05.17/outbox.cif.g08.bks.cpg/sg8_11_cif.got.tgz:21511.got - 2010.06.03 19:46:02.
