data_PCOD9132162
_publ_section_title
;
Structure prediction by ZEFSAII (Michael W. Deem and Ramdas Pophale) SiO2 
 PCOD9132162
Probable space group: C M
;
_chemical_formula_sum "Si O2"
_cell_formula_units_Z 32
_cell_length_a 9.170417
_cell_length_b 18.869182
_cell_length_c 14.385291
_cell_angle_alpha 90.000000
_cell_angle_beta 139.542367
_cell_angle_gamma 90.000000
_cell_volume 1615.209803
_symmetry_space_group_name_H-M "C M"
_symmetry_group_IT_number 8
_symmetry_cell_setting 'monoclinic'
loop_
_space_group_symop_operation_xyz
x,y,z
x,-y,z
1/2+x,1/2+y,z
1/2+x,1/2-y,z
loop_
_atom_site_type_symbol
_atom_site_label
_atom_site_fract_x
_atom_site_fract_y
_atom_site_fract_z
Si Si1 0.602240 0.175844 0.671860
Si Si2 0.679251 0.581456 0.174641
Si Si3 0.727652 0.841890 0.175653
Si Si4 0.526756 0.693529 0.770597
Si Si5 0.863687 0.415687 0.869730
Si Si6 0.198239 0.084005 0.401373
Si Si7 0.330385 0.203299 0.104821
Si Si8 0.188432 0.581713 0.873768
O O1 0.568698 0.246078 0.715432
O O2 0.377369 0.133673 0.539214
O O3 0.739025 0.124091 0.806406
O O4 0.764308 0.189924 0.664649
O O5 0.734802 0.500000 0.173747
O O6 0.746392 0.592167 0.314069
O O7 0.767160 0.638682 0.143464
O O8 0.407796 0.586582 0.043835
O O9 0.583472 0.809337 0.190705
O O10 0.799494 0.776175 0.145429
O O11 0.948684 0.887643 0.303273
O O12 0.545822 0.890357 0.033752
O O13 0.631572 0.621598 0.780948
O O14 0.667330 0.707502 0.934615
O O15 0.848449 0.500000 0.861597
O O16 0.971560 0.391122 0.824079
O O17 0.218193 0.000000 0.433002
O O18 0.150431 0.500000 0.832875
#
# Coordination Sequence:
#
# PCOD9132162 Si02
#       8
#     4   4   4   4   4   4   4   4
#     4  12  24  42  63  92 132 171 211 259 319 379
#     4  10  21  39  64  95 128 163 212 264 314 375
#     4  11  22  37  62  93 129 166 213 262 321 376
#     4  11  24  39  63  94 131 165 218 268 316 377
#     4  10  21  37  63  95 126 162 210 273 325 368
#     4  11  25  44  65  93 133 173 210 256 320 393
#     4  11  22  38  65  98 127 164 213 277 317 369
#     4  10  19  36  63  90 122 164 211 259 312 371
#
# _framework density 19.811667
#
# number of rings (size 3 to 8) (size 9 to 14) (size 15 to 20)
#    0.000    1.250    2.500    4.500    0.000    5.500 
#    0.000    1.250    0.000    1.500    0.000    0.000 
#    0.000    0.000    0.000    0.000    0.000    0.000 
#
# Total GULP energy -89376.009172 kJ/mol
# GULP energy per Si atom -5586.000573 kJ/mol
# Density = 1.976658 g / cm^3
# Si number density = 19.811667 Si / 1000 Ang^3
#
#
#
# Elastic Constant Matrix: (Units=GPa)
#
#
# Indices 1 2 3 4 5 6 
#
# 1 114.4187 56.4255 12.1880 -0.0013 21.4716 0.0027
# 2 56.4255 117.1263 35.0245 -0.0018 6.4550 0.0039
# 3 12.1880 35.0245 52.9480 -0.0081 11.1434 0.0156
# 4 -0.0013 -0.0018 -0.0081 41.0701 -0.0040 -40.8589
# 5 21.4716 6.4550 11.1434 -0.0040 25.0846 0.0079
# 6 0.0027 0.0039 0.0156 -40.8589 0.0079 141.1394
#
#
#
# Elastic Compliance Matrix: (Units=1/GPa)
#
#
# Indices 1 2 3 4 5 6 
#
# 1 0.014245 -0.007451 0.004206 0.000000 -0.012144 0.000000
# 2 -0.007451 0.014544 -0.009333 -0.000001 0.006781 0.000000
# 3 0.004206 -0.009333 0.026855 0.000002 -0.013128 -0.000001
# 4 0.000000 -0.000001 0.000002 0.034198 0.000001 0.009900
# 5 -0.012144 0.006781 -0.013128 0.000001 0.054347 -0.000001
# 6 0.000000 0.000000 -0.000001 0.009900 -0.000001 0.009951
#
#
# Mechanical properties :
#
#
# Convention : Reuss Voigt Hill
#
# Bulk Modulus (GPa) = 32.79996 54.64101 43.72049
# Shear Modulus (GPa) = 26.39075 53.51581 39.95328
#
# Velocity S-wave (km/s) = 3.65373 5.20297 4.49559
# Velocity P-wave (km/s) = 5.86442 7.98340 7.00450
#
# Compressibility (1/GPa) = 0.03048784
#
# Stress axis : x y z
#
# Youngs Moduli (GPa) = 70.19872 68.75478 37.23701
#
# Poissons Ratio (x) = 0.51229 -0.15660
# Poissons Ratio (y) = 0.52305 0.34753
# Poissons Ratio (z) = -0.29522 0.64169
#
# Static dielectric constant tensor:
#      x y z
#    x 1.713500 0.000000 -0.008050 
#    y 0.000000 1.585370 0.000000 
#    z -0.008050 0.000000 1.688650 
# 
# From -- ./inp_files/25601.got.cif
#   From: 2010.05.17/outbox.cif.g08.bks.cpg/sg8_13_cif.got.tgz:25601.got - 2010.06.03 19:46:02.
