data_PCOD9132097
_publ_section_title
;
Structure prediction by ZEFSAII (Michael W. Deem and Ramdas Pophale) SiO2 
 PCOD9132097
Probable space group: C M
;
_chemical_formula_sum "Si O2"
_cell_formula_units_Z 32
_cell_length_a 15.378312
_cell_length_b 8.563770
_cell_length_c 23.324519
_cell_angle_alpha 90.000000
_cell_angle_beta 31.772004
_cell_angle_gamma 90.000000
_cell_volume 1617.402478
_symmetry_space_group_name_H-M "C M"
_symmetry_group_IT_number 8
_symmetry_cell_setting 'monoclinic'
loop_
_space_group_symop_operation_xyz
x,y,z
x,-y,z
1/2+x,1/2+y,z
1/2+x,1/2-y,z
loop_
_atom_site_type_symbol
_atom_site_label
_atom_site_fract_x
_atom_site_fract_y
_atom_site_fract_z
Si Si1 0.662410 0.186753 0.767910
Si Si2 0.948867 0.688017 0.402831
Si Si3 0.316253 0.187693 0.357741
Si Si4 0.333223 0.315892 0.900715
Si Si5 0.307998 0.682840 0.165972
Si Si6 0.956558 0.811967 0.522115
Si Si7 0.105186 0.812009 0.926891
Si Si8 0.560722 0.319179 0.130911
O O1 0.506408 0.234515 0.816617
O O2 0.828502 0.239976 0.642453
O O3 0.642288 0.259883 0.841960
O O4 0.667003 0.000000 0.771276
O O5 0.958852 0.500000 0.403785
O O6 0.826583 0.722829 0.419246
O O7 0.902897 0.758493 0.489383
O O8 0.129434 0.749293 0.281371
O O9 0.472177 0.258927 0.237360
O O10 0.143289 0.244565 0.428792
O O11 0.325778 0.000000 0.345644
O O12 0.356101 0.500000 0.881994
O O13 0.239076 0.250325 0.897562
O O14 0.213871 0.279408 0.021739
O O15 0.279104 0.500000 0.168598
O O16 0.421592 0.691464 0.158974
O O17 0.424706 0.746955 0.050075
O O18 0.960640 0.000000 0.521379
O O19 0.104067 0.000000 0.931432
O O20 0.609858 0.500000 0.108395
#
# Coordination Sequence:
#
# PCOD9132097 Si02
#       8
#     4   4   4   4   4   4   4   4
#     4  11  24  42  62  87 124 167 212 257 304 361
#     4  10  20  36  59  87 118 157 200 242 295 361
#     4  10  21  36  58  88 119 156 198 245 301 359
#     4  11  23  40  62  90 122 160 207 257 311 366
#     4   8  16  32  55  84 120 154 188 238 293 353
#     4  10  23  42  59  84 123 159 199 253 300 350
#     4  10  21  39  62  92 127 161 203 250 307 369
#     4  10  19  35  59  88 123 158 195 246 305 365
#
# _framework density 19.784808999999999
#
# number of rings (size 3 to 8) (size 9 to 14) (size 15 to 20)
#    0.000    2.000    1.250    3.000    1.750    2.500 
#    0.000    1.875    0.000    0.000    0.000    0.000 
#    0.000    0.000    0.000    0.000    0.000    0.000 
#
# Total GULP energy -89353.693230 kJ/mol
# GULP energy per Si atom -5584.605827 kJ/mol
# Density = 1.973978 g / cm^3
# Si number density = 19.784809 Si / 1000 Ang^3
#
#
#
# Elastic Constant Matrix: (Units=GPa)
#
#
# Indices 1 2 3 4 5 6 
#
# 1 52.4645 7.1202 16.7600 0.0000 24.3425 0.0000
# 2 7.1202 28.9418 5.1436 0.0000 7.5781 0.0000
# 3 16.7600 5.1436 74.0285 -0.0002 24.6416 0.0000
# 4 0.0000 0.0000 -0.0002 25.1700 0.0000 5.9669
# 5 24.3425 7.5781 24.6416 0.0000 32.7511 0.0000
# 6 0.0000 0.0000 0.0000 5.9669 0.0000 28.6500
#
#
#
# Elastic Compliance Matrix: (Units=1/GPa)
#
#
# Indices 1 2 3 4 5 6 
#
# 1 0.029198 -0.001581 0.000802 0.000000 -0.021940 0.000000
# 2 -0.001581 0.036874 0.000327 0.000000 -0.007602 0.000000
# 3 0.000802 0.000327 0.018048 0.000000 -0.014251 0.000000
# 4 0.000000 0.000000 0.000000 0.041793 0.000000 -0.008704
# 5 -0.021940 -0.007602 -0.014251 0.000000 0.059321 0.000000
# 6 0.000000 0.000000 0.000000 -0.008704 0.000000 0.036717
#
#
# Mechanical properties :
#
#
# Convention : Reuss Voigt Hill
#
# Bulk Modulus (GPa) = 12.01709 23.72026 17.86867
# Shear Modulus (GPa) = 19.95258 25.74162 22.84710
#
# Velocity S-wave (km/s) = 3.17910 3.61096 3.40189
# Velocity P-wave (km/s) = 4.42297 5.42223 4.94789
#
# Compressibility (1/GPa) = 0.08321485
#
# Stress axis : x y z
#
# Youngs Moduli (GPa) = 34.24844 27.11966 55.40923
#
# Poissons Ratio (x) = 0.04288 -0.04446
# Poissons Ratio (y) = 0.05416 -0.01809
# Poissons Ratio (z) = -0.02748 -0.00886
#
# Static dielectric constant tensor:
#      x y z
#    x 1.685960 0.000000 -0.009370 
#    y 0.000000 1.677760 0.000000 
#    z -0.009370 0.000000 1.696480 
# 
# From -- ./inp_files/31979.got.cif
#   From: 2010.05.17/outbox.cif.g08.bks.cpg/sg8_16_cif.got.tgz:31979.got - 2010.06.03 19:46:02.
