data_PCOD9132220
_publ_section_title
;
Structure prediction by ZEFSAII (Michael W. Deem and Ramdas Pophale) SiO2 
 PCOD9132220
Probable space group: C M
;
_chemical_formula_sum "Si O2"
_cell_formula_units_Z 28
_cell_length_a 19.247497
_cell_length_b 9.215184
_cell_length_c 17.321766
_cell_angle_alpha 90.000000
_cell_angle_beta 23.527921
_cell_angle_gamma 90.000000
_cell_volume 1226.468872
_symmetry_space_group_name_H-M "C M"
_symmetry_group_IT_number 8
_symmetry_cell_setting 'monoclinic'
loop_
_space_group_symop_operation_xyz
x,y,z
x,-y,z
1/2+x,1/2+y,z
1/2+x,1/2-y,z
loop_
_atom_site_type_symbol
_atom_site_label
_atom_site_fract_x
_atom_site_fract_y
_atom_site_fract_z
Si Si1 0.302710 0.161104 0.192700
Si Si2 0.679459 0.828648 0.761478
Si Si3 0.311131 0.841271 0.893052
Si Si4 0.980281 0.159729 0.834600
Si Si5 0.519961 0.169569 0.394484
Si Si6 0.491742 0.170715 0.237143
Si Si7 0.659767 0.735359 0.501615
O O1 0.205513 0.277529 0.238335
O O2 0.211792 0.168661 0.367981
O O3 0.279227 0.000000 0.183333
O O4 0.510765 0.183814 0.988983
O O5 0.614046 0.722652 0.759602
O O6 0.868693 0.766247 0.588555
O O7 0.694866 0.000000 0.725522
O O8 0.361442 0.795317 0.929613
O O9 0.493478 0.839716 0.661201
O O10 0.232615 0.000000 0.969727
O O11 0.173147 0.717834 0.013358
O O12 0.079221 0.140956 0.652493
O O13 0.906663 0.000000 0.929281
O O14 0.505440 0.187113 0.316092
O O15 0.493210 0.000000 0.438448
O O16 0.343270 0.275530 0.353928
O O17 0.456782 0.000000 0.256764
#
# Coordination Sequence:
#
# PCOD9132220 Si02
#       7
#     4   4   4   4   4   4   4
#     4  11  25  44  66  96 132 173 217 267 328 387
#     4  11  23  40  66  98 133 171 215 269 327 384
#     4  10  23  38  59  94 132 164 206 267 329 381
#     4  10  19  38  67  92 123 169 216 265 315 374
#     4  11  24  42  65  96 134 174 217 264 321 390
#     4  11  22  39  68  97 123 169 225 267 316 385
#     4  10  24  43  69  93 129 168 220 269 322 381
#
# _framework density 22.829768999999999
#
# number of rings (size 3 to 8) (size 9 to 14) (size 15 to 20)
#    0.857    0.571    1.429    3.857    0.000    6.857 
#    0.000    0.000    0.000    0.000    0.000    0.000 
#    0.000    0.000    0.000    0.000    0.000    0.000 
#
# Total GULP energy -77944.154984 kJ/mol
# GULP energy per Si atom -5567.439642 kJ/mol
# Density = 2.277781 g / cm^3
# Si number density = 22.829769 Si / 1000 Ang^3
#
#
#
# Elastic Constant Matrix: (Units=GPa)
#
#
# Indices 1 2 3 4 5 6 
#
# 1 47.9855 13.5415 14.3496 -0.0002 3.1522 0.0001
# 2 13.5415 108.4791 46.1797 -0.0002 8.7361 0.0004
# 3 14.3496 46.1797 125.6180 -0.0004 -7.7455 0.0007
# 4 -0.0002 -0.0002 -0.0004 26.6813 0.0002 -1.0421
# 5 3.1522 8.7361 -7.7455 0.0002 36.7265 -0.0002
# 6 0.0001 0.0004 0.0007 -1.0421 -0.0002 85.7325
#
#
#
# Elastic Compliance Matrix: (Units=1/GPa)
#
#
# Indices 1 2 3 4 5 6 
#
# 1 0.022054 -0.001752 -0.001992 0.000000 -0.001896 0.000000
# 2 -0.001752 0.011529 -0.004253 0.000000 -0.003489 0.000000
# 3 -0.001992 -0.004253 0.009954 0.000000 0.003282 0.000000
# 4 0.000000 0.000000 0.000000 0.037497 0.000000 0.000456
# 5 -0.001896 -0.003489 0.003282 0.000000 0.028913 0.000000
# 6 0.000000 0.000000 0.000000 0.000456 0.000000 0.011670
#
#
# Mechanical properties :
#
#
# Convention : Reuss Voigt Hill
#
# Bulk Modulus (GPa) = 36.30797 47.80269 42.05533
# Shear Modulus (GPa) = 34.06159 43.69551 38.87855
#
# Velocity S-wave (km/s) = 3.86681 4.37964 4.13119
# Velocity P-wave (km/s) = 5.98954 6.82343 6.42004
#
# Compressibility (1/GPa) = 0.02754216
#
# Stress axis : x y z
#
# Youngs Moduli (GPa) = 45.34241 86.74061 100.46130
#
# Poissons Ratio (x) = 0.15200 0.20012
# Poissons Ratio (y) = 0.07945 0.42727
# Poissons Ratio (z) = 0.09032 0.36892
#
# Static dielectric constant tensor:
#      x y z
#    x 1.871660 0.000000 -0.018590 
#    y 0.000000 1.767590 0.000000 
#    z -0.018590 0.000000 1.962820 
# 
# From -- ./inp_files/31525.got.cif
#   From: 2010.05.17/outbox.cif.g08.bks.cpg/sg8_16_cif.got.tgz:31525.got - 2010.06.03 19:46:02.
