data_PCOD9132404
_publ_section_title
;
Structure prediction by ZEFSAII (Michael W. Deem and Ramdas Pophale) SiO2 
 PCOD9132404
Probable space group: C M
;
_chemical_formula_sum "Si O2"
_cell_formula_units_Z 32
_cell_length_a 16.259956
_cell_length_b 17.237156
_cell_length_c 4.892284
_cell_angle_alpha 90.000000
_cell_angle_beta 101.139663
_cell_angle_gamma 90.000000
_cell_volume 1345.352528
_symmetry_space_group_name_H-M "C M"
_symmetry_group_IT_number 8
_symmetry_cell_setting 'monoclinic'
loop_
_space_group_symop_operation_xyz
x,y,z
x,-y,z
1/2+x,1/2+y,z
1/2+x,1/2-y,z
loop_
_atom_site_type_symbol
_atom_site_label
_atom_site_fract_x
_atom_site_fract_y
_atom_site_fract_z
Si Si1 0.028070 0.585832 0.118680
Si Si2 0.713199 0.656417 0.336141
Si Si3 0.445607 0.412043 0.392929
Si Si4 0.375482 0.915658 0.360930
Si Si5 0.582384 0.176028 0.661791
Si Si6 0.056495 0.913028 0.970484
Si Si7 0.915544 0.245944 0.636604
Si Si8 0.254218 0.752384 0.872575
O O1 0.057152 0.500000 0.216491
O O2 0.064942 0.652283 0.338971
O O3 0.928234 0.588045 0.113691
O O4 0.054793 0.604292 0.831683
O O5 0.775834 0.588682 0.285222
O O6 0.622470 0.642925 0.154562
O O7 0.722938 0.674814 0.661743
O O8 0.748012 0.729646 0.187574
O O9 0.409764 0.500000 0.412705
O O10 0.471733 0.405335 0.094384
O O11 0.400765 0.333010 0.456337
O O12 0.529293 0.410238 0.638183
O O13 0.397184 0.833066 0.512067
O O14 0.398740 0.000000 0.498551
O O15 0.517622 0.243784 0.721853
O O16 0.680171 0.192394 0.761624
O O17 0.088584 0.000000 0.042111
O O18 0.849636 0.238390 0.842674
#
# Coordination Sequence:
#
# PCOD9132404 Si02
#       8
#     4   4   4   4   4   4   4   4
#     4  10  21  38  59  85 118 158 202 246 296 350
#     4  11  20  36  55  85 122 156 188 244 297 358
#     4  10  22  39  60  86 116 155 202 245 292 351
#     4   9  20  37  59  89 122 158 198 241 298 363
#     4  11  21  38  61  87 117 158 197 247 297 349
#     4  10  20  35  58  87 118 155 197 241 297 360
#     4  10  22  40  63  88 121 159 196 247 300 349
#     4  11  24  37  58  89 117 155 207 241 291 362
#
# _framework density 23.785585999999999
#
# number of rings (size 3 to 8) (size 9 to 14) (size 15 to 20)
#    0.000    1.750    0.000    4.500    0.000    5.500 
#    0.000    9.375    0.000    1.500    0.000    0.000 
#    0.000    0.000    0.000    0.000    0.000    0.000 
#
# Total GULP energy -89196.838475 kJ/mol
# GULP energy per Si atom -5574.802405 kJ/mol
# Density = 2.373145 g / cm^3
# Si number density = 23.785586 Si / 1000 Ang^3
#
#
#
# Elastic Constant Matrix: (Units=GPa)
#
#
# Indices 1 2 3 4 5 6 
#
# 1 45.3708 50.5257 7.7063 0.0000 -3.2326 0.0000
# 2 50.5257 128.3699 10.4420 0.0000 -2.8459 0.0000
# 3 7.7063 10.4420 68.8281 0.0000 -2.6310 0.0000
# 4 0.0000 0.0000 0.0000 27.1498 0.0000 5.4619
# 5 -3.2326 -2.8459 -2.6310 0.0000 30.0528 0.0000
# 6 0.0000 0.0000 0.0000 5.4619 0.0000 26.7232
#
#
#
# Elastic Compliance Matrix: (Units=1/GPa)
#
#
# Indices 1 2 3 4 5 6 
#
# 1 0.039742 -0.015420 -0.002009 0.000000 0.002639 0.000000
# 2 -0.015420 0.013883 -0.000394 0.000000 -0.000379 0.000000
# 3 -0.002009 -0.000394 0.014854 0.000000 0.001047 0.000000
# 4 0.000000 0.000000 0.000000 0.038412 0.000000 -0.007851
# 5 0.002639 -0.000379 0.001047 0.000000 0.033614 0.000000
# 6 0.000000 0.000000 0.000000 -0.007851 0.000000 0.039025
#
#
# Mechanical properties :
#
#
# Convention : Reuss Voigt Hill
#
# Bulk Modulus (GPa) = 30.45883 42.21296 36.33589
# Shear Modulus (GPa) = 22.11189 28.37815 25.24502
#
# Velocity S-wave (km/s) = 3.05230 3.45785 3.26138
# Velocity P-wave (km/s) = 5.02548 5.80759 5.43063
#
# Compressibility (1/GPa) = 0.03283121
#
# Stress axis : x y z
#
# Youngs Moduli (GPa) = 25.16207 72.03026 67.32306
#
# Poissons Ratio (x) = 1.11074 0.13528
# Poissons Ratio (y) = 0.38801 0.02654
# Poissons Ratio (z) = 0.05056 0.02839
#
# Static dielectric constant tensor:
#      x y z
#    x 2.014220 0.000000 0.038710 
#    y 0.000000 1.929430 0.000000 
#    z 0.038710 0.000000 1.873870 
# 
# From -- ./inp_files/4974.got.cif
#   From: 2010.05.17/outbox.cif.g08.bks.cpg/sg8_3_cif.got.tgz:4974.got - 2010.06.03 19:46:02.
