data_PCOD9132955
_publ_section_title
;
Structure prediction by ZEFSAII (Michael W. Deem and Ramdas Pophale) SiO2 
 PCOD9132955
Probable space group: C M
;
_chemical_formula_sum "Si O2"
_cell_formula_units_Z 28
_cell_length_a 27.009327
_cell_length_b 9.567512
_cell_length_c 7.787020
_cell_angle_alpha 90.000000
_cell_angle_beta 40.888611
_cell_angle_gamma 90.000000
_cell_volume 1317.206313
_symmetry_space_group_name_H-M "C M"
_symmetry_group_IT_number 8
_symmetry_cell_setting 'monoclinic'
loop_
_space_group_symop_operation_xyz
x,y,z
x,-y,z
1/2+x,1/2+y,z
1/2+x,1/2-y,z
loop_
_atom_site_type_symbol
_atom_site_label
_atom_site_fract_x
_atom_site_fract_y
_atom_site_fract_z
Si Si1 0.084630 0.659710 0.969980
Si Si2 0.684129 0.342465 0.243597
Si Si3 0.394354 0.656769 0.933872
Si Si4 0.236587 0.772489 0.468940
Si Si5 0.952323 0.839087 0.169610
Si Si6 0.545529 0.329947 0.402703
Si Si7 0.806216 0.662768 0.654433
O O1 0.060616 0.500000 0.061691
O O2 0.171269 0.660745 0.679867
O O3 0.082426 0.756450 0.143962
O O4 0.025085 0.742237 0.007456
O O5 0.683327 0.500000 0.176954
O O6 0.698588 0.350218 0.407485
O O7 0.601147 0.288060 0.412801
O O8 0.751797 0.280314 0.949773
O O9 0.378826 0.500000 0.913394
O O10 0.315092 0.726912 0.177167
O O11 0.434274 0.650413 0.015371
O O12 0.459222 0.722272 0.645978
O O13 0.261077 0.834329 0.589613
O O14 0.879426 0.761762 0.443004
O O15 0.962618 0.000000 0.205827
O O16 0.541060 0.500000 0.402924
O O17 0.828341 0.500000 0.628190
#
# Coordination Sequence:
#
# PCOD9132955 Si02
#       7
#     4   4   4   4   4   4   4
#     4  12  25  41  62  93 134 173 218 272 322 381
#     4  10  21  38  63  96 129 168 216 261 314 387
#     4   9  20  40  64  91 123 162 214 268 317 385
#     4  11  22  39  65  95 133 174 209 261 325 384
#     4  10  22  41  66  91 124 169 218 266 325 387
#     4  10  21  41  65  91 126 169 219 267 317 385
#     4  10  21  40  63  97 137 169 210 265 320 385
#
# _framework density 21.257110999999998
#
# number of rings (size 3 to 8) (size 9 to 14) (size 15 to 20)
#    0.000    1.714    1.429    2.571    2.000    3.429 
#    0.000    7.143    0.000    0.000    0.000    0.000 
#    0.000    0.000    0.000    0.000    0.000    0.000 
#
# Total GULP energy -77984.791906 kJ/mol
# GULP energy per Si atom -5570.342279 kJ/mol
# Density = 2.120873 g / cm^3
# Si number density = 21.257111 Si / 1000 Ang^3
#
#
#
# Elastic Constant Matrix: (Units=GPa)
#
#
# Indices 1 2 3 4 5 6 
#
# 1 86.1149 12.5777 9.1033 0.0000 -5.7111 0.0000
# 2 12.5777 73.8484 24.6963 0.0000 -14.1711 0.0000
# 3 9.1033 24.6963 107.3678 0.0000 -14.0701 0.0000
# 4 0.0000 0.0000 0.0000 14.4250 0.0000 7.2401
# 5 -5.7111 -14.1711 -14.0701 0.0000 34.5775 0.0000
# 6 0.0000 0.0000 0.0000 7.2401 0.0000 -10.9212
#
#
#
# Elastic Compliance Matrix: (Units=1/GPa)
#
#
# Indices 1 2 3 4 5 6 
#
# 1 0.011980 -0.001667 -0.000489 0.000000 0.001097 0.000000
# 2 -0.001667 0.015732 -0.002819 0.000000 0.005025 0.000000
# 3 -0.000489 -0.002819 0.010396 0.000000 0.002994 0.000000
# 4 0.000000 0.000000 0.000000 0.052016 0.000000 0.034484
# 5 0.001097 0.005025 0.002994 0.000000 0.032380 0.000000
# 6 0.000000 0.000000 0.000000 0.034484 0.000000 -0.068705
#
#
# Mechanical properties :
#
#
# Convention : Reuss Voigt Hill
#
# Bulk Modulus (GPa) = 35.51105 40.00953 37.76029
# Shear Modulus (GPa) = 68.36736 22.34652 45.35694
#
# Velocity S-wave (km/s) = 5.67732 3.24581 4.62424
# Velocity P-wave (km/s) = 7.72772 5.73669 6.80541
#
# Compressibility (1/GPa) = 0.02816025
#
# Stress axis : x y z
#
# Youngs Moduli (GPa) = 83.47105 63.56442 96.19110
#
# Poissons Ratio (x) = 0.10593 0.04701
# Poissons Ratio (y) = 0.13911 0.27114
# Poissons Ratio (z) = 0.04079 0.17917
#
# Static dielectric constant tensor:
#      x y z
#    x 1.801380 0.000000 -0.024880 
#    y 0.000000 1.776310 0.000000 
#    z -0.024880 0.000000 1.810900 
# 
# From -- ./inp_files/17709.got.cif
#   From: 2010.05.17/outbox.cif.g08.bks.cpg/sg8_9_cif.got.tgz:17709.got - 2010.06.03 19:46:02.
