data_PCOD9132521
_publ_section_title
;
Structure prediction by ZEFSAII (Michael W. Deem and Ramdas Pophale) SiO2 
 PCOD9132521
Probable space group: C M
;
_chemical_formula_sum "Si O2"
_cell_formula_units_Z 30
_cell_length_a 7.061605
_cell_length_b 13.823067
_cell_length_c 12.526594
_cell_angle_alpha 90.000000
_cell_angle_beta 112.339123
_cell_angle_gamma 90.000000
_cell_volume 1130.991343
_symmetry_space_group_name_H-M "C M"
_symmetry_group_IT_number 8
_symmetry_cell_setting 'monoclinic'
loop_
_space_group_symop_operation_xyz
x,y,z
x,-y,z
1/2+x,1/2+y,z
1/2+x,1/2-y,z
loop_
_atom_site_type_symbol
_atom_site_label
_atom_site_fract_x
_atom_site_fract_y
_atom_site_fract_z
Si Si1 0.419050 0.893268 0.522870
Si Si2 0.342675 0.674527 0.142773
Si Si3 0.866676 0.500000 0.168005
Si Si4 0.107999 0.344675 0.293641
Si Si5 0.603867 0.646284 0.005482
Si Si6 0.647855 0.672821 0.785504
Si Si7 0.487526 0.677073 0.515289
Si Si8 0.085685 0.392425 0.795993
O O1 0.484589 0.791331 0.485412
O O2 0.182636 0.874589 0.505957
O O3 0.542872 0.896262 0.660524
O O4 0.442114 0.000000 0.482337
O O5 0.224707 0.618304 0.210157
O O6 0.515113 0.739451 0.242682
O O7 0.448276 0.618910 0.067673
O O8 0.176011 0.745604 0.052215
O O9 0.917753 0.414415 0.265534
O O10 0.802357 0.583041 0.068272
O O11 0.280211 0.359351 0.418901
O O12 0.549914 0.629176 0.871031
O O13 0.510506 0.669141 0.648799
O O14 0.684959 0.785157 0.826408
O O15 0.862796 0.623680 0.803387
O O16 0.161573 0.500000 0.844799
#
# Coordination Sequence:
#
# PCOD9132521 Si02
#       8
#     4   4   2   4   4   4   4   4
#     4   9  19  36  59  90 130 173 211 249 315 394
#     4   9  20  38  64  81 121 165 205 259 321 371
#     4  10  24  38  62  92 120 164 224 264 320 384
#     4  10  20  39  61  91 120 164 211 266 318 387
#     4  10  20  39  61  92 122 163 210 267 319 386
#     4  10  20  36  63  95 129 166 207 266 330 387
#     4  10  20  36  64  93 130 166 207 268 325 389
#     4   9  19  36  58  90 130 174 209 249 316 392
#
# _framework density 26.525403000000001
#
# number of rings (size 3 to 8) (size 9 to 14) (size 15 to 20)
#    0.000    2.400    0.000    1.600    1.867    0.533 
#    0.000    1.333   29.333    8.000    0.000    0.000 
#    0.000    0.000    0.000    0.000    0.000    0.000 
#
# Total GULP energy -83575.060283 kJ/mol
# GULP energy per Si atom -5571.670686 kJ/mol
# Density = 2.646503 g / cm^3
# Si number density = 26.525403 Si / 1000 Ang^3
#
#
#
# Elastic Constant Matrix: (Units=GPa)
#
#
# Indices 1 2 3 4 5 6 
#
# 1 59.0791 -9.9649 22.8880 0.0000 -7.5258 0.0000
# 2 -9.9649 119.5503 11.6505 0.0000 1.4556 0.0000
# 3 22.8880 11.6505 127.9204 0.0000 -3.6158 0.0000
# 4 0.0000 0.0000 0.0000 34.3681 0.0000 15.4739
# 5 -7.5258 1.4556 -3.6158 0.0000 25.9018 0.0000
# 6 0.0000 0.0000 0.0000 15.4739 0.0000 -16.7492
#
#
#
# Elastic Compliance Matrix: (Units=1/GPa)
#
#
# Indices 1 2 3 4 5 6 
#
# 1 0.019224 0.001880 -0.003470 0.000000 0.004996 0.000000
# 2 0.001880 0.008632 -0.001125 0.000000 -0.000096 0.000000
# 3 -0.003470 -0.001125 0.008548 0.000000 0.000248 0.000000
# 4 0.000000 0.000000 0.000000 0.020549 0.000000 0.018985
# 5 0.004996 -0.000096 0.000248 0.000000 0.040099 0.000000
# 6 0.000000 0.000000 0.000000 0.018985 0.000000 -0.042165
#
#
# Mechanical properties :
#
#
# Convention : Reuss Voigt Hill
#
# Bulk Modulus (GPa) = 32.28562 39.52192 35.90377
# Shear Modulus (GPa) = 70.77994 27.50255 49.14125
#
# Velocity S-wave (km/s) = 5.17124 3.22349 4.30887
# Velocity P-wave (km/s) = 6.91764 5.36531 6.19032
#
# Compressibility (1/GPa) = 0.03097354
#
# Stress axis : x y z
#
# Youngs Moduli (GPa) = 52.01820 115.84558 116.99108
#
# Poissons Ratio (x) = -0.21775 0.40592
# Poissons Ratio (y) = -0.09778 0.13164
# Poissons Ratio (z) = 0.18048 0.13035
#
# Static dielectric constant tensor:
#      x y z
#    x 2.245180 0.000000 0.033740 
#    y 0.000000 1.951140 0.000000 
#    z 0.033740 0.000000 2.095980 
# 
# From -- ./inp_files/18896.got.cif
#   From: 2010.05.17/outbox.cif.g08.bks.cpg/sg8_10_cif.got.tgz:18896.got - 2010.06.03 19:46:02.
