data_PCOD9132566
_publ_section_title
;
Structure prediction by ZEFSAII (Michael W. Deem and Ramdas Pophale) SiO2 
 PCOD9132566
Probable space group: C M
;
_chemical_formula_sum "Si O2"
_cell_formula_units_Z 28
_cell_length_a 10.293326
_cell_length_b 10.043771
_cell_length_c 14.347484
_cell_angle_alpha 90.000000
_cell_angle_beta 106.708704
_cell_angle_gamma 90.000000
_cell_volume 1420.670990
_symmetry_space_group_name_H-M "C M"
_symmetry_group_IT_number 8
_symmetry_cell_setting 'monoclinic'
loop_
_space_group_symop_operation_xyz
x,y,z
x,-y,z
1/2+x,1/2+y,z
1/2+x,1/2-y,z
loop_
_atom_site_type_symbol
_atom_site_label
_atom_site_fract_x
_atom_site_fract_y
_atom_site_fract_z
Si Si1 0.933480 0.155072 0.337620
Si Si2 0.502518 0.345537 0.569604
Si Si3 0.758928 0.158786 0.666321
Si Si4 0.810046 0.646684 0.840748
Si Si5 0.194617 0.853983 0.001629
Si Si6 0.465200 0.225188 0.046448
Si Si7 0.120843 0.650531 0.258219
O O1 0.956883 0.166548 0.453102
O O2 0.777763 0.191143 0.284017
O O3 0.036940 0.249140 0.304968
O O4 0.953971 0.000000 0.315413
O O5 0.547985 0.500000 0.593656
O O6 0.622059 0.240240 0.613550
O O7 0.373593 0.324050 0.610508
O O8 0.811518 0.232747 0.770208
O O9 0.735958 0.000000 0.673702
O O10 0.808205 0.500000 0.796311
O O11 0.682552 0.658011 0.886909
O O12 0.932278 0.653358 0.941173
O O13 0.312759 0.749480 0.051801
O O14 0.060022 0.843150 0.032089
O O15 0.255670 0.000000 0.031344
O O16 0.549269 0.152691 0.142929
O O17 0.117778 0.500000 0.295940
#
# Coordination Sequence:
#
# PCOD9132566 Si02
#       7
#     4   4   4   4   4   4   4
#     4  10  23  41  63  90 120 157 203 250 304 362
#     4  10  23  44  63  86 123 159 196 253 309 360
#     4  11  24  40  64  94 120 156 204 249 303 363
#     4   9  21  40  60  87 126 165 201 246 297 354
#     4   9  20  37  55  80 120 161 201 246 291 341
#     4  10  20  37  60  87 121 165 202 239 294 352
#     4  11  22  39  63  92 125 161 200 249 301 354
#
# _framework density 19.708998999999999
#
# number of rings (size 3 to 8) (size 9 to 14) (size 15 to 20)
#    0.857    1.143    0.000    3.000    2.000    4.571 
#    0.000    3.571    0.000    0.000    0.000    0.000 
#    0.000    0.000    0.000    0.000    0.000    0.000 
#
# Total GULP energy -77944.797300 kJ/mol
# GULP energy per Si atom -5567.485521 kJ/mol
# Density = 1.966414 g / cm^3
# Si number density = 19.708999 Si / 1000 Ang^3
#
#
#
# Elastic Constant Matrix: (Units=GPa)
#
#
# Indices 1 2 3 4 5 6 
#
# 1 95.5521 68.6685 18.1710 0.0000 -5.3244 0.0000
# 2 68.6685 108.7543 31.3235 0.0000 -7.7735 0.0000
# 3 18.1710 31.3235 66.2044 0.0000 3.6761 0.0000
# 4 0.0000 0.0000 0.0000 20.8313 0.0000 -0.4945
# 5 -5.3244 -7.7735 3.6761 0.0000 25.8622 0.0000
# 6 0.0000 0.0000 0.0000 -0.4945 0.0000 32.5665
#
#
#
# Elastic Compliance Matrix: (Units=1/GPa)
#
#
# Indices 1 2 3 4 5 6 
#
# 1 0.019177 -0.012244 0.000519 0.000000 0.000194 0.000000
# 2 -0.012244 0.018879 -0.005792 0.000000 0.003977 0.000000
# 3 0.000519 -0.005792 0.017935 0.000000 -0.004184 0.000000
# 4 0.000000 0.000000 0.000000 0.048022 0.000000 0.000729
# 5 0.000194 0.003977 -0.004184 0.000000 0.040497 0.000000
# 6 0.000000 0.000000 0.000000 0.000729 0.000000 0.030717
#
#
# Mechanical properties :
#
#
# Convention : Reuss Voigt Hill
#
# Bulk Modulus (GPa) = 47.71994 56.31520 52.01757
# Shear Modulus (GPa) = 23.01532 26.00851 24.51191
#
# Velocity S-wave (km/s) = 3.42095 3.63661 3.53043
# Velocity P-wave (km/s) = 6.31417 6.80210 6.56267
#
# Compressibility (1/GPa) = 0.02095560
#
# Stress axis : x y z
#
# Youngs Moduli (GPa) = 52.14644 52.97013 55.75632
#
# Poissons Ratio (x) = 0.64856 -0.02893
# Poissons Ratio (y) = 0.63848 0.32296
# Poissons Ratio (z) = -0.02706 0.30682
#
# Static dielectric constant tensor:
#      x y z
#    x 1.713900 0.000000 0.009720 
#    y 0.000000 1.678690 0.000000 
#    z 0.009720 0.000000 1.707200 
# 
# From -- ./inp_files/25178.got.cif
#   From: 2010.05.17/outbox.cif.g08.bks.cpg/sg8_13_cif.got.tgz:25178.got - 2010.06.03 19:46:02.
