data_PCOD9132415
_publ_section_title
;
Structure prediction by ZEFSAII (Michael W. Deem and Ramdas Pophale) SiO2 
 PCOD9132415
Probable space group: C M
;
_chemical_formula_sum "Si O2"
_cell_formula_units_Z 24
_cell_length_a 14.627353
_cell_length_b 11.139426
_cell_length_c 10.590618
_cell_angle_alpha 90.000000
_cell_angle_beta 42.045121
_cell_angle_gamma 90.000000
_cell_volume 1155.687178
_symmetry_space_group_name_H-M "C M"
_symmetry_group_IT_number 8
_symmetry_cell_setting 'monoclinic'
loop_
_space_group_symop_operation_xyz
x,y,z
x,-y,z
1/2+x,1/2+y,z
1/2+x,1/2-y,z
loop_
_atom_site_type_symbol
_atom_site_label
_atom_site_fract_x
_atom_site_fract_y
_atom_site_fract_z
Si Si1 0.842440 0.138744 0.907850
Si Si2 0.571861 0.763338 0.532212
Si Si3 0.135511 0.205706 0.977202
Si Si4 0.869322 0.629201 0.557210
Si Si5 0.005066 0.868513 0.359274
Si Si6 0.346431 0.358342 0.195292
O O1 0.074734 0.157821 0.423028
O O2 0.873600 0.000000 0.855181
O O3 0.724232 0.180941 0.933147
O O4 0.800759 0.153404 0.096086
O O5 0.485116 0.864955 0.547683
O O6 0.720664 0.811603 0.406344
O O7 0.977392 0.784152 0.740781
O O8 0.109948 0.136640 0.135569
O O9 0.227384 0.142536 0.776924
O O10 0.876583 0.500000 0.483223
O O11 0.905856 0.752318 0.446715
O O12 0.983947 0.784202 0.077579
O O13 0.939165 0.000000 0.429085
O O14 0.375105 0.500000 0.188627
#
# Coordination Sequence:
#
# PCOD9132415 Si02
#       6
#     4   4   4   4   4   4
#     4  10  21  42  64  85 121 166 204 251 304 366
#     4   9  20  34  62  84 118 155 202 243 302 356
#     4  11  22  37  63  90 121 160 203 253 304 365
#     4   9  19  35  58  87 116 159 206 243 295 367
#     4  10  20  35  59  88 119 155 195 249 307 354
#     4  11  22  39  62  90 120 159 209 251 301 368
#
# _framework density 20.766864000000002
#
# number of rings (size 3 to 8) (size 9 to 14) (size 15 to 20)
#    1.000    1.000    1.667    2.500    0.000    2.000 
#    0.000    1.667    0.000    0.000    0.000    0.000 
#    0.000    0.000    0.000    0.000    0.000    0.000 
#
# Total GULP energy -66820.211797 kJ/mol
# GULP energy per Si atom -5568.350983 kJ/mol
# Density = 2.071960 g / cm^3
# Si number density = 20.766864 Si / 1000 Ang^3
#
#
#
# Elastic Constant Matrix: (Units=GPa)
#
#
# Indices 1 2 3 4 5 6 
#
# 1 52.0462 7.2634 5.9392 0.0000 -21.8959 0.0000
# 2 7.2634 122.4129 43.8922 0.0000 -2.1067 0.0000
# 3 5.9392 43.8922 98.0526 0.0000 -27.6750 0.0000
# 4 0.0000 0.0000 0.0000 15.6384 0.0000 5.6084
# 5 -21.8959 -2.1067 -27.6750 0.0000 38.1206 0.0000
# 6 0.0000 0.0000 0.0000 5.6084 0.0000 3.4374
#
#
#
# Elastic Compliance Matrix: (Units=1/GPa)
#
#
# Indices 1 2 3 4 5 6 
#
# 1 0.027119 -0.003132 0.005165 0.000000 0.019154 0.000000
# 2 -0.003132 0.010434 -0.006070 0.000000 -0.005629 0.000000
# 3 0.005165 -0.006070 0.016785 0.000000 0.014817 0.000000
# 4 0.000000 0.000000 0.000000 0.154135 0.000000 -0.251485
# 5 0.019154 -0.005629 0.014817 0.000000 0.047680 0.000000
# 6 0.000000 0.000000 0.000000 -0.251485 0.000000 0.701236
#
#
# Mechanical properties :
#
#
# Convention : Reuss Voigt Hill
#
# Bulk Modulus (GPa) = 21.61404 42.96680 32.29042
# Shear Modulus (GPa) = 5.09744 25.80040 15.44892
#
# Velocity S-wave (km/s) = 1.56842 3.52857 2.73045
# Velocity P-wave (km/s) = 3.70276 6.11032 5.05205
#
# Compressibility (1/GPa) = 0.04626623
#
# Stress axis : x y z
#
# Youngs Moduli (GPa) = 36.87409 95.83684 59.57757
#
# Poissons Ratio (x) = 0.30011 -0.30773
# Poissons Ratio (y) = 0.11547 0.36163
# Poissons Ratio (z) = -0.19046 0.58171
#
# Static dielectric constant tensor:
#      x y z
#    x 1.751720 0.000000 0.000860 
#    y 0.000000 1.761210 0.000000 
#    z 0.000860 0.000000 1.753940 
# 
# From -- ./inp_files/23152.got.cif
#   From: 2010.05.17/outbox.cif.g08.bks.cpg/sg8_12_cif.got.tgz:23152.got - 2010.06.03 19:46:02.
