data_PCOD9132520
_publ_section_title
;
Structure prediction by ZEFSAII (Michael W. Deem and Ramdas Pophale) SiO2 
 PCOD9132520
Probable space group: C M
;
_chemical_formula_sum "Si O2"
_cell_formula_units_Z 28
_cell_length_a 12.365905
_cell_length_b 18.787952
_cell_length_c 5.083331
_cell_angle_alpha 90.000000
_cell_angle_beta 94.590317
_cell_angle_gamma 90.000000
_cell_volume 1177.222254
_symmetry_space_group_name_H-M "C M"
_symmetry_group_IT_number 8
_symmetry_cell_setting 'monoclinic'
loop_
_space_group_symop_operation_xyz
x,y,z
x,-y,z
1/2+x,1/2+y,z
1/2+x,1/2-y,z
loop_
_atom_site_type_symbol
_atom_site_label
_atom_site_fract_x
_atom_site_fract_y
_atom_site_fract_z
Si Si1 0.167350 0.628351 0.278870
Si Si2 0.037004 0.859529 0.997899
Si Si3 0.809307 0.138580 0.788395
Si Si4 0.338353 0.192598 0.699815
Si Si5 0.963814 0.424253 0.494317
Si Si6 0.264788 0.923884 0.082080
Si Si7 0.110113 0.783581 0.485657
O O1 0.258825 0.608074 0.511596
O O2 0.130550 0.705650 0.376622
O O3 0.058976 0.582845 0.298302
O O4 0.220493 0.630963 0.002587
O O5 0.136108 0.912542 0.074829
O O6 0.075302 0.804231 0.775168
O O7 0.924565 0.893967 0.890049
O O8 0.024331 0.818367 0.270755
O O9 0.837769 0.223357 0.760314
O O10 0.448386 0.152646 0.632637
O O11 0.307453 0.145165 0.941503
O O12 0.232711 0.185160 0.490718
O O13 0.985328 0.500000 0.641847
O O14 0.845624 0.430209 0.341785
O O15 0.278904 0.000000 0.939179
#
# Coordination Sequence:
#
# PCOD9132520 Si02
#       7
#     4   4   4   4   4   4   4
#     4  11  24  42  60  96 131 172 213 260 317 396
#     4  11  21  40  62  91 122 161 210 266 317 380
#     4  11  25  40  68  94 130 165 215 265 331 377
#     4  10  21  38  64  97 128 164 212 274 328 388
#     4  11  24  41  66  94 133 179 218 266 320 395
#     4  10  22  39  61  92 125 167 215 267 323 381
#     4  10  20  36  63  92 124 158 203 266 330 369
#
# _framework density 23.784806
#
# number of rings (size 3 to 8) (size 9 to 14) (size 15 to 20)
#    0.000    1.429    1.429    4.714    6.000    0.000 
#    0.000    1.429    0.000    0.000    0.000    0.000 
#    0.000    0.000    0.000    0.000    0.000    0.000 
#
# Total GULP energy -78045.863267 kJ/mol
# GULP energy per Si atom -5574.704519 kJ/mol
# Density = 2.373067 g / cm^3
# Si number density = 23.784806 Si / 1000 Ang^3
#
#
#
# Elastic Constant Matrix: (Units=GPa)
#
#
# Indices 1 2 3 4 5 6 
#
# 1 104.5731 12.3642 -1.8777 0.0000 -10.8732 0.0000
# 2 12.3642 49.5150 0.7248 0.0000 -7.0547 0.0000
# 3 -1.8777 0.7248 72.0055 0.0000 1.3477 0.0000
# 4 0.0000 0.0000 0.0000 13.0769 0.0000 0.6737
# 5 -10.8732 -7.0547 1.3477 0.0000 37.0232 0.0000
# 6 0.0000 0.0000 0.0000 0.6737 0.0000 -9.9079
#
#
#
# Elastic Compliance Matrix: (Units=1/GPa)
#
#
# Indices 1 2 3 4 5 6 
#
# 1 0.010087 -0.002160 0.000237 0.000000 0.002542 0.000000
# 2 -0.002160 0.021228 -0.000334 0.000000 0.003423 0.000000
# 3 0.000237 -0.000334 0.013907 0.000000 -0.000500 0.000000
# 4 0.000000 0.000000 0.000000 0.076204 0.000000 0.005181
# 5 0.002542 0.003423 -0.000500 0.000000 0.028427 0.000000
# 6 0.000000 0.000000 0.000000 0.005181 0.000000 -0.100577
#
#
# Mechanical properties :
#
#
# Convention : Reuss Voigt Hill
#
# Bulk Modulus (GPa) = 24.56550 27.61291 26.08921
# Shear Modulus (GPa) = 74.23020 22.36393 48.29707
#
# Velocity S-wave (km/s) = 5.59257 3.06969 4.51109
# Velocity P-wave (km/s) = 7.21478 4.91922 6.17462
#
# Compressibility (1/GPa) = 0.04070750
#
# Stress axis : x y z
#
# Youngs Moduli (GPa) = 99.14095 47.10801 71.90762
#
# Poissons Ratio (x) = 0.10175 -0.01706
# Poissons Ratio (y) = 0.21414 0.02402
# Poissons Ratio (z) = -0.02352 0.01574
#
# Static dielectric constant tensor:
#      x y z
#    x 1.943070 0.000000 0.000820 
#    y 0.000000 2.013570 0.000000 
#    z 0.000820 0.000000 1.933510 
# 
# From -- ./inp_files/2839.got.cif
#   From: 2010.05.17/outbox.cif.g08.bks.cpg/sg8_2_cif.got.tgz:2839.got - 2010.06.03 19:46:02.
