data_PCOD9132503
_publ_section_title
;
Structure prediction by ZEFSAII (Michael W. Deem and Ramdas Pophale) SiO2 
 PCOD9132503
Probable space group: C M
;
_chemical_formula_sum "Si O2"
_cell_formula_units_Z 28
_cell_length_a 9.632076
_cell_length_b 15.995163
_cell_length_c 9.566092
_cell_angle_alpha 90.000000
_cell_angle_beta 44.851057
_cell_angle_gamma 90.000000
_cell_volume 1039.432323
_symmetry_space_group_name_H-M "C M"
_symmetry_group_IT_number 8
_symmetry_cell_setting 'monoclinic'
loop_
_space_group_symop_operation_xyz
x,y,z
x,-y,z
1/2+x,1/2+y,z
1/2+x,1/2-y,z
loop_
_atom_site_type_symbol
_atom_site_label
_atom_site_fract_x
_atom_site_fract_y
_atom_site_fract_z
Si Si1 0.395670 0.410655 0.663660
Si Si2 0.481134 0.096829 0.537159
Si Si3 0.328112 0.909620 0.205895
Si Si4 0.561751 0.593448 0.165030
Si Si5 0.100567 0.296374 0.714845
Si Si6 0.447843 0.219624 0.322927
Si Si7 0.518661 0.628990 0.875669
O O1 0.306960 0.500000 0.685950
O O2 0.612290 0.407589 0.436208
O O3 0.260061 0.337726 0.702295
O O4 0.408346 0.407896 0.821537
O O5 0.525291 0.136536 0.656843
O O6 0.551670 0.162915 0.367991
O O7 0.245907 0.100958 0.691246
O O8 0.543651 0.000000 0.477345
O O9 0.283661 0.907759 0.072010
O O10 0.451527 0.834878 0.180891
O O11 0.414945 0.000000 0.180739
O O12 0.489143 0.500000 0.261176
O O13 0.504554 0.684324 0.264446
O O14 0.498321 0.600228 0.049664
O O15 0.221271 0.231622 0.530419
O O16 0.975710 0.228838 0.891070
#
# Coordination Sequence:
#
# PCOD9132503 Si02
#       7
#     4   4   4   4   4   4   4
#     4  11  20  37  62  89 120 163 209 253 307 381
#     4  11  22  39  65  99 130 162 209 266 317 374
#     4  10  20  36  61  90 121 161 209 257 312 381
#     4  11  24  41  61  91 127 170 215 262 315 379
#     4  11  22  36  61  93 127 161 207 261 314 367
#     4  11  21  37  63  90 126 161 212 260 315 375
#     4  11  23  40  64  90 125 168 214 257 311 375
#
# _framework density 26.937781999999999
#
# number of rings (size 3 to 8) (size 9 to 14) (size 15 to 20)
#    0.000    1.143    4.286    4.714    0.000    2.857 
#    0.000    0.000    0.000    2.571    0.000    0.000 
#    0.000    0.000    0.000    0.000    0.000    0.000 
#
# Total GULP energy -78208.241333 kJ/mol
# GULP energy per Si atom -5586.302952 kJ/mol
# Density = 2.687647 g / cm^3
# Si number density = 26.937782 Si / 1000 Ang^3
#
#
#
# Elastic Constant Matrix: (Units=GPa)
#
#
# Indices 1 2 3 4 5 6 
#
# 1 102.6667 52.6982 47.4883 0.0000 44.1510 0.0000
# 2 52.6982 259.0574 70.5312 0.0000 34.6955 0.0000
# 3 47.4883 70.5312 106.0539 0.0000 46.5655 0.0000
# 4 0.0000 0.0000 0.0000 27.6408 0.0000 19.0698
# 5 44.1510 34.6955 46.5655 0.0000 54.0849 0.0000
# 6 0.0000 0.0000 0.0000 19.0698 0.0000 52.7008
#
#
#
# Elastic Compliance Matrix: (Units=1/GPa)
#
#
# Indices 1 2 3 4 5 6 
#
# 1 0.015713 -0.001375 -0.001409 0.000000 -0.010731 0.000000
# 2 -0.001375 0.004843 -0.002788 0.000000 0.000416 0.000000
# 3 -0.001409 -0.002788 0.017081 0.000000 -0.011767 0.000000
# 4 0.000000 0.000000 0.000000 0.048215 0.000000 -0.017447
# 5 -0.010731 0.000416 -0.011767 0.000000 0.037114 0.000000
# 6 0.000000 0.000000 0.000000 -0.017447 0.000000 0.025288
#
#
# Mechanical properties :
#
#
# Convention : Reuss Voigt Hill
#
# Bulk Modulus (GPa) = 37.74722 89.91259 63.82991
# Shear Modulus (GPa) = 29.72114 46.68933 38.20523
#
# Velocity S-wave (km/s) = 3.32524 4.16772 3.77009
# Velocity P-wave (km/s) = 5.36527 7.52398 6.53438
#
# Compressibility (1/GPa) = 0.02649202
#
# Stress axis : x y z
#
# Youngs Moduli (GPa) = 63.64147 206.47402 58.54455
#
# Poissons Ratio (x) = 0.28399 0.08251
# Poissons Ratio (y) = 0.08754 0.16321
# Poissons Ratio (z) = 0.08970 0.57561
#
# Static dielectric constant tensor:
#      x y z
#    x 2.088340 0.000000 -0.072560 
#    y 0.000000 2.075160 0.000000 
#    z -0.072560 0.000000 2.287120 
# 
# From -- ./inp_files/10703.got.cif
#   From: 2010.05.17/outbox.cif.g08.bks.cpg/sg8_6_cif.got.tgz:10703.got - 2010.06.03 19:46:02.
