data_PCOD9132190
_publ_section_title
;
Structure prediction by ZEFSAII (Michael W. Deem and Ramdas Pophale) SiO2 
 PCOD9132190
Probable space group: C M
;
_chemical_formula_sum "Si O2"
_cell_formula_units_Z 32
_cell_length_a 8.120870
_cell_length_b 16.315510
_cell_length_c 10.796703
_cell_angle_alpha 90.000000
_cell_angle_beta 62.942275
_cell_angle_gamma 90.000000
_cell_volume 1273.948968
_symmetry_space_group_name_H-M "C M"
_symmetry_group_IT_number 8
_symmetry_cell_setting 'monoclinic'
loop_
_space_group_symop_operation_xyz
x,y,z
x,-y,z
1/2+x,1/2+y,z
1/2+x,1/2-y,z
loop_
_atom_site_type_symbol
_atom_site_label
_atom_site_fract_x
_atom_site_fract_y
_atom_site_fract_z
Si Si1 0.443300 0.903788 0.837400
Si Si2 0.864802 0.095490 0.916856
Si Si3 0.284320 0.400293 0.576592
Si Si4 0.708918 0.596557 0.661749
Si Si5 0.535588 0.825665 0.158568
Si Si6 0.643268 0.407114 0.333243
Si Si7 0.584082 0.638050 0.089962
Si Si8 0.061619 0.599338 0.402776
O O1 0.648566 0.872128 0.733162
O O2 0.332846 0.899916 0.744296
O O3 0.454623 0.000000 0.867811
O O4 0.303042 0.862416 0.980219
O O5 0.977447 0.102472 0.008132
O O6 0.667005 0.135145 0.009225
O O7 0.836844 0.000000 0.898698
O O8 0.008545 0.131945 0.766501
O O9 0.290321 0.500000 0.584446
O O10 0.494511 0.372901 0.482296
O O11 0.180810 0.381618 0.483143
O O12 0.677387 0.500000 0.648625
O O13 0.329751 0.859242 0.243446
O O14 0.530695 0.730572 0.135012
O O15 0.623048 0.852551 0.260545
O O16 0.690267 0.500000 0.352463
O O17 0.850037 0.374606 0.508434
O O18 0.549964 0.409549 0.228869
O O19 0.067392 0.500000 0.382186
#
# Coordination Sequence:
#
# PCOD9132190 Si02
#       8
#     4   4   4   4   4   4   4   4
#     4   8  14  31  59  88 108 136 189 247 284 325
#     4  10  19  37  62  83 103 145 199 238 273 332
#     4   8  16  32  60  89 109 137 193 248 282 326
#     4   7  13  27  54  84 104 130 189 249 277 313
#     4  12  24  35  51  84 125 154 180 228 285 335
#     4  11  22  37  55  82 117 154 190 230 277 335
#     4  11  22  37  57  82 114 152 189 230 280 337
#     4   9  16  32  56  82 110 148 191 234 280 335
#
# _framework density 25.118745000000001
#
# number of rings (size 3 to 8) (size 9 to 14) (size 15 to 20)
#    0.000    2.500    0.000    6.000    0.000    1.000 
#    0.000    2.500    0.000    6.000    0.000    0.000 
#    0.000    0.000    0.000    0.000    0.000    0.000 
#
# Total GULP energy -89511.118794 kJ/mol
# GULP energy per Si atom -5594.444925 kJ/mol
# Density = 2.506157 g / cm^3
# Si number density = 25.118745 Si / 1000 Ang^3
#
#
#
# Elastic Constant Matrix: (Units=GPa)
#
#
# Indices 1 2 3 4 5 6 
#
# 1 168.3860 31.4511 50.6618 0.0000 -52.3081 0.0000
# 2 31.4511 61.7788 22.1500 0.0000 -20.5693 0.0000
# 3 50.6618 22.1500 155.0667 0.0000 -39.0706 0.0000
# 4 0.0000 0.0000 0.0000 -58.0059 0.0000 28.5523
# 5 -52.3081 -20.5693 -39.0706 0.0000 66.8298 0.0000
# 6 0.0000 0.0000 0.0000 28.5523 0.0000 1.8317
#
#
#
# Elastic Compliance Matrix: (Units=1/GPa)
#
#
# Indices 1 2 3 4 5 6 
#
# 1 0.008271 -0.002090 -0.001096 0.000000 0.005190 0.000000
# 2 -0.002090 0.018819 -0.001124 0.000000 0.003500 0.000000
# 3 -0.001096 -0.001124 0.007815 0.000000 0.003365 0.000000
# 4 0.000000 0.000000 0.000000 -0.001988 0.000000 0.030985
# 5 0.005190 0.003500 0.003365 0.000000 0.022070 0.000000
# 6 0.000000 0.000000 0.000000 0.030985 0.000000 0.062948
#
#
# Mechanical properties :
#
#
# Convention : Reuss Voigt Hill
#
# Bulk Modulus (GPa) = 38.04284 65.97304 52.00794
# Shear Modulus (GPa) = 36.95036 20.86235 28.90635
#
# Velocity S-wave (km/s) = 3.83956 2.88505 3.39601
# Velocity P-wave (km/s) = 5.90206 6.11715 6.01057
#
# Compressibility (1/GPa) = 0.02628616
#
# Stress axis : x y z
#
# Youngs Moduli (GPa) = 120.90412 53.13857 127.95297
#
# Poissons Ratio (x) = 0.11105 0.14025
# Poissons Ratio (y) = 0.25266 0.14377
# Poissons Ratio (z) = 0.13252 0.05971
#
# Static dielectric constant tensor:
#      x y z
#    x 2.100850 0.000000 0.036520 
#    y 0.000000 1.863980 0.000000 
#    z 0.036520 0.000000 1.992260 
# 
# From -- ./inp_files/19012.got.cif
#   From: 2010.05.17/outbox.cif.g08.bks.cpg/sg8_10_cif.got.tgz:19012.got - 2010.06.03 19:46:02.
