data_PCOD9132658
_publ_section_title
;
Structure prediction by ZEFSAII (Michael W. Deem and Ramdas Pophale) SiO2 
 PCOD9132658
Probable space group: C M
;
_chemical_formula_sum "Si O2"
_cell_formula_units_Z 32
_cell_length_a 25.384759
_cell_length_b 8.798935
_cell_length_c 16.920267
_cell_angle_alpha 90.000000
_cell_angle_beta 155.062031
_cell_angle_gamma 90.000000
_cell_volume 1593.488300
_symmetry_space_group_name_H-M "C M"
_symmetry_group_IT_number 8
_symmetry_cell_setting 'monoclinic'
loop_
_space_group_symop_operation_xyz
x,y,z
x,-y,z
1/2+x,1/2+y,z
1/2+x,1/2-y,z
loop_
_atom_site_type_symbol
_atom_site_label
_atom_site_fract_x
_atom_site_fract_y
_atom_site_fract_z
Si Si1 0.614670 0.823798 0.473890
Si Si2 0.234798 0.820295 0.899475
Si Si3 0.768381 0.320101 0.372181
Si Si4 0.509905 0.818746 0.985736
Si Si5 0.297243 0.317219 0.584916
Si Si6 0.377782 0.678784 0.230856
Si Si7 0.469153 0.178304 0.511580
Si Si8 0.857895 0.823087 0.918063
O O1 0.675948 0.779163 0.473707
O O2 0.504223 0.719547 0.354777
O O3 0.729397 0.818506 0.692133
O O4 0.571556 0.000000 0.411386
O O5 0.095915 0.773763 0.685038
O O6 0.329217 0.758047 0.961249
O O7 0.246793 0.000000 0.922894
O O8 0.266845 0.738983 0.025152
O O9 0.744848 0.500000 0.347739
O O10 0.786182 0.247733 0.482460
O O11 0.890055 0.299353 0.483397
O O12 0.649863 0.242619 0.169172
O O13 0.416854 0.749762 0.793660
O O14 0.458769 0.760678 0.000993
O O15 0.506044 0.000000 0.977248
O O16 0.306480 0.500000 0.596664
O O17 0.368472 0.500000 0.231648
O O18 0.388200 0.767970 0.326990
O O19 0.500528 0.000000 0.545536
O O20 0.890772 0.000000 0.974196
#
# Coordination Sequence:
#
# PCOD9132658 Si02
#       8
#     4   4   4   4   4   4   4   4
#     4   9  19  37  62  91 130 168 205 258 318 378
#     4  12  25  41  65  95 128 168 213 262 320 383
#     4  11  25  44  68  94 126 171 218 265 319 380
#     4  11  23  40  64  95 132 170 212 262 316 378
#     4  10  22  41  65  94 130 169 211 264 320 377
#     4  12  25  40  64  95 128 169 213 263 319 380
#     4  11  25  47  68  91 128 169 215 270 321 378
#     4  10  20  38  64  93 132 170 207 260 319 380
#
# _framework density 20.081727999999998
#
# number of rings (size 3 to 8) (size 9 to 14) (size 15 to 20)
#    0.000    1.250    1.250    5.625    1.750    5.500 
#    0.000    0.000    0.000    0.000    0.000    0.000 
#    0.000    0.000    0.000    0.000    0.000    0.000 
#
# Total GULP energy -89535.483687 kJ/mol
# GULP energy per Si atom -5595.967730 kJ/mol
# Density = 2.003602 g / cm^3
# Si number density = 20.081728 Si / 1000 Ang^3
#
#
#
# Elastic Constant Matrix: (Units=GPa)
#
#
# Indices 1 2 3 4 5 6 
#
# 1 67.6811 26.5065 7.6913 0.0000 -15.7713 0.0000
# 2 26.5065 91.3416 -2.2160 0.0000 4.5234 0.0000
# 3 7.6913 -2.2160 33.7814 0.0000 -9.5278 0.0000
# 4 0.0000 0.0000 0.0000 33.9498 0.0000 -4.1291
# 5 -15.7713 4.5234 -9.5278 0.0000 28.1211 0.0000
# 6 0.0000 0.0000 0.0000 -4.1291 0.0000 29.9691
#
#
#
# Elastic Compliance Matrix: (Units=1/GPa)
#
#
# Indices 1 2 3 4 5 6 
#
# 1 0.020279 -0.006513 -0.001704 0.000000 0.011844 0.000000
# 2 -0.006513 0.013129 0.000794 0.000000 -0.005495 0.000000
# 3 -0.001704 0.000794 0.032878 0.000000 0.010056 0.000000
# 4 0.000000 0.000000 0.000000 0.029957 0.000000 0.004128
# 5 0.011844 -0.005495 0.010056 0.000000 0.046494 0.000000
# 6 0.000000 0.000000 0.000000 0.004128 0.000000 0.033936
#
#
# Mechanical properties :
#
#
# Convention : Reuss Voigt Hill
#
# Bulk Modulus (GPa) = 19.43943 28.52974 23.98459
# Shear Modulus (GPa) = 23.96163 29.12948 26.54555
#
# Velocity S-wave (km/s) = 3.45803 3.81274 3.63971
# Velocity P-wave (km/s) = 5.06410 5.79830 5.44359
#
# Compressibility (1/GPa) = 0.05144183
#
# Stress axis : x y z
#
# Youngs Moduli (GPa) = 49.31147 76.16586 30.41507
#
# Poissons Ratio (x) = 0.49605 0.05183
# Poissons Ratio (y) = 0.32115 -0.02415
# Poissons Ratio (z) = 0.08403 -0.06048
#
# Static dielectric constant tensor:
#      x y z
#    x 1.693310 0.000000 -0.003920 
#    y 0.000000 1.665690 0.000000 
#    z -0.003920 0.000000 1.707470 
# 
# From -- ./inp_files/28212.got.cif
#   From: 2010.05.17/outbox.cif.g08.bks.cpg/sg8_15_cif.got.tgz:28212.got - 2010.06.03 19:46:02.
