data_PCOD9132813
_publ_section_title
;
Structure prediction by ZEFSAII (Michael W. Deem and Ramdas Pophale) SiO2 
 PCOD9132813
Probable space group: C M
;
_chemical_formula_sum "Si O2"
_cell_formula_units_Z 24
_cell_length_a 11.878268
_cell_length_b 15.706918
_cell_length_c 5.255657
_cell_angle_alpha 90.000000
_cell_angle_beta 84.956746
_cell_angle_gamma 90.000000
_cell_volume 976.756989
_symmetry_space_group_name_H-M "C M"
_symmetry_group_IT_number 8
_symmetry_cell_setting 'monoclinic'
loop_
_space_group_symop_operation_xyz
x,y,z
x,-y,z
1/2+x,1/2+y,z
1/2+x,1/2-y,z
loop_
_atom_site_type_symbol
_atom_site_label
_atom_site_fract_x
_atom_site_fract_y
_atom_site_fract_z
Si Si1 0.346200 0.121841 0.511300
Si Si2 0.046035 0.190676 0.100187
Si Si3 0.977978 0.371435 0.982440
Si Si4 0.559593 0.500000 0.908217
Si Si5 0.358366 0.679012 0.507422
Si Si6 0.658765 0.500000 0.413898
Si Si7 0.724375 0.835513 0.031938
O O1 0.421562 0.097650 0.737340
O O2 0.329163 0.221521 0.522656
O O3 0.226235 0.078219 0.519635
O O4 0.410706 0.099068 0.240909
O O5 0.990091 0.179804 0.392245
O O6 0.973300 0.266967 0.986024
O O7 0.028052 0.098338 0.982272
O O8 0.169863 0.237358 0.065929
O O9 0.109891 0.387775 0.999113
O O10 0.546146 0.500000 0.603219
O O11 0.659046 0.500000 0.111988
O O12 0.307146 0.646713 0.780451
O O13 0.286442 0.643281 0.282477
#
# Coordination Sequence:
#
# PCOD9132813 Si02
#       7
#     4   4   4   2   4   2   4
#     4  11  20  38  57  89 122 160 202 251 311 376
#     4   9  23  38  62  91 127 162 206 258 318 361
#     4   9  21  36  60  83 121 160 208 258 295 358
#     4  12  24  42  56  95 140 159 192 266 318 399
#     4  11  20  35  61  86 119 161 212 251 302 366
#     4  12  26  36  66  93 130 165 198 250 350 379
#     4  10  21  35  59  89 114 156 215 258 296 358
#
# _framework density 24.571107999999999
#
# number of rings (size 3 to 8) (size 9 to 14) (size 15 to 20)
#    1.000    0.667    0.000    6.000    0.000    4.000 
#    0.000    0.000    0.000    6.000    0.000    0.000 
#    0.000    0.000    0.000    0.000    0.000    0.000 
#
# Total GULP energy -66853.936177 kJ/mol
# GULP energy per Si atom -5571.161348 kJ/mol
# Density = 2.451518 g / cm^3
# Si number density = 24.571108 Si / 1000 Ang^3
#
#
#
# Elastic Constant Matrix: (Units=GPa)
#
#
# Indices 1 2 3 4 5 6 
#
# 1 80.7945 -13.3496 54.6256 0.0000 11.6646 0.0000
# 2 -13.3496 85.5528 -4.5659 0.0000 2.6508 0.0000
# 3 54.6256 -4.5659 166.0492 0.0000 11.1416 0.0000
# 4 0.0000 0.0000 0.0000 -5.0973 0.0000 0.0484
# 5 11.6646 2.6508 11.1416 0.0000 49.7745 0.0000
# 6 0.0000 0.0000 0.0000 0.0484 0.0000 14.5757
#
#
#
# Elastic Compliance Matrix: (Units=1/GPa)
#
#
# Indices 1 2 3 4 5 6 
#
# 1 0.016740 0.002421 -0.005247 0.000000 -0.002877 0.000000
# 2 0.002421 0.012081 -0.000389 0.000000 -0.001124 0.000000
# 3 -0.005247 -0.000389 0.007771 0.000000 -0.000489 0.000000
# 4 0.000000 0.000000 0.000000 -0.196178 0.000000 0.000652
# 5 -0.002877 -0.001124 -0.000489 0.000000 0.020934 0.000000
# 6 0.000000 0.000000 0.000000 0.000652 0.000000 0.068605
#
#
# Mechanical properties :
#
#
# Convention : Reuss Voigt Hill
#
# Bulk Modulus (GPa) = 33.15504 45.09075 39.12289
# Shear Modulus (GPa) = -93.34826 31.56303 -30.89262
#
# Velocity S-wave (km/s) = -6.17038 3.58796 -3.54965
# Velocity P-wave (km/s) = 6.10262 5.96285 0.91824
#
# Compressibility (1/GPa) = 0.03016133
#
# Stress axis : x y z
#
# Youngs Moduli (GPa) = 59.73573 82.77765 128.68860
#
# Poissons Ratio (x) = -0.20043 0.67529
# Poissons Ratio (y) = -0.14464 0.05005
# Poissons Ratio (z) = 0.31346 0.03220
#
# Static dielectric constant tensor:
#      x y z
#    x 2.004580 0.000000 -0.018390 
#    y 0.000000 1.993960 0.000000 
#    z -0.018390 0.000000 1.991550 
# 
# From -- ./inp_files/3855.got.cif
#   From: 2010.05.17/outbox.cif.g08.bks.cpg/sg8_2_cif.got.tgz:3855.got - 2010.06.03 19:46:02.
