data_PCOD9132539
_publ_section_title
;
Structure prediction by ZEFSAII (Michael W. Deem and Ramdas Pophale) SiO2 
 PCOD9132539
Probable space group: C M
;
_chemical_formula_sum "Si O2"
_cell_formula_units_Z 20
_cell_length_a 12.725287
_cell_length_b 9.976543
_cell_length_c 8.434036
_cell_angle_alpha 90.000000
_cell_angle_beta 54.597734
_cell_angle_gamma 90.000000
_cell_volume 872.763572
_symmetry_space_group_name_H-M "C M"
_symmetry_group_IT_number 8
_symmetry_cell_setting 'monoclinic'
loop_
_space_group_symop_operation_xyz
x,y,z
x,-y,z
1/2+x,1/2+y,z
1/2+x,1/2-y,z
loop_
_atom_site_type_symbol
_atom_site_label
_atom_site_fract_x
_atom_site_fract_y
_atom_site_fract_z
Si Si1 0.724041 0.000000 0.500000
Si Si2 0.396655 0.000000 0.316501
Si Si3 0.828571 0.500000 0.702056
Si Si4 0.206740 0.210043 0.012561
Si Si5 0.493586 0.500000 0.105054
Si Si6 0.183501 0.789957 0.408994
Si Si7 0.561670 0.500000 0.719500
Si Si8 0.666201 0.000000 0.921555
O O1 0.673933 0.862682 0.468513
O O2 0.875076 0.000000 0.326275
O O3 0.695120 0.000000 0.710778
O O4 0.311936 0.866835 0.358859
O O5 0.432944 0.000000 0.471463
O O6 0.515165 0.000000 0.095281
O O7 0.695121 0.500000 0.710778
O O8 0.819277 0.626403 0.826511
O O9 0.195120 0.196405 0.210778
O O10 0.078305 0.133165 0.062695
O O11 0.216309 0.362682 0.953041
O O12 0.457296 0.500000 0.950093
O O13 0.070964 0.873596 0.595045
#
# Coordination Sequence:
#
# PCOD9132539 Si02
#       8
#     2   2   2   4   2   4   2   2
#     4  12  23  37  54  81 114 146 180 225 271 318
#     4  10  20  38  60  79 105 150 187 211 264 339
#     4   8  16  35  59  78 102 144 183 212 259 333
#     4  10  20  37  58  84 110 138 179 230 272 315
#     4  10  20  38  60  79 105 150 187 211 264 339
#     4  10  20  37  58  84 110 138 179 230 272 315
#     4   8  16  35  59  78 102 144 183 212 259 333
#     4  12  23  37  54  81 114 146 180 225 271 318
#
# _framework density 22.915713
#
# number of rings (size 3 to 8) (size 9 to 14) (size 15 to 20)
#    0.000    2.400    0.000    7.800    0.000    0.000 
#    0.000   12.000    0.000    0.000    0.000    0.000 
#    0.000    0.000    0.000    0.000    0.000    0.000 
#
# Total GULP energy -55867.342014 kJ/mol
# GULP energy per Si atom -5586.734201 kJ/mol
# Density = 2.286356 g / cm^3
# Si number density = 22.915713 Si / 1000 Ang^3
#
#
#
# Elastic Constant Matrix: (Units=GPa)
#
#
# Indices 1 2 3 4 5 6 
#
# 1 31.9167 40.4630 47.5529 0.0000 14.4404 0.0000
# 2 40.4630 212.3371 70.7945 0.0000 23.4557 0.0000
# 3 47.5529 70.7945 250.4028 0.0000 40.5697 0.0000
# 4 0.0000 0.0000 0.0000 36.6208 0.0000 17.0227
# 5 14.4404 23.4557 40.5697 0.0000 45.1207 0.0000
# 6 0.0000 0.0000 0.0000 17.0227 0.0000 13.2425
#
#
#
# Elastic Compliance Matrix: (Units=1/GPa)
#
#
# Indices 1 2 3 4 5 6 
#
# 1 0.054303 -0.007177 -0.007108 0.000000 -0.007258 0.000000
# 2 -0.007177 0.006251 -0.000293 0.000000 -0.000690 0.000000
# 3 -0.007108 -0.000293 0.005891 0.000000 -0.002870 0.000000
# 4 0.000000 0.000000 0.000000 0.067848 0.000000 -0.087216
# 5 -0.007258 -0.000690 -0.002870 0.000000 0.027425 0.000000
# 6 0.000000 0.000000 0.000000 -0.087216 0.000000 0.187628
#
#
# Mechanical properties :
#
#
# Convention : Reuss Voigt Hill
#
# Bulk Modulus (GPa) = 26.81586 90.25305 58.53445
# Shear Modulus (GPa) = 12.79002 41.38654 27.08828
#
# Velocity S-wave (km/s) = 2.36505 4.25436 3.44187
# Velocity P-wave (km/s) = 4.38010 7.97515 6.43383
#
# Compressibility (1/GPa) = 0.03729136
#
# Stress axis : x y z
#
# Youngs Moduli (GPa) = 18.41512 159.97951 169.74807
#
# Poissons Ratio (x) = 1.14811 1.20651
# Poissons Ratio (y) = 0.13216 0.04968
# Poissons Ratio (z) = 0.13089 0.04682
#
# Static dielectric constant tensor:
#      x y z
#    x 1.941910 0.000000 -0.071660 
#    y 0.000000 1.818470 0.000000 
#    z -0.071660 0.000000 1.908610 
# 
# From -- ./inp_files/14376.got.cif
#   From: 2010.05.17/outbox.cif.g08.bks.cpg/sg8_8_cif.got.tgz:14376.got - 2010.06.03 19:46:02.
