data_PCOD9132548
_publ_section_title
;
Structure prediction by ZEFSAII (Michael W. Deem and Ramdas Pophale) SiO2 
 PCOD9132548
Probable space group: C M
;
_chemical_formula_sum "Si O2"
_cell_formula_units_Z 32
_cell_length_a 15.723465
_cell_length_b 7.976850
_cell_length_c 23.328538
_cell_angle_alpha 90.000000
_cell_angle_beta 148.027220
_cell_angle_gamma 90.000000
_cell_volume 1549.339352
_symmetry_space_group_name_H-M "C M"
_symmetry_group_IT_number 8
_symmetry_cell_setting 'monoclinic'
loop_
_space_group_symop_operation_xyz
x,y,z
x,-y,z
1/2+x,1/2+y,z
1/2+x,1/2-y,z
loop_
_atom_site_type_symbol
_atom_site_label
_atom_site_fract_x
_atom_site_fract_y
_atom_site_fract_z
Si Si1 0.321350 0.701418 0.323070
Si Si2 0.169041 0.693608 0.923742
Si Si3 0.492588 0.304695 0.934582
Si Si4 0.925510 0.806123 0.692119
Si Si5 0.603551 0.303713 0.564669
Si Si6 0.971491 0.202893 0.165916
Si Si7 0.284737 0.297131 0.173007
Si Si8 0.638337 0.296258 0.713482
O O1 0.339781 0.500000 0.330164
O O2 0.463226 0.768883 0.444646
O O3 0.327793 0.764006 0.261116
O O4 0.148520 0.738720 0.251708
O O5 0.184370 0.500000 0.914336
O O6 0.059479 0.702303 0.918363
O O7 0.074950 0.791112 0.821136
O O8 0.341603 0.758557 0.043751
O O9 0.512272 0.500000 0.932179
O O10 0.306365 0.265108 0.835490
O O11 0.606786 0.260360 0.052921
O O12 0.774184 0.711191 0.631180
O O13 0.990569 0.743114 0.668635
O O14 0.878707 0.000000 0.660291
O O15 0.565857 0.500000 0.551081
O O16 0.620438 0.232890 0.638331
O O17 0.903664 0.257733 0.189406
O O18 0.968038 0.000000 0.163670
O O19 0.285784 0.500000 0.173629
O O20 0.643584 0.500000 0.716971
#
# Coordination Sequence:
#
# PCOD9132548 Si02
#       8
#     4   4   4   4   4   4   4   4
#     4  10  22  39  62  87 113 155 207 243 286 352
#     4  10  20  37  59  84 122 160 189 238 307 356
#     4  11  21  34  58  90 120 151 199 244 288 354
#     4  11  23  37  58  89 117 153 202 247 293 351
#     4  10  22  42  62  82 117 162 199 242 299 353
#     4   9  20  37  57  83 116 154 190 235 301 352
#     4   9  20  39  58  82 119 158 192 238 301 353
#     4  10  22  39  58  83 120 159 192 239 305 351
#
# _framework density 20.653963000000001
#
# number of rings (size 3 to 8) (size 9 to 14) (size 15 to 20)
#    0.000    2.000    1.250    2.625    1.750    5.500 
#    0.000    0.000    0.000    0.000    0.000    0.000 
#    0.000    0.000    0.000    0.000    0.000    0.000 
#
# Total GULP energy -89367.617836 kJ/mol
# GULP energy per Si atom -5585.476115 kJ/mol
# Density = 2.060695 g / cm^3
# Si number density = 20.653963 Si / 1000 Ang^3
#
#
#
# Elastic Constant Matrix: (Units=GPa)
#
#
# Indices 1 2 3 4 5 6 
#
# 1 91.7072 -4.4381 55.3016 0.0000 3.6189 0.0000
# 2 -4.4381 22.0263 -1.2203 0.0000 -4.0485 0.0000
# 3 55.3016 -1.2203 112.7943 0.0001 1.6498 0.0000
# 4 0.0000 0.0000 0.0001 15.0904 0.0000 10.0616
# 5 3.6189 -4.0485 1.6498 0.0000 11.6182 0.0000
# 6 0.0000 0.0000 0.0000 10.0616 0.0000 18.9954
#
#
#
# Elastic Compliance Matrix: (Units=1/GPa)
#
#
# Indices 1 2 3 4 5 6 
#
# 1 0.015744 0.002187 -0.007651 0.000000 -0.003056 0.000000
# 2 0.002187 0.048820 -0.000785 0.000000 0.016442 0.000000
# 3 -0.007651 -0.000785 0.012604 0.000000 0.000320 0.000000
# 4 0.000000 0.000000 0.000000 0.102449 0.000000 -0.054266
# 5 -0.003056 0.016442 0.000320 0.000000 0.092707 0.000000
# 6 0.000000 0.000000 0.000000 -0.054266 0.000000 0.081388
#
#
# Mechanical properties :
#
#
# Convention : Reuss Voigt Hill
#
# Bulk Modulus (GPa) = 15.46299 36.20158 25.83229
# Shear Modulus (GPa) = 12.89436 20.93311 16.91374
#
# Velocity S-wave (km/s) = 2.50132 3.18703 2.86476
# Velocity P-wave (km/s) = 3.98059 5.57751 4.84529
#
# Compressibility (1/GPa) = 0.06467054
#
# Stress axis : x y z
#
# Youngs Moduli (GPa) = 63.51490 20.48356 79.34207
#
# Poissons Ratio (x) = -0.04479 0.60704
# Poissons Ratio (y) = -0.13890 0.06224
# Poissons Ratio (z) = 0.48595 0.01607
#
# Static dielectric constant tensor:
#      x y z
#    x 1.740420 0.000000 -0.023720 
#    y 0.000000 1.728960 0.000000 
#    z -0.023720 0.000000 1.720220 
# 
# From -- ./inp_files/24813.got.cif
#   From: 2010.05.17/outbox.cif.g08.bks.cpg/sg8_13_cif.got.tgz:24813.got - 2010.06.03 19:46:02.
