data_PCOD9132737
_publ_section_title
;
Structure prediction by ZEFSAII (Michael W. Deem and Ramdas Pophale) SiO2 
 PCOD9132737
Probable space group: C M
;
_chemical_formula_sum "Si O2"
_cell_formula_units_Z 28
_cell_length_a 16.322269
_cell_length_b 16.810822
_cell_length_c 5.393536
_cell_angle_alpha 90.000000
_cell_angle_beta 122.832423
_cell_angle_gamma 90.000000
_cell_volume 1243.531275
_symmetry_space_group_name_H-M "C M"
_symmetry_group_IT_number 8
_symmetry_cell_setting 'monoclinic'
loop_
_space_group_symop_operation_xyz
x,y,z
x,-y,z
1/2+x,1/2+y,z
1/2+x,1/2-y,z
loop_
_atom_site_type_symbol
_atom_site_label
_atom_site_fract_x
_atom_site_fract_y
_atom_site_fract_z
Si Si1 0.548680 0.832987 0.413110
Si Si2 0.931821 0.223468 0.930352
Si Si3 0.853515 0.666787 0.430108
Si Si4 0.741283 0.243129 0.884902
Si Si5 0.161642 0.090319 0.570557
Si Si6 0.871875 0.500000 0.424377
Si Si7 0.033684 0.912579 0.858247
Si Si8 0.499266 0.000000 0.134578
O O1 0.448700 0.836917 0.408442
O O2 0.646920 0.812093 0.720874
O O3 0.555859 0.916490 0.276917
O O4 0.528473 0.751845 0.228325
O O5 0.899888 0.306591 0.758848
O O6 0.837479 0.200282 0.933547
O O7 0.958173 0.158840 0.770285
O O8 0.810715 0.579312 0.357905
O O9 0.774248 0.729365 0.211091
O O10 0.723776 0.328892 0.717307
O O11 0.088770 0.094033 0.688091
O O12 0.207127 0.000000 0.661268
O O13 0.103496 0.092377 0.215129
O O14 0.921073 0.500000 0.233916
O O15 0.950927 0.500000 0.780961
O O16 0.987053 0.000000 0.790814
#
# Coordination Sequence:
#
# PCOD9132737 Si02
#       8
#     4   4   4   4   4   2   4   2
#     4  10  21  42  63  88 130 170 219 267 323 397
#     4  11  22  39  64  93 126 172 215 271 329 390
#     4  10  23  38  63  91 128 171 212 267 333 388
#     4  11  24  38  61  99 126 169 215 270 327 392
#     4  10  22  41  65  94 126 167 211 265 327 389
#     4  10  20  40  64  94 125 164 212 263 326 394
#     4  10  22  42  68  89 123 173 218 263 324 387
#     4  10  20  40  68  90 119 176 216 257 328 380
#
# _framework density 22.516524
#
# number of rings (size 3 to 8) (size 9 to 14) (size 15 to 20)
#    0.000    1.714    2.857    0.857    5.000    1.143 
#    3.857    0.000    1.571    0.000    0.000    0.000 
#    0.000    0.000    0.000    0.000    0.000    0.000 
#
# Total GULP energy -78120.386777 kJ/mol
# GULP energy per Si atom -5580.027627 kJ/mol
# Density = 2.246528 g / cm^3
# Si number density = 22.516524 Si / 1000 Ang^3
#
#
#
# Elastic Constant Matrix: (Units=GPa)
#
#
# Indices 1 2 3 4 5 6 
#
# 1 65.5057 48.9384 24.2919 0.0000 -0.0698 0.0000
# 2 48.9384 96.3410 -5.4315 0.0000 12.8322 0.0000
# 3 24.2919 -5.4315 78.7704 0.0000 5.0052 0.0000
# 4 0.0000 0.0000 0.0000 35.1659 0.0000 -0.2749
# 5 -0.0698 12.8322 5.0052 0.0000 32.1699 0.0000
# 6 0.0000 0.0000 0.0000 -0.2749 0.0000 34.8989
#
#
#
# Elastic Compliance Matrix: (Units=1/GPa)
#
#
# Indices 1 2 3 4 5 6 
#
# 1 0.034626 -0.019617 -0.012658 0.000000 0.009870 0.000000
# 2 -0.019617 0.022162 0.008224 0.000000 -0.010162 0.000000
# 3 -0.012658 0.008224 0.017550 0.000000 -0.006038 0.000000
# 4 0.000000 0.000000 0.000000 0.028438 0.000000 0.000224
# 5 0.009870 -0.010162 -0.006038 0.000000 0.036099 0.000000
# 6 0.000000 0.000000 0.000000 0.000224 0.000000 0.028656
#
#
# Mechanical properties :
#
#
# Convention : Reuss Voigt Hill
#
# Bulk Modulus (GPa) = 38.11844 41.80162 39.96003
# Shear Modulus (GPa) = 22.28357 31.96815 27.12586
#
# Velocity S-wave (km/s) = 3.14929 3.77206 3.47466
# Velocity P-wave (km/s) = 5.49453 6.12996 5.82092
#
# Compressibility (1/GPa) = 0.02623402
#
# Stress axis : x y z
#
# Youngs Moduli (GPa) = 28.87965 45.12209 56.98165
#
# Poissons Ratio (x) = 0.88518 0.72129
# Poissons Ratio (y) = 0.56655 -0.46860
# Poissons Ratio (z) = 0.36557 -0.37107
#
# Static dielectric constant tensor:
#      x y z
#    x 1.869300 0.000000 -0.040810 
#    y 0.000000 1.869540 0.000000 
#    z -0.040810 0.000000 1.836760 
# 
# From -- ./inp_files/4092.got.cif
#   From: 2010.05.17/outbox.cif.g08.bks.cpg/sg8_3_cif.got.tgz:4092.got - 2010.06.03 19:46:02.
