data_PCOD9132189
_publ_section_title
;
Structure prediction by ZEFSAII (Michael W. Deem and Ramdas Pophale) SiO2 
 PCOD9132189
Probable space group: C M
;
_chemical_formula_sum "Si O2"
_cell_formula_units_Z 28
_cell_length_a 8.204313
_cell_length_b 33.708718
_cell_length_c 7.384303
_cell_angle_alpha 90.000000
_cell_angle_beta 141.945596
_cell_angle_gamma 90.000000
_cell_volume 1258.818869
_symmetry_space_group_name_H-M "C M"
_symmetry_group_IT_number 8
_symmetry_cell_setting 'monoclinic'
loop_
_space_group_symop_operation_xyz
x,y,z
x,-y,z
1/2+x,1/2+y,z
1/2+x,1/2-y,z
loop_
_atom_site_type_symbol
_atom_site_label
_atom_site_fract_x
_atom_site_fract_y
_atom_site_fract_z
Si Si1 0.481360 0.231131 0.860590
Si Si2 0.215594 0.123555 0.313327
Si Si3 0.369934 0.623719 0.332775
Si Si4 0.666665 0.044112 0.325636
Si Si5 0.206580 0.663867 0.833327
Si Si6 0.922427 0.205270 0.530516
Si Si7 0.104235 0.956007 0.006388
O O1 0.604874 0.207149 0.796743
O O2 0.433578 0.274481 0.735738
O O3 0.201286 0.212792 0.673461
O O4 0.689945 0.225908 0.206800
O O5 0.506287 0.139736 0.533685
O O6 0.144121 0.081036 0.171154
O O7 0.146335 0.120955 0.466312
O O8 0.010419 0.155929 0.055629
O O9 0.268162 0.581318 0.302636
O O10 0.379045 0.657961 0.490983
O O11 0.192131 0.642138 0.017733
O O12 0.353889 0.046536 0.088192
O O13 0.724239 0.000000 0.299810
O O14 0.830381 0.046498 0.657356
O O15 0.118710 0.000000 0.104710
#
# Coordination Sequence:
#
# PCOD9132189 Si02
#       7
#     4   4   4   4   4   4   4
#     4  11  21  42  61  86 123 159 195 252 309 351
#     4  10  19  37  62  80 112 157 191 241 284 351
#     4   9  22  38  62  85 117 153 201 241 291 346
#     4  10  22  39  59  86 125 155 189 245 300 347
#     4   9  19  36  60  80 115 148 191 243 284 340
#     4  11  23  41  63  88 124 157 203 254 302 357
#     4  10  22  39  57  85 122 153 190 244 298 352
#
# _framework density 22.243072999999999
#
# number of rings (size 3 to 8) (size 9 to 14) (size 15 to 20)
#    0.857    1.143    1.429    1.714    2.000    0.571 
#    7.714    0.714    0.000    0.000    0.000    0.000 
#    0.000    0.000    0.000    0.000    0.000    0.000 
#
# Total GULP energy -78106.225124 kJ/mol
# GULP energy per Si atom -5579.016080 kJ/mol
# Density = 2.219245 g / cm^3
# Si number density = 22.243073 Si / 1000 Ang^3
#
#
#
# Elastic Constant Matrix: (Units=GPa)
#
#
# Indices 1 2 3 4 5 6 
#
# 1 41.5708 17.9155 5.3374 0.0000 1.9502 0.0000
# 2 17.9155 116.9626 1.4435 0.0000 -22.0597 0.0000
# 3 5.3374 1.4435 52.7168 0.0000 11.9679 0.0000
# 4 0.0000 0.0000 0.0000 25.6354 0.0000 -10.1475
# 5 1.9502 -22.0597 11.9679 0.0000 25.8083 0.0000
# 6 0.0000 0.0000 0.0000 -10.1475 0.0000 33.5339
#
#
#
# Elastic Compliance Matrix: (Units=1/GPa)
#
#
# Indices 1 2 3 4 5 6 
#
# 1 0.026725 -0.005188 -0.001228 0.000000 -0.005885 0.000000
# 2 -0.005188 0.011509 -0.002361 0.000000 0.011325 0.000000
# 3 -0.001228 -0.002361 0.021901 0.000000 -0.012081 0.000000
# 4 0.000000 0.000000 0.000000 0.044317 0.000000 0.013411
# 5 -0.005885 0.011325 -0.012081 0.000000 0.054474 0.000000
# 6 0.000000 0.000000 0.000000 0.013411 0.000000 0.033879
#
#
# Mechanical properties :
#
#
# Convention : Reuss Voigt Hill
#
# Bulk Modulus (GPa) = 23.48427 28.96034 26.22230
# Shear Modulus (GPa) = 22.26649 29.43243 25.84946
#
# Velocity S-wave (km/s) = 3.16737 3.64155 3.41271
# Velocity P-wave (km/s) = 4.89462 5.54341 5.22909
#
# Compressibility (1/GPa) = 0.04258170
#
# Stress axis : x y z
#
# Youngs Moduli (GPa) = 37.41807 86.88511 45.66011
#
# Poissons Ratio (x) = 0.45079 0.05606
# Poissons Ratio (y) = 0.19414 0.10779
# Poissons Ratio (z) = 0.04594 0.20512
#
# Static dielectric constant tensor:
#      x y z
#    x 1.846680 0.000000 -0.010140 
#    y 0.000000 1.859210 0.000000 
#    z -0.010140 0.000000 1.803370 
# 
# From -- ./inp_files/9328.got.cif
#   From: 2010.05.17/outbox.cif.g08.bks.cpg/sg8_5_cif.got.tgz:9328.got - 2010.06.03 19:46:02.
