data_PCOD9132692
_publ_section_title
;
Structure prediction by ZEFSAII (Michael W. Deem and Ramdas Pophale) SiO2 
 PCOD9132692
Probable space group: C M
;
_chemical_formula_sum "Si O2"
_cell_formula_units_Z 26
_cell_length_a 5.365969
_cell_length_b 23.531318
_cell_length_c 9.587445
_cell_angle_alpha 90.000000
_cell_angle_beta 106.254397
_cell_angle_gamma 90.000000
_cell_volume 1162.201330
_symmetry_space_group_name_H-M "C M"
_symmetry_group_IT_number 8
_symmetry_cell_setting 'monoclinic'
loop_
_space_group_symop_operation_xyz
x,y,z
x,-y,z
1/2+x,1/2+y,z
1/2+x,1/2-y,z
loop_
_atom_site_type_symbol
_atom_site_label
_atom_site_fract_x
_atom_site_fract_y
_atom_site_fract_z
Si Si1 0.631920 0.901803 0.045780
Si Si2 0.007462 0.723425 0.023349
Si Si3 0.907464 0.229877 0.696334
Si Si4 0.406558 0.931041 0.541355
Si Si5 0.865066 0.895764 0.792294
Si Si6 0.244220 0.000000 0.870107
Si Si7 0.332696 0.568153 0.378931
O O1 0.480049 0.843118 0.039839
O O2 0.773824 0.916064 0.211400
O O3 0.841533 0.892564 0.955461
O O4 0.437304 0.950952 0.967520
O O5 0.303935 0.742823 0.085122
O O6 0.950903 0.737403 0.851264
O O7 0.609680 0.244719 0.619228
O O8 0.944935 0.163592 0.736149
O O9 0.569222 0.907693 0.696342
O O10 0.591494 0.915838 0.439598
O O11 0.113724 0.910362 0.473826
O O12 0.400380 0.000000 0.557171
O O13 0.041898 0.949650 0.783688
O O14 0.347630 0.500000 0.387980
#
# Coordination Sequence:
#
# PCOD9132692 Si02
#       7
#     4   4   4   4   4   2   4
#     4  12  25  39  69  99 135 166 225 283 324 391
#     4  10  20  39  61  94 123 172 211 266 324 391
#     4  10  20  39  61  94 123 172 211 266 324 391
#     4  10  24  43  62  88 134 182 214 253 330 408
#     4  12  25  39  69  99 135 166 225 283 324 391
#     4  12  26  36  60 112 132 156 212 302 332 366
#     4  10  24  43  62  88 134 182 214 253 330 408
#
# _framework density 22.371341000000001
#
# number of rings (size 3 to 8) (size 9 to 14) (size 15 to 20)
#    0.000    1.231    4.615    2.308    4.308    0.000 
#    0.000    0.000    0.000    5.538    0.000    0.000 
#    0.000    0.000    0.000    0.000    0.000    0.000 
#
# Total GULP energy -72444.695113 kJ/mol
# GULP energy per Si atom -5572.668855 kJ/mol
# Density = 2.232042 g / cm^3
# Si number density = 22.371341 Si / 1000 Ang^3
#
#
#
# Elastic Constant Matrix: (Units=GPa)
#
#
# Indices 1 2 3 4 5 6 
#
# 1 97.1904 59.3415 16.7617 0.0000 15.1735 0.0000
# 2 59.3415 140.5096 15.7264 0.0000 13.7280 0.0000
# 3 16.7617 15.7264 75.3352 0.0000 1.1989 0.0000
# 4 0.0000 0.0000 0.0000 3.9120 0.0000 2.5428
# 5 15.1735 13.7280 1.1989 0.0000 33.0941 0.0000
# 6 0.0000 0.0000 0.0000 2.5428 0.0000 1.5705
#
#
#
# Elastic Compliance Matrix: (Units=1/GPa)
#
#
# Indices 1 2 3 4 5 6 
#
# 1 0.014719 -0.005561 -0.002045 0.000000 -0.004368 0.000000
# 2 -0.005561 0.009692 -0.000763 0.000000 -0.001443 0.000000
# 3 -0.002045 -0.000763 0.013876 0.000000 0.000751 0.000000
# 4 0.000000 0.000000 0.000000 -4.875280 0.000000 7.893717
# 5 -0.004368 -0.001443 0.000751 0.000000 0.032791 0.000000
# 6 0.000000 0.000000 0.000000 7.893717 0.000000-12.144204
#
#
# Mechanical properties :
#
#
# Convention : Reuss Voigt Hill
#
# Bulk Modulus (GPa) = 46.40281 55.18827 50.79554
# Shear Modulus (GPa) = -0.29543 22.46234 11.08346
#
# Velocity S-wave (km/s) = -0.36379 3.17214 2.22824
# Velocity P-wave (km/s) = 4.53990 6.17571 5.41987
#
# Compressibility (1/GPa) = 0.02155042
#
# Stress axis : x y z
#
# Youngs Moduli (GPa) = 67.94069 103.18045 72.06563
#
# Poissons Ratio (x) = 0.57374 0.14734
# Poissons Ratio (y) = 0.37779 0.05499
# Poissons Ratio (z) = 0.13891 0.07873
#
# Static dielectric constant tensor:
#      x y z
#    x 1.970340 0.000000 0.007810 
#    y 0.000000 1.848950 0.000000 
#    z 0.007810 0.000000 1.818560 
# 
# From -- ./inp_files/18081.got.cif
#   From: 2010.05.17/outbox.cif.g08.bks.cpg/sg8_10_cif.got.tgz:18081.got - 2010.06.03 19:46:02.
