data_PCOD9132754
_publ_section_title
;
Structure prediction by ZEFSAII (Michael W. Deem and Ramdas Pophale) SiO2 
 PCOD9132754
Probable space group: C M
;
_chemical_formula_sum "Si O2"
_cell_formula_units_Z 32
_cell_length_a 11.950877
_cell_length_b 14.622340
_cell_length_c 8.308196
_cell_angle_alpha 90.000000
_cell_angle_beta 108.425083
_cell_angle_gamma 90.000000
_cell_volume 1377.430080
_symmetry_space_group_name_H-M "C M"
_symmetry_group_IT_number 8
_symmetry_cell_setting 'monoclinic'
loop_
_space_group_symop_operation_xyz
x,y,z
x,-y,z
1/2+x,1/2+y,z
1/2+x,1/2-y,z
loop_
_atom_site_type_symbol
_atom_site_label
_atom_site_fract_x
_atom_site_fract_y
_atom_site_fract_z
Si Si1 0.842460 0.766430 0.438390
Si Si2 0.371989 0.102528 0.271703
Si Si3 0.201255 0.211766 0.648066
Si Si4 0.884759 0.850733 0.123082
Si Si5 0.502918 0.607240 0.700569
Si Si6 0.649621 0.105760 0.831161
Si Si7 0.613710 0.396788 0.087162
Si Si8 0.930038 0.661471 0.957850
O O1 0.920162 0.678257 0.417873
O O2 0.726274 0.731518 0.473822
O O3 0.840744 0.830087 0.281786
O O4 0.896453 0.827717 0.606088
O O5 0.371503 0.000000 0.339938
O O6 0.239476 0.144520 0.185906
O O7 0.422779 0.099145 0.114848
O O8 0.101532 0.135076 0.618012
O O9 0.163920 0.307299 0.717084
O O10 0.315900 0.167190 0.789163
O O11 0.776883 0.895309 0.978659
O O12 0.921322 0.758107 0.046776
O O13 0.010520 0.900183 0.170568
O O14 0.474044 0.500000 0.691962
O O15 0.558037 0.637325 0.895687
O O16 0.544264 0.134403 0.905958
O O17 0.629096 0.000000 0.762963
O O18 0.649583 0.500000 0.063119
#
# Coordination Sequence:
#
# PCOD9132754 Si02
#       8
#     4   4   4   4   4   4   4   4
#     4  11  26  40  62 101 141 177 210 278 344 400
#     4  10  22  42  68 102 134 176 227 282 337 397
#     4  11  23  43  64  97 135 178 223 275 335 398
#     4  10  23  38  63  94 136 177 224 274 334 394
#     4  11  24  43  70  99 130 173 229 283 332 392
#     4  11  23  41  67  98 133 179 227 276 334 403
#     4  10  20  40  70  97 127 173 233 285 325 386
#     4  10  21  39  69  94 130 173 226 281 330 396
#
# _framework density 23.231667000000002
#
# number of rings (size 3 to 8) (size 9 to 14) (size 15 to 20)
#    0.000    1.500    1.250    3.750    5.250    4.500 
#    0.000    1.875    0.000    0.000    0.000    0.000 
#    0.000    0.000    0.000    0.000    0.000    0.000 
#
# Total GULP energy -89255.023808 kJ/mol
# GULP energy per Si atom -5578.438988 kJ/mol
# Density = 2.317879 g / cm^3
# Si number density = 23.231667 Si / 1000 Ang^3
#
#
#
# Elastic Constant Matrix: (Units=GPa)
#
#
# Indices 1 2 3 4 5 6 
#
# 1 88.2241 3.5876 18.2428 0.0000 -23.6656 0.0000
# 2 3.5876 108.3810 15.2287 0.0000 1.9156 0.0000
# 3 18.2428 15.2287 76.1464 0.0000 -27.2070 0.0000
# 4 0.0000 0.0000 0.0000 2.6777 0.0000 17.4588
# 5 -23.6656 1.9156 -27.2070 0.0000 40.7203 0.0000
# 6 0.0000 0.0000 0.0000 17.4588 0.0000 -6.7029
#
#
#
# Elastic Compliance Matrix: (Units=1/GPa)
#
#
# Indices 1 2 3 4 5 6 
#
# 1 0.013475 -0.000521 -0.000417 0.000000 0.007577 0.000000
# 2 -0.000521 0.009674 -0.002733 0.000000 -0.002584 0.000000
# 3 -0.000417 -0.002733 0.018047 0.000000 0.011944 0.000000
# 4 0.000000 0.000000 0.000000 0.020768 0.000000 0.054093
# 5 0.007577 -0.002584 0.011944 0.000000 0.037064 0.000000
# 6 0.000000 0.000000 0.000000 0.054093 0.000000 -0.008296
#
#
# Mechanical properties :
#
#
# Convention : Reuss Voigt Hill
#
# Bulk Modulus (GPa) = 29.53958 38.54109 34.04033
# Shear Modulus (GPa) = 45.72222 23.05186 34.38704
#
# Velocity S-wave (km/s) = 4.44114 3.15343 3.85148
# Velocity P-wave (km/s) = 6.24829 5.46670 5.87051
#
# Compressibility (1/GPa) = 0.03385289
#
# Stress axis : x y z
#
# Youngs Moduli (GPa) = 74.21326 103.37336 55.41199
#
# Poissons Ratio (x) = 0.05390 0.02308
# Poissons Ratio (y) = 0.03870 0.15144
# Poissons Ratio (z) = 0.03091 0.28253
#
# Static dielectric constant tensor:
#      x y z
#    x 1.952570 0.000000 0.056640 
#    y 0.000000 1.959030 0.000000 
#    z 0.056640 0.000000 1.944820 
# 
# From -- ./inp_files/10753.got.cif
#   From: 2010.05.17/outbox.cif.g08.bks.cpg/sg8_6_cif.got.tgz:10753.got - 2010.06.03 19:46:02.
