data_PCOD9132387
_publ_section_title
;
Structure prediction by ZEFSAII (Michael W. Deem and Ramdas Pophale) SiO2 
 PCOD9132387
Probable space group: C M
;
_chemical_formula_sum "Si O2"
_cell_formula_units_Z 32
_cell_length_a 8.284729
_cell_length_b 13.004942
_cell_length_c 14.861375
_cell_angle_alpha 90.000000
_cell_angle_beta 118.543236
_cell_angle_gamma 90.000000
_cell_volume 1406.585465
_symmetry_space_group_name_H-M "C M"
_symmetry_group_IT_number 8
_symmetry_cell_setting 'monoclinic'
loop_
_space_group_symop_operation_xyz
x,y,z
x,-y,z
1/2+x,1/2+y,z
1/2+x,1/2-y,z
loop_
_atom_site_type_symbol
_atom_site_label
_atom_site_fract_x
_atom_site_fract_y
_atom_site_fract_z
Si Si1 0.500000 0.731019 0.902290
Si Si2 0.694926 0.625389 0.342628
Si Si3 0.374413 0.622845 0.386282
Si Si4 0.546137 0.116504 0.548165
Si Si5 0.107087 0.310213 0.751381
Si Si6 0.953121 0.624174 0.251946
Si Si7 0.881876 0.377556 0.024964
Si Si8 0.456520 0.621651 0.610716
O O1 0.316121 0.667648 0.833168
O O2 0.508914 0.807906 0.820080
O O3 0.672001 0.655334 0.950293
O O4 0.492573 0.801906 0.988425
O O5 0.684336 0.500000 0.340215
O O6 0.501234 0.657068 0.336137
O O7 0.778343 0.654519 0.267352
O O8 0.864279 0.657479 0.452621
O O9 0.358755 0.500000 0.372525
O O10 0.477807 0.636546 0.509349
O O11 0.161438 0.657992 0.333775
O O12 0.529708 0.121028 0.651028
O O13 0.747796 0.158031 0.578256
O O14 0.558166 0.000000 0.517731
O O15 0.084946 0.195412 0.702999
O O16 0.955935 0.500000 0.260470
O O17 0.924408 0.648110 0.139873
O O18 0.912047 0.500000 0.018749
O O19 0.475449 0.500000 0.636239
#
# Coordination Sequence:
#
# PCOD9132387 Si02
#       8
#     4   4   4   4   4   4   4   4
#     4  10  24  43  64  93 130 163 226 296 331 392
#     4   9  17  31  55  91 130 165 210 263 318 396
#     4   9  17  31  56  93 130 166 215 266 314 399
#     4  10  20  35  57  86 125 171 210 254 321 397
#     4  11  22  39  59  88 127 167 211 274 327 384
#     4   9  17  36  64  91 125 171 215 266 338 401
#     4  10  23  47  74  95 128 177 222 284 357 403
#     4  10  20  36  60  87 125 178 216 255 327 400
#
# _framework density 22.750131
#
# number of rings (size 3 to 8) (size 9 to 14) (size 15 to 20)
#    0.000    2.250    2.500    0.000    1.750    3.000 
#    4.500    3.125    0.000    0.000    0.000    0.000 
#    0.000    0.000    0.000    0.000    0.000    0.000 
#
# Total GULP energy -89319.596423 kJ/mol
# GULP energy per Si atom -5582.474776 kJ/mol
# Density = 2.269835 g / cm^3
# Si number density = 22.750131 Si / 1000 Ang^3
#
#
#
# Elastic Constant Matrix: (Units=GPa)
#
#
# Indices 1 2 3 4 5 6 
#
# 1 78.2396 0.2528 16.0586 0.0000 -15.8764 0.0000
# 2 0.2528 72.4147 -3.9405 0.0000 1.4939 0.0000
# 3 16.0586 -3.9405 84.0662 0.0000 -24.9197 0.0000
# 4 0.0000 0.0000 0.0000 27.0403 0.0000 2.3741
# 5 -15.8764 1.4939 -24.9197 0.0000 41.1240 0.0000
# 6 0.0000 0.0000 0.0000 2.3741 0.0000 29.6119
#
#
#
# Elastic Compliance Matrix: (Units=1/GPa)
#
#
# Indices 1 2 3 4 5 6 
#
# 1 0.013988 -0.000216 -0.001315 0.000000 0.004611 0.000000
# 2 -0.000216 0.013849 0.000630 0.000000 -0.000205 0.000000
# 3 -0.001315 0.000630 0.014650 0.000000 0.008347 0.000000
# 4 0.000000 0.000000 0.000000 0.037244 0.000000 -0.002986
# 5 0.004611 -0.000205 0.008347 0.000000 0.031162 0.000000
# 6 0.000000 0.000000 0.000000 -0.002986 0.000000 0.034010
#
#
# Mechanical properties :
#
#
# Convention : Reuss Voigt Hill
#
# Bulk Modulus (GPa) = 24.57954 28.82915 26.70434
# Shear Modulus (GPa) = 31.19810 34.37854 32.78832
#
# Velocity S-wave (km/s) = 3.70717 3.89155 3.80048
# Velocity P-wave (km/s) = 5.39924 5.73514 5.56972
#
# Compressibility (1/GPa) = 0.04068424
#
# Stress axis : x y z
#
# Youngs Moduli (GPa) = 71.49213 72.20954 68.25732
#
# Poissons Ratio (x) = 0.01556 0.08978
# Poissons Ratio (y) = 0.01541 -0.04298
# Poissons Ratio (z) = 0.09403 -0.04546
#
# Static dielectric constant tensor:
#      x y z
#    x 1.877560 0.000000 -0.014800 
#    y 0.000000 1.918080 0.000000 
#    z -0.014800 0.000000 1.821010 
# 
# From -- ./inp_files/25375.got.cif
#   From: 2010.05.17/outbox.cif.g08.bks.cpg/sg8_13_cif.got.tgz:25375.got - 2010.06.03 19:46:02.
