data_PCOD9132625
_publ_section_title
;
Structure prediction by ZEFSAII (Michael W. Deem and Ramdas Pophale) SiO2 
 PCOD9132625
Probable space group: C M
;
_chemical_formula_sum "Si O2"
_cell_formula_units_Z 28
_cell_length_a 9.140276
_cell_length_b 9.698756
_cell_length_c 19.548546
_cell_angle_alpha 90.000000
_cell_angle_beta 132.433537
_cell_angle_gamma 90.000000
_cell_volume 1279.033093
_symmetry_space_group_name_H-M "C M"
_symmetry_group_IT_number 8
_symmetry_cell_setting 'monoclinic'
loop_
_space_group_symop_operation_xyz
x,y,z
x,-y,z
1/2+x,1/2+y,z
1/2+x,1/2-y,z
loop_
_atom_site_type_symbol
_atom_site_label
_atom_site_fract_x
_atom_site_fract_y
_atom_site_fract_z
Si Si1 0.648200 0.840404 0.012940
Si Si2 0.283712 0.160778 0.183945
Si Si3 0.585838 0.847407 0.476862
Si Si4 0.657940 0.661752 0.295518
Si Si5 0.512224 0.775801 0.604707
Si Si6 0.925692 0.647975 0.731006
Si Si7 0.201453 0.157755 0.901193
O O1 0.695981 0.755975 0.096659
O O2 0.714972 0.000000 0.038000
O O3 0.410406 0.842420 0.928193
O O4 0.731611 0.754020 0.976390
O O5 0.491580 0.233805 0.268102
O O6 0.154221 0.163736 0.211846
O O7 0.307441 0.000000 0.170957
O O8 0.375261 0.788359 0.387270
O O9 0.578376 0.854305 0.557169
O O10 0.788426 0.774415 0.520776
O O11 0.591509 0.000000 0.448593
O O12 0.631476 0.500000 0.308900
O O13 0.688768 0.663601 0.664750
O O14 0.491230 0.845855 0.672159
O O15 0.990507 0.500000 0.780380
O O16 0.031134 0.773897 0.802054
O O17 0.153434 0.000000 0.905147
#
# Coordination Sequence:
#
# PCOD9132625 Si02
#       7
#     4   4   4   4   4   4   4
#     4  11  24  42  64  90 120 156 198 244 296 354
#     4  11  23  39  61  90 122 157 198 244 296 354
#     4  10  20  38  60  84 118 158 200 246 296 349
#     4  10  22  39  61  89 121 159 201 246 297 352
#     4  10  22  37  59  88 119 156 201 249 296 349
#     4  11  23  39  60  88 121 158 200 246 298 354
#     4  11  25  42  63  91 121 156 198 245 297 354
#
# _framework density 21.891537
#
# number of rings (size 3 to 8) (size 9 to 14) (size 15 to 20)
#    0.000    1.429    0.000    4.714    0.000   11.429 
#    0.000    3.571    0.000    0.000    0.000    0.000 
#    0.000    0.000    0.000    0.000    0.000    0.000 
#
# Total GULP energy -78196.160274 kJ/mol
# GULP energy per Si atom -5585.440020 kJ/mol
# Density = 2.184171 g / cm^3
# Si number density = 21.891537 Si / 1000 Ang^3
#
#
#
# Elastic Constant Matrix: (Units=GPa)
#
#
# Indices 1 2 3 4 5 6 
#
# 1 92.3717 39.0648 6.0167 0.0000 3.8217 0.0000
# 2 39.0648 139.0600 23.3351 0.0000 6.7766 0.0000
# 3 6.0167 23.3351 69.7892 0.0000 7.3790 0.0000
# 4 0.0000 0.0000 0.0000 24.1332 0.0000 -0.4505
# 5 3.8217 6.7766 7.3790 0.0000 37.5946 0.0000
# 6 0.0000 0.0000 0.0000 -0.4505 0.0000 12.1885
#
#
#
# Elastic Compliance Matrix: (Units=1/GPa)
#
#
# Indices 1 2 3 4 5 6 
#
# 1 0.012302 -0.003451 0.000163 0.000000 -0.000661 0.000000
# 2 -0.003451 0.008616 -0.002508 0.000000 -0.000710 0.000000
# 3 0.000163 -0.002508 0.015428 0.000000 -0.002593 0.000000
# 4 0.000000 0.000000 0.000000 0.041465 0.000000 0.001533
# 5 -0.000661 -0.000710 -0.002593 0.000000 0.027304 0.000000
# 6 0.000000 0.000000 0.000000 0.001533 0.000000 0.082101
#
#
# Mechanical properties :
#
#
# Convention : Reuss Voigt Hill
#
# Bulk Modulus (GPa) = 40.39872 48.67268 44.53570
# Shear Modulus (GPa) = 24.14766 30.30355 27.22561
#
# Velocity S-wave (km/s) = 3.32484 3.72460 3.53038
# Velocity P-wave (km/s) = 5.76485 6.38582 6.08326
#
# Compressibility (1/GPa) = 0.02475326
#
# Stress axis : x y z
#
# Youngs Moduli (GPa) = 81.28745 116.06135 64.81886
#
# Poissons Ratio (x) = 0.40054 -0.01058
# Poissons Ratio (y) = 0.28053 0.16259
# Poissons Ratio (z) = -0.01326 0.29112
#
# Static dielectric constant tensor:
#      x y z
#    x 1.777510 0.000000 0.007850 
#    y 0.000000 1.789560 0.000000 
#    z 0.007850 0.000000 1.833620 
# 
# From -- ./inp_files/30312.got.cif
#   From: 2010.05.17/outbox.cif.g08.bks.cpg/sg8_16_cif.got.tgz:30312.got - 2010.06.03 19:46:02.
