data_PCOD9132372
_publ_section_title
;
Structure prediction by ZEFSAII (Michael W. Deem and Ramdas Pophale) SiO2 
 PCOD9132372
Probable space group: C M
;
_chemical_formula_sum "Si O2"
_cell_formula_units_Z 32
_cell_length_a 34.615097
_cell_length_b 7.635674
_cell_length_c 13.106287
_cell_angle_alpha 90.000000
_cell_angle_beta 154.453401
_cell_angle_gamma 90.000000
_cell_volume 1493.883431
_symmetry_space_group_name_H-M "C M"
_symmetry_group_IT_number 8
_symmetry_cell_setting 'monoclinic'
loop_
_space_group_symop_operation_xyz
x,y,z
x,-y,z
1/2+x,1/2+y,z
1/2+x,1/2-y,z
loop_
_atom_site_type_symbol
_atom_site_label
_atom_site_fract_x
_atom_site_fract_y
_atom_site_fract_z
Si Si1 0.448710 0.707383 0.644500
Si Si2 0.256775 0.287803 0.128158
Si Si3 0.891516 0.211059 0.907195
Si Si4 0.712319 0.215308 0.573314
Si Si5 0.554314 0.708685 0.700346
Si Si6 0.523031 0.795769 0.040404
Si Si7 0.224078 0.297885 0.826487
Si Si8 0.022338 0.213360 0.399248
O O1 0.440914 0.500000 0.608471
O O2 0.346274 0.773927 0.398118
O O3 0.506959 0.780003 0.688842
O O4 0.495702 0.728219 0.864849
O O5 0.255052 0.500000 0.120576
O O6 0.161202 0.238093 0.948196
O O7 0.261161 0.222797 0.020826
O O8 0.789019 0.265824 0.676493
O O9 0.893092 0.000000 0.908675
O O10 0.943297 0.272304 0.930963
O O11 0.946211 0.266037 0.138531
O O12 0.614474 0.278773 0.306830
O O13 0.740144 0.277634 0.752774
O O14 0.709929 0.000000 0.573672
O O15 0.541697 0.500000 0.670393
O O16 0.512323 0.771341 0.492778
O O17 0.539823 0.000000 0.066620
O O18 0.254906 0.500000 0.896532
O O19 0.116800 0.287916 0.585532
O O20 0.028291 0.000000 0.412180
#
# Coordination Sequence:
#
# PCOD9132372 Si02
#       8
#     4   4   4   4   4   4   4   4
#     4  10  22  39  58  80 108 147 189 226 266 322
#     4   9  19  34  56  83 110 143 182 224 270 323
#     4  10  20  35  57  83 110 144 183 224 271 325
#     4   9  19  34  55  81 108 141 181 223 270 324
#     4   9  19  35  55  82 115 145 178 222 273 324
#     4  11  23  40  57  78 110 147 186 229 273 320
#     4   9  16  31  55  80 111 144 177 219 270 324
#     4   9  17  30  53  83 114 143 174 219 273 324
#
# _framework density 21.420680000000001
#
# number of rings (size 3 to 8) (size 9 to 14) (size 15 to 20)
#    0.000    2.500    1.250    0.375    1.750    2.000 
#    0.000    5.625    0.000    0.000    0.000    0.000 
#    0.000    0.000    0.000    0.000    0.000    0.000 
#
# Total GULP energy -89286.961064 kJ/mol
# GULP energy per Si atom -5580.435067 kJ/mol
# Density = 2.137193 g / cm^3
# Si number density = 21.420680 Si / 1000 Ang^3
#
#
#
# Elastic Constant Matrix: (Units=GPa)
#
#
# Indices 1 2 3 4 5 6 
#
# 1 115.7918 -6.4734 26.0630 0.0000 -5.5916 0.0000
# 2 -6.4734 38.4483 -6.4279 0.0000 -2.9629 0.0000
# 3 26.0630 -6.4279 28.4721 0.0000 -9.1873 0.0000
# 4 0.0000 0.0000 0.0000 15.6514 0.0000 3.8218
# 5 -5.5916 -2.9629 -9.1873 0.0000 20.2226 0.0000
# 6 0.0000 0.0000 0.0000 3.8218 0.0000 12.0954
#
#
#
# Elastic Compliance Matrix: (Units=1/GPa)
#
#
# Indices 1 2 3 4 5 6 
#
# 1 0.010932 -0.000072 -0.010606 0.000000 -0.001806 0.000000
# 2 -0.000072 0.028148 0.009075 0.000000 0.008227 0.000000
# 3 -0.010606 0.009075 0.054326 0.000000 0.023078 0.000000
# 4 0.000000 0.000000 0.000000 0.069234 0.000000 -0.021876
# 5 -0.001806 0.008227 0.023078 0.000000 0.060640 0.000000
# 6 0.000000 0.000000 0.000000 -0.021876 0.000000 0.089588
#
#
# Mechanical properties :
#
#
# Convention : Reuss Voigt Hill
#
# Bulk Modulus (GPa) = 11.08634 23.22615 17.15625
# Shear Modulus (GPa) = 14.44497 20.89725 17.67111
#
# Velocity S-wave (km/s) = 2.59964 3.12679 2.87532
# Velocity P-wave (km/s) = 3.76797 4.88898 4.36462
#
# Compressibility (1/GPa) = 0.09020111
#
# Stress axis : x y z
#
# Youngs Moduli (GPa) = 91.47227 35.52634 18.40723
#
# Poissons Ratio (x) = 0.00255 0.19523
# Poissons Ratio (y) = 0.00656 -0.16705
# Poissons Ratio (z) = 0.97018 -0.32241
#
# Static dielectric constant tensor:
#      x y z
#    x 1.757220 0.000000 0.002360 
#    y 0.000000 1.828820 0.000000 
#    z 0.002360 0.000000 1.777720 
# 
# From -- ./inp_files/24795.got.cif
#   From: 2010.05.17/outbox.cif.g08.bks.cpg/sg8_13_cif.got.tgz:24795.got - 2010.06.03 19:46:02.
