data_PCOD9132272
_publ_section_title
;
Structure prediction by ZEFSAII (Michael W. Deem and Ramdas Pophale) SiO2 
 PCOD9132272
Probable space group: C M
;
_chemical_formula_sum "Si O2"
_cell_formula_units_Z 32
_cell_length_a 24.807855
_cell_length_b 7.445564
_cell_length_c 7.153727
_cell_angle_alpha 90.000000
_cell_angle_beta 93.349012
_cell_angle_gamma 90.000000
_cell_volume 1319.097389
_symmetry_space_group_name_H-M "C M"
_symmetry_group_IT_number 8
_symmetry_cell_setting 'monoclinic'
loop_
_space_group_symop_operation_xyz
x,y,z
x,-y,z
1/2+x,1/2+y,z
1/2+x,1/2-y,z
loop_
_atom_site_type_symbol
_atom_site_label
_atom_site_fract_x
_atom_site_fract_y
_atom_site_fract_z
Si Si1 0.034980 0.788581 0.437460
Si Si2 0.720496 0.718750 0.257240
Si Si3 0.822361 0.295047 0.054451
Si Si4 0.149905 0.780014 0.558328
Si Si5 0.891107 0.706781 0.741554
Si Si6 0.122218 0.218998 0.971228
Si Si7 0.419674 0.293539 0.328908
Si Si8 0.506772 0.290196 0.874650
O O1 0.095808 0.719441 0.436596
O O2 0.022962 0.777830 0.658003
O O3 0.980614 0.716530 0.330985
O O4 0.036961 0.000000 0.387952
O O5 0.724824 0.500000 0.264208
O O6 0.773470 0.786786 0.162779
O O7 0.704101 0.775661 0.462819
O O8 0.668284 0.767348 0.124744
O O9 0.806114 0.500000 0.005261
O O10 0.873683 0.299822 0.201682
O O11 0.844510 0.215326 0.864836
O O12 0.142717 0.724300 0.770303
O O13 0.148274 0.000000 0.557686
O O14 0.878143 0.500000 0.697358
O O15 0.902820 0.793716 0.544256
O O16 0.947301 0.709664 0.869778
O O17 0.060317 0.280188 0.989187
O O18 0.119050 0.000000 0.970083
O O19 0.421236 0.500000 0.266168
O O20 0.500627 0.500000 0.918861
#
# Coordination Sequence:
#
# PCOD9132272 Si02
#       8
#     4   4   4   4   4   4   4   4
#     4   7  12  24  43  71  99 118 147 198 255 300
#     4   9  17  28  43  66  95 128 166 203 244 294
#     4  10  22  36  49  73 107 139 173 211 252 301
#     4   8  13  23  41  65  93 120 149 195 250 295
#     4  10  20  34  52  75 107 141 169 203 251 307
#     4   8  14  25  43  68  95 122 157 206 254 291
#     4  10  20  35  56  78 101 132 171 215 258 300
#     4   8  14  27  48  74 101 126 160 205 250 300
#
# _framework density 24.259011999999998
#
# number of rings (size 3 to 8) (size 9 to 14) (size 15 to 20)
#    0.000    3.250    0.000    3.000    0.000    3.000 
#    0.000    6.250    0.000    0.750    0.000   12.250 
#    0.000    0.000    0.000    0.000    0.000    0.000 
#
# Total GULP energy -89296.704991 kJ/mol
# GULP energy per Si atom -5581.044062 kJ/mol
# Density = 2.420380 g / cm^3
# Si number density = 24.259012 Si / 1000 Ang^3
#
#
#
# Elastic Constant Matrix: (Units=GPa)
#
#
# Indices 1 2 3 4 5 6 
#
# 1 88.1685 1.7887 41.9360 0.0000 -50.6106 0.0000
# 2 1.7887 69.9792 -11.4519 0.0000 -3.4395 0.0000
# 3 41.9360 -11.4519 70.0506 0.0000 -29.0285 0.0000
# 4 0.0000 0.0000 0.0000 1.4465 0.0000 6.1084
# 5 -50.6106 -3.4395 -29.0285 0.0000 45.4542 0.0000
# 6 0.0000 0.0000 0.0000 6.1084 0.0000 34.9785
#
#
#
# Elastic Compliance Matrix: (Units=1/GPa)
#
#
# Indices 1 2 3 4 5 6 
#
# 1 0.033313 -0.000255 -0.006285 0.000000 0.033059 0.000000
# 2 -0.000255 0.015130 0.004056 0.000000 0.003451 0.000000
# 3 -0.006285 0.004056 0.021661 0.000000 0.007142 0.000000
# 4 0.000000 0.000000 0.000000 2.633483 0.000000 -0.459893
# 5 0.033059 0.003451 0.007142 0.000000 0.063632 0.000000
# 6 0.000000 0.000000 0.000000 -0.459893 0.000000 0.108902
#
#
# Mechanical properties :
#
#
# Convention : Reuss Voigt Hill
#
# Bulk Modulus (GPa) = 15.35259 32.52712 23.93985
# Shear Modulus (GPa) = 1.72247 29.43751 15.57999
#
# Velocity S-wave (km/s) = 0.84355 3.48726 2.53699
# Velocity P-wave (km/s) = 2.70021 5.44537 4.29786
#
# Compressibility (1/GPa) = 0.06513561
#
# Stress axis : x y z
#
# Youngs Moduli (GPa) = 30.01803 66.09415 46.16627
#
# Poissons Ratio (x) = 0.01687 0.29017
# Poissons Ratio (y) = 0.00766 -0.18727
# Poissons Ratio (z) = 0.18868 -0.26810
#
# Static dielectric constant tensor:
#      x y z
#    x 1.925920 0.000000 -0.027890 
#    y 0.000000 1.922100 0.000000 
#    z -0.027890 0.000000 1.963030 
# 
# From -- ./inp_files/16759.got.cif
#   From: 2010.05.17/outbox.cif.g08.bks.cpg/sg8_9_cif.got.tgz:16759.got - 2010.06.03 19:46:02.
