data_PCOD9132603
_publ_section_title
;
Structure prediction by ZEFSAII (Michael W. Deem and Ramdas Pophale) SiO2 
 PCOD9132603
Probable space group: C M
;
_chemical_formula_sum "Si O2"
_cell_formula_units_Z 20
_cell_length_a 17.996179
_cell_length_b 12.197722
_cell_length_c 9.773778
_cell_angle_alpha 90.000000
_cell_angle_beta 25.867285
_cell_angle_gamma 90.000000
_cell_volume 936.040968
_symmetry_space_group_name_H-M "C M"
_symmetry_group_IT_number 8
_symmetry_cell_setting 'monoclinic'
loop_
_space_group_symop_operation_xyz
x,y,z
x,-y,z
1/2+x,1/2+y,z
1/2+x,1/2-y,z
loop_
_atom_site_type_symbol
_atom_site_label
_atom_site_fract_x
_atom_site_fract_y
_atom_site_fract_z
Si Si1 0.313640 0.120400 0.840180
Si Si2 0.093217 0.684969 0.902017
Si Si3 0.507775 0.374627 0.858626
Si Si4 0.316041 0.832960 0.151653
Si Si5 0.450201 0.286837 0.396567
O O1 0.002700 0.303538 0.196820
O O2 0.340920 0.128422 0.957232
O O3 0.401131 0.219912 0.613965
O O4 0.367853 0.000000 0.701571
O O5 0.099617 0.809911 0.830536
O O6 0.970596 0.628723 0.994938
O O7 0.285912 0.650612 0.608278
O O8 0.471354 0.500000 0.947794
O O9 0.612016 0.362567 0.151790
O O10 0.637967 0.364637 0.515441
O O11 0.341651 0.700564 0.109910
#
# Coordination Sequence:
#
# PCOD9132603 Si02
#       5
#     4   4   4   4   4
#     4  11  24  42  64  89 125 171 200 244 316 370
#     4   9  18  38  62  89 120 161 198 259 297 347
#     4  10  20  37  64  91 121 158 200 254 310 350
#     4  10  20  39  64  92 122 161 208 256 296 357
#     4  10  21  40  61  89 130 157 201 255 306 360
#
# _framework density 21.366586000000002
#
# number of rings (size 3 to 8) (size 9 to 14) (size 15 to 20)
#    1.200    0.800    2.000    1.800    0.000    3.200 
#    0.000   11.000    0.000    0.000    0.000    0.000 
#    0.000    0.000    0.000    0.000    0.000    0.000 
#
# Total GULP energy -55754.667444 kJ/mol
# GULP energy per Si atom -5575.466744 kJ/mol
# Density = 2.131795 g / cm^3
# Si number density = 21.366586 Si / 1000 Ang^3
#
#
#
# Elastic Constant Matrix: (Units=GPa)
#
#
# Indices 1 2 3 4 5 6 
#
# 1 99.2977 -10.7172 6.1963 -0.0001 15.0514 0.0000
# 2 -10.7172 95.8339 -15.9351 -0.0001 3.6884 0.0000
# 3 6.1963 -15.9351 41.6070 -0.0002 13.2695 0.0001
# 4 -0.0001 -0.0001 -0.0002 9.1064 0.0001 4.0274
# 5 15.0514 3.6884 13.2695 0.0001 31.2543 0.0000
# 6 0.0000 0.0000 0.0001 4.0274 0.0000 -7.2553
#
#
#
# Elastic Compliance Matrix: (Units=1/GPa)
#
#
# Indices 1 2 3 4 5 6 
#
# 1 0.011083 0.001606 0.000841 0.000000 -0.005884 0.000000
# 2 0.001606 0.011742 0.005721 0.000000 -0.004588 0.000000
# 3 0.000841 0.005721 0.030586 0.000000 -0.014066 0.000001
# 4 0.000000 0.000000 0.000000 0.088167 0.000000 0.048941
# 5 -0.005884 -0.004588 -0.014066 0.000000 0.041343 -0.000001
# 6 0.000000 0.000000 0.000001 0.048941 -0.000001 -0.110662
#
#
# Mechanical properties :
#
#
# Convention : Reuss Voigt Hill
#
# Bulk Modulus (GPa) = 14.33726 21.75850 18.04788
# Shear Modulus (GPa) = 63.15245 23.76738 43.45992
#
# Velocity S-wave (km/s) = 5.44250 3.33883 4.51490
# Velocity P-wave (km/s) = 6.79846 5.00692 5.97027
#
# Compressibility (1/GPa) = 0.06974835
#
# Stress axis : x y z
#
# Youngs Moduli (GPa) = 90.22452 85.16276 32.69420
#
# Poissons Ratio (x) = -0.13675 -0.02750
# Poissons Ratio (y) = -0.14488 -0.18705
# Poissons Ratio (z) = -0.07588 -0.48724
#
# Static dielectric constant tensor:
#      x y z
#    x 1.789420 0.000000 -0.013210 
#    y 0.000000 1.770970 0.000000 
#    z -0.013210 0.000000 1.780400 
# 
# From -- ./inp_files/10251.got.cif
#   From: 2010.05.17/outbox.cif.g08.bks.cpg/sg8_6_cif.got.tgz:10251.got - 2010.06.03 19:46:02.
