data_PCOD9132758
_publ_section_title
;
Structure prediction by ZEFSAII (Michael W. Deem and Ramdas Pophale) SiO2 
 PCOD9132758
Probable space group: C M
;
_chemical_formula_sum "Si O2"
_cell_formula_units_Z 24
_cell_length_a 11.099712
_cell_length_b 23.348792
_cell_length_c 4.797193
_cell_angle_alpha 90.000000
_cell_angle_beta 111.925676
_cell_angle_gamma 90.000000
_cell_volume 1153.337381
_symmetry_space_group_name_H-M "C M"
_symmetry_group_IT_number 8
_symmetry_cell_setting 'monoclinic'
loop_
_space_group_symop_operation_xyz
x,y,z
x,-y,z
1/2+x,1/2+y,z
1/2+x,1/2-y,z
loop_
_atom_site_type_symbol
_atom_site_label
_atom_site_fract_x
_atom_site_fract_y
_atom_site_fract_z
Si Si1 0.611100 0.334458 0.911380
Si Si2 0.333568 0.336054 0.406004
Si Si3 0.470891 0.933874 0.893017
Si Si4 0.171298 0.239180 0.483005
Si Si5 0.668252 0.853735 0.737969
Si Si6 0.794943 0.434157 0.234523
O O1 0.478540 0.346124 0.630552
O O2 0.700823 0.304801 0.753874
O O3 0.598301 0.291658 0.165182
O O4 0.678858 0.391431 0.077618
O O5 0.295300 0.271207 0.460960
O O6 0.235954 0.374771 0.511528
O O7 0.289896 0.342077 0.050928
O O8 0.572553 0.893060 0.828947
O O9 0.341637 0.931869 0.591750
O O10 0.517338 0.000000 0.934736
O O11 0.421121 0.917902 0.156402
O O12 0.104174 0.293425 0.582817
O O13 0.763857 0.500000 0.136128
#
# Coordination Sequence:
#
# PCOD9132758 Si02
#       6
#     4   4   4   4   4   4
#     4  12  22  39  61  85 118 163 189 243 306 345
#     4  10  22  39  55  86 126 144 198 242 287 358
#     4  10  21  40  65  88 118 153 200 250 291 350
#     4  10  22  37  55  90 115 155 194 236 291 359
#     4  10  20  41  56  87 122 151 188 253 287 341
#     4  10  23  40  59  90 118 152 205 248 288 349
#
# _framework density 20.809175
#
# number of rings (size 3 to 8) (size 9 to 14) (size 15 to 20)
#    1.000    0.667    1.667    3.000    0.000    4.000 
#    0.000    1.667    0.000    0.000    0.000    0.000 
#    0.000    0.000    0.000    0.000    0.000    0.000 
#
# Total GULP energy -66877.629856 kJ/mol
# GULP energy per Si atom -5573.135821 kJ/mol
# Density = 2.076181 g / cm^3
# Si number density = 20.809175 Si / 1000 Ang^3
#
#
#
# Elastic Constant Matrix: (Units=GPa)
#
#
# Indices 1 2 3 4 5 6 
#
# 1 32.7045 18.7680 16.5355 0.0000 0.6801 0.0000
# 2 18.7680 61.2256 19.5135 0.0000 11.5276 0.0000
# 3 16.5355 19.5135 107.2426 0.0000 -11.7347 0.0000
# 4 0.0000 0.0000 0.0000 14.9940 0.0000 4.2886
# 5 0.6801 11.5276 -11.7347 0.0000 39.6162 0.0000
# 6 0.0000 0.0000 0.0000 4.2886 0.0000 30.6746
#
#
#
# Elastic Compliance Matrix: (Units=1/GPa)
#
#
# Indices 1 2 3 4 5 6 
#
# 1 0.038753 -0.010914 -0.003839 0.000000 0.001373 0.000000
# 2 -0.010914 0.022011 -0.003103 0.000000 -0.007137 0.000000
# 3 -0.003839 -0.003103 0.010942 0.000000 0.004210 0.000000
# 4 0.000000 0.000000 0.000000 0.069471 0.000000 -0.009713
# 5 0.001373 -0.007137 0.004210 0.000000 0.028542 0.000000
# 6 0.000000 0.000000 0.000000 -0.009713 0.000000 0.033958
#
#
# Mechanical properties :
#
#
# Convention : Reuss Voigt Hill
#
# Bulk Modulus (GPa) = 27.78312 34.53408 31.15860
# Shear Modulus (GPa) = 19.88959 26.81402 23.35181
#
# Velocity S-wave (km/s) = 3.09497 3.59356 3.35354
# Velocity P-wave (km/s) = 5.11392 5.81806 5.47732
#
# Compressibility (1/GPa) = 0.03599308
#
# Stress axis : x y z
#
# Youngs Moduli (GPa) = 25.80478 45.43107 91.39190
#
# Poissons Ratio (x) = 0.49584 0.35085
# Poissons Ratio (y) = 0.28164 0.28361
# Poissons Ratio (z) = 0.09906 0.14098
#
# Static dielectric constant tensor:
#      x y z
#    x 1.785600 0.000000 -0.012990 
#    y 0.000000 1.758480 0.000000 
#    z -0.012990 0.000000 1.721430 
# 
# From -- ./inp_files/3070.got.cif
#   From: 2010.05.17/outbox.cif.g08.bks.cpg/sg8_2_cif.got.tgz:3070.got - 2010.06.03 19:46:02.
