data_PCOD9132706
_publ_section_title
;
Structure prediction by ZEFSAII (Michael W. Deem and Ramdas Pophale) SiO2 
 PCOD9132706
Probable space group: C M
;
_chemical_formula_sum "Si O2"
_cell_formula_units_Z 32
_cell_length_a 18.459025
_cell_length_b 11.941819
_cell_length_c 13.861497
_cell_angle_alpha 90.000000
_cell_angle_beta 149.736352
_cell_angle_gamma 90.000000
_cell_volume 1539.935205
_symmetry_space_group_name_H-M "C M"
_symmetry_group_IT_number 8
_symmetry_cell_setting 'monoclinic'
loop_
_space_group_symop_operation_xyz
x,y,z
x,-y,z
1/2+x,1/2+y,z
1/2+x,1/2-y,z
loop_
_atom_site_type_symbol
_atom_site_label
_atom_site_fract_x
_atom_site_fract_y
_atom_site_fract_z
Si Si1 0.320090 0.375556 0.503130
Si Si2 0.248090 0.129722 0.676941
Si Si3 0.501843 0.628918 0.527393
Si Si4 0.993438 0.235511 0.870223
Si Si5 0.653263 0.322007 0.231243
Si Si6 0.949110 0.374988 0.495824
Si Si7 0.497103 0.631848 0.245921
Si Si8 0.679779 0.868367 0.928930
O O1 0.268595 0.500000 0.459796
O O2 0.454930 0.375902 0.584212
O O3 0.381170 0.325037 0.671198
O O4 0.197283 0.304805 0.308990
O O5 0.167673 0.136353 0.686993
O O6 0.395830 0.191750 0.830237
O O7 0.125941 0.174435 0.462127
O O8 0.272890 0.000000 0.682100
O O9 0.457099 0.500000 0.439705
O O10 0.439299 0.754440 0.427731
O O11 0.097922 0.305622 0.920801
O O12 0.087126 0.161073 0.049958
O O13 0.810742 0.377227 0.407702
O O14 0.546974 0.357824 0.193191
O O15 0.956421 0.500000 0.457035
O O16 0.087013 0.362320 0.723856
O O17 0.488495 0.500000 0.255617
O O18 0.339864 0.676394 0.091484
O O19 0.686138 0.000000 0.961716
#
# Coordination Sequence:
#
# PCOD9132706 Si02
#       8
#     4   4   4   4   4   4   4   4
#     4  10  22  42  61  88 131 171 209 266 331 392
#     4  10  21  39  65  92 121 161 212 269 322 377
#     4   9  19  37  63  91 121 164 211 256 319 384
#     4  12  23  38  64  93 123 168 216 263 322 395
#     4  11  23  38  63  92 123 172 217 264 318 391
#     4  10  20  39  64  90 127 166 209 260 318 379
#     4  10  21  38  62  92 123 155 205 268 319 373
#     4  10  21  37  62  92 120 155 207 268 320 371
#
# _framework density 20.780094999999999
#
# number of rings (size 3 to 8) (size 9 to 14) (size 15 to 20)
#    0.000    1.750    3.750    0.750    5.250    4.000 
#    0.000    0.625    0.000    0.750    0.000    0.000 
#    0.000    0.000    0.000    0.000    0.000    0.000 
#
# Total GULP energy -89069.482611 kJ/mol
# GULP energy per Si atom -5566.842663 kJ/mol
# Density = 2.073280 g / cm^3
# Si number density = 20.780095 Si / 1000 Ang^3
#
#
#
# Elastic Constant Matrix: (Units=GPa)
#
#
# Indices 1 2 3 4 5 6 
#
# 1 70.9904 12.0449 18.4523 0.0000 5.5003 0.0000
# 2 12.0449 109.6167 5.0025 0.0000 6.3181 0.0000
# 3 18.4523 5.0025 66.8257 0.0000 12.1433 0.0000
# 4 0.0000 0.0000 0.0000 5.0433 0.0000 5.4117
# 5 5.5003 6.3181 12.1433 0.0000 32.4499 0.0000
# 6 0.0000 0.0000 0.0000 5.4117 0.0000 17.6229
#
#
#
# Elastic Compliance Matrix: (Units=1/GPa)
#
#
# Indices 1 2 3 4 5 6 
#
# 1 0.015440 -0.001466 -0.004002 0.000000 -0.000834 0.000000
# 2 -0.001466 0.009375 -0.000011 0.000000 -0.001573 0.000000
# 3 -0.004002 -0.000011 0.017110 0.000000 -0.005722 0.000000
# 4 0.000000 0.000000 0.000000 0.295725 0.000000 -0.090812
# 5 -0.000834 -0.001573 -0.005722 0.000000 0.033406 0.000000
# 6 0.000000 0.000000 0.000000 -0.090812 0.000000 0.084631
#
#
# Mechanical properties :
#
#
# Convention : Reuss Voigt Hill
#
# Bulk Modulus (GPa) = 32.29291 35.38137 33.83714
# Shear Modulus (GPa) = 10.48291 25.15211 17.81751
#
# Velocity S-wave (km/s) = 2.24847 3.48285 2.93137
# Velocity P-wave (km/s) = 4.72386 5.76517 5.27030
#
# Compressibility (1/GPa) = 0.03096655
#
# Stress axis : x y z
#
# Youngs Moduli (GPa) = 64.76689 106.66744 58.44515
#
# Poissons Ratio (x) = 0.15636 0.23390
# Poissons Ratio (y) = 0.09494 0.00066
# Poissons Ratio (z) = 0.25920 0.00120
#
# Static dielectric constant tensor:
#      x y z
#    x 1.741030 0.000000 -0.005450 
#    y 0.000000 1.825900 0.000000 
#    z -0.005450 0.000000 1.746190 
# 
# From -- ./inp_files/27469.got.cif
#   From: 2010.05.17/outbox.cif.g08.bks.cpg/sg8_14_cif.got.tgz:27469.got - 2010.06.03 19:46:02.
