data_PCOD9132304
_publ_section_title
;
Structure prediction by ZEFSAII (Michael W. Deem and Ramdas Pophale) SiO2 
 PCOD9132304
Probable space group: C M
;
_chemical_formula_sum "Si O2"
_cell_formula_units_Z 28
_cell_length_a 18.259659
_cell_length_b 10.654294
_cell_length_c 12.704884
_cell_angle_alpha 90.000000
_cell_angle_beta 31.526178
_cell_angle_gamma 90.000000
_cell_volume 1292.399499
_symmetry_space_group_name_H-M "C M"
_symmetry_group_IT_number 8
_symmetry_cell_setting 'monoclinic'
loop_
_space_group_symop_operation_xyz
x,y,z
x,-y,z
1/2+x,1/2+y,z
1/2+x,1/2-y,z
loop_
_atom_site_type_symbol
_atom_site_label
_atom_site_fract_x
_atom_site_fract_y
_atom_site_fract_z
Si Si1 0.653280 0.640348 0.590690
Si Si2 0.823214 0.857566 0.979320
Si Si3 0.804452 0.365020 0.854086
Si Si4 0.155490 0.203758 0.823589
Si Si5 0.553678 0.858925 0.411302
Si Si6 0.860048 0.146318 0.276354
Si Si7 0.898536 0.861854 0.478748
O O1 0.679810 0.500000 0.515230
O O2 0.486669 0.663715 0.795908
O O3 0.691758 0.641253 0.667548
O O4 0.736726 0.750835 0.430576
O O5 0.767429 0.754804 0.966954
O O6 0.809165 0.000000 0.956180
O O7 0.721149 0.846906 0.205017
O O8 0.776082 0.500000 0.939676
O O9 0.725908 0.359700 0.838804
O O10 0.968986 0.355253 0.623446
O O11 0.236845 0.335945 0.711091
O O12 0.990793 0.194915 0.047339
O O13 0.487157 0.748760 0.423129
O O14 0.524526 0.000000 0.403861
O O15 0.908624 0.143227 0.340162
O O16 0.825960 0.000000 0.291536
O O17 0.942300 0.000000 0.461181
#
# Coordination Sequence:
#
# PCOD9132304 Si02
#       7
#     4   4   4   4   4   4   4
#     4  10  22  39  57  79 111 148 187 228 271 326
#     4  10  22  39  56  79 113 150 184 224 276 328
#     4  10  20  35  58  86 110 138 182 230 274 326
#     4  10  20  36  60  84 109 144 185 226 272 327
#     4   9  19  35  55  79 109 146 186 224 269 327
#     4  10  20  34  55  82 111 143 182 228 276 324
#     4   9  19  34  53  83 117 143 176 226 278 326
#
# _framework density 21.665126999999998
#
# number of rings (size 3 to 8) (size 9 to 14) (size 15 to 20)
#    0.000    2.286    0.000    2.143    0.000   10.286 
#    0.000    1.429    0.000    0.000    0.000    0.000 
#    0.000    0.000    0.000    0.000    0.000    0.000 
#
# Total GULP energy -78081.665419 kJ/mol
# GULP energy per Si atom -5577.261816 kJ/mol
# Density = 2.161582 g / cm^3
# Si number density = 21.665127 Si / 1000 Ang^3
#
#
#
# Elastic Constant Matrix: (Units=GPa)
#
#
# Indices 1 2 3 4 5 6 
#
# 1 40.0088 36.3703 3.8575 0.0000 -1.3304 0.0000
# 2 36.3703 144.4738 70.9506 0.0000 -4.5002 0.0000
# 3 3.8575 70.9506 156.7803 0.0000 -11.1577 0.0000
# 4 0.0000 0.0000 0.0000 15.5490 0.0000 -3.5871
# 5 -1.3304 -4.5002 -11.1577 0.0000 26.3494 0.0000
# 6 0.0000 0.0000 0.0000 -3.5871 0.0000 18.3946
#
#
#
# Elastic Compliance Matrix: (Units=1/GPa)
#
#
# Indices 1 2 3 4 5 6 
#
# 1 0.034263 -0.010566 0.004055 0.000000 0.001643 0.000000
# 2 -0.010566 0.012159 -0.005292 0.000000 -0.000698 0.000000
# 3 0.004055 -0.005292 0.008892 0.000000 0.003066 0.000000
# 4 0.000000 0.000000 0.000000 0.067342 0.000000 0.013132
# 5 0.001643 -0.000698 0.003066 0.000000 0.039214 0.000000
# 6 0.000000 0.000000 0.000000 0.013132 0.000000 0.056925
#
#
# Mechanical properties :
#
#
# Convention : Reuss Voigt Hill
#
# Bulk Modulus (GPa) = 31.53735 62.62439 47.08087
# Shear Modulus (GPa) = 19.76527 27.39758 23.58142
#
# Velocity S-wave (km/s) = 3.02372 3.55997 3.30275
# Velocity P-wave (km/s) = 5.17483 6.77246 6.02682
#
# Compressibility (1/GPa) = 0.03170844
#
# Stress axis : x y z
#
# Youngs Moduli (GPa) = 29.18587 82.24498 112.46418
#
# Poissons Ratio (x) = 0.86900 -0.45610
# Poissons Ratio (y) = 0.30838 0.59518
# Poissons Ratio (z) = -0.11836 0.43525
#
# Static dielectric constant tensor:
#      x y z
#    x 1.810960 0.000000 -0.034640 
#    y 0.000000 1.787300 0.000000 
#    z -0.034640 0.000000 1.830200 
# 
# From -- ./inp_files/27821.got.cif
#   From: 2010.05.17/outbox.cif.g08.bks.cpg/sg8_14_cif.got.tgz:27821.got - 2010.06.03 19:46:02.
