data_PCOD9132807
_publ_section_title
;
Structure prediction by ZEFSAII (Michael W. Deem and Ramdas Pophale) SiO2 
 PCOD9132807
Probable space group: C M
;
_chemical_formula_sum "Si O2"
_cell_formula_units_Z 32
_cell_length_a 20.693213
_cell_length_b 9.039226
_cell_length_c 21.962958
_cell_angle_alpha 90.000000
_cell_angle_beta 22.290909
_cell_angle_gamma 90.000000
_cell_volume 1558.273038
_symmetry_space_group_name_H-M "C M"
_symmetry_group_IT_number 8
_symmetry_cell_setting 'monoclinic'
loop_
_space_group_symop_operation_xyz
x,y,z
x,-y,z
1/2+x,1/2+y,z
1/2+x,1/2-y,z
loop_
_atom_site_type_symbol
_atom_site_label
_atom_site_fract_x
_atom_site_fract_y
_atom_site_fract_z
Si Si1 0.009430 0.672817 0.813420
Si Si2 0.958819 0.339988 0.994205
Si Si3 0.355510 0.822205 0.490226
Si Si4 0.278675 0.333689 0.802772
Si Si5 0.591040 0.333378 0.062776
Si Si6 0.134551 0.676182 0.144075
Si Si7 0.284549 0.338226 0.233666
Si Si8 0.464256 0.673340 0.521872
O O1 0.001985 0.500000 0.802082
O O2 0.166184 0.754494 0.643434
O O3 0.050185 0.678117 0.850400
O O4 0.820905 0.745821 0.977794
O O5 0.866742 0.500000 0.071326
O O6 0.848835 0.199564 0.109502
O O7 0.097040 0.348937 0.927069
O O8 0.504300 0.780109 0.312017
O O9 0.409904 0.760100 0.508848
O O10 0.343721 0.000000 0.501242
O O11 0.336188 0.500000 0.769321
O O12 0.390323 0.270543 0.650513
O O13 0.249650 0.232466 0.886372
O O14 0.624969 0.500000 0.054900
O O15 0.550369 0.226625 0.153966
O O16 0.435801 0.341642 0.150500
O O17 0.158314 0.500000 0.126279
O O18 0.200729 0.500000 0.307510
O O19 0.163940 0.202459 0.353609
O O20 0.420758 0.500000 0.554310
#
# Coordination Sequence:
#
# PCOD9132807 Si02
#       8
#     4   4   4   4   4   4   4   4
#     4  11  22  39  64  94 126 165 209 256 311 373
#     4   9  17  33  56  83 115 152 193 236 294 362
#     4  11  24  41  64  95 130 166 206 260 315 368
#     4   9  18  35  58  84 116 152 191 239 294 357
#     4  10  22  41  62  85 114 157 206 253 305 360
#     4  11  25  44  64  89 123 168 216 260 310 368
#     4  10  21  35  55  87 120 154 197 248 309 366
#     4  11  21  36  59  91 124 158 198 244 306 372
#
# _framework density 20.535553
#
# number of rings (size 3 to 8) (size 9 to 14) (size 15 to 20)
#    0.000    1.750    1.250    3.000    0.000    7.500 
#    2.250    0.000    0.000    0.000    0.000    0.000 
#    0.000    0.000    0.000    0.000    0.000    0.000 
#
# Total GULP energy -89171.903555 kJ/mol
# GULP energy per Si atom -5573.243972 kJ/mol
# Density = 2.048881 g / cm^3
# Si number density = 20.535553 Si / 1000 Ang^3
#
#
#
# Elastic Constant Matrix: (Units=GPa)
#
#
# Indices 1 2 3 4 5 6 
#
# 1 36.1461 25.0489 31.1798 -0.0007 9.4651 0.0001
# 2 25.0489 78.7130 53.5177 -0.0037 4.8758 0.0005
# 3 31.1798 53.5177 122.7502 -0.0028 13.0126 0.0004
# 4 -0.0007 -0.0037 -0.0028 32.9274 0.0000 -0.2172
# 5 9.4651 4.8758 13.0126 0.0000 27.4025 0.0001
# 6 0.0001 0.0005 0.0004 -0.2172 0.0001 26.4918
#
#
#
# Elastic Compliance Matrix: (Units=1/GPa)
#
#
# Indices 1 2 3 4 5 6 
#
# 1 0.041120 -0.008649 -0.005614 -0.000001 -0.009998 0.000000
# 2 -0.008649 0.019884 -0.006754 0.000001 0.002657 0.000000
# 3 -0.005614 -0.006754 0.012830 0.000000 -0.002952 0.000000
# 4 -0.000001 0.000001 0.000000 0.030371 0.000000 0.000249
# 5 -0.009998 0.002657 -0.002952 0.000000 0.040876 0.000000
# 6 0.000000 0.000000 0.000000 0.000249 0.000000 0.037750
#
#
# Mechanical properties :
#
#
# Convention : Reuss Voigt Hill
#
# Bulk Modulus (GPa) = 31.44642 50.78911 41.11777
# Shear Modulus (GPa) = 21.23447 25.88854 23.56150
#
# Velocity S-wave (km/s) = 3.21913 3.55444 3.39093
# Velocity P-wave (km/s) = 5.40032 6.45224 5.94957
#
# Compressibility (1/GPa) = 0.03180012
#
# Stress axis : x y z
#
# Youngs Moduli (GPa) = 24.31896 50.29065 77.94101
#
# Poissons Ratio (x) = 0.43498 0.43756
# Poissons Ratio (y) = 0.21034 0.52641
# Poissons Ratio (z) = 0.13653 0.33966
#
# Static dielectric constant tensor:
#      x y z
#    x 1.763700 0.000000 -0.032780 
#    y 0.000000 1.731490 0.000000 
#    z -0.032780 0.000000 1.786270 
# 
# From -- ./inp_files/32355.got.cif
#   From: 2010.05.17/outbox.cif.g08.bks.cpg/sg8_17_cif.got.tgz:32355.got - 2010.06.03 19:46:02.
