data_PCOD9132016
_publ_section_title
;
Structure prediction by ZEFSAII (Michael W. Deem and Ramdas Pophale) SiO2 
 PCOD9132016
Probable space group: C M
;
_chemical_formula_sum "Si O2"
_cell_formula_units_Z 32
_cell_length_a 20.839698
_cell_length_b 8.972449
_cell_length_c 25.667979
_cell_angle_alpha 90.000000
_cell_angle_beta 157.479870
_cell_angle_gamma 90.000000
_cell_volume 1838.238848
_symmetry_space_group_name_H-M "C M"
_symmetry_group_IT_number 8
_symmetry_cell_setting 'monoclinic'
loop_
_space_group_symop_operation_xyz
x,y,z
x,-y,z
1/2+x,1/2+y,z
1/2+x,1/2-y,z
loop_
_atom_site_type_symbol
_atom_site_label
_atom_site_fract_x
_atom_site_fract_y
_atom_site_fract_z
Si Si1 0.837830 0.823094 0.297810
Si Si2 0.489290 0.321864 0.715682
Si Si3 0.875193 0.322461 0.438283
Si Si4 0.632524 0.822440 0.719684
Si Si5 0.604239 0.821868 0.421351
Si Si6 0.069329 0.321937 0.272555
Si Si7 0.484371 0.324057 0.025987
Si Si8 0.803058 0.823313 0.001536
O O1 0.878170 0.751236 0.384148
O O2 0.651118 0.769031 0.143144
O O3 0.970648 0.763967 0.355693
O O4 0.842674 0.000000 0.305241
O O5 0.509276 0.500000 0.733256
O O6 0.537600 0.266270 0.693962
O O7 0.295483 0.284875 0.580128
O O8 0.620799 0.243061 0.852547
O O9 0.851158 0.500000 0.414903
O O10 0.721803 0.255394 0.356325
O O11 0.042885 0.295321 0.597723
O O12 0.617824 0.000000 0.720523
O O13 0.829133 0.786335 0.871689
O O14 0.582202 0.789239 0.343507
O O15 0.581656 0.000000 0.411350
O O16 0.079625 0.500000 0.273177
O O17 0.899650 0.259295 0.120039
O O18 0.522714 0.500000 0.049648
O O19 0.411612 0.300240 0.029835
O O20 0.794482 0.000000 0.004185
#
# Coordination Sequence:
#
# PCOD9132016 Si02
#       8
#     4   4   4   4   4   4   4   4
#     4  12  25  38  57  84 115 154 196 238 283 342
#     4  10  19  34  57  85 115 149 187 235 287 337
#     4  11  21  36  59  86 117 151 188 237 290 343
#     4   9  19  34  57  86 113 146 188 232 285 343
#     4  10  23  41  59  82 116 154 190 234 292 346
#     4  11  21  36  59  88 115 146 193 242 284 336
#     4   9  18  35  56  81 114 150 187 230 284 341
#     4  10  20  34  56  86 117 152 187 232 285 338
#
# _framework density 17.407966999999999
#
# number of rings (size 3 to 8) (size 9 to 14) (size 15 to 20)
#    0.000    1.750    2.500    3.375    0.000    4.500 
#    0.000    1.250    0.000    3.000    0.000    0.000 
#    0.000    0.000    0.000    0.000    0.000    0.000 
#
# Total GULP energy -89357.256938 kJ/mol
# GULP energy per Si atom -5584.828559 kJ/mol
# Density = 1.736835 g / cm^3
# Si number density = 17.407967 Si / 1000 Ang^3
#
#
#
# Elastic Constant Matrix: (Units=GPa)
#
#
# Indices 1 2 3 4 5 6 
#
# 1 87.9100 65.2942 72.3573 0.0004 0.8484 0.0000
# 2 65.2942 89.1532 81.4426 0.0002 4.0648 0.0001
# 3 72.3573 81.4426 160.9195 -0.0004 -4.4063 0.0000
# 4 0.0004 0.0002 -0.0004 28.8300 -0.0003 1.6946
# 5 0.8484 4.0648 -4.4063 -0.0003 20.6977 -0.0001
# 6 0.0000 0.0001 0.0000 1.6946 -0.0001 28.2193
#
#
#
# Elastic Compliance Matrix: (Units=1/GPa)
#
#
# Indices 1 2 3 4 5 6 
#
# 1 0.026193 -0.015831 -0.003731 0.000000 0.001241 0.000000
# 2 -0.015831 0.031303 -0.008927 0.000000 -0.007399 0.000000
# 3 -0.003731 -0.008927 0.012535 0.000000 0.004575 0.000000
# 4 0.000000 0.000000 0.000000 0.034809 0.000001 -0.002090
# 5 0.001241 -0.007399 0.004575 0.000001 0.050691 0.000000
# 6 0.000000 0.000000 0.000000 -0.002090 0.000000 0.035562
#
#
# Mechanical properties :
#
#
# Convention : Reuss Voigt Hill
#
# Bulk Modulus (GPa) = 76.61299 86.24121 81.42710
# Shear Modulus (GPa) = 19.80795 23.47530 21.64162
#
# Velocity S-wave (km/s) = 3.37689 3.67623 3.52973
# Velocity P-wave (km/s) = 7.70132 8.22608 7.96802
#
# Compressibility (1/GPa) = 0.01305262
#
# Stress axis : x y z
#
# Youngs Moduli (GPa) = 38.17819 31.94538 79.77398
#
# Poissons Ratio (x) = 0.50573 0.29767
# Poissons Ratio (y) = 0.60441 0.71215
# Poissons Ratio (z) = 0.14246 0.28518
#
# Static dielectric constant tensor:
#      x y z
#    x 1.555710 0.000000 -0.014550 
#    y 0.000000 1.576970 0.000000 
#    z -0.014550 0.000000 1.602950 
# 
# From -- ./inp_files/33059.got.cif
#   From: 2010.05.17/outbox.cif.g08.bks.cpg/sg8_17_cif.got.tgz:33059.got - 2010.06.03 19:46:02.
