data_PCOD9132135
_publ_section_title
;
Structure prediction by ZEFSAII (Michael W. Deem and Ramdas Pophale) SiO2 
 PCOD9132135
Probable space group: C M
;
_chemical_formula_sum "Si O2"
_cell_formula_units_Z 24
_cell_length_a 14.665634
_cell_length_b 7.985984
_cell_length_c 15.295519
_cell_angle_alpha 90.000000
_cell_angle_beta 31.420027
_cell_angle_gamma 90.000000
_cell_volume 933.873049
_symmetry_space_group_name_H-M "C M"
_symmetry_group_IT_number 8
_symmetry_cell_setting 'monoclinic'
loop_
_space_group_symop_operation_xyz
x,y,z
x,-y,z
1/2+x,1/2+y,z
1/2+x,1/2-y,z
loop_
_atom_site_type_symbol
_atom_site_label
_atom_site_fract_x
_atom_site_fract_y
_atom_site_fract_z
Si Si1 0.789950 0.186798 0.318080
Si Si2 0.615762 0.204958 0.707445
Si Si3 0.104388 0.307530 0.161467
Si Si4 0.514026 0.805885 0.976739
Si Si5 0.004113 0.198473 0.429437
Si Si6 0.831795 0.306707 0.816100
O O1 0.599689 0.231742 0.436821
O O2 0.902566 0.295730 0.292940
O O3 0.789350 0.000000 0.355010
O O4 0.906229 0.199255 0.134169
O O5 0.508141 0.252881 0.882214
O O6 0.518287 0.257634 0.698851
O O7 0.811119 0.264967 0.565806
O O8 0.617460 0.000000 0.704438
O O9 0.159355 0.500000 0.111735
O O10 0.111606 0.239633 0.253452
O O11 0.214581 0.202747 0.000997
O O12 0.717607 0.795172 0.840364
O O13 0.458165 0.000000 0.030055
O O14 0.994933 0.000000 0.446834
O O15 0.843772 0.500000 0.778601
#
# Coordination Sequence:
#
# PCOD9132135 Si02
#       6
#     4   4   4   4   4   4
#     4  11  22  38  59  86 113 147 190 234 279 331
#     4   9  21  37  56  80 112 149 184 221 278 338
#     4  11  22  38  59  86 113 147 190 234 279 331
#     4  10  19  36  59  84 110 144 185 231 279 330
#     4  11  22  39  58  82 116 153 186 229 280 334
#     4  10  19  36  59  84 110 144 185 231 279 330
#
# _framework density 25.699424
#
# number of rings (size 3 to 8) (size 9 to 14) (size 15 to 20)
#    0.000    1.667    0.000    7.500    0.000    2.667 
#    0.000   12.500    0.000    0.000    0.000    0.000 
#    0.000    0.000    0.000    0.000    0.000    0.000 
#
# Total GULP energy -67203.739072 kJ/mol
# GULP energy per Si atom -5600.311589 kJ/mol
# Density = 2.564093 g / cm^3
# Si number density = 25.699424 Si / 1000 Ang^3
#
#
#
# Elastic Constant Matrix: (Units=GPa)
#
#
# Indices 1 2 3 4 5 6 
#
# 1 152.5493 -3.8611 12.6076 0.0000 -15.5043 0.0000
# 2 -3.8611 85.6086 -7.1142 0.0000 -2.7020 0.0000
# 3 12.6076 -7.1142 76.5158 0.0001 -15.8421 0.0000
# 4 0.0000 0.0000 0.0001 19.9358 0.0000 -9.5554
# 5 -15.5043 -2.7020 -15.8421 0.0000 57.2178 0.0000
# 6 0.0000 0.0000 0.0000 -9.5554 0.0000 27.1888
#
#
#
# Elastic Compliance Matrix: (Units=1/GPa)
#
#
# Indices 1 2 3 4 5 6 
#
# 1 0.006792 0.000296 -0.000751 0.000000 0.001647 0.000000
# 2 0.000296 0.011830 0.001255 0.000000 0.000986 0.000000
# 3 -0.000751 0.001255 0.014087 0.000000 0.003756 0.000000
# 4 0.000000 0.000000 0.000000 0.060323 0.000000 0.021200
# 5 0.001647 0.000986 0.003756 0.000000 0.019010 0.000000
# 6 0.000000 0.000000 0.000000 0.021200 0.000000 0.044231
#
#
# Mechanical properties :
#
#
# Convention : Reuss Voigt Hill
#
# Bulk Modulus (GPa) = 29.14557 35.32645 32.23601
# Shear Modulus (GPa) = 30.10091 41.73792 35.91941
#
# Velocity S-wave (km/s) = 3.42609 4.03436 3.74260
# Velocity P-wave (km/s) = 5.19773 5.95628 5.58989
#
# Compressibility (1/GPa) = 0.03431053
#
# Stress axis : x y z
#
# Youngs Moduli (GPa) = 147.22891 84.53171 70.98581
#
# Poissons Ratio (x) = -0.02502 0.05329
# Poissons Ratio (y) = -0.04357 -0.08911
# Poissons Ratio (z) = 0.11053 -0.10612
#
# Static dielectric constant tensor:
#      x y z
#    x 1.994240 0.000000 -0.057140 
#    y 0.000000 1.869280 0.000000 
#    z -0.057140 0.000000 2.175860 
# 
# From -- ./inp_files/14239.got.cif
#   From: 2010.05.17/outbox.cif.g08.bks.cpg/sg8_8_cif.got.tgz:14239.got - 2010.06.03 19:46:02.
