data_PCOD9132866
_publ_section_title
;
Structure prediction by ZEFSAII (Michael W. Deem and Ramdas Pophale) SiO2 
 PCOD9132866
Probable space group: C M
;
_chemical_formula_sum "Si O2"
_cell_formula_units_Z 32
_cell_length_a 16.212174
_cell_length_b 9.124622
_cell_length_c 10.851634
_cell_angle_alpha 90.000000
_cell_angle_beta 118.501652
_cell_angle_gamma 90.000000
_cell_volume 1410.727012
_symmetry_space_group_name_H-M "C M"
_symmetry_group_IT_number 8
_symmetry_cell_setting 'monoclinic'
loop_
_space_group_symop_operation_xyz
x,y,z
x,-y,z
1/2+x,1/2+y,z
1/2+x,1/2-y,z
loop_
_atom_site_type_symbol
_atom_site_label
_atom_site_fract_x
_atom_site_fract_y
_atom_site_fract_z
Si Si1 0.838330 0.326164 0.084570
Si Si2 0.889391 0.824916 0.740260
Si Si3 0.178016 0.331414 0.829877
Si Si4 0.234691 0.328344 0.232479
Si Si5 0.705998 0.827647 0.488650
Si Si6 0.509243 0.328478 0.312748
Si Si7 0.547105 0.832895 0.983556
Si Si8 0.013933 0.828070 0.592740
O O1 0.839930 0.500000 0.074080
O O2 0.788524 0.275679 0.177105
O O3 0.942529 0.260919 0.173702
O O4 0.771957 0.255261 0.932746
O O5 0.782043 0.777919 0.644044
O O6 0.954924 0.760449 0.892976
O O7 0.943987 0.785753 0.652450
O O8 0.888277 0.000000 0.749208
O O9 0.200616 0.500000 0.819258
O O10 0.112282 0.327154 0.906373
O O11 0.109263 0.263235 0.679188
O O12 0.246563 0.500000 0.200949
O O13 0.257593 0.321166 0.392203
O O14 0.123589 0.291613 0.140112
O O15 0.613810 0.731946 0.405322
O O16 0.681716 0.000000 0.490715
O O17 0.508465 0.500000 0.279917
O O18 0.471236 0.312690 0.426641
O O19 0.517889 0.000000 0.982993
O O20 0.037009 0.000000 0.625775
#
# Coordination Sequence:
#
# PCOD9132866 Si02
#       8
#     4   4   4   4   4   4   4   4
#     4  11  21  34  56  83 109 139 179 223 266 319
#     4   9  17  31  53  77 101 131 167 210 260 312
#     4   9  17  31  53  81 110 136 168 217 271 319
#     4   9  18  35  57  79 105 138 176 220 268 314
#     4  10  21  37  54  74 104 142 182 222 265 313
#     4  11  23  38  54  75 108 146 183 224 269 317
#     4   8  15  28  49  77 104 129 161 206 259 311
#     4   9  18  34  56  80 105 137 176 218 266 319
#
# _framework density 22.683340999999999
#
# number of rings (size 3 to 8) (size 9 to 14) (size 15 to 20)
#    0.000    2.500    0.000    3.375    0.000    7.000 
#    0.000    3.750    0.000    4.500    0.000    0.000 
#    0.000    0.000    0.000    0.000    0.000    0.000 
#
# Total GULP energy -89432.245953 kJ/mol
# GULP energy per Si atom -5589.515372 kJ/mol
# Density = 2.263171 g / cm^3
# Si number density = 22.683341 Si / 1000 Ang^3
#
#
#
# Elastic Constant Matrix: (Units=GPa)
#
#
# Indices 1 2 3 4 5 6 
#
# 1 76.2388 27.9275 24.6279 0.0000 19.4330 0.0000
# 2 27.9275 102.7272 77.5158 0.0000 31.9191 0.0000
# 3 24.6279 77.5158 164.9051 0.0000 36.4112 0.0000
# 4 0.0000 0.0000 0.0000 35.0152 0.0000 10.7082
# 5 19.4330 31.9191 36.4112 0.0000 48.0374 0.0000
# 6 0.0000 0.0000 0.0000 10.7082 0.0000 17.7003
#
#
#
# Elastic Compliance Matrix: (Units=1/GPa)
#
#
# Indices 1 2 3 4 5 6 
#
# 1 0.015241 -0.002800 -0.000011 0.000000 -0.004297 0.000000
# 2 -0.002800 0.016959 -0.006384 0.000000 -0.005297 0.000000
# 3 -0.000011 -0.006384 0.009763 0.000000 -0.003154 0.000000
# 4 0.000000 0.000000 0.000000 0.035042 0.000000 -0.021199
# 5 -0.004297 -0.005297 -0.003154 0.000000 0.028465 0.000000
# 6 0.000000 0.000000 0.000000 -0.021199 0.000000 0.069321
#
#
# Mechanical properties :
#
#
# Convention : Reuss Voigt Hill
#
# Bulk Modulus (GPa) = 42.42239 67.11260 54.76749
# Shear Modulus (GPa) = 24.87077 34.40394 29.63735
#
# Velocity S-wave (km/s) = 3.31484 3.89871 3.61857
# Velocity P-wave (km/s) = 5.77871 7.06524 6.45411
#
# Compressibility (1/GPa) = 0.02357246
#
# Stress axis : x y z
#
# Youngs Moduli (GPa) = 65.61174 58.96665 102.42783
#
# Poissons Ratio (x) = 0.16510 0.00117
# Poissons Ratio (y) = 0.18370 0.65390
# Poissons Ratio (z) = 0.00075 0.37644
#
# Static dielectric constant tensor:
#      x y z
#    x 1.931000 0.000000 -0.024390 
#    y 0.000000 1.758380 0.000000 
#    z -0.024390 0.000000 1.829820 
# 
# From -- ./inp_files/27760.got.cif
#   From: 2010.05.17/outbox.cif.g08.bks.cpg/sg8_14_cif.got.tgz:27760.got - 2010.06.03 19:46:02.
