data_PCOD9132901
_publ_section_title
;
Structure prediction by ZEFSAII (Michael W. Deem and Ramdas Pophale) SiO2 
 PCOD9132901
Probable space group: C M
;
_chemical_formula_sum "Si O2"
_cell_formula_units_Z 32
_cell_length_a 21.473938
_cell_length_b 15.415157
_cell_length_c 7.951169
_cell_angle_alpha 90.000000
_cell_angle_beta 34.551221
_cell_angle_gamma 90.000000
_cell_volume 1492.736056
_symmetry_space_group_name_H-M "C M"
_symmetry_group_IT_number 8
_symmetry_cell_setting 'monoclinic'
loop_
_space_group_symop_operation_xyz
x,y,z
x,-y,z
1/2+x,1/2+y,z
1/2+x,1/2-y,z
loop_
_atom_site_type_symbol
_atom_site_label
_atom_site_fract_x
_atom_site_fract_y
_atom_site_fract_z
Si Si1 0.542360 0.603290 0.275510
Si Si2 0.860642 0.597112 0.053423
Si Si3 0.770703 0.652281 0.599420
Si Si4 0.316269 0.308019 0.691892
Si Si5 0.631537 0.903841 0.222143
Si Si6 0.075915 0.681093 0.674820
Si Si7 0.006270 0.602852 0.185929
Si Si8 0.685987 0.676658 0.236485
O O1 0.518259 0.500000 0.321610
O O2 0.440761 0.664240 0.446825
O O3 0.585877 0.632443 0.361806
O O4 0.651336 0.624757 0.925369
O O5 0.906452 0.500000 0.961290
O O6 0.789201 0.614138 0.376274
O O7 0.779200 0.609620 0.081480
O O8 0.956078 0.668674 0.854528
O O9 0.793413 0.755415 0.571245
O O10 0.875005 0.614183 0.470686
O O11 0.246550 0.394826 0.871407
O O12 0.251837 0.245092 0.969625
O O13 0.642466 0.877677 0.392516
O O14 0.550478 0.859207 0.265114
O O15 0.588967 0.000000 0.320487
O O16 0.133037 0.772778 0.513193
O O17 0.058234 0.650408 0.905481
O O18 0.030971 0.500000 0.113679
#
# Coordination Sequence:
#
# PCOD9132901 Si02
#       8
#     4   4   4   4   4   4   4   4
#     4  11  22  40  61  86 123 162 198 247 300 361
#     4  11  22  39  60  89 120 155 198 249 307 360
#     4  10  23  36  60  85 122 153 201 245 301 355
#     4  10  23  38  59  86 121 156 205 240 300 358
#     4  10  21  37  62  89 118 157 202 248 302 363
#     4  10  21  38  60  88 125 153 195 255 308 349
#     4  10  21  37  61  92 119 152 202 250 304 362
#     4  10  23  37  61  89 118 154 203 244 304 360
#
# _framework density 21.437144
#
# number of rings (size 3 to 8) (size 9 to 14) (size 15 to 20)
#    0.000    1.750    0.000    4.500   10.500    1.000 
#    0.000    0.000    0.000    0.000    0.000    0.000 
#    0.000    0.000    0.000    0.000    0.000    0.000 
#
# Total GULP energy -89115.211796 kJ/mol
# GULP energy per Si atom -5569.700737 kJ/mol
# Density = 2.138835 g / cm^3
# Si number density = 21.437144 Si / 1000 Ang^3
#
#
#
# Elastic Constant Matrix: (Units=GPa)
#
#
# Indices 1 2 3 4 5 6 
#
# 1 47.5802 15.4828 14.5287 0.0000 -8.7423 0.0000
# 2 15.4828 80.5254 35.2870 0.0000 1.9870 0.0000
# 3 14.5287 35.2870 91.7653 0.0000 -5.0176 0.0000
# 4 0.0000 0.0000 0.0000 4.1669 0.0000 -4.8246
# 5 -8.7423 1.9870 -5.0176 0.0000 32.6891 0.0000
# 6 0.0000 0.0000 0.0000 -4.8246 0.0000 19.3558
#
#
#
# Elastic Compliance Matrix: (Units=1/GPa)
#
#
# Indices 1 2 3 4 5 6 
#
# 1 0.024062 -0.003929 -0.001950 0.000000 0.006375 0.000000
# 2 -0.003929 0.015683 -0.005565 0.000000 -0.002858 0.000000
# 3 -0.001950 -0.005565 0.013449 0.000000 0.001881 0.000000
# 4 0.000000 0.000000 0.000000 0.337349 0.000000 0.084087
# 5 0.006375 -0.002858 0.001881 0.000000 0.032759 0.000000
# 6 0.000000 0.000000 0.000000 0.084087 0.000000 0.072624
#
#
# Mechanical properties :
#
#
# Convention : Reuss Voigt Hill
#
# Bulk Modulus (GPa) = 32.99699 38.94085 35.96892
# Shear Modulus (GPa) = 9.45329 21.54718 15.50024
#
# Velocity S-wave (km/s) = 2.10222 3.17382 2.69189
# Velocity P-wave (km/s) = 4.61718 5.62454 5.14557
#
# Compressibility (1/GPa) = 0.03030579
#
# Stress axis : x y z
#
# Youngs Moduli (GPa) = 41.55846 63.76314 74.35569
#
# Poissons Ratio (x) = 0.25054 0.14501
# Poissons Ratio (y) = 0.16329 0.41378
# Poissons Ratio (z) = 0.08105 0.35483
#
# Static dielectric constant tensor:
#      x y z
#    x 1.819910 0.000000 0.026140 
#    y 0.000000 1.901620 0.000000 
#    z 0.026140 0.000000 1.820870 
# 
# From -- ./inp_files/17147.got.cif
#   From: 2010.05.17/outbox.cif.g08.bks.cpg/sg8_9_cif.got.tgz:17147.got - 2010.06.03 19:46:02.
