data_PCOD9132628
_publ_section_title
;
Structure prediction by ZEFSAII (Michael W. Deem and Ramdas Pophale) SiO2 
 PCOD9132628
Probable space group: C M
;
_chemical_formula_sum "Si O2"
_cell_formula_units_Z 28
_cell_length_a 15.547053
_cell_length_b 19.397963
_cell_length_c 5.518132
_cell_angle_alpha 90.000000
_cell_angle_beta 122.989722
_cell_angle_gamma 90.000000
_cell_volume 1395.848473
_symmetry_space_group_name_H-M "C M"
_symmetry_group_IT_number 8
_symmetry_cell_setting 'monoclinic'
loop_
_space_group_symop_operation_xyz
x,y,z
x,-y,z
1/2+x,1/2+y,z
1/2+x,1/2-y,z
loop_
_atom_site_type_symbol
_atom_site_label
_atom_site_fract_x
_atom_site_fract_y
_atom_site_fract_z
Si Si1 0.269190 0.192626 0.605060
Si Si2 0.567471 0.730353 0.540000
Si Si3 0.183769 0.699879 0.095549
Si Si4 0.919993 0.419459 0.690408
Si Si5 0.037282 0.616714 0.369699
Si Si6 0.865816 0.186495 0.998875
Si Si7 0.743670 0.921127 0.530337
O O1 0.170594 0.188458 0.630665
O O2 0.230271 0.241169 0.332715
O O3 0.316410 0.123181 0.577658
O O4 0.359427 0.239339 0.858111
O O5 0.561554 0.801745 0.379057
O O6 0.582158 0.764452 0.828090
O O7 0.467239 0.686722 0.318570
O O8 0.193362 0.626528 0.243394
O O9 0.263614 0.689855 0.001160
O O10 0.901799 0.500000 0.632963
O O11 0.973427 0.394629 0.520402
O O12 0.982341 0.408963 0.039801
O O13 0.147108 0.579238 0.566648
O O14 0.840810 0.122320 0.782578
O O15 0.768012 0.000000 0.502859
#
# Coordination Sequence:
#
# PCOD9132628 Si02
#       7
#     4   4   4   4   4   4   4
#     4  10  22  39  63  91 123 168 219 268 319 390
#     4  11  21  38  65  95 122 165 219 271 321 380
#     4  10  20  38  60  92 123 170 217 268 327 374
#     4  12  26  42  64  97 136 174 212 273 339 396
#     4  12  23  41  66  96 132 168 217 268 333 400
#     4  10  21  39  61  91 125 167 212 273 323 388
#     4  11  23  39  60  94 134 170 212 265 340 408
#
# _framework density 20.059481999999999
#
# number of rings (size 3 to 8) (size 9 to 14) (size 15 to 20)
#    0.000    1.143    5.714    3.000    2.000    2.857 
#    0.000    0.714    0.000    0.857    0.000    0.000 
#    0.000    0.000    0.000    0.000    0.000    0.000 
#
# Total GULP energy -77985.597919 kJ/mol
# GULP energy per Si atom -5570.399851 kJ/mol
# Density = 2.001383 g / cm^3
# Si number density = 20.059482 Si / 1000 Ang^3
#
#
#
# Elastic Constant Matrix: (Units=GPa)
#
#
# Indices 1 2 3 4 5 6 
#
# 1 67.8263 49.0264 35.9056 0.0000 3.4255 0.0000
# 2 49.0264 100.6328 23.6225 0.0000 10.0512 0.0000
# 3 35.9056 23.6225 113.0137 0.0000 13.2490 0.0000
# 4 0.0000 0.0000 0.0000 16.5319 0.0000 2.6703
# 5 3.4255 10.0512 13.2490 0.0000 33.4071 0.0000
# 6 0.0000 0.0000 0.0000 2.6703 0.0000 25.7921
#
#
#
# Elastic Compliance Matrix: (Units=1/GPa)
#
#
# Indices 1 2 3 4 5 6 
#
# 1 0.026381 -0.011699 -0.006326 0.000000 0.003324 0.000000
# 2 -0.011699 0.015823 0.000867 0.000000 -0.003905 0.000000
# 3 -0.006326 0.000867 0.011150 0.000000 -0.004034 0.000000
# 4 0.000000 0.000000 0.000000 0.061518 0.000000 -0.006369
# 5 0.003324 -0.003905 -0.004034 0.000000 0.032368 0.000000
# 6 0.000000 0.000000 0.000000 -0.006369 0.000000 0.039431
#
#
# Mechanical properties :
#
#
# Convention : Reuss Voigt Hill
#
# Bulk Modulus (GPa) = 52.52453 55.39796 53.96125
# Shear Modulus (GPa) = 21.99424 26.67411 24.33418
#
# Velocity S-wave (km/s) = 3.31486 3.65053 3.48674
# Velocity P-wave (km/s) = 6.39471 6.74131 6.57030
#
# Compressibility (1/GPa) = 0.01903872
#
# Stress axis : x y z
#
# Youngs Moduli (GPa) = 37.90616 63.19812 89.68709
#
# Poissons Ratio (x) = 0.73938 0.56733
# Poissons Ratio (y) = 0.44348 -0.07779
# Poissons Ratio (z) = 0.23978 -0.05482
#
# Static dielectric constant tensor:
#      x y z
#    x 1.784190 0.000000 -0.052760 
#    y 0.000000 1.695400 0.000000 
#    z -0.052760 0.000000 1.817710 
# 
# From -- ./inp_files/4086.got.cif
#   From: 2010.05.17/outbox.cif.g08.bks.cpg/sg8_3_cif.got.tgz:4086.got - 2010.06.03 19:46:02.
