data_PCOD9132344
_publ_section_title
;
Structure prediction by ZEFSAII (Michael W. Deem and Ramdas Pophale) SiO2 
 PCOD9132344
Probable space group: C M
;
_chemical_formula_sum "Si O2"
_cell_formula_units_Z 32
_cell_length_a 32.118178
_cell_length_b 7.413878
_cell_length_c 12.434301
_cell_angle_alpha 90.000000
_cell_angle_beta 28.018366
_cell_angle_gamma 90.000000
_cell_volume 1390.876986
_symmetry_space_group_name_H-M "C M"
_symmetry_group_IT_number 8
_symmetry_cell_setting 'monoclinic'
loop_
_space_group_symop_operation_xyz
x,y,z
x,-y,z
1/2+x,1/2+y,z
1/2+x,1/2-y,z
loop_
_atom_site_type_symbol
_atom_site_label
_atom_site_fract_x
_atom_site_fract_y
_atom_site_fract_z
Si Si1 0.496230 0.718397 0.330000
Si Si2 0.792312 0.705580 0.446518
Si Si3 0.304443 0.282851 0.667245
Si Si4 0.058132 0.289356 0.580605
Si Si5 0.228946 0.720281 0.062349
Si Si6 0.484615 0.781925 0.967658
Si Si7 0.106547 0.785734 0.888317
Si Si8 0.418729 0.282336 0.725030
O O1 0.502206 0.500000 0.319820
O O2 0.403640 0.760348 0.481743
O O3 0.483321 0.781079 0.480920
O O4 0.575291 0.786820 0.075123
O O5 0.792560 0.500000 0.405351
O O6 0.791694 0.705014 0.578256
O O7 0.698023 0.791092 0.634239
O O8 0.883973 0.787867 0.197933
O O9 0.298385 0.500000 0.671483
O O10 0.240854 0.223426 0.910401
O O11 0.079312 0.500000 0.545816
O O12 0.139844 0.215133 0.324064
O O13 0.041280 0.213708 0.737645
O O14 0.965641 0.275380 0.727152
O O15 0.229062 0.500000 0.059393
O O16 0.318573 0.774005 0.922942
O O17 0.529649 0.737570 0.977588
O O18 0.481058 0.000000 0.969343
O O19 0.120108 0.000000 0.871343
O O20 0.417533 0.500000 0.726911
#
# Coordination Sequence:
#
# PCOD9132344 Si02
#       8
#     4   4   4   4   4   4   4   4
#     4   8  15  30  52  76 104 134 163 209 262 305
#     4  10  21  34  51  78 108 137 169 214 268 308
#     4   9  16  31  55  78 103 135 173 213 255 310
#     4  10  21  37  55  75 106 144 176 212 262 310
#     4   8  17  34  54  76 104 139 173 210 259 311
#     4  10  22  39  53  73 109 144 175 216 260 305
#     4  10  20  35  55  77 103 139 178 214 259 312
#     4   9  18  34  55  79 105 134 175 218 257 307
#
# _framework density 23.007066999999999
#
# number of rings (size 3 to 8) (size 9 to 14) (size 15 to 20)
#    0.000    2.750    1.250    1.500    1.750    2.000 
#    0.000    3.750    0.000    0.000    0.000    0.000 
#    0.000    0.000    0.000    0.000    0.000    0.000 
#
# Total GULP energy -89323.092899 kJ/mol
# GULP energy per Si atom -5582.693306 kJ/mol
# Density = 2.295470 g / cm^3
# Si number density = 23.007067 Si / 1000 Ang^3
#
#
#
# Elastic Constant Matrix: (Units=GPa)
#
#
# Indices 1 2 3 4 5 6 
#
# 1 28.3048 -13.4749 6.0309 0.0000 10.5650 0.0000
# 2 -13.4749 78.0417 6.5880 0.0000 -0.3249 0.0000
# 3 6.0309 6.5880 131.1982 0.0000 3.6840 0.0000
# 4 0.0000 0.0000 0.0000 -0.0063 0.0000 -0.6838
# 5 10.5650 -0.3249 3.6840 0.0000 26.7904 0.0000
# 6 0.0000 0.0000 0.0000 -0.6838 0.0000 18.8733
#
#
#
# Elastic Compliance Matrix: (Units=1/GPa)
#
#
# Indices 1 2 3 4 5 6 
#
# 1 0.046286 0.008089 -0.002032 0.000000 -0.017876 0.000000
# 2 0.008089 0.014283 -0.001008 0.000000 -0.002878 0.000000
# 3 -0.002032 -0.001008 0.007774 0.000000 -0.000280 0.000000
# 4 0.000000 0.000000 0.000000-32.194538 0.000000 -1.166483
# 5 -0.017876 -0.002878 -0.000280 0.000000 0.044380 0.000000
# 6 0.000000 0.000000 0.000000 -1.166483 0.000000 0.010720
#
#
# Mechanical properties :
#
#
# Convention : Reuss Voigt Hill
#
# Bulk Modulus (GPa) = 12.74850 26.20364 19.47607
# Shear Modulus (GPa) = -0.15598 25.02487 12.43444
#
# Velocity S-wave (km/s) = -0.26066 3.30161 2.32731
# Velocity P-wave (km/s) = 2.33721 5.09395 3.96301
#
# Compressibility (1/GPa) = 0.07844060
#
# Stress axis : x y z
#
# Youngs Moduli (GPa) = 21.60495 70.01111 128.63480
#
# Poissons Ratio (x) = -0.56631 0.26137
# Poissons Ratio (y) = -0.17476 0.12970
# Poissons Ratio (z) = 0.04390 0.07059
#
# Static dielectric constant tensor:
#      x y z
#    x 1.807020 0.000000 -0.010370 
#    y 0.000000 1.864730 0.000000 
#    z -0.010370 0.000000 1.887620 
# 
# From -- ./inp_files/24790.got.cif
#   From: 2010.05.17/outbox.cif.g08.bks.cpg/sg8_13_cif.got.tgz:24790.got - 2010.06.03 19:46:02.
