data_PCOD9132580
_publ_section_title
;
Structure prediction by ZEFSAII (Michael W. Deem and Ramdas Pophale) SiO2 
 PCOD9132580
Probable space group: C M
;
_chemical_formula_sum "Si O2"
_cell_formula_units_Z 32
_cell_length_a 10.317028
_cell_length_b 27.809078
_cell_length_c 5.262363
_cell_angle_alpha 90.000000
_cell_angle_beta 80.100495
_cell_angle_gamma 90.000000
_cell_volume 1487.329142
_symmetry_space_group_name_H-M "C M"
_symmetry_group_IT_number 8
_symmetry_cell_setting 'monoclinic'
loop_
_space_group_symop_operation_xyz
x,y,z
x,-y,z
1/2+x,1/2+y,z
1/2+x,1/2-y,z
loop_
_atom_site_type_symbol
_atom_site_label
_atom_site_fract_x
_atom_site_fract_y
_atom_site_fract_z
Si Si1 0.497530 0.054748 0.472300
Si Si2 0.445087 0.378334 0.221956
Si Si3 0.230170 0.645462 0.923393
Si Si4 0.666609 0.272213 0.405530
Si Si5 0.892041 0.787394 0.541750
Si Si6 0.684267 0.667984 0.904733
Si Si7 0.944561 0.385424 0.995629
Si Si8 0.788179 0.053980 0.539904
O O1 0.466618 0.077464 0.756465
O O2 0.657168 0.053527 0.408767
O O3 0.450570 0.000000 0.471466
O O4 0.440057 0.086312 0.263423
O O5 0.461062 0.336819 0.425413
O O6 0.560751 0.368573 0.982818
O O7 0.420716 0.430574 0.346640
O O8 0.301891 0.365365 0.160517
O O9 0.301715 0.693114 0.797794
O O10 0.264599 0.597602 0.744947
O O11 0.073699 0.648203 0.974601
O O12 0.787800 0.235919 0.388328
O O13 0.519973 0.254058 0.535822
O O14 0.658849 0.289451 0.116789
O O15 0.698810 0.311769 0.615826
O O16 0.814900 0.643206 0.966187
O O17 0.797600 0.000000 0.646382
#
# Coordination Sequence:
#
# PCOD9132580 Si02
#       8
#     4   4   4   4   4   4   4   4
#     4  10  20  37  61  91 123 156 203 256 301 355
#     4  10  20  41  61  84 126 160 196 254 312 356
#     4  10  20  37  62  87 121 159 205 251 304 358
#     4  11  25  42  63  90 121 161 205 254 300 363
#     4  10  24  40  61  89 121 160 201 256 308 355
#     4  11  25  42  62  88 127 164 201 251 310 359
#     4  11  22  38  62  91 118 165 204 246 302 367
#     4   9  19  35  60  92 119 157 207 254 302 363
#
# _framework density 21.515076000000001
#
# number of rings (size 3 to 8) (size 9 to 14) (size 15 to 20)
#    0.000    1.750    2.500    1.125    3.500    2.000 
#    0.000    1.250    0.000    0.000    0.000    0.000 
#    0.000    0.000    0.000    0.000    0.000    0.000 
#
# Total GULP energy -89186.811079 kJ/mol
# GULP energy per Si atom -5574.175692 kJ/mol
# Density = 2.146611 g / cm^3
# Si number density = 21.515076 Si / 1000 Ang^3
#
#
#
# Elastic Constant Matrix: (Units=GPa)
#
#
# Indices 1 2 3 4 5 6 
#
# 1 105.4317 27.4419 -6.7001 0.0000 8.6981 0.0000
# 2 27.4419 35.2904 3.7940 0.0000 -0.9808 0.0000
# 3 -6.7001 3.7940 56.2916 0.0000 21.1726 0.0000
# 4 0.0000 0.0000 0.0000 19.9432 0.0000 6.0924
# 5 8.6981 -0.9808 21.1726 0.0000 26.3575 0.0000
# 6 0.0000 0.0000 0.0000 6.0924 0.0000 21.9778
#
#
#
# Elastic Compliance Matrix: (Units=1/GPa)
#
#
# Indices 1 2 3 4 5 6 
#
# 1 0.013706 -0.011591 0.006127 0.000000 -0.009876 0.000000
# 2 -0.011591 0.038605 -0.008541 0.000000 0.012123 0.000000
# 3 0.006127 -0.008541 0.028587 0.000000 -0.025303 0.000000
# 4 0.000000 0.000000 0.000000 0.054781 0.000000 -0.015186
# 5 -0.009876 0.012123 -0.025303 0.000000 0.061976 0.000000
# 6 0.000000 0.000000 0.000000 -0.015186 0.000000 0.049710
#
#
# Mechanical properties :
#
#
# Convention : Reuss Voigt Hill
#
# Bulk Modulus (GPa) = 18.90803 27.34282 23.12543
# Shear Modulus (GPa) = 17.06466 25.15422 21.10944
#
# Velocity S-wave (km/s) = 2.81935 3.42298 3.13572
# Velocity P-wave (km/s) = 4.40518 5.32529 4.88694
#
# Compressibility (1/GPa) = 0.05288758
#
# Stress axis : x y z
#
# Youngs Moduli (GPa) = 72.96134 25.90364 34.98138
#
# Poissons Ratio (x) = 0.30025 -0.21434
# Poissons Ratio (y) = 0.84569 0.29878
# Poissons Ratio (z) = -0.44705 0.22124
#
# Static dielectric constant tensor:
#      x y z
#    x 1.853780 0.000000 -0.037980 
#    y 0.000000 1.874690 0.000000 
#    z -0.037980 0.000000 1.840630 
# 
# From -- ./inp_files/1998.got.cif
#   From: 2010.05.17/outbox.cif.g08.bks.cpg/sg8_1_cif.got.tgz:1998.got - 2010.06.03 19:46:02.
