data_PCOD9132783
_publ_section_title
;
Structure prediction by ZEFSAII (Michael W. Deem and Ramdas Pophale) SiO2 
 PCOD9132783
Probable space group: C M
;
_chemical_formula_sum "Si O2"
_cell_formula_units_Z 26
_cell_length_a 7.155107
_cell_length_b 14.568615
_cell_length_c 12.594628
_cell_angle_alpha 90.000000
_cell_angle_beta 130.359620
_cell_angle_gamma 90.000000
_cell_volume 1000.395668
_symmetry_space_group_name_H-M "C M"
_symmetry_group_IT_number 8
_symmetry_cell_setting 'monoclinic'
loop_
_space_group_symop_operation_xyz
x,y,z
x,-y,z
1/2+x,1/2+y,z
1/2+x,1/2-y,z
loop_
_atom_site_type_symbol
_atom_site_label
_atom_site_fract_x
_atom_site_fract_y
_atom_site_fract_z
Si Si1 0.114970 0.334011 0.028050
Si Si2 0.636006 0.894664 0.701639
Si Si3 0.930349 0.000000 0.127609
Si Si4 0.069032 0.203522 0.752531
Si Si5 0.891444 0.896056 0.479505
Si Si6 0.019193 0.316603 0.223537
Si Si7 0.220495 0.865449 0.388076
O O1 0.254362 0.415566 0.019585
O O2 0.077095 0.368020 0.135341
O O3 0.271728 0.240245 0.106687
O O4 0.849633 0.312941 0.885377
O O5 0.528731 0.813584 0.735824
O O6 0.479852 0.889727 0.534677
O O7 0.904349 0.856595 0.771257
O O8 0.632378 0.000000 0.736046
O O9 0.100244 0.923268 0.250800
O O10 0.986474 0.170144 0.606156
O O11 0.042419 0.878864 0.425661
O O12 0.601043 0.887151 0.344496
O O13 0.944547 0.000000 0.533090
O O14 0.202425 0.235639 0.330994
#
# Coordination Sequence:
#
# PCOD9132783 Si02
#       7
#     4   4   2   4   4   4   4
#     4  11  25  45  69  98 144 191 235 296 372 437
#     4  12  26  46  76 107 147 193 241 306 371 433
#     4  10  20  42  70  94 136 188 234 292 366 434
#     4  12  28  46  71 112 151 189 242 308 372 442
#     4  12  23  43  72 109 142 190 246 308 367 441
#     4  11  22  41  69  98 133 189 237 296 359 427
#     4  11  21  41  70 104 136 184 241 308 363 422
#
# _framework density 25.989713999999999
#
# number of rings (size 3 to 8) (size 9 to 14) (size 15 to 20)
#    0.000    0.615    6.154    2.308    4.308    0.000 
#    0.000    1.538   13.538    0.000    0.000    0.000 
#    0.000    0.000    0.000    0.000    0.000    0.000 
#
# Total GULP energy -72443.797305 kJ/mol
# GULP energy per Si atom -5572.599793 kJ/mol
# Density = 2.593056 g / cm^3
# Si number density = 25.989714 Si / 1000 Ang^3
#
#
#
# Elastic Constant Matrix: (Units=GPa)
#
#
# Indices 1 2 3 4 5 6 
#
# 1 62.4828 19.2084 38.9541 0.0000 13.4843 0.0000
# 2 19.2084 174.0142 38.5342 0.0000 4.0219 0.0000
# 3 38.9541 38.5342 172.5102 0.0000 22.6948 0.0000
# 4 0.0000 0.0000 0.0000 47.5678 0.0000 -6.3387
# 5 13.4843 4.0219 22.6948 0.0000 44.3529 0.0000
# 6 0.0000 0.0000 0.0000 -6.3387 0.0000 5.8951
#
#
#
# Elastic Compliance Matrix: (Units=1/GPa)
#
#
# Indices 1 2 3 4 5 6 
#
# 1 0.019492 -0.001263 -0.003597 0.000000 -0.003971 0.000000
# 2 -0.001263 0.006129 -0.001138 0.000000 0.000410 0.000000
# 3 -0.003597 -0.001138 0.007190 0.000000 -0.002482 0.000000
# 4 0.000000 0.000000 0.000000 0.024539 0.000000 0.026385
# 5 -0.003971 0.000410 -0.002482 0.000000 0.024987 0.000000
# 6 0.000000 0.000000 0.000000 0.026385 0.000000 0.198004
#
#
# Mechanical properties :
#
#
# Convention : Reuss Voigt Hill
#
# Bulk Modulus (GPa) = 48.04330 66.93341 57.48836
# Shear Modulus (GPa) = 16.70709 40.38385 28.54547
#
# Velocity S-wave (km/s) = 2.53817 3.94615 3.31771
# Velocity P-wave (km/s) = 5.20724 6.82441 6.06992
#
# Compressibility (1/GPa) = 0.02081456
#
# Stress axis : x y z
#
# Youngs Moduli (GPa) = 51.30261 163.17054 139.08915
#
# Poissons Ratio (x) = 0.20614 0.50029
# Poissons Ratio (y) = 0.06481 0.15824
# Poissons Ratio (z) = 0.18453 0.18564
#
# Static dielectric constant tensor:
#      x y z
#    x 2.249740 0.000000 0.028670 
#    y 0.000000 2.085440 0.000000 
#    z 0.028670 0.000000 1.978390 
# 
# From -- ./inp_files/25429.got.cif
#   From: 2010.05.17/outbox.cif.g08.bks.cpg/sg8_13_cif.got.tgz:25429.got - 2010.06.03 19:46:02.
