data_PCOD9132606
_publ_section_title
;
Structure prediction by ZEFSAII (Michael W. Deem and Ramdas Pophale) SiO2 
 PCOD9132606
Probable space group: C M
;
_chemical_formula_sum "Si O2"
_cell_formula_units_Z 32
_cell_length_a 26.237132
_cell_length_b 13.070364
_cell_length_c 8.483127
_cell_angle_alpha 90.000000
_cell_angle_beta 32.080580
_cell_angle_gamma 90.000000
_cell_volume 1545.061084
_symmetry_space_group_name_H-M "C M"
_symmetry_group_IT_number 8
_symmetry_cell_setting 'monoclinic'
loop_
_space_group_symop_operation_xyz
x,y,z
x,-y,z
1/2+x,1/2+y,z
1/2+x,1/2-y,z
loop_
_atom_site_type_symbol
_atom_site_label
_atom_site_fract_x
_atom_site_fract_y
_atom_site_fract_z
Si Si1 0.078710 0.187423 0.038440
Si Si2 0.304203 0.745941 0.059830
Si Si3 0.600614 0.800014 0.500786
Si Si4 0.092873 0.387617 0.188464
Si Si5 0.382450 0.891967 0.640828
Si Si6 0.447467 0.806817 0.157453
Si Si7 0.282858 0.882346 0.403614
Si Si8 0.496470 0.619861 0.590118
O O1 0.115966 0.297303 0.007069
O O2 0.999826 0.212322 0.109937
O O3 0.033351 0.135861 0.313150
O O4 0.170083 0.128073 0.733722
O O5 0.197146 0.705062 0.348672
O O6 0.306693 0.844485 0.166345
O O7 0.320502 0.793272 0.842895
O O8 0.389115 0.667644 0.876564
O O9 0.624454 0.864477 0.282678
O O10 0.562068 0.690927 0.532195
O O11 0.517167 0.840070 0.833624
O O12 0.123037 0.500000 0.056694
O O13 0.976282 0.385913 0.504965
O O14 0.429444 0.884826 0.346511
O O15 0.330882 0.000000 0.793189
O O16 0.342471 0.802857 0.355633
O O17 0.312136 0.000000 0.353443
O O18 0.498894 0.500000 0.623429
#
# Coordination Sequence:
#
# PCOD9132606 Si02
#       8
#     4   4   4   4   4   4   4   4
#     4  10  22  43  65  96 134 165 209 267 320 379
#     4  12  23  42  64  93 131 168 213 267 314 379
#     4  11  23  40  66  92 128 171 214 265 311 378
#     4   9  19  38  64  90 124 167 206 252 318 379
#     4  10  20  37  64  94 124 159 203 261 322 371
#     4  11  21  41  62  94 134 162 204 265 324 370
#     4  12  25  41  68  99 126 166 220 268 317 375
#     4  11  24  46  66  90 131 176 212 257 321 389
#
# _framework density 20.711152999999999
#
# number of rings (size 3 to 8) (size 9 to 14) (size 15 to 20)
#    0.000    1.250    6.250    1.125    3.500    4.000 
#    0.000    0.625    0.000    0.000    0.000    0.000 
#    0.000    0.000    0.000    0.000    0.000    0.000 
#
# Total GULP energy -89203.160084 kJ/mol
# GULP energy per Si atom -5575.197505 kJ/mol
# Density = 2.066401 g / cm^3
# Si number density = 20.711153 Si / 1000 Ang^3
#
#
#
# Elastic Constant Matrix: (Units=GPa)
#
#
# Indices 1 2 3 4 5 6 
#
# 1 62.4863 0.1601 20.1556 0.0000 -1.7340 0.0000
# 2 0.1601 86.3298 23.6967 0.0000 1.4566 0.0000
# 3 20.1556 23.6967 77.6393 0.0000 -12.3883 0.0000
# 4 0.0000 0.0000 0.0000 18.9212 0.0000 1.7918
# 5 -1.7340 1.4566 -12.3883 0.0000 31.3030 0.0000
# 6 0.0000 0.0000 0.0000 1.7918 0.0000 5.8398
#
#
#
# Elastic Compliance Matrix: (Units=1/GPa)
#
#
# Indices 1 2 3 4 5 6 
#
# 1 0.017643 0.001412 -0.005194 0.000000 -0.001144 0.000000
# 2 0.001412 0.012907 -0.004685 0.000000 -0.002377 0.000000
# 3 -0.005194 -0.004685 0.016702 0.000000 0.006540 0.000000
# 4 0.000000 0.000000 0.000000 0.054432 0.000000 -0.016701
# 5 -0.001144 -0.002377 0.006540 0.000000 0.034581 0.000000
# 6 0.000000 0.000000 0.000000 -0.016701 0.000000 0.176363
#
#
# Mechanical properties :
#
#
# Convention : Reuss Voigt Hill
#
# Bulk Modulus (GPa) = 32.98294 34.94224 33.96259
# Shear Modulus (GPa) = 14.72020 23.37567 19.04794
#
# Velocity S-wave (km/s) = 2.66886 3.36319 3.03594
# Velocity P-wave (km/s) = 5.04548 5.65590 5.35939
#
# Compressibility (1/GPa) = 0.03031871
#
# Stress axis : x y z
#
# Youngs Moduli (GPa) = 56.67816 77.47723 59.87301
#
# Poissons Ratio (x) = -0.10942 0.31097
# Poissons Ratio (y) = -0.08004 0.28052
# Poissons Ratio (z) = 0.29438 0.36300
#
# Static dielectric constant tensor:
#      x y z
#    x 1.834490 0.000000 0.014260 
#    y 0.000000 1.750470 0.000000 
#    z 0.014260 0.000000 1.738140 
# 
# From -- ./inp_files/17590.got.cif
#   From: 2010.05.17/outbox.cif.g08.bks.cpg/sg8_9_cif.got.tgz:17590.got - 2010.06.03 19:46:02.
