data_PCOD9132192
_publ_section_title
;
Structure prediction by ZEFSAII (Michael W. Deem and Ramdas Pophale) SiO2 
 PCOD9132192
Probable space group: C M
;
_chemical_formula_sum "Si O2"
_cell_formula_units_Z 32
_cell_length_a 10.059172
_cell_length_b 25.210388
_cell_length_c 9.939877
_cell_angle_alpha 90.000000
_cell_angle_beta 138.233855
_cell_angle_gamma 90.000000
_cell_volume 1679.024002
_symmetry_space_group_name_H-M "C M"
_symmetry_group_IT_number 8
_symmetry_cell_setting 'monoclinic'
loop_
_space_group_symop_operation_xyz
x,y,z
x,-y,z
1/2+x,1/2+y,z
1/2+x,1/2-y,z
loop_
_atom_site_type_symbol
_atom_site_label
_atom_site_fract_x
_atom_site_fract_y
_atom_site_fract_z
Si Si1 0.023790 0.253953 0.134170
Si Si2 0.931548 0.561940 0.509775
Si Si3 0.645875 0.129704 0.883700
Si Si4 0.241571 0.437630 0.497502
Si Si5 0.106799 0.859146 0.157337
Si Si6 0.100818 0.859590 0.831869
Si Si7 0.056891 0.629550 0.124826
Si Si8 0.574534 0.245379 0.863031
O O1 0.148050 0.200203 0.244982
O O2 0.113393 0.311930 0.224925
O O3 0.977203 0.253659 0.937628
O O4 0.817053 0.249102 0.059391
O O5 0.883071 0.500000 0.481716
O O6 0.741367 0.597004 0.328121
O O7 0.026889 0.584283 0.717809
O O8 0.095373 0.569286 0.515096
O O9 0.545928 0.187411 0.779074
O O10 0.646144 0.123271 0.044271
O O11 0.872476 0.131213 0.003679
O O12 0.285582 0.500000 0.517244
O O13 0.439627 0.403063 0.670230
O O14 0.129613 0.414719 0.282526
O O15 0.139816 0.860954 0.022084
O O16 0.023070 0.799470 0.747188
O O17 0.316509 0.869183 0.929558
#
# Coordination Sequence:
#
# PCOD9132192 Si02
#       8
#     4   4   4   4   4   4   4   4
#     4   8  16  31  56  85 113 145 185 228 287 351
#     4  11  24  39  59  87 114 154 208 239 274 344
#     4  10  21  39  60  87 120 149 185 244 298 338
#     4  11  24  39  59  87 114 154 208 239 274 344
#     4  10  19  37  62  86 115 155 192 237 289 342
#     4  10  19  37  62  86 115 155 192 237 289 342
#     4  10  21  39  60  87 120 149 185 244 298 338
#     4   8  16  31  56  85 113 145 185 228 287 351
#
# _framework density 19.058691
#
# number of rings (size 3 to 8) (size 9 to 14) (size 15 to 20)
#    0.000    2.250    2.500    0.000    0.000    4.000 
#    0.000    1.250    0.000    0.000    0.000    0.000 
#    0.000    0.000    0.000    0.000    0.000    0.000 
#
# Total GULP energy -89235.706599 kJ/mol
# GULP energy per Si atom -5577.231662 kJ/mol
# Density = 1.901531 g / cm^3
# Si number density = 19.058691 Si / 1000 Ang^3
#
#
#
# Elastic Constant Matrix: (Units=GPa)
#
#
# Indices 1 2 3 4 5 6 
#
# 1 59.4958 12.8809 0.7070 0.0000 0.9582 0.0000
# 2 12.8809 157.4767 49.3560 0.0000 5.5807 0.0000
# 3 0.7070 49.3560 47.2927 0.0000 3.5238 0.0000
# 4 0.0000 0.0000 0.0000 40.5344 0.0000 -2.5591
# 5 0.9582 5.5807 3.5238 0.0000 16.8193 0.0000
# 6 0.0000 0.0000 0.0000 -2.5591 0.0000 32.4278
#
#
#
# Elastic Compliance Matrix: (Units=1/GPa)
#
#
# Indices 1 2 3 4 5 6 
#
# 1 0.017222 -0.001961 0.001842 0.000000 -0.000717 0.000000
# 2 -0.001961 0.009680 -0.009998 0.000000 -0.001005 0.000000
# 3 0.001842 -0.009998 0.031808 0.000000 -0.003452 0.000000
# 4 0.000000 0.000000 0.000000 0.024794 0.000000 0.001957
# 5 -0.000717 -0.001005 -0.003452 0.000000 0.060553 0.000000
# 6 0.000000 0.000000 0.000000 0.001957 0.000000 0.030992
#
#
# Mechanical properties :
#
#
# Convention : Reuss Voigt Hill
#
# Bulk Modulus (GPa) = 25.98909 43.35034 34.66972
# Shear Modulus (GPa) = 24.02601 31.37770 27.70186
#
# Velocity S-wave (km/s) = 3.55439 4.06195 3.81662
# Velocity P-wave (km/s) = 5.52367 6.69286 6.13617
#
# Compressibility (1/GPa) = 0.03847768
#
# Stress axis : x y z
#
# Youngs Moduli (GPa) = 58.06507 103.30997 31.43818
#
# Poissons Ratio (x) = 0.20256 -0.05791
# Poissons Ratio (y) = 0.11385 0.31431
# Poissons Ratio (z) = -0.10696 1.03286
#
# Static dielectric constant tensor:
#      x y z
#    x 1.637720 0.000000 0.002400 
#    y 0.000000 1.692190 0.000000 
#    z 0.002400 0.000000 1.626510 
# 
# From -- ./inp_files/20903.got.cif
#   From: 2010.05.17/outbox.cif.g08.bks.cpg/sg8_11_cif.got.tgz:20903.got - 2010.06.03 19:46:02.
