data_PCOD9132823
_publ_section_title
;
Structure prediction by ZEFSAII (Michael W. Deem and Ramdas Pophale) SiO2 
 PCOD9132823
Probable space group: C M
;
_chemical_formula_sum "Si O2"
_cell_formula_units_Z 32
_cell_length_a 9.815428
_cell_length_b 7.403587
_cell_length_c 17.712103
_cell_angle_alpha 90.000000
_cell_angle_beta 72.339945
_cell_angle_gamma 90.000000
_cell_volume 1226.469276
_symmetry_space_group_name_H-M "C M"
_symmetry_group_IT_number 8
_symmetry_cell_setting 'monoclinic'
loop_
_space_group_symop_operation_xyz
x,y,z
x,-y,z
1/2+x,1/2+y,z
1/2+x,1/2-y,z
loop_
_atom_site_type_symbol
_atom_site_label
_atom_site_fract_x
_atom_site_fract_y
_atom_site_fract_z
Si Si1 0.471410 0.219362 0.041330
Si Si2 0.211307 0.709060 0.887762
Si Si3 0.511594 0.719410 0.792410
Si Si4 0.442342 0.708895 0.637952
Si Si5 0.167824 0.709018 0.137138
Si Si6 0.766257 0.208948 0.279199
Si Si7 0.962388 0.218961 0.375139
Si Si8 0.246766 0.280974 0.542372
O O1 0.309375 0.282320 0.061117
O O2 0.535868 0.281716 0.111255
O O3 0.468595 0.000000 0.040233
O O4 0.585413 0.286482 0.960643
O O5 0.223950 0.500000 0.907052
O O6 0.370958 0.784145 0.861977
O O7 0.152340 0.719023 0.812106
O O8 0.514556 0.500000 0.791729
O O9 0.487436 0.785937 0.711265
O O10 0.407077 0.500000 0.657609
O O11 0.584715 0.717895 0.562820
O O12 0.312987 0.785913 0.610804
O O13 0.134154 0.500000 0.157086
O O14 0.217220 0.793505 0.208043
O O15 0.854305 0.277269 0.458616
O O16 0.896224 0.283774 0.306317
O O17 0.801117 0.000000 0.258747
O O18 0.124174 0.283452 0.354672
O O19 0.964208 0.000000 0.374638
O O20 0.245827 0.500000 0.542826
#
# Coordination Sequence:
#
# PCOD9132823 Si02
#       8
#     4   4   4   4   4   4   4   4
#     4  10  21  36  55  80 107 139 180 220 263 317
#     4  10  21  37  56  79 108 140 176 220 267 316
#     4  10  21  37  56  79 108 140 176 220 267 316
#     4  10  21  36  55  80 107 139 180 220 263 317
#     4  10  21  37  56  79 109 143 178 219 266 314
#     4  10  21  36  55  81 110 141 179 220 264 315
#     4  10  21  36  55  81 110 141 179 220 264 315
#     4  10  21  37  56  79 109 143 178 219 266 314
#
# _framework density 26.091156000000002
#
# number of rings (size 3 to 8) (size 9 to 14) (size 15 to 20)
#    0.000    2.000    0.000    3.000    0.000    6.000 
#    0.000    0.000    0.000    0.000    0.000    0.000 
#    0.000    0.000    0.000    0.000    0.000    0.000 
#
# Total GULP energy -89573.301573 kJ/mol
# GULP energy per Si atom -5598.331348 kJ/mol
# Density = 2.603177 g / cm^3
# Si number density = 26.091156 Si / 1000 Ang^3
#
#
#
# Elastic Constant Matrix: (Units=GPa)
#
#
# Indices 1 2 3 4 5 6 
#
# 1 124.0462 -7.2788 -6.8504 0.0000 3.9762 0.0000
# 2 -7.2788 103.8725 3.9520 0.0000 1.3803 0.0000
# 3 -6.8504 3.9520 72.8715 0.0000 1.6459 0.0000
# 4 0.0000 0.0000 0.0000 11.3439 0.0000 -7.2430
# 5 3.9762 1.3803 1.6459 0.0000 51.4524 0.0000
# 6 0.0000 0.0000 0.0000 -7.2430 0.0000 11.0572
#
#
#
# Elastic Compliance Matrix: (Units=1/GPa)
#
#
# Indices 1 2 3 4 5 6 
#
# 1 0.008157 0.000552 0.000752 0.000000 -0.000669 0.000000
# 2 0.000552 0.009687 -0.000467 0.000000 -0.000288 0.000000
# 3 0.000752 -0.000467 0.013830 0.000000 -0.000488 0.000000
# 4 0.000000 0.000000 0.000000 0.151529 0.000000 0.099259
# 5 -0.000669 -0.000288 -0.000488 0.000000 0.019510 0.000000
# 6 0.000000 0.000000 0.000000 0.099259 0.000000 0.155459
#
#
# Mechanical properties :
#
#
# Convention : Reuss Voigt Hill
#
# Bulk Modulus (GPa) = 29.98693 31.15953 30.57323
# Shear Modulus (GPa) = 13.60119 35.50185 24.55152
#
# Velocity S-wave (km/s) = 2.28567 3.69275 3.07088
# Velocity P-wave (km/s) = 4.29928 5.49093 4.93123
#
# Compressibility (1/GPa) = 0.03334786
#
# Stress axis : x y z
#
# Youngs Moduli (GPa) = 122.59594 103.22638 72.30746
#
# Poissons Ratio (x) = -0.05697 -0.05437
# Poissons Ratio (y) = -0.06766 0.03377
# Poissons Ratio (z) = -0.09219 0.04821
#
# Static dielectric constant tensor:
#      x y z
#    x 1.945440 0.000000 -0.016900 
#    y 0.000000 1.964230 0.000000 
#    z -0.016900 0.000000 2.128650 
# 
# From -- ./inp_files/25256.got.cif
#   From: 2010.05.17/outbox.cif.g08.bks.cpg/sg8_13_cif.got.tgz:25256.got - 2010.06.03 19:46:02.
