data_PCOD9132168
_publ_section_title
;
Structure prediction by ZEFSAII (Michael W. Deem and Ramdas Pophale) SiO2 
 PCOD9132168
Probable space group: C M
;
_chemical_formula_sum "Si O2"
_cell_formula_units_Z 32
_cell_length_a 14.806223
_cell_length_b 8.024915
_cell_length_c 11.140470
_cell_angle_alpha 90.000000
_cell_angle_beta 102.720487
_cell_angle_gamma 90.000000
_cell_volume 1291.206989
_symmetry_space_group_name_H-M "C M"
_symmetry_group_IT_number 8
_symmetry_cell_setting 'monoclinic'
loop_
_space_group_symop_operation_xyz
x,y,z
x,-y,z
1/2+x,1/2+y,z
1/2+x,1/2-y,z
loop_
_atom_site_type_symbol
_atom_site_label
_atom_site_fract_x
_atom_site_fract_y
_atom_site_fract_z
Si Si1 0.437460 0.686199 0.450720
Si Si2 0.602149 0.190454 0.627620
Si Si3 0.649316 0.199598 0.250926
Si Si4 0.644279 0.697646 0.988112
Si Si5 0.326444 0.203874 0.922404
Si Si6 0.980142 0.306771 0.804072
Si Si7 0.262418 0.810208 0.515585
Si Si8 0.431082 0.799987 0.194133
O O1 0.474872 0.500000 0.463961
O O2 0.524246 0.805495 0.500176
O O3 0.356240 0.707314 0.524126
O O4 0.395316 0.723518 0.307927
O O5 0.542305 0.272140 0.717484
O O6 0.694897 0.273928 0.606906
O O7 0.624496 0.000000 0.664002
O O8 0.700898 0.277908 0.379027
O O9 0.540054 0.241206 0.221781
O O10 0.659944 0.000000 0.260074
O O11 0.682549 0.265520 0.131619
O O12 0.627563 0.500000 0.972693
O O13 0.549990 0.796577 0.937458
O O14 0.720579 0.751488 0.912375
O O15 0.380163 0.257303 0.058870
O O16 0.328995 0.000000 0.919569
O O17 0.383562 0.263815 0.823663
O O18 0.965049 0.500000 0.765763
O O19 0.292658 0.000000 0.528514
O O20 0.421047 0.000000 0.197459
#
# Coordination Sequence:
#
# PCOD9132168 Si02
#       8
#     4   4   4   4   4   4   4   4
#     4  12  25  41  64  94 129 163 206 259 314 381
#     4  11  24  43  66  91 122 165 215 266 318 372
#     4  11  21  37  64  93 126 164 206 254 312 376
#     4  11  22  36  61  94 127 161 207 256 305 368
#     4   9  19  38  61  87 119 160 199 241 299 365
#     4  10  22  43  65  85 118 164 210 255 310 370
#     4  12  25  42  65  92 127 166 209 260 316 378
#     4  10  19  36  64  90 124 165 204 249 308 374
#
# _framework density 24.783011999999999
#
# number of rings (size 3 to 8) (size 9 to 14) (size 15 to 20)
#    0.000    1.250    2.500    4.125    0.000    3.500 
#    0.000    3.125    0.000    0.000    0.000    0.000 
#    0.000    0.000    0.000    0.000    0.000    0.000 
#
# Total GULP energy -89571.795385 kJ/mol
# GULP energy per Si atom -5598.237212 kJ/mol
# Density = 2.472660 g / cm^3
# Si number density = 24.783012 Si / 1000 Ang^3
#
#
#
# Elastic Constant Matrix: (Units=GPa)
#
#
# Indices 1 2 3 4 5 6 
#
# 1 122.1449 8.1364 29.2400 0.0000 -22.1898 0.0000
# 2 8.1364 60.2526 -1.0740 0.0000 -1.7429 0.0000
# 3 29.2400 -1.0740 91.2418 0.0000 -23.0459 0.0000
# 4 0.0000 0.0000 0.0000 21.7880 0.0000 -6.2225
# 5 -22.1898 -1.7429 -23.0459 0.0000 54.1402 0.0000
# 6 0.0000 0.0000 0.0000 -6.2225 0.0000 16.5911
#
#
#
# Elastic Compliance Matrix: (Units=1/GPa)
#
#
# Indices 1 2 3 4 5 6 
#
# 1 0.009327 -0.001219 -0.002294 0.000000 0.002807 0.000000
# 2 -0.001219 0.016783 0.000671 0.000000 0.000326 0.000000
# 3 -0.002294 0.000671 0.012853 0.000000 0.004552 0.000000
# 4 0.000000 0.000000 0.000000 0.051403 0.000000 0.019279
# 5 0.002807 0.000326 0.004552 0.000000 0.021569 0.000000
# 6 0.000000 0.000000 0.000000 0.019279 0.000000 0.067504
#
#
# Mechanical properties :
#
#
# Convention : Reuss Voigt Hill
#
# Bulk Modulus (GPa) = 30.05086 38.47156 34.26121
# Shear Modulus (GPa) = 25.48192 34.32631 29.90412
#
# Velocity S-wave (km/s) = 3.21004 3.72570 3.47744
# Velocity P-wave (km/s) = 5.08832 5.83651 5.47521
#
# Compressibility (1/GPa) = 0.03327692
#
# Stress axis : x y z
#
# Youngs Moduli (GPa) = 107.21071 59.58471 77.80337
#
# Poissons Ratio (x) = 0.07265 0.17852
# Poissons Ratio (y) = 0.13072 -0.05218
# Poissons Ratio (z) = 0.24599 -0.03996
#
# Static dielectric constant tensor:
#      x y z
#    x 1.943060 0.000000 -0.024110 
#    y 0.000000 1.865910 0.000000 
#    z -0.024110 0.000000 2.044780 
# 
# From -- ./inp_files/21383.got.cif
#   From: 2010.05.17/outbox.cif.g08.bks.cpg/sg8_11_cif.got.tgz:21383.got - 2010.06.03 19:46:02.
