data_PCOD9132705
_publ_section_title
;
Structure prediction by ZEFSAII (Michael W. Deem and Ramdas Pophale) SiO2 
 PCOD9132705
Probable space group: C M
;
_chemical_formula_sum "Si O2"
_cell_formula_units_Z 32
_cell_length_a 14.292308
_cell_length_b 8.382352
_cell_length_c 24.293655
_cell_angle_alpha 90.000000
_cell_angle_beta 149.661094
_cell_angle_gamma 90.000000
_cell_volume 1470.111728
_symmetry_space_group_name_H-M "C M"
_symmetry_group_IT_number 8
_symmetry_cell_setting 'monoclinic'
loop_
_space_group_symop_operation_xyz
x,y,z
x,-y,z
1/2+x,1/2+y,z
1/2+x,1/2-y,z
loop_
_atom_site_type_symbol
_atom_site_label
_atom_site_fract_x
_atom_site_fract_y
_atom_site_fract_z
Si Si1 0.738620 0.810719 0.271250
Si Si2 0.960946 0.183003 0.218478
Si Si3 0.071541 0.684052 0.389450
Si Si4 0.477989 0.188233 0.610349
Si Si5 0.644649 0.315889 0.990168
Si Si6 0.132098 0.805366 0.802955
Si Si7 0.939223 0.685132 0.037835
Si Si8 0.852461 0.194068 0.759150
O O1 0.610807 0.781225 0.259220
O O2 0.619835 0.743959 0.158618
O O3 0.937457 0.728393 0.371945
O O4 0.761362 0.000000 0.276312
O O5 0.000824 0.212500 0.302223
O O6 0.754163 0.229844 0.094364
O O7 0.989405 0.000000 0.218514
O O8 0.048610 0.500000 0.363736
O O9 0.285090 0.721682 0.508493
O O10 0.572038 0.222042 0.716818
O O11 0.638718 0.242440 0.649693
O O12 0.443242 0.000000 0.585444
O O13 0.615249 0.500000 0.990970
O O14 0.788720 0.315936 0.011414
O O15 0.460839 0.245218 0.868729
O O16 0.973389 0.766700 0.767446
O O17 0.137699 0.000000 0.800050
O O18 0.327625 0.749494 0.928887
O O19 0.981214 0.500000 0.046608
O O20 0.855881 0.000000 0.765446
#
# Coordination Sequence:
#
# PCOD9132705 Si02
#       8
#     4   4   4   4   4   4   4   4
#     4  10  20  39  64  90 118 151 189 238 292 345
#     4  11  22  38  60  89 121 155 190 233 287 347
#     4  12  26  43  59  80 111 154 203 249 290 339
#     4  11  23  39  56  81 112 145 190 245 292 339
#     4   8  14  31  57  85 114 149 188 229 277 337
#     4   9  17  35  59  83 111 148 185 222 275 344
#     4   7  13  28  55  85 114 144 178 220 277 343
#     4   8  17  35  60  83 111 150 189 228 280 338
#
# _framework density 21.767052
#
# number of rings (size 3 to 8) (size 9 to 14) (size 15 to 20)
#    0.000    2.500    0.000    5.250    0.000    2.000 
#    0.000   15.000    0.000    0.000    0.000    0.000 
#    0.000    0.000    0.000    0.000    0.000    0.000 
#
# Total GULP energy -89333.082030 kJ/mol
# GULP energy per Si atom -5583.317627 kJ/mol
# Density = 2.171751 g / cm^3
# Si number density = 21.767052 Si / 1000 Ang^3
#
#
#
# Elastic Constant Matrix: (Units=GPa)
#
#
# Indices 1 2 3 4 5 6 
#
# 1 52.4780 -9.0575 12.3707 0.0000 18.7252 0.0000
# 2 -9.0575 38.2616 2.5762 0.0000 7.9554 0.0000
# 3 12.3707 2.5762 49.5038 0.0000 26.4570 0.0000
# 4 0.0000 0.0000 0.0000 17.3090 0.0000 -9.4099
# 5 18.7252 7.9554 26.4570 0.0000 40.9828 0.0000
# 6 0.0000 0.0000 0.0000 -9.4099 0.0000 16.7045
#
#
#
# Elastic Compliance Matrix: (Units=1/GPa)
#
#
# Indices 1 2 3 4 5 6 
#
# 1 0.025301 0.008779 0.000473 0.000000 -0.013569 0.000000
# 2 0.008779 0.030432 0.002326 0.000000 -0.011420 0.000000
# 3 0.000473 0.002326 0.031021 0.000000 -0.020693 0.000000
# 4 0.000000 0.000000 0.000000 0.083276 0.000000 0.046910
# 5 -0.013569 -0.011420 -0.020693 0.000000 0.046176 0.000000
# 6 0.000000 0.000000 0.000000 0.046910 0.000000 0.086290
#
#
# Mechanical properties :
#
#
# Convention : Reuss Voigt Hill
#
# Bulk Modulus (GPa) = 9.09845 16.89135 12.99490
# Shear Modulus (GPa) = 15.82396 23.95620 19.89008
#
# Velocity S-wave (km/s) = 2.69916 3.32109 3.02614
# Velocity P-wave (km/s) = 3.72867 4.74163 4.26532
#
# Compressibility (1/GPa) = 0.10990880
#
# Stress axis : x y z
#
# Youngs Moduli (GPa) = 39.52370 32.86021 32.23654
#
# Poissons Ratio (x) = -0.28848 -0.01524
# Poissons Ratio (y) = -0.34698 -0.07497
# Poissons Ratio (z) = -0.01868 -0.07643
#
# Static dielectric constant tensor:
#      x y z
#    x 1.833380 0.000000 0.019850 
#    y 0.000000 1.728000 0.000000 
#    z 0.019850 0.000000 1.799810 
# 
# From -- ./inp_files/31988.got.cif
#   From: 2010.05.17/outbox.cif.g08.bks.cpg/sg8_16_cif.got.tgz:31988.got - 2010.06.03 19:46:02.
