data_PCOD9132642
_publ_section_title
;
Structure prediction by ZEFSAII (Michael W. Deem and Ramdas Pophale) SiO2 
 PCOD9132642
Probable space group: C M
;
_chemical_formula_sum "Si O2"
_cell_formula_units_Z 24
_cell_length_a 15.380721
_cell_length_b 8.492130
_cell_length_c 15.123530
_cell_angle_alpha 90.000000
_cell_angle_beta 40.112788
_cell_angle_gamma 90.000000
_cell_volume 1272.713983
_symmetry_space_group_name_H-M "C M"
_symmetry_group_IT_number 8
_symmetry_cell_setting 'monoclinic'
loop_
_space_group_symop_operation_xyz
x,y,z
x,-y,z
1/2+x,1/2+y,z
1/2+x,1/2-y,z
loop_
_atom_site_type_symbol
_atom_site_label
_atom_site_fract_x
_atom_site_fract_y
_atom_site_fract_z
Si Si1 0.511240 0.690402 0.079870
Si Si2 0.833767 0.311543 0.060282
Si Si3 0.797254 0.187833 0.584846
Si Si4 0.009196 0.185450 0.760460
Si Si5 0.525952 0.691676 0.270407
Si Si6 0.307095 0.812454 0.775527
O O1 0.500943 0.500000 0.083009
O O2 0.403434 0.764500 0.097673
O O3 0.494397 0.740444 0.194532
O O4 0.661661 0.733125 0.929653
O O5 0.838497 0.500000 0.044951
O O6 0.678028 0.260120 0.176346
O O7 0.918464 0.235232 0.914958
O O8 0.651612 0.226970 0.657363
O O9 0.808147 0.266992 0.672193
O O10 0.915024 0.243635 0.427289
O O11 0.809110 0.000000 0.587108
O O12 0.925334 0.230773 0.738761
O O13 0.034066 0.000000 0.744573
O O14 0.524549 0.500000 0.271563
O O15 0.320696 0.000000 0.775437
#
# Coordination Sequence:
#
# PCOD9132642 Si02
#       6
#     4   4   4   4   4   4
#     4  10  20  38  62  89 121 157 201 248 298 359
#     4  11  21  38  63  91 121 157 203 251 304 360
#     4  11  23  41  64  91 126 162 200 249 308 362
#     4  12  24  39  61  91 124 161 208 252 298 359
#     4   9  21  41  62  87 123 161 197 248 305 360
#     4  11  22  39  64  91 123 160 203 252 303 360
#
# _framework density 18.857340000000001
#
# number of rings (size 3 to 8) (size 9 to 14) (size 15 to 20)
#    0.000    1.333    3.333    3.000    0.000    2.000 
#    0.000    8.333    0.000    0.000    0.000    0.000 
#    0.000    0.000    0.000    0.000    0.000    0.000 
#
# Total GULP energy -67085.364394 kJ/mol
# GULP energy per Si atom -5590.447033 kJ/mol
# Density = 1.881442 g / cm^3
# Si number density = 18.857340 Si / 1000 Ang^3
#
#
#
# Elastic Constant Matrix: (Units=GPa)
#
#
# Indices 1 2 3 4 5 6 
#
# 1 89.4339 -13.6441 15.8370 0.0000 2.8300 0.0000
# 2 -13.6441 18.9314 -3.6002 0.0000 3.3044 0.0000
# 3 15.8370 -3.6002 108.6695 0.0000 3.9465 0.0000
# 4 0.0000 0.0000 0.0000 11.0454 0.0000 8.9841
# 5 2.8300 3.3044 3.9465 0.0000 31.5179 0.0000
# 6 0.0000 0.0000 0.0000 8.9841 0.0000 32.7095
#
#
#
# Elastic Compliance Matrix: (Units=1/GPa)
#
#
# Indices 1 2 3 4 5 6 
#
# 1 0.012941 0.009382 -0.001504 0.000000 -0.001957 0.000000
# 2 0.009382 0.061044 0.000922 0.000000 -0.007358 0.000000
# 3 -0.001504 0.000922 0.009494 0.000000 -0.001150 0.000000
# 4 0.000000 0.000000 0.000000 0.116580 0.000000 -0.032020
# 5 -0.001957 -0.007358 -0.001150 0.000000 0.032819 0.000000
# 6 0.000000 0.000000 0.000000 -0.032020 0.000000 0.039367
#
#
# Mechanical properties :
#
#
# Convention : Reuss Voigt Hill
#
# Bulk Modulus (GPa) = 9.89316 23.80222 16.84769
# Shear Modulus (GPa) = 17.34087 29.61739 23.47913
#
# Velocity S-wave (km/s) = 3.03575 3.96738 3.53241
# Velocity P-wave (km/s) = 4.18872 5.79970 5.05875
#
# Compressibility (1/GPa) = 0.10107995
#
# Stress axis : x y z
#
# Youngs Moduli (GPa) = 77.27309 16.38167 105.33259
#
# Poissons Ratio (x) = -0.15370 0.15843
# Poissons Ratio (y) = -0.72501 -0.09714
# Poissons Ratio (z) = 0.11622 -0.01511
#
# Static dielectric constant tensor:
#      x y z
#    x 1.623900 0.000000 -0.000040 
#    y 0.000000 1.643570 0.000000 
#    z -0.000040 0.000000 1.631020 
# 
# From -- ./inp_files/12077.got.cif
#   From: 2010.05.17/outbox.cif.g08.bks.cpg/sg8_7_cif.got.tgz:12077.got - 2010.06.03 19:46:02.
