data_PCOD9132490
_publ_section_title
;
Structure prediction by ZEFSAII (Michael W. Deem and Ramdas Pophale) SiO2 
 PCOD9132490
Probable space group: C M
;
_chemical_formula_sum "Si O2"
_cell_formula_units_Z 32
_cell_length_a 22.884876
_cell_length_b 8.994472
_cell_length_c 28.008490
_cell_angle_alpha 90.000000
_cell_angle_beta 17.767315
_cell_angle_gamma 90.000000
_cell_volume 1759.261102
_symmetry_space_group_name_H-M "C M"
_symmetry_group_IT_number 8
_symmetry_cell_setting 'monoclinic'
loop_
_space_group_symop_operation_xyz
x,y,z
x,-y,z
1/2+x,1/2+y,z
1/2+x,1/2-y,z
loop_
_atom_site_type_symbol
_atom_site_label
_atom_site_fract_x
_atom_site_fract_y
_atom_site_fract_z
Si Si1 0.236890 0.321116 0.996870
Si Si2 0.992106 0.322853 0.360439
Si Si3 0.937241 0.822856 0.556611
Si Si4 0.498310 0.177916 0.611722
Si Si5 0.260643 0.822266 0.227109
Si Si6 0.692455 0.821118 0.920181
Si Si7 0.431061 0.677915 0.305314
Si Si8 0.168696 0.822253 0.689940
O O1 0.214253 0.500000 0.018354
O O2 0.214672 0.281581 0.958526
O O3 0.450255 0.283062 0.848719
O O4 0.078672 0.242549 0.152068
O O5 0.005524 0.500000 0.344260
O O6 0.976045 0.245714 0.322008
O O7 0.804170 0.289452 0.538927
O O8 0.170116 0.262294 0.252706
O O9 0.953420 0.745759 0.594955
O O10 0.759252 0.762219 0.664336
O O11 0.125181 0.789515 0.378117
O O12 0.923699 0.000000 0.572877
O O13 0.350612 0.242492 0.765027
O O14 0.714666 0.217760 0.458549
O O15 0.483535 0.000000 0.621323
O O16 0.249043 0.000000 0.227814
O O17 0.479082 0.783112 0.068340
O O18 0.715171 0.000000 0.898631
O O19 0.445868 0.500000 0.295665
O O20 0.180263 0.000000 0.689234
#
# Coordination Sequence:
#
# PCOD9132490 Si02
#       8
#     4   4   4   4   4   4   4   4
#     4  10  21  38  60  84 111 145 185 229 276 328
#     4  10  20  36  60  85 111 147 186 225 272 327
#     4  10  20  36  60  85 111 147 186 225 272 327
#     4  11  24  39  56  81 113 147 184 229 278 328
#     4   9  19  36  58  85 115 145 181 227 276 326
#     4  10  21  38  60  84 111 145 185 229 276 328
#     4  11  24  39  56  81 113 147 184 229 278 328
#     4   9  19  36  58  85 115 145 181 227 276 326
#
# _framework density 18.189454000000001
#
# number of rings (size 3 to 8) (size 9 to 14) (size 15 to 20)
#    0.000    2.000    0.000    3.000    0.000    7.500 
#    0.000    0.000    0.000    0.000    0.000    0.000 
#    0.000    0.000    0.000    0.000    0.000    0.000 
#
# Total GULP energy -89401.970729 kJ/mol
# GULP energy per Si atom -5587.623171 kJ/mol
# Density = 1.814805 g / cm^3
# Si number density = 18.189454 Si / 1000 Ang^3
#
#
#
# Elastic Constant Matrix: (Units=GPa)
#
#
# Indices 1 2 3 4 5 6 
#
# 1 198.1250 81.0921 118.4367 0.0022 2.5611 -0.0059
# 2 81.0921 51.2703 73.9236 0.0036 -2.0415 0.0090
# 3 118.4367 73.9236 170.8909 -0.0089 -15.1903 -0.0205
# 4 0.0022 0.0036 -0.0089 26.5145 0.0023 13.5656
# 5 2.5611 -2.0415 -15.1903 0.0023 23.8212 0.0037
# 6 -0.0059 0.0090 -0.0205 13.5656 0.0037 -8.2658
#
#
#
# Elastic Compliance Matrix: (Units=1/GPa)
#
#
# Indices 1 2 3 4 5 6 
#
# 1 0.014684 -0.021747 -0.001140 0.000010 -0.004169 -0.000017
# 2 -0.021747 0.086616 -0.022822 -0.000055 -0.004792 0.000074
# 3 -0.001140 -0.022822 0.017334 0.000022 0.009220 -0.000027
# 4 0.000010 -0.000055 0.000022 0.020501 0.000001 0.033646
# 5 -0.004169 -0.004792 0.009220 0.000001 0.047896 -0.000002
# 6 -0.000017 0.000074 -0.000027 0.033646 -0.000002 -0.065762
#
#
# Mechanical properties :
#
#
# Convention : Reuss Voigt Hill
#
# Bulk Modulus (GPa) = 36.74446 107.46565 72.10506
# Shear Modulus (GPa) = 22.54704 18.20290 20.37497
#
# Velocity S-wave (km/s) = 3.52457 3.16688 3.35050
# Velocity P-wave (km/s) = 6.06698 8.51949 7.39561
#
# Compressibility (1/GPa) = 0.02721498
#
# Stress axis : x y z
#
# Youngs Moduli (GPa) = 68.10331 11.54523 57.69108
#
# Poissons Ratio (x) = 0.25107 0.06576
# Poissons Ratio (y) = 1.48103 1.31664
# Poissons Ratio (z) = 0.07763 0.26349
#
# Static dielectric constant tensor:
#      x y z
#    x 1.587230 0.000000 -0.005550 
#    y 0.000000 1.603710 0.000010 
#    z -0.005550 0.000010 1.603710 
# 
# From -- ./inp_files/33052.got.cif
#   From: 2010.05.17/outbox.cif.g08.bks.cpg/sg8_17_cif.got.tgz:33052.got - 2010.06.03 19:46:02.
