data_PCOD9132824
_publ_section_title
;
Structure prediction by ZEFSAII (Michael W. Deem and Ramdas Pophale) SiO2 
 PCOD9132824
Probable space group: C M
;
_chemical_formula_sum "Si O2"
_cell_formula_units_Z 32
_cell_length_a 14.290324
_cell_length_b 20.171008
_cell_length_c 11.355082
_cell_angle_alpha 90.000000
_cell_angle_beta 151.795455
_cell_angle_gamma 90.000000
_cell_volume 1546.937139
_symmetry_space_group_name_H-M "C M"
_symmetry_group_IT_number 8
_symmetry_cell_setting 'monoclinic'
loop_
_space_group_symop_operation_xyz
x,y,z
x,-y,z
1/2+x,1/2+y,z
1/2+x,1/2-y,z
loop_
_atom_site_type_symbol
_atom_site_label
_atom_site_fract_x
_atom_site_fract_y
_atom_site_fract_z
Si Si1 0.004390 0.925474 0.722230
Si Si2 0.911559 0.076385 0.078402
Si Si3 0.399831 0.157241 0.148123
Si Si4 0.155155 0.577377 0.989253
Si Si5 0.832582 0.575243 0.429146
Si Si6 0.168123 0.335718 0.227298
Si Si7 0.319601 0.632395 0.732596
Si Si8 0.208136 0.203986 0.147783
O O1 0.844802 0.878069 0.482392
O O2 0.936687 0.922489 0.784517
O O3 0.989173 0.000000 0.661164
O O4 0.226335 0.897844 0.952187
O O5 0.140523 0.077615 0.299796
O O6 0.844246 0.000000 0.992663
O O7 0.863780 0.095938 0.158942
O O8 0.813456 0.116926 0.863436
O O9 0.485535 0.173338 0.114809
O O10 0.601045 0.137765 0.439504
O O11 0.296839 0.212852 0.115756
O O12 0.153703 0.500000 0.024309
O O13 0.011693 0.584864 0.717963
O O14 0.104398 0.624029 0.040837
O O15 0.844758 0.500000 0.390755
O O16 0.799610 0.635729 0.302405
O O17 0.250072 0.264864 0.278603
O O18 0.469716 0.693919 0.878823
#
# Coordination Sequence:
#
# PCOD9132824 Si02
#       8
#     4   4   4   4   4   4   4   4
#     4  10  22  40  62  91 126 164 210 258 305 364
#     4   9  17  31  54  83 113 146 186 241 303 350
#     4  10  23  40  60  86 118 162 207 251 312 367
#     4  10  21  36  55  81 114 154 196 239 293 358
#     4   9  19  36  59  88 116 146 194 251 302 356
#     4  11  25  41  59  87 125 164 207 255 304 369
#     4   9  19  37  60  90 120 153 201 258 309 362
#     4  10  22  39  63  90 119 157 203 257 313 372
#
# _framework density 20.686038
#
# number of rings (size 3 to 8) (size 9 to 14) (size 15 to 20)
#    0.000    2.250    0.000    1.500    0.000   13.000 
#    0.000    1.250    0.000    0.000    0.000    0.000 
#    0.000    0.000    0.000    0.000    0.000    0.000 
#
# Total GULP energy -89206.164292 kJ/mol
# GULP energy per Si atom -5575.385268 kJ/mol
# Density = 2.063896 g / cm^3
# Si number density = 20.686038 Si / 1000 Ang^3
#
#
#
# Elastic Constant Matrix: (Units=GPa)
#
#
# Indices 1 2 3 4 5 6 
#
# 1 162.2077 46.6819 18.9399 0.0001 5.8905 0.0000
# 2 46.6819 94.1428 22.2707 0.0001 -3.3009 0.0000
# 3 18.9399 22.2707 67.0500 0.0002 13.6166 0.0000
# 4 0.0001 0.0001 0.0002 19.7232 0.0000 -4.0611
# 5 5.8905 -3.3009 13.6166 0.0000 22.2916 0.0000
# 6 0.0000 0.0000 0.0000 -4.0611 0.0000 12.9589
#
#
#
# Elastic Compliance Matrix: (Units=1/GPa)
#
#
# Indices 1 2 3 4 5 6 
#
# 1 0.007335 -0.003615 -0.000421 0.000000 -0.002216 0.000000
# 2 -0.003615 0.013742 -0.004738 0.000000 0.005884 0.000000
# 3 -0.000421 -0.004738 0.019096 0.000000 -0.012255 0.000000
# 4 0.000000 0.000000 0.000000 0.054199 0.000000 0.016985
# 5 -0.002216 0.005884 -0.012255 0.000000 0.053803 0.000000
# 6 0.000000 0.000000 0.000000 0.016985 0.000000 0.082490
#
#
# Mechanical properties :
#
#
# Convention : Reuss Voigt Hill
#
# Bulk Modulus (GPa) = 44.20148 55.46506 49.83327
# Shear Modulus (GPa) = 19.54998 26.69529 23.12264
#
# Velocity S-wave (km/s) = 3.07755 3.59625 3.34696
# Velocity P-wave (km/s) = 5.83460 6.64191 6.25130
#
# Compressibility (1/GPa) = 0.02262368
#
# Stress axis : x y z
#
# Youngs Moduli (GPa) = 136.33213 72.76929 52.36790
#
# Poissons Ratio (x) = 0.26308 0.02205
# Poissons Ratio (y) = 0.49288 0.24813
# Poissons Ratio (z) = 0.05740 0.34480
#
# Static dielectric constant tensor:
#      x y z
#    x 1.783090 0.000000 0.011750 
#    y 0.000000 1.756150 0.000000 
#    z 0.011750 0.000000 1.779840 
# 
# From -- ./inp_files/22422.got.cif
#   From: 2010.05.17/outbox.cif.g08.bks.cpg/sg8_12_cif.got.tgz:22422.got - 2010.06.03 19:46:02.
