data_PCOD9132910
_publ_section_title
;
Structure prediction by ZEFSAII (Michael W. Deem and Ramdas Pophale) SiO2 
 PCOD9132910
Probable space group: C M
;
_chemical_formula_sum "Si O2"
_cell_formula_units_Z 26
_cell_length_a 26.175425
_cell_length_b 8.088461
_cell_length_c 7.434199
_cell_angle_alpha 90.000000
_cell_angle_beta 45.247926
_cell_angle_gamma 90.000000
_cell_volume 1117.763593
_symmetry_space_group_name_H-M "C M"
_symmetry_group_IT_number 8
_symmetry_cell_setting 'monoclinic'
loop_
_space_group_symop_operation_xyz
x,y,z
x,-y,z
1/2+x,1/2+y,z
1/2+x,1/2-y,z
loop_
_atom_site_type_symbol
_atom_site_label
_atom_site_fract_x
_atom_site_fract_y
_atom_site_fract_z
Si Si1 0.192478 0.500000 0.367138
Si Si2 0.597382 0.309624 0.561438
Si Si3 0.734534 0.688781 0.700364
Si Si4 0.864923 0.677259 0.145738
Si Si5 0.280271 0.500000 0.806987
Si Si6 0.573120 0.698363 0.204320
Si Si7 0.854478 0.000000 0.978049
Si Si8 0.467880 0.307358 0.166860
O O1 0.150038 0.668178 0.503622
O O2 0.211225 0.500000 0.108948
O O3 0.271786 0.500000 0.255503
O O4 0.626028 0.500000 0.487815
O O5 0.576871 0.262585 0.406515
O O6 0.529923 0.308948 0.861074
O O7 0.738474 0.500000 0.766303
O O8 0.780024 0.679882 0.403672
O O9 0.773919 0.832841 0.712663
O O10 0.650042 0.735110 0.918684
O O11 0.882957 0.500000 0.019689
O O12 0.887533 0.832714 0.970159
O O13 0.905566 0.698508 0.234658
O O14 0.345307 0.500000 0.787945
O O15 0.565771 0.500000 0.211812
O O16 0.505880 0.759208 0.253144
O O17 0.444147 0.500000 0.242189
#
# Coordination Sequence:
#
# PCOD9132910 Si02
#       8
#     2   4   4   4   2   4   2   4
#     4  10  22  36  62 100 116 157 210 247 319 376
#     4  10  21  40  62  90 133 158 197 263 308 371
#     4  10  21  40  64  89 128 157 207 263 307 374
#     4  11  24  43  61  88 127 169 210 260 308 373
#     4  10  21  37  64  98 119 163 196 257 326 365
#     4   9  18  37  64  91 115 163 202 248 316 364
#     4  10  23  41  62  90 129 160 208 256 321 369
#     4  10  22  41  63  89 126 167 209 253 310 373
#
# _framework density 23.260732000000001
#
# number of rings (size 3 to 8) (size 9 to 14) (size 15 to 20)
#    0.462    1.538    2.308    0.462    3.231    1.231 
#    5.538    0.000    0.000    0.000    0.000    0.000 
#    0.000    0.000    0.000    0.000    0.000    0.000 
#
# Total GULP energy -72558.044296 kJ/mol
# GULP energy per Si atom -5581.388023 kJ/mol
# Density = 2.320779 g / cm^3
# Si number density = 23.260732 Si / 1000 Ang^3
#
#
#
# Elastic Constant Matrix: (Units=GPa)
#
#
# Indices 1 2 3 4 5 6 
#
# 1 104.4622 52.3471 -3.2962 0.0000 -2.2621 0.0000
# 2 52.3471 152.6439 19.1883 0.0000 1.4966 0.0000
# 3 -3.2962 19.1883 58.2590 0.0000 2.7687 0.0000
# 4 0.0000 0.0000 0.0000 16.1703 0.0000 -7.9279
# 5 -2.2621 1.4966 2.7687 0.0000 23.0028 0.0000
# 6 0.0000 0.0000 0.0000 -7.9279 0.0000 9.3662
#
#
#
# Elastic Compliance Matrix: (Units=1/GPa)
#
#
# Indices 1 2 3 4 5 6 
#
# 1 0.011830 -0.004325 0.002037 0.000000 0.001200 0.000000
# 2 -0.004325 0.008416 -0.002987 0.000000 -0.000613 0.000000
# 3 0.002037 -0.002987 0.018350 0.000000 -0.001814 0.000000
# 4 0.000000 0.000000 0.000000 0.105710 0.000000 0.089476
# 5 0.001200 -0.000613 -0.001814 0.000000 0.043849 0.000000
# 6 0.000000 0.000000 0.000000 0.089476 0.000000 0.182504
#
#
# Mechanical properties :
#
#
# Convention : Reuss Voigt Hill
#
# Bulk Modulus (GPa) = 35.65654 50.20481 42.93067
# Shear Modulus (GPa) = 12.80220 26.18291 19.49255
#
# Velocity S-wave (km/s) = 2.34856 3.35868 2.89797
# Velocity P-wave (km/s) = 4.76620 6.05568 5.44922
#
# Compressibility (1/GPa) = 0.02804535
#
# Stress axis : x y z
#
# Youngs Moduli (GPa) = 84.52861 118.82285 54.49558
#
# Poissons Ratio (x) = 0.51389 -0.11100
# Poissons Ratio (y) = 0.36557 0.16280
# Poissons Ratio (z) = -0.17217 0.35497
#
# Static dielectric constant tensor:
#      x y z
#    x 1.909000 0.000000 -0.015840 
#    y 0.000000 1.902550 0.000000 
#    z -0.015840 0.000000 1.874590 
# 
# From -- ./inp_files/17318.got.cif
#   From: 2010.05.17/outbox.cif.g08.bks.cpg/sg8_9_cif.got.tgz:17318.got - 2010.06.03 19:46:02.
