data_PCOD9132102
_publ_section_title
;
Structure prediction by ZEFSAII (Michael W. Deem and Ramdas Pophale) SiO2 
 PCOD9132102
Probable space group: C M
;
_chemical_formula_sum "Si O2"
_cell_formula_units_Z 32
_cell_length_a 11.305504
_cell_length_b 13.887692
_cell_length_c 12.923775
_cell_angle_alpha 90.000000
_cell_angle_beta 136.649837
_cell_angle_gamma 90.000000
_cell_volume 1392.905429
_symmetry_space_group_name_H-M "C M"
_symmetry_group_IT_number 8
_symmetry_cell_setting 'monoclinic'
loop_
_space_group_symop_operation_xyz
x,y,z
x,-y,z
1/2+x,1/2+y,z
1/2+x,1/2-y,z
loop_
_atom_site_type_symbol
_atom_site_label
_atom_site_fract_x
_atom_site_fract_y
_atom_site_fract_z
Si Si1 0.132800 0.252075 0.657950
Si Si2 0.639429 0.897020 0.817595
Si Si3 0.669343 0.387943 0.844398
Si Si4 0.254466 0.894093 0.576965
Si Si5 0.790932 0.269661 0.111031
Si Si6 0.065851 0.607427 0.017512
Si Si7 0.547072 0.392326 0.238314
Si Si8 0.416892 0.889023 0.369362
O O1 0.228902 0.318494 0.803294
O O2 0.056016 0.170265 0.687221
O O3 0.246732 0.190856 0.652459
O O4 0.019757 0.316615 0.508991
O O5 0.443530 0.895718 0.648165
O O6 0.719908 0.000000 0.848779
O O7 0.593782 0.890139 0.910082
O O8 0.621063 0.500000 0.825531
O O9 0.676431 0.329058 0.956440
O O10 0.868417 0.385856 0.928723
O O11 0.113057 0.882118 0.398388
O O12 0.229676 0.000000 0.610906
O O13 0.680305 0.200492 0.117885
O O14 0.907616 0.344151 0.248993
O O15 0.915568 0.192929 0.133143
O O16 0.125346 0.500000 0.089564
O O17 0.471444 0.500000 0.180382
O O18 0.718186 0.389895 0.279443
O O19 0.479381 0.000000 0.412614
#
# Coordination Sequence:
#
# PCOD9132102 Si02
#       8
#     4   4   4   4   4   4   4   4
#     4  12  20  36  62  88 110 152 206 238 290 348
#     4  10  19  35  60  85 113 150 197 248 293 343
#     4  11  24  40  61  88 122 158 194 242 298 355
#     4  10  19  35  60  85 113 150 197 248 293 343
#     4  12  22  40  62  90 120 160 196 238 296 354
#     4  10  21  38  60  89 117 152 201 244 287 343
#     4  10  21  38  60  89 117 152 201 244 287 343
#     4  11  24  40  61  88 122 158 194 242 298 355
#
# _framework density 22.973562999999999
#
# number of rings (size 3 to 8) (size 9 to 14) (size 15 to 20)
#    0.000    1.250    5.000    2.250    0.000    0.000 
#    0.000    0.000    0.000   15.000    0.000    0.000 
#    0.000    0.000    0.000    0.000    0.000    0.000 
#
# Total GULP energy -89255.429698 kJ/mol
# GULP energy per Si atom -5578.464356 kJ/mol
# Density = 2.292127 g / cm^3
# Si number density = 22.973563 Si / 1000 Ang^3
#
#
#
# Elastic Constant Matrix: (Units=GPa)
#
#
# Indices 1 2 3 4 5 6 
#
# 1 34.3745 21.9586 -2.3323 0.0001 -6.8964 0.0001
# 2 21.9586 174.7696 40.0014 0.0001 -12.2409 0.0000
# 3 -2.3323 40.0014 80.9843 0.0002 -8.1991 0.0001
# 4 0.0001 0.0001 0.0002 33.0925 0.0001 1.2572
# 5 -6.8964 -12.2409 -8.1991 0.0001 26.5114 0.0001
# 6 0.0001 0.0000 0.0001 1.2572 0.0001 26.3267
#
#
#
# Elastic Compliance Matrix: (Units=1/GPa)
#
#
# Indices 1 2 3 4 5 6 
#
# 1 0.033924 -0.004638 0.004072 0.000000 0.007942 0.000000
# 2 -0.004638 0.007196 -0.003586 0.000000 0.001007 0.000000
# 3 0.004072 -0.003586 0.014634 0.000000 0.003929 0.000000
# 4 0.000000 0.000000 0.000000 0.030273 0.000000 -0.001446
# 5 0.007942 0.001007 0.003929 0.000000 0.041466 0.000000
# 6 0.000000 0.000000 0.000000 -0.001446 0.000000 0.038053
#
#
# Mechanical properties :
#
#
# Convention : Reuss Voigt Hill
#
# Bulk Modulus (GPa) = 21.07473 45.48709 33.28091
# Shear Modulus (GPa) = 26.36198 32.55284 29.45741
#
# Velocity S-wave (km/s) = 3.39114 3.76835 3.58471
# Velocity P-wave (km/s) = 4.95242 6.22709 5.62597
#
# Compressibility (1/GPa) = 0.04745018
#
# Stress axis : x y z
#
# Youngs Moduli (GPa) = 29.47780 138.96941 68.33209
#
# Poissons Ratio (x) = 0.64454 -0.27825
# Poissons Ratio (y) = 0.13672 0.24503
# Poissons Ratio (z) = -0.12003 0.49833
#
# Static dielectric constant tensor:
#      x y z
#    x 1.852980 0.000000 -0.007570 
#    y 0.000000 1.955180 0.000000 
#    z -0.007570 0.000000 1.916760 
# 
# From -- ./inp_files/26814.got.cif
#   From: 2010.05.17/outbox.cif.g08.bks.cpg/sg8_14_cif.got.tgz:26814.got - 2010.06.03 19:46:02.
