data_PCOD9132494
_publ_section_title
;
Structure prediction by ZEFSAII (Michael W. Deem and Ramdas Pophale) SiO2 
 PCOD9132494
Probable space group: C M
;
_chemical_formula_sum "Si O2"
_cell_formula_units_Z 32
_cell_length_a 20.180937
_cell_length_b 7.544356
_cell_length_c 9.982036
_cell_angle_alpha 90.000000
_cell_angle_beta 105.107752
_cell_angle_gamma 90.000000
_cell_volume 1467.258859
_symmetry_space_group_name_H-M "C M"
_symmetry_group_IT_number 8
_symmetry_cell_setting 'monoclinic'
loop_
_space_group_symop_operation_xyz
x,y,z
x,-y,z
1/2+x,1/2+y,z
1/2+x,1/2-y,z
loop_
_atom_site_type_symbol
_atom_site_label
_atom_site_fract_x
_atom_site_fract_y
_atom_site_fract_z
Si Si1 0.071700 0.789313 0.130930
Si Si2 0.314910 0.793786 0.425583
Si Si3 0.163228 0.296831 0.427380
Si Si4 0.076795 0.703226 0.623106
Si Si5 0.154310 0.214427 0.921236
Si Si6 0.935868 0.717940 0.683706
Si Si7 0.421576 0.211297 0.983272
Si Si8 0.801567 0.717415 0.114925
O O1 0.120494 0.708032 0.267986
O O2 0.992064 0.746248 0.098905
O O3 0.081791 0.000000 0.144688
O O4 0.096801 0.730897 0.997892
O O5 0.238026 0.784194 0.443797
O O6 0.371755 0.723130 0.558428
O O7 0.313684 0.719364 0.273578
O O8 0.333025 0.000000 0.419573
O O9 0.176435 0.500000 0.473955
O O10 0.113126 0.213985 0.512782
O O11 0.059367 0.500000 0.577287
O O12 0.133948 0.708305 0.768626
O O13 0.006989 0.777797 0.651322
O O14 0.153914 0.000000 0.908729
O O15 0.227097 0.268295 0.020339
O O16 0.937386 0.500000 0.689371
O O17 0.928021 0.778809 0.833833
O O18 0.358847 0.277998 0.039942
O O19 0.412457 0.000000 0.967686
O O20 0.801996 0.500000 0.118962
#
# Coordination Sequence:
#
# PCOD9132494 Si02
#       8
#     4   4   4   4   4   4   4   4
#     4  11  22  39  61  85 115 152 195 241 290 342
#     4  10  20  38  60  82 116 154 192 239 284 338
#     4  11  24  39  59  86 117 154 195 240 289 342
#     4  10  22  39  58  85 115 150 194 238 287 342
#     4  10  20  37  60  85 112 149 194 240 287 340
#     4   9  19  35  58  84 111 149 191 231 282 342
#     4  10  20  36  60  87 114 149 194 238 284 342
#     4   9  19  35  58  86 112 147 193 235 281 340
#
# _framework density 21.809376
#
# number of rings (size 3 to 8) (size 9 to 14) (size 15 to 20)
#    0.000    2.000    2.500    0.750    3.500    1.500 
#    0.000    2.500    0.000    0.000    0.000    0.000 
#    0.000    0.000    0.000    0.000    0.000    0.000 
#
# Total GULP energy -89361.350829 kJ/mol
# GULP energy per Si atom -5585.084427 kJ/mol
# Density = 2.175974 g / cm^3
# Si number density = 21.809376 Si / 1000 Ang^3
#
#
#
# Elastic Constant Matrix: (Units=GPa)
#
#
# Indices 1 2 3 4 5 6 
#
# 1 125.5412 -2.7833 41.8884 0.0000 -1.5099 0.0000
# 2 -2.7833 48.2226 -0.0470 0.0000 -8.7986 0.0000
# 3 41.8884 -0.0470 95.6302 0.0000 2.5774 0.0000
# 4 0.0000 0.0000 0.0000 13.0246 0.0000 3.4816
# 5 -1.5099 -8.7986 2.5774 0.0000 41.1597 0.0000
# 6 0.0000 0.0000 0.0000 3.4816 0.0000 18.3892
#
#
#
# Elastic Compliance Matrix: (Units=1/GPa)
#
#
# Indices 1 2 3 4 5 6 
#
# 1 0.009365 0.000673 -0.004122 0.000000 0.000745 0.000000
# 2 0.000673 0.021628 -0.000410 0.000000 0.004674 0.000000
# 3 -0.004122 -0.000410 0.012289 0.000000 -0.001008 0.000000
# 4 0.000000 0.000000 0.000000 0.080871 0.000000 -0.015311
# 5 0.000745 0.004674 -0.001008 0.000000 0.025385 0.000000
# 6 0.000000 0.000000 0.000000 -0.015311 0.000000 0.057278
#
#
# Mechanical properties :
#
#
# Convention : Reuss Voigt Hill
#
# Bulk Modulus (GPa) = 28.11826 38.61225 33.36526
# Shear Modulus (GPa) = 22.08582 29.87043 25.97812
#
# Velocity S-wave (km/s) = 3.18571 3.70484 3.45504
# Velocity P-wave (km/s) = 5.14319 6.00367 5.59001
#
# Compressibility (1/GPa) = 0.03556407
#
# Stress axis : x y z
#
# Youngs Moduli (GPa) = 106.78457 46.23563 81.37141
#
# Poissons Ratio (x) = -0.03109 0.33539
# Poissons Ratio (y) = -0.07181 0.03336
# Poissons Ratio (z) = 0.44013 0.01895
#
# Static dielectric constant tensor:
#      x y z
#    x 1.763200 0.000000 -0.027920 
#    y 0.000000 1.841050 0.000000 
#    z -0.027920 0.000000 1.759630 
# 
# From -- ./inp_files/15881.got.cif
#   From: 2010.05.17/outbox.cif.g08.bks.cpg/sg8_8_cif.got.tgz:15881.got - 2010.06.03 19:46:02.
