data_PCOD9132739
_publ_section_title
;
Structure prediction by ZEFSAII (Michael W. Deem and Ramdas Pophale) SiO2 
 PCOD9132739
Probable space group: C M
;
_chemical_formula_sum "Si O2"
_cell_formula_units_Z 32
_cell_length_a 12.342775
_cell_length_b 27.762445
_cell_length_c 5.767456
_cell_angle_alpha 90.000000
_cell_angle_beta 43.641545
_cell_angle_gamma 90.000000
_cell_volume 1363.938592
_symmetry_space_group_name_H-M "C M"
_symmetry_group_IT_number 8
_symmetry_cell_setting 'monoclinic'
loop_
_space_group_symop_operation_xyz
x,y,z
x,-y,z
1/2+x,1/2+y,z
1/2+x,1/2-y,z
loop_
_atom_site_type_symbol
_atom_site_label
_atom_site_fract_x
_atom_site_fract_y
_atom_site_fract_z
Si Si1 0.200330 0.402678 0.872230
Si Si2 0.680354 0.261817 0.330263
Si Si3 0.191286 0.822841 0.699812
Si Si4 0.453658 0.184515 0.679142
Si Si5 0.097668 0.946040 0.448807
Si Si6 0.886183 0.396229 0.121055
Si Si7 0.475965 0.653384 0.410764
Si Si8 0.812079 0.944597 0.197470
O O1 0.291044 0.351572 0.730877
O O2 0.268343 0.424739 0.521074
O O3 0.238381 0.424104 0.068740
O O4 0.015276 0.404646 0.115751
O O5 0.678687 0.270619 0.607293
O O6 0.614701 0.210152 0.368538
O O7 0.561258 0.302479 0.409741
O O8 0.854173 0.276145 0.981791
O O9 0.332953 0.823901 0.660407
O O10 0.249372 0.860723 0.421675
O O11 0.029652 0.837976 0.065306
O O12 0.470634 0.135020 0.791498
O O13 0.284546 0.941035 0.193699
O O14 0.043824 0.899399 0.382302
O O15 0.059725 0.000000 0.413212
O O16 0.997723 0.942346 0.843000
O O17 0.763882 0.000000 0.280548
#
# Coordination Sequence:
#
# PCOD9132739 Si02
#       8
#     4   4   4   4   4   4   4   4
#     4  11  25  37  68  98 135 173 218 279 349 389
#     4  10  22  39  62  92 125 170 220 272 336 401
#     4  10  20  40  66  82 139 167 220 272 331 403
#     4  10  23  39  62  91 130 169 218 276 335 401
#     4  10  20  41  69  93 126 175 226 269 330 400
#     4  11  23  41  60  98 132 171 214 282 337 397
#     4  10  21  41  63  93 127 175 218 277 326 404
#     4  10  23  44  65  95 132 176 229 277 330 407
#
# _framework density 23.461466000000001
#
# number of rings (size 3 to 8) (size 9 to 14) (size 15 to 20)
#    0.000    1.750    3.750    1.125    3.500    8.500 
#    0.000    0.625    0.000    0.000    0.000    0.000 
#    0.000    0.000    0.000    0.000    0.000    0.000 
#
# Total GULP energy -89202.014946 kJ/mol
# GULP energy per Si atom -5575.125934 kJ/mol
# Density = 2.340807 g / cm^3
# Si number density = 23.461466 Si / 1000 Ang^3
#
#
#
# Elastic Constant Matrix: (Units=GPa)
#
#
# Indices 1 2 3 4 5 6 
#
# 1 83.9769 17.0776 16.2722 0.0000 -0.0736 0.0000
# 2 17.0776 63.0564 43.1650 0.0000 7.1322 0.0000
# 3 16.2722 43.1650 92.3459 0.0000 9.7617 0.0000
# 4 0.0000 0.0000 0.0000 27.4843 0.0000 -3.3121
# 5 -0.0736 7.1322 9.7617 0.0000 30.9594 0.0000
# 6 0.0000 0.0000 0.0000 -3.3121 0.0000 14.8981
#
#
#
# Elastic Compliance Matrix: (Units=1/GPa)
#
#
# Indices 1 2 3 4 5 6 
#
# 1 0.012685 -0.002862 -0.001004 0.000000 0.001006 0.000000
# 2 -0.002862 0.024087 -0.010518 0.000000 -0.002240 0.000000
# 3 -0.001004 -0.010518 0.016206 0.000000 -0.002689 0.000000
# 4 0.000000 0.000000 0.000000 0.037386 0.000000 0.008312
# 5 0.001006 -0.002240 -0.002689 0.000000 0.033667 0.000000
# 6 0.000000 0.000000 0.000000 0.008312 0.000000 0.068971
#
#
# Mechanical properties :
#
#
# Convention : Reuss Voigt Hill
#
# Bulk Modulus (GPa) = 41.30320 43.60097 42.45209
# Shear Modulus (GPa) = 21.75417 25.52598 23.64007
#
# Velocity S-wave (km/s) = 3.04835 3.30206 3.17774
# Velocity P-wave (km/s) = 5.48022 5.75869 5.62118
#
# Compressibility (1/GPa) = 0.02421120
#
# Stress axis : x y z
#
# Youngs Moduli (GPa) = 78.83024 41.51552 61.70405
#
# Poissons Ratio (x) = 0.11883 0.06193
# Poissons Ratio (y) = 0.22564 0.64900
# Poissons Ratio (z) = 0.07912 0.43666
#
# Static dielectric constant tensor:
#      x y z
#    x 1.931860 0.000000 0.019590 
#    y 0.000000 1.898740 0.000000 
#    z 0.019590 0.000000 1.967850 
# 
# From -- ./inp_files/3309.got.cif
#   From: 2010.05.17/outbox.cif.g08.bks.cpg/sg8_2_cif.got.tgz:3309.got - 2010.06.03 19:46:02.
