data_PCOD9132998
_publ_section_title
;
Structure prediction by ZEFSAII (Michael W. Deem and Ramdas Pophale) SiO2 
 PCOD9132998
Probable space group: C M
;
_chemical_formula_sum "Si O2"
_cell_formula_units_Z 30
_cell_length_a 22.688947
_cell_length_b 12.070083
_cell_length_c 5.200755
_cell_angle_alpha 90.000000
_cell_angle_beta 82.318391
_cell_angle_gamma 90.000000
_cell_volume 1411.484487
_symmetry_space_group_name_H-M "C M"
_symmetry_group_IT_number 8
_symmetry_cell_setting 'monoclinic'
loop_
_space_group_symop_operation_xyz
x,y,z
x,-y,z
1/2+x,1/2+y,z
1/2+x,1/2-y,z
loop_
_atom_site_type_symbol
_atom_site_label
_atom_site_fract_x
_atom_site_fract_y
_atom_site_fract_z
Si Si1 0.084850 0.749219 0.735350
Si Si2 0.785858 0.189199 0.051116
Si Si3 0.039717 0.870038 0.245639
Si Si4 0.368272 0.500000 0.861182
Si Si5 0.210464 0.632277 0.591304
Si Si6 0.416386 0.301531 0.475316
Si Si7 0.471879 0.120455 0.809028
Si Si8 0.855595 0.374661 0.208954
O O1 0.066499 0.802496 0.471713
O O2 0.149915 0.698137 0.679383
O O3 0.038682 0.651590 0.842061
O O4 0.074538 0.838160 0.966843
O O5 0.739551 0.173806 0.309657
O O6 0.811541 0.314247 0.034958
O O7 0.837983 0.098485 0.057194
O O8 0.754695 0.154123 0.803599
O O9 0.968974 0.842008 0.252212
O O10 0.043886 0.000000 0.297330
O O11 0.394184 0.403856 0.652293
O O12 0.200453 0.500000 0.579359
O O13 0.451114 0.217395 0.638751
O O14 0.362949 0.223254 0.410654
O O15 0.470090 0.000000 0.681129
O O16 0.422620 0.117825 0.059780
O O17 0.837863 0.500000 0.292032
#
# Coordination Sequence:
#
# PCOD9132998 Si02
#       8
#     4   4   4   2   4   4   4   4
#     4  11  24  44  70  98 134 184 234 289 358 412
#     4  12  26  45  70 106 139 185 236 297 353 417
#     4  11  23  43  65 103 141 180 225 287 349 431
#     4  12  22  42  66 106 140 186 224 298 352 426
#     4  12  25  48  71 100 137 179 241 300 351 409
#     4  11  22  40  66 103 145 187 226 283 359 430
#     4  10  21  39  63  99 137 177 227 283 350 429
#     4  11  24  43  67 101 143 187 230 290 352 434
#
# _framework density 21.254218999999999
#
# number of rings (size 3 to 8) (size 9 to 14) (size 15 to 20)
#    0.000    0.800    4.667    2.800    0.000    0.533 
#    4.800    5.333    0.000    0.000    0.000    0.000 
#    0.000    0.000    0.000    0.000    0.000    0.000 
#
# Total GULP energy -83531.385300 kJ/mol
# GULP energy per Si atom -5568.759020 kJ/mol
# Density = 2.120584 g / cm^3
# Si number density = 21.254219 Si / 1000 Ang^3
#
#
#
# Elastic Constant Matrix: (Units=GPa)
#
#
# Indices 1 2 3 4 5 6 
#
# 1 56.4860 35.6151 17.6864 0.0000 -16.1204 0.0000
# 2 35.6151 174.4546 14.1409 0.0000 -11.4969 0.0000
# 3 17.6864 14.1409 83.8863 0.0000 -18.3536 0.0000
# 4 0.0000 0.0000 0.0000 58.2816 0.0000 10.2794
# 5 -16.1204 -11.4969 -18.3536 0.0000 34.2197 0.0000
# 6 0.0000 0.0000 0.0000 10.2794 0.0000 40.1010
#
#
#
# Elastic Compliance Matrix: (Units=1/GPa)
#
#
# Indices 1 2 3 4 5 6 
#
# 1 0.023389 -0.004027 -0.002422 0.000000 0.008366 0.000000
# 2 -0.004027 0.006585 -0.000218 0.000000 0.000199 0.000000
# 3 -0.002422 -0.000218 0.013825 0.000000 0.006201 0.000000
# 4 0.000000 0.000000 0.000000 0.017971 0.000000 -0.004607
# 5 0.008366 0.000199 0.006201 0.000000 0.036557 0.000000
# 6 0.000000 0.000000 0.000000 -0.004607 0.000000 0.026118
#
#
# Mechanical properties :
#
#
# Convention : Reuss Voigt Hill
#
# Bulk Modulus (GPa) = 32.82422 49.96797 41.39609
# Shear Modulus (GPa) = 33.79936 43.01274 38.40605
#
# Velocity S-wave (km/s) = 3.99211 4.50347 4.25548
# Velocity P-wave (km/s) = 6.06023 7.11353 6.60790
#
# Compressibility (1/GPa) = 0.03046531
#
# Stress axis : x y z
#
# Youngs Moduli (GPa) = 42.75598 151.85989 72.33324
#
# Poissons Ratio (x) = 0.61156 0.17518
# Poissons Ratio (y) = 0.17218 0.01573
# Poissons Ratio (z) = 0.10355 0.03303
#
# Static dielectric constant tensor:
#      x y z
#    x 1.845590 0.000000 0.045160 
#    y 0.000000 1.697450 0.000000 
#    z 0.045160 0.000000 1.824160 
# 
# From -- ./inp_files/5952.got.cif
#   From: 2010.05.17/outbox.cif.g08.bks.cpg/sg8_3_cif.got.tgz:5952.got - 2010.06.03 19:46:02.
