data_PCOD9132701
_publ_section_title
;
Structure prediction by ZEFSAII (Michael W. Deem and Ramdas Pophale) SiO2 
 PCOD9132701
Probable space group: C M
;
_chemical_formula_sum "Si O2"
_cell_formula_units_Z 32
_cell_length_a 15.215679
_cell_length_b 7.651351
_cell_length_c 23.183850
_cell_angle_alpha 90.000000
_cell_angle_beta 28.087939
_cell_angle_gamma 90.000000
_cell_volume 1270.795371
_symmetry_space_group_name_H-M "C M"
_symmetry_group_IT_number 8
_symmetry_cell_setting 'monoclinic'
loop_
_space_group_symop_operation_xyz
x,y,z
x,-y,z
1/2+x,1/2+y,z
1/2+x,1/2-y,z
loop_
_atom_site_type_symbol
_atom_site_label
_atom_site_fract_x
_atom_site_fract_y
_atom_site_fract_z
Si Si1 0.357400 0.294907 0.546860
Si Si2 0.086807 0.301214 0.613598
Si Si3 0.794020 0.794086 0.879315
Si Si4 0.774944 0.704054 0.719234
Si Si5 0.373893 0.285617 0.963960
Si Si6 0.282047 0.292308 0.325465
Si Si7 0.092601 0.709029 0.225940
Si Si8 0.390613 0.711383 0.140776
O O1 0.313879 0.500000 0.572283
O O2 0.261043 0.213619 0.658634
O O3 0.574790 0.271861 0.432756
O O4 0.269140 0.221733 0.538780
O O5 0.136744 0.500000 0.567488
O O6 0.929119 0.298728 0.755687
O O7 0.968681 0.216844 0.630084
O O8 0.374094 0.500000 0.964799
O O9 0.828555 0.732087 0.924918
O O10 0.572487 0.767161 0.000138
O O11 0.782613 0.500000 0.730757
O O12 0.583959 0.776652 0.855285
O O13 0.336062 0.500000 0.851238
O O14 0.224892 0.226189 0.097061
O O15 0.272290 0.500000 0.328286
O O16 0.383755 0.250703 0.326565
O O17 0.398540 0.225649 0.202353
O O18 0.102410 0.500000 0.221990
O O19 0.197224 0.771627 0.222944
O O20 0.391841 0.500000 0.140476
#
# Coordination Sequence:
#
# PCOD9132701 Si02
#       8
#     4   4   4   4   4   4   4   4
#     4  11  24  41  60  85 115 152 197 245 294 343
#     4  10  22  39  61  88 119 155 193 238 292 347
#     4  11  20  33  59  92 121 155 194 236 287 344
#     4  10  20  39  63  87 118 155 193 235 289 348
#     4   9  17  31  57  88 117 151 186 228 285 342
#     4  11  24  41  60  85 115 152 197 245 294 343
#     4  10  20  39  63  87 118 155 193 235 289 348
#     4  10  22  39  61  88 119 155 193 238 292 347
#
# _framework density 25.181082
#
# number of rings (size 3 to 8) (size 9 to 14) (size 15 to 20)
#    0.000    1.750    2.500    1.875    0.000    5.000 
#    0.000    3.125    0.000    0.000    0.000    0.000 
#    0.000    0.000    0.000    0.000    0.000    0.000 
#
# Total GULP energy -89451.507068 kJ/mol
# GULP energy per Si atom -5590.719192 kJ/mol
# Density = 2.512377 g / cm^3
# Si number density = 25.181082 Si / 1000 Ang^3
#
#
#
# Elastic Constant Matrix: (Units=GPa)
#
#
# Indices 1 2 3 4 5 6 
#
# 1 151.9936 7.0808 9.9928 0.0003 -38.0274 -0.0001
# 2 7.0808 61.8080 -11.8518 0.0001 -0.4840 -0.0001
# 3 9.9928 -11.8518 69.0374 -0.0007 -32.0189 -0.0003
# 4 0.0003 0.0001 -0.0007 17.4650 -0.0002 0.1955
# 5 -38.0274 -0.4840 -32.0189 -0.0002 50.2877 0.0002
# 6 -0.0001 -0.0001 -0.0003 0.1955 0.0002 12.5435
#
#
#
# Elastic Compliance Matrix: (Units=1/GPa)
#
#
# Indices 1 2 3 4 5 6 
#
# 1 0.008410 -0.000452 0.002345 0.000000 0.007848 0.000000
# 2 -0.000452 0.017042 0.004127 0.000000 0.002450 0.000000
# 3 0.002345 0.004127 0.022272 0.000001 0.015994 0.000000
# 4 0.000000 0.000000 0.000001 0.057267 0.000001 -0.000892
# 5 0.007848 0.002450 0.015994 0.000001 0.036027 0.000000
# 6 0.000000 0.000000 0.000000 -0.000892 0.000000 0.079736
#
#
# Mechanical properties :
#
#
# Convention : Reuss Voigt Hill
#
# Bulk Modulus (GPa) = 16.73283 32.58696 24.65990
# Shear Modulus (GPa) = 21.86892 34.56706 28.21799
#
# Velocity S-wave (km/s) = 2.95017 3.70907 3.35117
# Velocity P-wave (km/s) = 4.27365 5.59572 4.97876
#
# Compressibility (1/GPa) = 0.05976274
#
# Stress axis : x y z
#
# Youngs Moduli (GPa) = 118.91122 58.68012 44.89988
#
# Poissons Ratio (x) = 0.02654 -0.10529
# Poissons Ratio (y) = 0.05379 -0.18531
# Poissons Ratio (z) = -0.27884 -0.24219
#
# Static dielectric constant tensor:
#      x y z
#    x 2.065720 0.000000 -0.034820 
#    y 0.000000 1.921440 0.000000 
#    z -0.034820 0.000000 2.011790 
# 
# From -- ./inp_files/26549.got.cif
#   From: 2010.05.17/outbox.cif.g08.bks.cpg/sg8_14_cif.got.tgz:26549.got - 2010.06.03 19:46:02.
