data_PCOD9132540
_publ_section_title
;
Structure prediction by ZEFSAII (Michael W. Deem and Ramdas Pophale) SiO2 
 PCOD9132540
Probable space group: C M
;
_chemical_formula_sum "Si O2"
_cell_formula_units_Z 32
_cell_length_a 20.848451
_cell_length_b 8.798071
_cell_length_c 12.471151
_cell_angle_alpha 90.000000
_cell_angle_beta 51.939387
_cell_angle_gamma 90.000000
_cell_volume 1801.111475
_symmetry_space_group_name_H-M "C M"
_symmetry_group_IT_number 8
_symmetry_cell_setting 'monoclinic'
loop_
_space_group_symop_operation_xyz
x,y,z
x,-y,z
1/2+x,1/2+y,z
1/2+x,1/2-y,z
loop_
_atom_site_type_symbol
_atom_site_label
_atom_site_fract_x
_atom_site_fract_y
_atom_site_fract_z
Si Si1 0.284960 0.819807 0.265830
Si Si2 0.058568 0.817878 0.688185
Si Si3 0.607437 0.180850 0.417820
Si Si4 0.530994 0.317642 0.282546
Si Si5 0.090087 0.818220 0.988274
Si Si6 0.434974 0.319093 0.998511
Si Si7 0.852131 0.681787 0.435050
Si Si8 0.197160 0.318997 0.699695
O O1 0.201069 0.732474 0.333818
O O2 0.320346 0.783913 0.347477
O O3 0.269490 0.000000 0.276712
O O4 0.353978 0.771030 0.110373
O O5 0.059929 0.751150 0.568322
O O6 0.134128 0.747749 0.676514
O O7 0.977747 0.784465 0.840917
O O8 0.069113 0.000000 0.674741
O O9 0.571920 0.245544 0.344263
O O10 0.601531 0.000000 0.426357
O O11 0.529615 0.500000 0.293042
O O12 0.439474 0.256545 0.363502
O O13 0.579567 0.278922 0.123255
O O14 0.160131 0.731717 0.851761
O O15 0.004789 0.784701 0.015159
O O16 0.103142 0.000000 0.963921
O O17 0.418762 0.500000 0.020345
O O18 0.857868 0.500000 0.439814
O O19 0.784678 0.747630 0.584941
O O20 0.199974 0.500000 0.687850
#
# Coordination Sequence:
#
# PCOD9132540 Si02
#       8
#     4   4   4   4   4   4   4   4
#     4  11  22  36  59  88 119 154 195 243 290 343
#     4  10  20  37  58  84 118 155 195 240 293 348
#     4  12  25  40  60  86 120 158 198 242 294 353
#     4  11  23  41  63  86 119 158 197 240 295 355
#     4   9  19  36  58  84 117 155 191 235 292 351
#     4   9  18  34  58  87 117 148 189 242 291 341
#     4  11  22  37  59  88 121 154 196 246 291 341
#     4  11  21  33  57  89 119 152 193 244 294 342
#
# _framework density 17.766807
#
# number of rings (size 3 to 8) (size 9 to 14) (size 15 to 20)
#    0.000    1.500    2.500    4.500    0.000    4.500 
#    0.000    1.250    0.000    6.000    0.000    0.000 
#    0.000    0.000    0.000    0.000    0.000    0.000 
#
# Total GULP energy -89407.858163 kJ/mol
# GULP energy per Si atom -5587.991135 kJ/mol
# Density = 1.772637 g / cm^3
# Si number density = 17.766807 Si / 1000 Ang^3
#
#
#
# Elastic Constant Matrix: (Units=GPa)
#
#
# Indices 1 2 3 4 5 6 
#
# 1 80.9614 49.4979 60.2340 0.0000 14.7789 0.0000
# 2 49.4979 83.9620 65.2269 0.0000 7.3441 0.0000
# 3 60.2340 65.2269 147.5038 0.0000 13.2737 0.0000
# 4 0.0000 0.0000 0.0000 30.1550 0.0000 -4.1501
# 5 14.7789 7.3441 13.2737 0.0000 27.0626 0.0000
# 6 0.0000 0.0000 0.0000 -4.1501 0.0000 29.0048
#
#
#
# Elastic Compliance Matrix: (Units=1/GPa)
#
#
# Indices 1 2 3 4 5 6 
#
# 1 0.022769 -0.009238 -0.004519 0.000000 -0.007711 0.000000
# 2 -0.009238 0.021919 -0.006108 0.000000 0.002093 0.000000
# 3 -0.004519 -0.006108 0.011461 0.000000 -0.001496 0.000000
# 4 0.000000 0.000000 0.000000 0.033828 0.000000 0.004840
# 5 -0.007711 0.002093 -0.001496 0.000000 0.041328 0.000000
# 6 0.000000 0.000000 0.000000 0.004840 0.000000 0.035170
#
#
# Mechanical properties :
#
#
# Convention : Reuss Voigt Hill
#
# Bulk Modulus (GPa) = 60.91042 73.59388 67.25215
# Shear Modulus (GPa) = 23.62092 26.40905 25.01498
#
# Velocity S-wave (km/s) = 3.65018 3.85960 3.75635
# Velocity P-wave (km/s) = 7.21961 7.83416 7.53316
#
# Compressibility (1/GPa) = 0.01641755
#
# Stress axis : x y z
#
# Youngs Moduli (GPa) = 43.91942 45.62351 87.25554
#
# Poissons Ratio (x) = 0.42147 0.39430
# Poissons Ratio (y) = 0.40572 0.53300
# Poissons Ratio (z) = 0.19847 0.27869
#
# Static dielectric constant tensor:
#      x y z
#    x 1.574000 0.000000 0.007280 
#    y 0.000000 1.588260 0.000000 
#    z 0.007280 0.000000 1.611060 
# 
# From -- ./inp_files/23841.got.cif
#   From: 2010.05.17/outbox.cif.g08.bks.cpg/sg8_12_cif.got.tgz:23841.got - 2010.06.03 19:46:02.
