data_PCOD9132200
_publ_section_title
;
Structure prediction by ZEFSAII (Michael W. Deem and Ramdas Pophale) SiO2 
 PCOD9132200
Probable space group: C M
;
_chemical_formula_sum "Si O2"
_cell_formula_units_Z 32
_cell_length_a 24.668067
_cell_length_b 8.147313
_cell_length_c 20.215067
_cell_angle_alpha 90.000000
_cell_angle_beta 23.025017
_cell_angle_gamma 90.000000
_cell_volume 1589.092493
_symmetry_space_group_name_H-M "C M"
_symmetry_group_IT_number 8
_symmetry_cell_setting 'monoclinic'
loop_
_space_group_symop_operation_xyz
x,y,z
x,-y,z
1/2+x,1/2+y,z
1/2+x,1/2-y,z
loop_
_atom_site_type_symbol
_atom_site_label
_atom_site_fract_x
_atom_site_fract_y
_atom_site_fract_z
Si Si1 0.599080 0.191206 0.615600
Si Si2 0.577931 0.698370 0.132573
Si Si3 0.603330 0.696903 0.956120
Si Si4 0.800698 0.700296 0.992751
Si Si5 0.858687 0.699024 0.581133
Si Si6 0.789160 0.305100 0.280690
Si Si7 0.295246 0.191446 0.503698
Si Si8 0.664810 0.301800 0.281101
O O1 0.691856 0.265312 0.452799
O O2 0.677302 0.212389 0.597434
O O3 0.585803 0.000000 0.614128
O O4 0.445874 0.261111 0.800134
O O5 0.556860 0.500000 0.157996
O O6 0.633384 0.743253 0.998186
O O7 0.679666 0.743668 0.077599
O O8 0.432689 0.786150 0.306138
O O9 0.608179 0.500000 0.947140
O O10 0.446526 0.744711 0.113884
O O11 0.726325 0.759144 0.771408
O O12 0.808356 0.500000 0.986257
O O13 0.758675 0.755724 0.113531
O O14 0.860648 0.500000 0.579200
O O15 0.834680 0.752287 0.532379
O O16 0.005870 0.755075 0.444611
O O17 0.796652 0.500000 0.266928
O O18 0.721360 0.240878 0.288334
O O19 0.256124 0.000000 0.551434
O O20 0.671136 0.500000 0.274655
#
# Coordination Sequence:
#
# PCOD9132200 Si02
#       8
#     4   4   4   4   4   4   4   4
#     4  11  23  39  63  88 114 157 202 241 292 353
#     4  10  19  37  64  86 110 150 201 248 288 344
#     4  10  22  39  61  88 117 157 202 238 289 353
#     4   9  20  38  61  88 114 150 200 245 285 344
#     4  10  23  40  60  89 121 156 197 243 293 346
#     4  11  24  40  59  87 123 156 192 245 299 346
#     4  11  22  38  59  87 122 153 191 248 299 343
#     4  10  22  41  61  85 119 157 197 242 293 351
#
# _framework density 20.137280000000001
#
# number of rings (size 3 to 8) (size 9 to 14) (size 15 to 20)
#    0.000    1.750    2.500    1.125    3.500    2.000 
#    0.000    2.500    0.000    0.000    0.000    0.000 
#    0.000    0.000    0.000    0.000    0.000    0.000 
#
# Total GULP energy -89340.912754 kJ/mol
# GULP energy per Si atom -5583.807047 kJ/mol
# Density = 2.009145 g / cm^3
# Si number density = 20.137280 Si / 1000 Ang^3
#
#
#
# Elastic Constant Matrix: (Units=GPa)
#
#
# Indices 1 2 3 4 5 6 
#
# 1 107.9016 1.9527 24.1140 -0.0007 12.5336 -0.0006
# 2 1.9527 5.0595 0.2311 -0.0032 8.3164 0.0010
# 3 24.1140 0.2311 108.8845 -0.0020 8.7111 0.0000
# 4 -0.0007 -0.0032 -0.0020 4.0896 -0.0003 1.4890
# 5 12.5336 8.3164 8.7111 -0.0003 31.3342 0.0009
# 6 -0.0006 0.0010 0.0000 1.4890 0.0009 19.3827
#
#
#
# Elastic Compliance Matrix: (Units=1/GPa)
#
#
# Indices 1 2 3 4 5 6 
#
# 1 0.010147 0.003503 -0.001898 0.000003 -0.004461 0.000000
# 2 0.003503 0.356877 0.006297 0.000292 -0.097870 -0.000037
# 3 -0.001898 0.006297 0.009884 0.000009 -0.003660 -0.000001
# 4 0.000003 0.000292 0.000009 0.251558 -0.000078 -0.019325
# 5 -0.004461 -0.097870 -0.003660 -0.000078 0.060691 0.000008
# 6 0.000000 -0.000037 -0.000001 -0.019325 0.000008 0.053077
#
#
# Mechanical properties :
#
#
# Convention : Reuss Voigt Hill
#
# Bulk Modulus (GPa) = 2.54640 30.49346 16.51993
# Shear Modulus (GPa) = 5.83203 23.99783 14.91493
#
# Velocity S-wave (km/s) = 1.70365 3.45586 2.72446
# Velocity P-wave (km/s) = 2.26653 5.57671 4.25657
#
# Compressibility (1/GPa) = 0.39271105
#
# Stress axis : x y z
#
# Youngs Moduli (GPa) = 98.55562 2.80209 101.17633
#
# Poissons Ratio (x) = -0.00982 0.19200
# Poissons Ratio (y) = -0.34523 -0.63706
# Poissons Ratio (z) = 0.18702 -0.01764
#
# Static dielectric constant tensor:
#      x y z
#    x 1.699180 0.000000 0.011330 
#    y 0.000000 1.724790 0.000000 
#    z 0.011330 0.000000 1.700740 
# 
# From -- ./inp_files/31649.got.cif
#   From: 2010.05.17/outbox.cif.g08.bks.cpg/sg8_16_cif.got.tgz:31649.got - 2010.06.03 19:46:02.
