data_PCOD9132728
_publ_section_title
;
Structure prediction by ZEFSAII (Michael W. Deem and Ramdas Pophale) SiO2 
 PCOD9132728
Probable space group: C M
;
_chemical_formula_sum "Si O2"
_cell_formula_units_Z 26
_cell_length_a 11.010061
_cell_length_b 14.568560
_cell_length_c 14.365136
_cell_angle_alpha 90.000000
_cell_angle_beta 147.071761
_cell_angle_gamma 90.000000
_cell_volume 1252.524173
_symmetry_space_group_name_H-M "C M"
_symmetry_group_IT_number 8
_symmetry_cell_setting 'monoclinic'
loop_
_space_group_symop_operation_xyz
x,y,z
x,-y,z
1/2+x,1/2+y,z
1/2+x,1/2-y,z
loop_
_atom_site_type_symbol
_atom_site_label
_atom_site_fract_x
_atom_site_fract_y
_atom_site_fract_z
Si Si1 0.596470 0.500000 0.154650
Si Si2 0.006882 0.602020 0.172136
Si Si3 0.943097 0.187113 0.546691
Si Si4 0.149625 0.500000 0.960818
Si Si5 0.892522 0.646017 0.894055
Si Si6 0.612032 0.700094 0.459787
Si Si7 0.078590 0.000000 0.356215
Si Si8 0.193703 0.811299 0.106958
O O1 0.324817 0.500000 0.989201
O O2 0.686904 0.500000 0.320786
O O3 0.663059 0.404742 0.146920
O O4 0.967565 0.500000 0.181426
O O5 0.242628 0.633993 0.366055
O O6 0.807697 0.663902 0.082897
O O7 0.993397 0.605768 0.053571
O O8 0.816263 0.255807 0.534007
O O9 0.127393 0.131777 0.722680
O O10 0.096264 0.222188 0.559136
O O11 0.322556 0.500000 0.158426
O O12 0.001402 0.590476 0.878362
O O13 0.971623 0.751787 0.949882
O O14 0.619873 0.591980 0.441042
O O15 0.382188 0.745701 0.274006
#
# Coordination Sequence:
#
# PCOD9132728 Si02
#       8
#     2   4   4   2   4   4   2   4
#     4  10  22  37  66 104 125 179 226 266 341 404
#     4  11  24  44  68  97 129 174 221 277 330 396
#     4  11  27  41  71  98 137 174 225 272 340 390
#     4  10  22  38  63 101 125 167 218 270 327 389
#     4  12  25  42  69  97 135 171 225 274 329 401
#     4  11  23  45  66 101 135 178 224 278 333 397
#     4  10  20  39  73  95 134 172 226 268 328 401
#     4  11  22  41  68  94 135 174 219 277 335 397
#
# _framework density 20.758082000000002
#
# number of rings (size 3 to 8) (size 9 to 14) (size 15 to 20)
#    0.462    0.615    4.615    0.923    8.615    0.000 
#    0.000    0.769    0.000    0.000    0.000    0.000 
#    0.000    0.000    0.000    0.000    0.000    0.000 
#
# Total GULP energy -72468.285932 kJ/mol
# GULP energy per Si atom -5574.483533 kJ/mol
# Density = 2.071084 g / cm^3
# Si number density = 20.758082 Si / 1000 Ang^3
#
#
#
# Elastic Constant Matrix: (Units=GPa)
#
#
# Indices 1 2 3 4 5 6 
#
# 1 83.4033 35.5543 21.4992 -0.0165 4.3150 0.0058
# 2 35.5543 106.2506 20.4229 -0.0221 8.6159 0.0008
# 3 21.4992 20.4229 73.6369 -0.0309 16.3363 0.0026
# 4 -0.0165 -0.0221 -0.0309 -4.7057 -0.0032 15.1650
# 5 4.3150 8.6159 16.3363 -0.0032 22.5738 0.0029
# 6 0.0058 0.0008 0.0026 15.1650 0.0029 27.1137
#
#
#
# Elastic Compliance Matrix: (Units=1/GPa)
#
#
# Indices 1 2 3 4 5 6 
#
# 1 0.014647 -0.004361 -0.003353 -0.000007 0.001292 0.000001
# 2 -0.004361 0.011328 -0.001303 -0.000009 -0.002547 0.000006
# 3 -0.003353 -0.001303 0.017473 -0.000031 -0.011507 0.000018
# 4 -0.000007 -0.000009 -0.000031 -0.075828 0.000011 0.042412
# 5 0.001292 -0.002547 -0.011507 0.000011 0.053352 -0.000011
# 6 0.000001 0.000006 0.000018 0.042412 -0.000011 0.013160
#
#
# Mechanical properties :
#
#
# Convention : Reuss Voigt Hill
#
# Bulk Modulus (GPa) = 39.35119 46.47152 42.91135
# Shear Modulus (GPa) = 82.45562 21.38399 51.91981
#
# Velocity S-wave (km/s) = 6.30939 3.21308 5.00661
# Velocity P-wave (km/s) = 8.48976 6.01673 7.35789
#
# Compressibility (1/GPa) = 0.02541219
#
# Stress axis : x y z
#
# Youngs Moduli (GPa) = 68.27471 88.27524 57.22965
#
# Poissons Ratio (x) = 0.38500 0.19190
# Poissons Ratio (y) = 0.29777 0.07460
# Poissons Ratio (z) = 0.22894 0.11507
#
# Static dielectric constant tensor:
#      x y z
#    x 1.771460 0.000000 -0.014200 
#    y 0.000000 1.746580 -0.000010 
#    z -0.014200 -0.000010 1.760760 
# 
# From -- ./inp_files/26162.got.cif
#   From: 2010.05.17/outbox.cif.g08.bks.cpg/sg8_14_cif.got.tgz:26162.got - 2010.06.03 19:46:02.
