data_PCOD9132044
_publ_section_title
;
Structure prediction by ZEFSAII (Michael W. Deem and Ramdas Pophale) SiO2 
 PCOD9132044
Probable space group: C M
;
_chemical_formula_sum "Si O2"
_cell_formula_units_Z 28
_cell_length_a 11.077544
_cell_length_b 14.232656
_cell_length_c 9.198342
_cell_angle_alpha 90.000000
_cell_angle_beta 107.239642
_cell_angle_gamma 90.000000
_cell_volume 1385.083009
_symmetry_space_group_name_H-M "C M"
_symmetry_group_IT_number 8
_symmetry_cell_setting 'monoclinic'
loop_
_space_group_symop_operation_xyz
x,y,z
x,-y,z
1/2+x,1/2+y,z
1/2+x,1/2-y,z
loop_
_atom_site_type_symbol
_atom_site_label
_atom_site_fract_x
_atom_site_fract_y
_atom_site_fract_z
Si Si1 0.167400 0.266286 0.766200
Si Si2 0.165273 0.099083 0.568581
Si Si3 0.950467 0.393757 0.625005
Si Si4 0.365345 0.263114 0.376267
Si Si5 0.092123 0.179696 0.252467
Si Si6 0.618130 0.393684 0.943484
Si Si7 0.363615 0.607712 0.661899
O O1 0.124867 0.197357 0.620207
O O2 0.199579 0.192750 0.905437
O O3 0.273802 0.330818 0.733887
O O4 0.049973 0.334961 0.755100
O O5 0.314547 0.099335 0.652393
O O6 0.138374 0.105159 0.389365
O O7 0.111612 0.000000 0.603118
O O8 0.993723 0.500000 0.609572
O O9 0.918564 0.332464 0.470565
O O10 0.215924 0.248196 0.287107
O O11 0.459810 0.283987 0.275270
O O12 0.367582 0.342611 0.504879
O O13 0.077504 0.133256 0.090811
O O14 0.672453 0.500000 0.960317
O O15 0.495493 0.392552 0.796003
O O16 0.320291 0.500000 0.632116
#
# Coordination Sequence:
#
# PCOD9132044 Si02
#       7
#     4   4   4   4   4   4   4
#     4  12  19  38  60  92 126 169 213 261 328 379
#     4  10  19  34  60  89 120 160 213 263 305 373
#     4  10  19  34  60  90 121 157 210 265 315 372
#     4  11  21  43  66  98 125 173 217 274 325 383
#     4  11  23  39  64  92 133 168 216 265 329 384
#     4  11  25  40  61  94 132 172 217 269 320 387
#     4  11  23  40  66  97 127 165 221 273 323 386
#
# _framework density 20.215394
#
# number of rings (size 3 to 8) (size 9 to 14) (size 15 to 20)
#    0.000    1.143    5.714    1.286    2.000    2.857 
#    0.000    0.000    0.000    1.714    0.000    0.000 
#    0.000    0.000    0.000    0.000    0.000    0.000 
#
# Total GULP energy -77988.713694 kJ/mol
# GULP energy per Si atom -5570.622407 kJ/mol
# Density = 2.016938 g / cm^3
# Si number density = 20.215394 Si / 1000 Ang^3
#
#
#
# Elastic Constant Matrix: (Units=GPa)
#
#
# Indices 1 2 3 4 5 6 
#
# 1 115.1472 50.6042 28.1430 0.0000 -10.6906 0.0000
# 2 50.6042 168.8261 34.1452 0.0000 -15.2759 0.0000
# 3 28.1430 34.1452 81.2619 0.0000 -25.5280 0.0000
# 4 0.0000 0.0000 0.0000 16.2566 0.0000 -4.3391
# 5 -10.6906 -15.2759 -25.5280 0.0000 31.6751 0.0000
# 6 0.0000 0.0000 0.0000 -4.3391 0.0000 27.4830
#
#
#
# Elastic Compliance Matrix: (Units=1/GPa)
#
#
# Indices 1 2 3 4 5 6 
#
# 1 0.010455 -0.002615 -0.002423 0.000000 0.000315 0.000000
# 2 -0.002615 0.007164 -0.001736 0.000000 0.001173 0.000000
# 3 -0.002423 -0.001736 0.017882 0.000000 0.012757 0.000000
# 4 0.000000 0.000000 0.000000 0.064220 0.000000 0.010139
# 5 0.000315 0.001173 0.012757 0.000000 0.042523 0.000000
# 6 0.000000 0.000000 0.000000 0.010139 0.000000 0.037987
#
#
# Mechanical properties :
#
#
# Convention : Reuss Voigt Hill
#
# Bulk Modulus (GPa) = 45.55269 65.66889 55.61079
# Shear Modulus (GPa) = 24.86342 31.90581 28.38461
#
# Velocity S-wave (km/s) = 3.51083 3.97708 3.75121
# Velocity P-wave (km/s) = 6.24637 7.32425 6.80668
#
# Compressibility (1/GPa) = 0.02195260
#
# Stress axis : x y z
#
# Youngs Moduli (GPa) = 95.64457 139.57763 55.92219
#
# Poissons Ratio (x) = 0.36505 0.13551
# Poissons Ratio (y) = 0.25014 0.09708
# Poissons Ratio (z) = 0.23177 0.24231
#
# Static dielectric constant tensor:
#      x y z
#    x 1.823280 0.000000 -0.003280 
#    y 0.000000 1.758350 0.000000 
#    z -0.003280 0.000000 1.711130 
# 
# From -- ./inp_files/10790.got.cif
#   From: 2010.05.17/outbox.cif.g08.bks.cpg/sg8_6_cif.got.tgz:10790.got - 2010.06.03 19:46:02.
