data_PCOD9132058
_publ_section_title
;
Structure prediction by ZEFSAII (Michael W. Deem and Ramdas Pophale) SiO2 
 PCOD9132058
Probable space group: C M
;
_chemical_formula_sum "Si O2"
_cell_formula_units_Z 32
_cell_length_a 14.536122
_cell_length_b 8.653396
_cell_length_c 16.148513
_cell_angle_alpha 90.000000
_cell_angle_beta 63.634192
_cell_angle_gamma 90.000000
_cell_volume 1819.971171
_symmetry_space_group_name_H-M "C M"
_symmetry_group_IT_number 8
_symmetry_cell_setting 'monoclinic'
loop_
_space_group_symop_operation_xyz
x,y,z
x,-y,z
1/2+x,1/2+y,z
1/2+x,1/2-y,z
loop_
_atom_site_type_symbol
_atom_site_label
_atom_site_fract_x
_atom_site_fract_y
_atom_site_fract_z
Si Si1 0.500000 0.185467 0.768690
Si Si2 0.957340 0.187320 0.262957
Si Si3 0.247013 0.685989 0.262921
Si Si4 0.929217 0.685496 0.613926
Si Si5 0.705902 0.314462 0.767486
Si Si6 0.536426 0.685050 0.409320
Si Si7 0.783434 0.815632 0.908523
Si Si8 0.179876 0.185800 0.114471
O O1 0.486572 0.226323 0.676896
O O2 0.604341 0.249547 0.765445
O O3 0.399605 0.252849 0.854026
O O4 0.497501 0.000000 0.775957
O O5 0.852203 0.240252 0.263677
O O6 0.973618 0.234129 0.351948
O O7 0.060208 0.232869 0.172531
O O8 0.954795 0.000000 0.263461
O O9 0.247418 0.500000 0.257050
O O10 0.148441 0.739723 0.354813
O O11 0.234105 0.756390 0.176682
O O12 0.935196 0.500000 0.601837
O O13 0.809627 0.727041 0.675568
O O14 0.979512 0.764556 0.514965
O O15 0.701050 0.500000 0.774159
O O16 0.722784 0.248681 0.852824
O O17 0.547618 0.500000 0.402222
O O18 0.784419 0.000000 0.905806
O O19 0.731283 0.756474 0.013099
O O20 0.184635 0.000000 0.109003
#
# Coordination Sequence:
#
# PCOD9132058 Si02
#       8
#     4   4   4   4   4   4   4   4
#     4  10  21  38  58  81 110 145 185 229 277 327
#     4   8  18  35  54  75 103 139 175 214 263 319
#     4  10  19  35  56  78 105 139 180 223 270 324
#     4   9  20  37  55  78 109 143 179 222 271 323
#     4  10  21  38  58  82 112 144 181 228 279 329
#     4  10  20  35  54  78 107 141 179 220 270 323
#     4  11  22  37  57  82 111 146 186 225 273 329
#     4  10  20  37  56  78 109 141 177 223 273 324
#
# _framework density 17.582695000000001
#
# number of rings (size 3 to 8) (size 9 to 14) (size 15 to 20)
#    0.000    2.250    0.000    4.500    0.000    5.000 
#    0.000   15.000    0.000    0.000    0.000    0.000 
#    0.000    0.000    0.000    0.000    0.000    0.000 
#
# Total GULP energy -89310.682613 kJ/mol
# GULP energy per Si atom -5581.917663 kJ/mol
# Density = 1.754268 g / cm^3
# Si number density = 17.582695 Si / 1000 Ang^3
#
#
#
# Elastic Constant Matrix: (Units=GPa)
#
#
# Indices 1 2 3 4 5 6 
#
# 1 195.3784 56.2003 95.8918 0.0000 -5.5423 0.0000
# 2 56.2003 77.3841 59.1049 0.0000 -2.2738 0.0000
# 3 95.8918 59.1049 173.9978 0.0000 -5.4520 0.0000
# 4 0.0000 0.0000 0.0000 34.2629 0.0000 1.0331
# 5 -5.5423 -2.2738 -5.4520 0.0000 5.2605 0.0000
# 6 0.0000 0.0000 0.0000 1.0331 0.0000 28.4236
#
#
#
# Elastic Compliance Matrix: (Units=1/GPa)
#
#
# Indices 1 2 3 4 5 6 
#
# 1 0.007593 -0.003105 -0.003020 0.000000 0.003529 0.000000
# 2 -0.003105 0.018730 -0.004651 0.000000 0.000004 0.000000
# 3 -0.003020 -0.004651 0.009125 0.000000 0.004265 0.000000
# 4 0.000000 0.000000 0.000000 0.029218 0.000000 -0.001062
# 5 0.003529 0.000004 0.004265 0.000000 0.198238 0.000000
# 6 0.000000 0.000000 0.000000 -0.001062 0.000000 0.035221
#
#
# Mechanical properties :
#
#
# Convention : Reuss Voigt Hill
#
# Bulk Modulus (GPa) = 71.95613 96.57271 84.26442
# Shear Modulus (GPa) = 15.41743 29.29361 22.35552
#
# Velocity S-wave (km/s) = 2.96438 4.08615 3.56961
# Velocity P-wave (km/s) = 7.26154 8.79240 8.06338
#
# Compressibility (1/GPa) = 0.01389736
#
# Stress axis : x y z
#
# Youngs Moduli (GPa) = 131.69189 53.39030 109.58986
#
# Poissons Ratio (x) = 0.16576 0.33092
# Poissons Ratio (y) = 0.40887 0.50972
# Poissons Ratio (z) = 0.39766 0.24833
#
# Static dielectric constant tensor:
#      x y z
#    x 1.585290 0.000000 -0.000560 
#    y 0.000000 1.593020 0.000000 
#    z -0.000560 0.000000 1.568760 
# 
# From -- ./inp_files/26515.got.cif
#   From: 2010.05.17/outbox.cif.g08.bks.cpg/sg8_14_cif.got.tgz:26515.got - 2010.06.03 19:46:02.
