data_PCOD9132633
_publ_section_title
;
Structure prediction by ZEFSAII (Michael W. Deem and Ramdas Pophale) SiO2 
 PCOD9132633
Probable space group: C M
;
_chemical_formula_sum "Si O2"
_cell_formula_units_Z 28
_cell_length_a 14.022524
_cell_length_b 16.241577
_cell_length_c 6.744647
_cell_angle_alpha 90.000000
_cell_angle_beta 53.115460
_cell_angle_gamma 90.000000
_cell_volume 1228.627796
_symmetry_space_group_name_H-M "C M"
_symmetry_group_IT_number 8
_symmetry_cell_setting 'monoclinic'
loop_
_space_group_symop_operation_xyz
x,y,z
x,-y,z
1/2+x,1/2+y,z
1/2+x,1/2-y,z
loop_
_atom_site_type_symbol
_atom_site_label
_atom_site_fract_x
_atom_site_fract_y
_atom_site_fract_z
Si Si1 0.117480 0.903677 0.237700
Si Si2 0.280210 0.410263 0.627136
Si Si3 0.870638 0.345324 0.912740
Si Si4 0.029244 0.723254 0.370669
Si Si5 0.011026 0.411009 0.078422
Si Si6 0.284836 0.696363 0.244741
Si Si7 0.960933 0.908720 0.769966
O O1 0.055733 0.815641 0.252979
O O2 0.090760 0.895023 0.509948
O O3 0.080823 0.000000 0.237140
O O4 0.253501 0.895099 0.994912
O O5 0.293029 0.500000 0.508266
O O6 0.279434 0.336067 0.473868
O O7 0.378651 0.405555 0.674787
O O8 0.153504 0.410944 0.891048
O O9 0.933747 0.288468 0.668409
O O10 0.966657 0.399466 0.908678
O O11 0.817122 0.289004 0.154155
O O12 0.155101 0.688039 0.301240
O O13 0.982610 0.663509 0.258519
O O14 0.968104 0.500000 0.206369
O O15 0.394722 0.647819 0.007515
O O16 0.959935 0.000000 0.854974
#
# Coordination Sequence:
#
# PCOD9132633 Si02
#       7
#     4   4   4   4   4   4   4
#     4  10  23  44  67  93 135 181 219 271 332 397
#     4  10  21  36  61  97 129 163 212 276 333 386
#     4  11  24  42  65  94 134 174 221 267 331 399
#     4  11  23  42  68  96 130 176 222 273 331 390
#     4  11  24  41  66 100 134 167 215 280 338 392
#     4  11  21  37  64  93 126 169 216 269 327 386
#     4  10  20  38  61  91 130 170 218 270 325 390
#
# _framework density 22.789653999999999
#
# number of rings (size 3 to 8) (size 9 to 14) (size 15 to 20)
#    0.000    1.429    4.286    0.857    2.000    1.714 
#    0.000    1.429    0.000    4.286    0.000    0.000 
#    0.000    0.000    0.000    0.000    0.000    0.000 
#
# Total GULP energy -77994.865769 kJ/mol
# GULP energy per Si atom -5571.061841 kJ/mol
# Density = 2.273778 g / cm^3
# Si number density = 22.789654 Si / 1000 Ang^3
#
#
#
# Elastic Constant Matrix: (Units=GPa)
#
#
# Indices 1 2 3 4 5 6 
#
# 1 66.3378 14.0323 23.8210 0.0000 -13.6925 0.0000
# 2 14.0323 140.3274 29.3314 0.0000 5.6900 0.0000
# 3 23.8210 29.3314 63.8081 0.0000 -8.7846 0.0000
# 4 0.0000 0.0000 0.0000 40.4325 0.0000 -4.8387
# 5 -13.6925 5.6900 -8.7846 0.0000 31.6657 0.0000
# 6 0.0000 0.0000 0.0000 -4.8387 0.0000 8.3283
#
#
#
# Elastic Compliance Matrix: (Units=1/GPa)
#
#
# Indices 1 2 3 4 5 6 
#
# 1 0.018673 -0.000967 -0.005605 0.000000 0.006693 0.000000
# 2 -0.000967 0.008132 -0.003780 0.000000 -0.002928 0.000000
# 3 -0.005605 -0.003780 0.020027 0.000000 0.003811 0.000000
# 4 0.000000 0.000000 0.000000 0.026581 0.000000 0.015443
# 5 0.006693 -0.002928 0.003811 0.000000 0.036058 0.000000
# 6 0.000000 0.000000 0.000000 0.015443 0.000000 0.129045
#
#
# Mechanical properties :
#
#
# Convention : Reuss Voigt Hill
#
# Bulk Modulus (GPa) = 38.27421 44.98252 41.62837
# Shear Modulus (GPa) = 18.66168 29.63786 24.14977
#
# Velocity S-wave (km/s) = 2.86469 3.61015 3.25881
# Velocity P-wave (km/s) = 5.27000 6.09578 5.69787
#
# Compressibility (1/GPa) = 0.02612725
#
# Stress axis : x y z
#
# Youngs Moduli (GPa) = 53.55281 122.97478 49.93291
#
# Poissons Ratio (x) = 0.11893 0.27988
# Poissons Ratio (y) = 0.05179 0.18875
# Poissons Ratio (z) = 0.30017 0.46486
#
# Static dielectric constant tensor:
#      x y z
#    x 1.914590 0.000000 -0.028840 
#    y 0.000000 1.930270 0.000000 
#    z -0.028840 0.000000 1.823270 
# 
# From -- ./inp_files/4019.got.cif
#   From: 2010.05.17/outbox.cif.g08.bks.cpg/sg8_3_cif.got.tgz:4019.got - 2010.06.03 19:46:02.
