data_PCOD9132163
_publ_section_title
;
Structure prediction by ZEFSAII (Michael W. Deem and Ramdas Pophale) SiO2 
 PCOD9132163
Probable space group: C M
;
_chemical_formula_sum "Si O2"
_cell_formula_units_Z 32
_cell_length_a 15.097093
_cell_length_b 8.606011
_cell_length_c 11.414339
_cell_angle_alpha 90.000000
_cell_angle_beta 80.253369
_cell_angle_gamma 90.000000
_cell_volume 1461.610699
_symmetry_space_group_name_H-M "C M"
_symmetry_group_IT_number 8
_symmetry_cell_setting 'monoclinic'
loop_
_space_group_symop_operation_xyz
x,y,z
x,-y,z
1/2+x,1/2+y,z
1/2+x,1/2-y,z
loop_
_atom_site_type_symbol
_atom_site_label
_atom_site_fract_x
_atom_site_fract_y
_atom_site_fract_z
Si Si1 0.314920 0.317066 0.185520
Si Si2 0.148159 0.183327 0.349060
Si Si3 0.067852 0.688019 0.744519
Si Si4 0.800017 0.315248 0.945109
Si Si5 0.737118 0.814590 0.563001
Si Si6 0.487204 0.815079 0.252856
Si Si7 0.598623 0.812249 0.994207
Si Si8 0.390080 0.813080 0.675193
O O1 0.299689 0.500000 0.194629
O O2 0.221550 0.232018 0.235234
O O3 0.391277 0.266652 0.260422
O O4 0.343039 0.266767 0.048582
O O5 0.195219 0.240322 0.457016
O O6 0.053194 0.263959 0.342114
O O7 0.135676 0.000000 0.351925
O O8 0.063476 0.500000 0.742941
O O9 0.167057 0.731786 0.681336
O O10 0.051516 0.732864 0.882396
O O11 0.992034 0.742576 0.671309
O O12 0.810346 0.500000 0.957520
O O13 0.695953 0.265965 0.970161
O O14 0.842551 0.274005 0.810186
O O15 0.834475 0.758647 0.581673
O O16 0.736843 0.000000 0.549914
O O17 0.473486 0.000000 0.259660
O O18 0.541783 0.773622 0.121628
O O19 0.610977 0.000000 0.991791
O O20 0.388496 0.000000 0.662223
#
# Coordination Sequence:
#
# PCOD9132163 Si02
#       8
#     4   4   4   4   4   4   4   4
#     4  12  25  42  65  94 128 167 212 262 316 377
#     4  12  26  45  66  90 124 165 214 269 319 375
#     4   9  19  37  62  89 122 163 203 244 302 372
#     4  11  21  35  61  94 130 166 206 257 314 373
#     4  11  23  41  64  89 120 162 212 263 314 371
#     4  11  23  41  67  97 129 166 207 256 316 382
#     4  10  19  36  63  92 126 166 203 246 310 382
#     4  10  21  39  62  91 125 165 207 253 309 374
#
# _framework density 21.893654000000002
#
# number of rings (size 3 to 8) (size 9 to 14) (size 15 to 20)
#    0.000    1.250    2.500    4.125    0.000    4.000 
#    0.000    5.625    0.000    0.000    0.000    0.000 
#    0.000    0.000    0.000    0.000    0.000    0.000 
#
# Total GULP energy -89503.982208 kJ/mol
# GULP energy per Si atom -5593.998888 kJ/mol
# Density = 2.184382 g / cm^3
# Si number density = 21.893654 Si / 1000 Ang^3
#
#
#
# Elastic Constant Matrix: (Units=GPa)
#
#
# Indices 1 2 3 4 5 6 
#
# 1 87.7382 -1.0230 0.0168 0.0000 35.6230 0.0000
# 2 -1.0230 26.6015 9.7461 0.0000 5.4769 0.0000
# 3 0.0168 9.7461 63.8347 0.0000 30.7374 0.0000
# 4 0.0000 0.0000 0.0000 27.5132 0.0000 9.2993
# 5 35.6230 5.4769 30.7374 0.0000 38.4656 0.0000
# 6 0.0000 0.0000 0.0000 9.2993 0.0000 31.0700
#
#
#
# Elastic Compliance Matrix: (Units=1/GPa)
#
#
# Indices 1 2 3 4 5 6 
#
# 1 0.029459 0.002590 0.020986 0.000000 -0.044421 0.000000
# 2 0.002590 0.040088 -0.003605 0.000000 -0.005226 0.000000
# 3 0.020986 -0.003605 0.041158 0.000000 -0.051811 0.000000
# 4 0.000000 0.000000 0.000000 0.040437 0.000000 -0.012103
# 5 -0.044421 -0.005226 -0.051811 0.000000 0.109281 0.000000
# 6 0.000000 0.000000 0.000000 -0.012103 0.000000 0.035808
#
#
# Mechanical properties :
#
#
# Convention : Reuss Voigt Hill
#
# Bulk Modulus (GPa) = 6.63802 21.73936 14.18869
# Shear Modulus (GPa) = 16.31293 30.70537 23.50915
#
# Velocity S-wave (km/s) = 2.73261 3.74903 3.28043
# Velocity P-wave (km/s) = 3.60482 5.35643 4.56542
#
# Compressibility (1/GPa) = 0.15064740
#
# Stress axis : x y z
#
# Youngs Moduli (GPa) = 33.94525 24.94503 24.29648
#
# Poissons Ratio (x) = -0.06460 -0.50989
# Poissons Ratio (y) = -0.08791 0.08759
# Poissons Ratio (z) = -0.71238 0.08993
#
# Static dielectric constant tensor:
#      x y z
#    x 1.798840 0.000000 -0.006160 
#    y 0.000000 1.732710 0.000000 
#    z -0.006160 0.000000 1.849530 
# 
# From -- ./inp_files/21544.got.cif
#   From: 2010.05.17/outbox.cif.g08.bks.cpg/sg8_11_cif.got.tgz:21544.got - 2010.06.03 19:46:02.
