data_PCOD9132838
_publ_section_title
;
Structure prediction by ZEFSAII (Michael W. Deem and Ramdas Pophale) SiO2 
 PCOD9132838
Probable space group: C M
;
_chemical_formula_sum "Si O2"
_cell_formula_units_Z 32
_cell_length_a 25.871322
_cell_length_b 8.717008
_cell_length_c 24.708579
_cell_angle_alpha 90.000000
_cell_angle_beta 162.292039
_cell_angle_gamma 90.000000
_cell_volume 1694.898451
_symmetry_space_group_name_H-M "C M"
_symmetry_group_IT_number 8
_symmetry_cell_setting 'monoclinic'
loop_
_space_group_symop_operation_xyz
x,y,z
x,-y,z
1/2+x,1/2+y,z
1/2+x,1/2-y,z
loop_
_atom_site_type_symbol
_atom_site_label
_atom_site_fract_x
_atom_site_fract_y
_atom_site_fract_z
Si Si1 0.854450 0.313995 0.086120
Si Si2 0.355261 0.178313 0.209369
Si Si3 0.764777 0.178192 0.615579
Si Si4 0.251591 0.686033 0.480211
Si Si5 0.057411 0.186765 0.594839
Si Si6 0.741755 0.815807 0.207934
Si Si7 0.556904 0.183004 0.714842
Si Si8 0.370393 0.184233 0.832784
O O1 0.845650 0.500000 0.075319
O O2 0.810271 0.268046 0.103973
O O3 0.052637 0.272477 0.273072
O O4 0.719244 0.244313 0.910326
O O5 0.560221 0.185223 0.416953
O O6 0.280816 0.268887 0.185392
O O7 0.304771 0.000000 0.163808
O O8 0.802626 0.232592 0.592463
O O9 0.843686 0.267484 0.744151
O O10 0.815963 0.000000 0.670491
O O11 0.260063 0.500000 0.486597
O O12 0.384908 0.755813 0.571668
O O13 0.065243 0.252843 0.662456
O O14 0.217046 0.237774 0.717617
O O15 0.888605 0.238367 0.394602
O O16 0.057845 0.000000 0.598105
O O17 0.742949 0.000000 0.211789
O O18 0.553988 0.760102 0.035440
O O19 0.557085 0.000000 0.714976
O O20 0.368632 0.000000 0.833109
#
# Coordination Sequence:
#
# PCOD9132838 Si02
#       8
#     4   4   4   4   4   4   4   4
#     4   9  20  40  63  87 118 160 204 242 289 358
#     4   9  18  34  58  87 119 152 190 236 287 344
#     4   9  18  34  58  87 119 152 190 236 287 344
#     4   9  20  40  63  87 118 160 204 242 289 358
#     4  10  22  42  60  78 114 162 205 244 287 350
#     4  10  21  36  57  86 116 150 193 237 288 347
#     4  12  26  40  60  90 122 156 199 256 307 352
#     4  10  21  36  57  86 116 150 193 237 288 347
#
# _framework density 18.880186999999999
#
# number of rings (size 3 to 8) (size 9 to 14) (size 15 to 20)
#    0.000    2.250    1.250    2.625    1.750    4.000 
#    0.000    5.000    0.000    0.000    0.000    0.000 
#    0.000    0.000    0.000    0.000    0.000    0.000 
#
# Total GULP energy -89313.371903 kJ/mol
# GULP energy per Si atom -5582.085744 kJ/mol
# Density = 1.883722 g / cm^3
# Si number density = 18.880187 Si / 1000 Ang^3
#
#
#
# Elastic Constant Matrix: (Units=GPa)
#
#
# Indices 1 2 3 4 5 6 
#
# 1 101.1367 23.2265 86.1618 0.0006 -33.7612 0.0004
# 2 23.2265 16.8008 33.4634 0.0015 -5.2696 0.0007
# 3 86.1618 33.4634 147.7293 0.0009 -22.2529 0.0005
# 4 0.0006 0.0015 0.0009 21.4040 0.0008 -3.1120
# 5 -33.7612 -5.2696 -22.2529 0.0008 10.5911 0.0003
# 6 0.0004 0.0007 0.0005 -3.1120 0.0003 32.2839
#
#
#
# Elastic Compliance Matrix: (Units=1/GPa)
#
#
# Indices 1 2 3 4 5 6 
#
# 1 -0.102133 0.033835 0.007898 0.000012 -0.292141 0.000004
# 2 0.033835 0.097327 -0.026685 -0.000011 0.100212 -0.000004
# 3 0.007898 -0.026685 0.014630 -0.000001 0.042638 0.000000
# 4 0.000012 -0.000011 -0.000001 0.047384 0.000029 0.004568
# 5 -0.292141 0.100212 0.042638 0.000029 -0.697393 0.000010
# 6 0.000004 -0.000004 0.000000 0.004568 0.000010 0.031416
#
#
# Mechanical properties :
#
#
# Convention : Reuss Voigt Hill
#
# Bulk Modulus (GPa) = 25.05021 61.26336 43.15679
# Shear Modulus (GPa) = -7.99288 21.04347 6.52529
#
# Velocity S-wave (km/s) = -2.05977 3.34215 1.86109
# Velocity P-wave (km/s) = 2.76404 6.88566 5.24653
#
# Compressibility (1/GPa) = 0.03991983
#
# Stress axis : x y z
#
# Youngs Moduli (GPa) = -9.79119 10.27461 68.35149
#
# Poissons Ratio (x) = -0.34764 -0.53982
# Poissons Ratio (y) = 0.33128 1.82396
# Poissons Ratio (z) = 0.07733 0.27418
#
# Static dielectric constant tensor:
#      x y z
#    x 1.624180 0.000000 0.012740 
#    y 0.000000 1.638340 0.000000 
#    z 0.012740 0.000000 1.671840 
# 
# From -- ./inp_files/32414.got.cif
#   From: 2010.05.17/outbox.cif.g08.bks.cpg/sg8_17_cif.got.tgz:32414.got - 2010.06.03 19:46:02.
