data_PCOD9132011
_publ_section_title
;
Structure prediction by ZEFSAII (Michael W. Deem and Ramdas Pophale) SiO2 
 PCOD9132011
Probable space group: C M
;
_chemical_formula_sum "Si O2"
_cell_formula_units_Z 32
_cell_length_a 20.624399
_cell_length_b 8.894057
_cell_length_c 25.555090
_cell_angle_alpha 90.000000
_cell_angle_beta 156.874660
_cell_angle_gamma 90.000000
_cell_volume 1841.060483
_symmetry_space_group_name_H-M "C M"
_symmetry_group_IT_number 8
_symmetry_cell_setting 'monoclinic'
loop_
_space_group_symop_operation_xyz
x,y,z
x,-y,z
1/2+x,1/2+y,z
1/2+x,1/2-y,z
loop_
_atom_site_type_symbol
_atom_site_label
_atom_site_fract_x
_atom_site_fract_y
_atom_site_fract_z
Si Si1 0.401410 0.679887 0.273200
Si Si2 0.732576 0.679924 0.326181
Si Si3 0.883238 0.181313 0.769373
Si Si4 0.529221 0.320139 0.484152
Si Si5 0.522736 0.819689 0.259358
Si Si6 0.212362 0.180377 0.955297
Si Si7 0.418316 0.320326 0.020117
Si Si8 0.037691 0.818848 0.996256
O O1 0.401773 0.500000 0.268127
O O2 0.468677 0.719404 0.380612
O O3 0.508969 0.752662 0.306852
O O4 0.215969 0.742004 0.129773
O O5 0.741954 0.500000 0.337689
O O6 0.669260 0.751630 0.333207
O O7 0.589337 0.716995 0.177223
O O8 0.902423 0.746294 0.430908
O O9 0.712535 0.259686 0.629244
O O10 0.033330 0.228295 0.842667
O O11 0.942111 0.216352 0.872053
O O12 0.865029 0.000000 0.752161
O O13 0.523532 0.500000 0.485128
O O14 0.533564 0.000000 0.268988
O O15 0.352622 0.778387 0.102279
O O16 0.212774 0.000000 0.952547
O O17 0.272514 0.246337 0.945038
O O18 0.398921 0.500000 0.007900
O O19 0.438270 0.274939 0.974706
O O20 0.063275 0.000000 0.016726
#
# Coordination Sequence:
#
# PCOD9132011 Si02
#       8
#     4   4   4   4   4   4   4   4
#     4  11  22  35  55  84 114 146 190 237 278 327
#     4  10  19  34  57  84 113 147 186 229 280 337
#     4  10  21  38  58  80 109 150 191 229 279 337
#     4  11  24  39  55  81 116 153 191 232 278 332
#     4  10  19  34  57  84 115 145 181 235 283 330
#     4   9  18  33  54  80 111 143 178 223 277 330
#     4   9  18  31  54  84 111 139 177 226 277 327
#     4  10  19  36  58  83 111 143 188 233 280 332
#
# _framework density 17.381287
#
# number of rings (size 3 to 8) (size 9 to 14) (size 15 to 20)
#    0.000    2.000    2.500    1.500    0.000    4.000 
#    0.000    1.250    0.000    4.500    0.000    0.000 
#    0.000    0.000    0.000    0.000    0.000    0.000 
#
# Total GULP energy -89318.943849 kJ/mol
# GULP energy per Si atom -5582.433991 kJ/mol
# Density = 1.734173 g / cm^3
# Si number density = 17.381287 Si / 1000 Ang^3
#
#
#
# Elastic Constant Matrix: (Units=GPa)
#
#
# Indices 1 2 3 4 5 6 
#
# 1 159.8566 49.3658 67.5354 -0.0012 24.8843 0.0000
# 2 49.3658 36.7619 41.5791 -0.0066 4.6574 0.0000
# 3 67.5354 41.5791 102.2912 -0.0060 16.4085 0.0001
# 4 -0.0012 -0.0066 -0.0060 26.7352 0.0001 5.6255
# 5 24.8843 4.6574 16.4085 0.0001 28.5082 0.0003
# 6 0.0000 0.0000 0.0001 5.6255 0.0003 33.5439
#
#
#
# Elastic Compliance Matrix: (Units=1/GPa)
#
#
# Indices 1 2 3 4 5 6 
#
# 1 0.012380 -0.014455 -0.001039 -0.000003 -0.007847 0.000001
# 2 -0.014455 0.067628 -0.020048 0.000012 0.013108 -0.000002
# 3 -0.001039 -0.020048 0.019765 -0.000001 -0.007194 0.000000
# 4 -0.000003 0.000012 -0.000001 0.038772 0.000001 -0.006502
# 5 -0.007847 0.013108 -0.007194 0.000001 0.043926 -0.000001
# 6 0.000001 -0.000002 0.000000 -0.006502 -0.000001 0.030902
#
#
# Mechanical properties :
#
#
# Convention : Reuss Voigt Hill
#
# Bulk Modulus (GPa) = 34.85796 68.43004 51.64400
# Shear Modulus (GPa) = 17.00561 27.11942 22.06252
#
# Velocity S-wave (km/s) = 3.13131 3.95430 3.56663
# Velocity P-wave (km/s) = 5.75950 7.76557 6.83652
#
# Compressibility (1/GPa) = 0.02868785
#
# Stress axis : x y z
#
# Youngs Moduli (GPa) = 80.77548 14.78688 50.59352
#
# Poissons Ratio (x) = 0.21374 0.05258
# Poissons Ratio (y) = 1.16760 1.01431
# Poissons Ratio (z) = 0.08395 0.29645
#
# Static dielectric constant tensor:
#      x y z
#    x 1.590750 0.000000 -0.001220 
#    y 0.000000 1.580130 0.000000 
#    z -0.001220 0.000000 1.561180 
# 
# From -- ./inp_files/16861.got.cif
#   From: 2010.05.17/outbox.cif.g08.bks.cpg/sg8_9_cif.got.tgz:16861.got - 2010.06.03 19:46:02.
