data_PCOD9132567
_publ_section_title
;
Structure prediction by ZEFSAII (Michael W. Deem and Ramdas Pophale) SiO2 
 PCOD9132567
Probable space group: C M
;
_chemical_formula_sum "Si O2"
_cell_formula_units_Z 28
_cell_length_a 10.116205
_cell_length_b 10.119280
_cell_length_c 14.305096
_cell_angle_alpha 90.000000
_cell_angle_beta 71.700072
_cell_angle_gamma 90.000000
_cell_volume 1390.333776
_symmetry_space_group_name_H-M "C M"
_symmetry_group_IT_number 8
_symmetry_cell_setting 'monoclinic'
loop_
_space_group_symop_operation_xyz
x,y,z
x,-y,z
1/2+x,1/2+y,z
1/2+x,1/2-y,z
loop_
_atom_site_type_symbol
_atom_site_label
_atom_site_fract_x
_atom_site_fract_y
_atom_site_fract_z
Si Si1 0.116080 0.350593 0.567680
Si Si2 0.774084 0.152236 0.884081
Si Si3 0.301621 0.276589 0.355673
Si Si4 0.460891 0.645509 0.146980
Si Si5 0.578550 0.645248 0.305591
Si Si6 0.445040 0.156663 0.981971
Si Si7 0.865972 0.153466 0.650181
O O1 0.065325 0.500000 0.594499
O O2 0.207739 0.344773 0.453338
O O3 0.224187 0.315358 0.626217
O O4 0.990409 0.248433 0.592986
O O5 0.606882 0.167010 0.914044
O O6 0.838348 0.165893 0.766704
O O7 0.843429 0.260971 0.936198
O O8 0.799975 0.000000 0.911091
O O9 0.335804 0.351733 0.250809
O O10 0.456626 0.253152 0.360498
O O11 0.214155 0.155635 0.336273
O O12 0.468919 0.500000 0.100903
O O13 0.591403 0.661411 0.190400
O O14 0.445015 0.765186 0.080293
O O15 0.516607 0.500000 0.334260
O O16 0.410482 0.000000 0.995697
O O17 0.899613 0.000000 0.621403
#
# Coordination Sequence:
#
# PCOD9132567 Si02
#       7
#     4   4   4   4   4   4   4
#     4  11  22  39  63  92 124 160 201 249 301 356
#     4  10  23  44  64  89 121 158 200 250 307 365
#     4  10  20  37  60  87 121 165 202 239 294 353
#     4   9  21  40  61  88 125 165 202 245 297 355
#     4   9  20  38  57  81 120 161 201 246 291 342
#     4  11  24  40  64  94 121 157 203 249 303 361
#     4  10  23  42  65  89 121 158 200 252 306 360
#
# _framework density 20.139050000000001
#
# number of rings (size 3 to 8) (size 9 to 14) (size 15 to 20)
#    0.857    1.143    0.000    3.000    2.000    5.714 
#    0.000    5.000    0.000    0.000    0.000    0.000 
#    0.000    0.000    0.000    0.000    0.000    0.000 
#
# Total GULP energy -77967.257318 kJ/mol
# GULP energy per Si atom -5569.089808 kJ/mol
# Density = 2.009321 g / cm^3
# Si number density = 20.139050 Si / 1000 Ang^3
#
#
#
# Elastic Constant Matrix: (Units=GPa)
#
#
# Indices 1 2 3 4 5 6 
#
# 1 64.7945 46.9923 5.9031 0.0000 10.6476 0.0000
# 2 46.9923 102.7553 25.0158 0.0000 8.5783 0.0000
# 3 5.9031 25.0158 56.6934 0.0000 2.7457 0.0000
# 4 0.0000 0.0000 0.0000 21.5732 0.0000 3.5689
# 5 10.6476 8.5783 2.7457 0.0000 28.5468 0.0000
# 6 0.0000 0.0000 0.0000 3.5689 0.0000 27.0843
#
#
#
# Elastic Compliance Matrix: (Units=1/GPa)
#
#
# Indices 1 2 3 4 5 6 
#
# 1 0.024368 -0.011315 0.002744 0.000000 -0.005953 0.000000
# 2 -0.011315 0.016389 -0.006047 0.000000 -0.000123 0.000000
# 3 0.002744 -0.006047 0.020077 0.000000 -0.001137 0.000000
# 4 0.000000 0.000000 0.000000 0.047387 0.000000 -0.006244
# 5 -0.005953 -0.000123 -0.001137 0.000000 0.037397 0.000000
# 6 0.000000 0.000000 0.000000 -0.006244 0.000000 0.037745
#
#
# Mechanical properties :
#
#
# Convention : Reuss Voigt Hill
#
# Bulk Modulus (GPa) = 31.64965 42.22950 36.93958
# Shear Modulus (GPa) = 22.40836 25.19632 23.80234
#
# Velocity S-wave (km/s) = 3.33931 3.54095 3.44161
# Velocity P-wave (km/s) = 5.53332 6.14266 5.84594
#
# Compressibility (1/GPa) = 0.03159592
#
# Stress axis : x y z
#
# Youngs Moduli (GPa) = 41.03769 61.01662 49.80933
#
# Poissons Ratio (x) = 0.69040 -0.13666
# Poissons Ratio (y) = 0.46434 0.30122
# Poissons Ratio (z) = -0.11260 0.36900
#
# Static dielectric constant tensor:
#      x y z
#    x 1.751750 0.000000 0.000370 
#    y 0.000000 1.687310 0.000000 
#    z 0.000370 0.000000 1.728130 
# 
# From -- ./inp_files/25781.got.cif
#   From: 2010.05.17/outbox.cif.g08.bks.cpg/sg8_13_cif.got.tgz:25781.got - 2010.06.03 19:46:02.
