data_PCOD9132836
_publ_section_title
;
Structure prediction by ZEFSAII (Michael W. Deem and Ramdas Pophale) SiO2 
 PCOD9132836
Probable space group: C M
;
_chemical_formula_sum "Si O2"
_cell_formula_units_Z 32
_cell_length_a 25.720667
_cell_length_b 7.544145
_cell_length_c 24.951150
_cell_angle_alpha 90.000000
_cell_angle_beta 163.065419
_cell_angle_gamma 90.000000
_cell_volume 1410.239684
_symmetry_space_group_name_H-M "C M"
_symmetry_group_IT_number 8
_symmetry_cell_setting 'monoclinic'
loop_
_space_group_symop_operation_xyz
x,y,z
x,-y,z
1/2+x,1/2+y,z
1/2+x,1/2-y,z
loop_
_atom_site_type_symbol
_atom_site_label
_atom_site_fract_x
_atom_site_fract_y
_atom_site_fract_z
Si Si1 0.585180 0.797051 0.976630
Si Si2 0.656067 0.212050 0.410174
Si Si3 0.035659 0.707921 0.814142
Si Si4 0.672378 0.788218 0.176257
Si Si5 0.084737 0.292733 0.569190
Si Si6 0.821492 0.791754 0.014587
Si Si7 0.838703 0.212391 0.912763
Si Si8 0.998630 0.283752 0.368906
O O1 0.504736 0.713883 0.843255
O O2 0.521976 0.000000 0.918976
O O3 0.575638 0.716361 0.026596
O O4 0.797917 0.789137 0.174668
O O5 0.857659 0.275087 0.604368
O O6 0.523573 0.275746 0.233728
O O7 0.584734 0.273206 0.398065
O O8 0.654300 0.000000 0.408410
O O9 0.074105 0.500000 0.861772
O O10 0.198064 0.785991 0.940109
O O11 0.875370 0.721630 0.378529
O O12 0.685729 0.000000 0.183945
O O13 0.543120 0.745449 0.097655
O O14 0.129311 0.500000 0.609411
O O15 0.098315 0.223479 0.521550
O O16 0.210807 0.215217 0.739567
O O17 0.775102 0.000000 0.966108
O O18 0.798055 0.717066 0.932011
O O19 0.813555 0.000000 0.890101
O O20 0.988243 0.500000 0.359396
#
# Coordination Sequence:
#
# PCOD9132836 Si02
#       8
#     4   4   4   4   4   4   4   4
#     4   9  18  34  56  83 116 152 189 229 280 336
#     4  11  23  36  56  88 119 150 186 233 292 346
#     4  10  21  37  58  83 113 152 194 238 281 333
#     4  10  21  36  56  87 121 151 185 232 289 343
#     4   9  19  37  58  83 115 151 192 237 279 331
#     4  10  22  42  62  81 110 152 200 240 276 330
#     4  10  22  39  62  85 109 151 200 238 276 333
#     4   9  18  33  54  82 117 151 184 229 287 340
#
# _framework density 22.691179000000002
#
# number of rings (size 3 to 8) (size 9 to 14) (size 15 to 20)
#    0.000    2.250    1.250    0.750    1.750    4.000 
#    0.000    2.500    0.000    0.000    0.000    0.000 
#    0.000    0.000    0.000    0.000    0.000    0.000 
#
# Total GULP energy -89355.927944 kJ/mol
# GULP energy per Si atom -5584.745496 kJ/mol
# Density = 2.263953 g / cm^3
# Si number density = 22.691179 Si / 1000 Ang^3
#
#
#
# Elastic Constant Matrix: (Units=GPa)
#
#
# Indices 1 2 3 4 5 6 
#
# 1 82.7320 3.0702 18.6501 -0.0003 -17.4753 -0.0018
# 2 3.0702 64.8435 -14.2007 -0.0001 -2.8999 -0.0013
# 3 18.6501 -14.2007 71.2904 -0.0021 -18.3195 -0.0005
# 4 -0.0003 -0.0001 -0.0021 4.0181 -0.0002 41.9138
# 5 -17.4753 -2.8999 -18.3195 -0.0002 28.9142 -0.0001
# 6 -0.0018 -0.0013 -0.0005 41.9138 -0.0001 -149.0258
#
#
#
# Elastic Compliance Matrix: (Units=1/GPa)
#
#
# Indices 1 2 3 4 5 6 
#
# 1 0.014080 -0.000784 -0.001998 0.000001 0.007165 0.000000
# 2 -0.000784 0.016643 0.004572 0.000001 0.004092 0.000000
# 3 -0.001998 0.004572 0.018237 0.000003 0.010806 0.000001
# 4 0.000001 0.000001 0.000003 0.063265 0.000003 0.017793
# 5 0.007165 0.004092 0.010806 0.000003 0.046172 0.000001
# 6 0.000000 0.000000 0.000001 0.017793 0.000001 -0.001706
#
#
# Mechanical properties :
#
#
# Convention : Reuss Voigt Hill
#
# Bulk Modulus (GPa) = 19.03325 25.98945 22.51135
# Shear Modulus (GPa) = 29.30379 -9.12893 10.08743
#
# Velocity S-wave (km/s) = 3.59753 -2.00795 2.11073
# Velocity P-wave (km/s) = 5.06581 2.47035 3.98529
#
# Compressibility (1/GPa) = 0.05253963
#
# Stress axis : x y z
#
# Youngs Moduli (GPa) = 71.02129 60.08505 54.83268
#
# Poissons Ratio (x) = 0.04710 0.10958
# Poissons Ratio (y) = 0.05567 -0.25068
# Poissons Ratio (z) = 0.14193 -0.27470
#
# Static dielectric constant tensor:
#      x y z
#    x 1.865620 0.000000 -0.025670 
#    y 0.000000 1.955860 0.000000 
#    z -0.025670 0.000000 1.822870 
# 
# From -- ./inp_files/32432.got.cif
#   From: 2010.05.17/outbox.cif.g08.bks.cpg/sg8_17_cif.got.tgz:32432.got - 2010.06.03 19:46:02.
