data_PCOD9132359
_publ_section_title
;
Structure prediction by ZEFSAII (Michael W. Deem and Ramdas Pophale) SiO2 
 PCOD9132359
Probable space group: C M
;
_chemical_formula_sum "Si O2"
_cell_formula_units_Z 32
_cell_length_a 14.656359
_cell_length_b 7.710256
_cell_length_c 14.521053
_cell_angle_alpha 90.000000
_cell_angle_beta 60.450907
_cell_angle_gamma 90.000000
_cell_volume 1427.509587
_symmetry_space_group_name_H-M "C M"
_symmetry_group_IT_number 8
_symmetry_cell_setting 'monoclinic'
loop_
_space_group_symop_operation_xyz
x,y,z
x,-y,z
1/2+x,1/2+y,z
1/2+x,1/2-y,z
loop_
_atom_site_type_symbol
_atom_site_label
_atom_site_fract_x
_atom_site_fract_y
_atom_site_fract_z
Si Si1 0.972270 0.296143 0.922700
Si Si2 0.143124 0.708426 0.695374
Si Si3 0.244828 0.299481 0.053889
Si Si4 0.515457 0.787792 0.104716
Si Si5 0.367932 0.292140 0.556867
Si Si6 0.684109 0.698443 0.281305
Si Si7 0.095207 0.790216 0.508688
Si Si8 0.953922 0.707831 0.328187
O O1 0.995779 0.500000 0.917885
O O2 0.052755 0.222641 0.807695
O O3 0.849819 0.280514 0.960898
O O4 0.987565 0.222283 0.017747
O O5 0.145547 0.500000 0.703726
O O6 0.261072 0.773979 0.655392
O O7 0.119949 0.745467 0.600474
O O8 0.247228 0.500000 0.028338
O O9 0.133504 0.230818 0.072796
O O10 0.243116 0.282442 0.165976
O O11 0.441416 0.739203 0.227958
O O12 0.513993 0.000000 0.103541
O O13 0.369988 0.500000 0.565466
O O14 0.477603 0.225820 0.543138
O O15 0.368749 0.251049 0.447363
O O16 0.721974 0.500000 0.266977
O O17 0.675091 0.772698 0.388971
O O18 0.561692 0.705326 0.310294
O O19 0.096026 0.000000 0.499285
O O20 0.970193 0.500000 0.321584
#
# Coordination Sequence:
#
# PCOD9132359 Si02
#       8
#     4   4   4   4   4   4   4   4
#     4  10  21  38  55  74 103 143 184 220 260 315
#     4  10  22  37  54  76 104 139 184 227 262 304
#     4  10  20  35  56  83 109 137 173 219 266 310
#     4   8  17  34  55  76 103 137 172 208 258 319
#     4   9  19  36  54  76 106 142 176 211 263 325
#     4   9  17  32  54  80 109 142 173 207 259 325
#     4   9  19  35  56  79 106 139 174 212 264 320
#     4   9  16  29  52  82 108 133 170 218 264 312
#
# _framework density 22.416663
#
# number of rings (size 3 to 8) (size 9 to 14) (size 15 to 20)
#    0.000    2.750    0.000    2.625    0.000    5.500 
#    0.000   10.000    0.000    0.000    0.000    0.000 
#    0.000    0.000    0.000    0.000    0.000    0.000 
#
# Total GULP energy -89278.184302 kJ/mol
# GULP energy per Si atom -5579.886519 kJ/mol
# Density = 2.236564 g / cm^3
# Si number density = 22.416663 Si / 1000 Ang^3
#
#
#
# Elastic Constant Matrix: (Units=GPa)
#
#
# Indices 1 2 3 4 5 6 
#
# 1 62.0659 -1.0323 30.2815 0.0000 -13.0482 0.0000
# 2 -1.0323 31.0436 -3.9366 0.0000 -0.8348 0.0000
# 3 30.2815 -3.9366 93.6097 0.0000 -31.3477 0.0000
# 4 0.0000 0.0000 0.0000 20.2896 0.0000 0.5923
# 5 -13.0482 -0.8348 -31.3477 0.0000 32.2982 0.0000
# 6 0.0000 0.0000 0.0000 0.5923 0.0000 0.0885
#
#
#
# Elastic Compliance Matrix: (Units=1/GPa)
#
#
# Indices 1 2 3 4 5 6 
#
# 1 0.019274 0.000029 -0.005372 0.000000 0.002574 -0.000001
# 2 0.000029 0.032610 0.002442 0.000000 0.003225 -0.000008
# 3 -0.005372 0.002442 0.017508 0.000000 0.014886 0.000000
# 4 0.000000 0.000000 0.000000 0.061248 0.000000 -0.409760
# 5 0.002574 0.003225 0.014886 0.000000 0.046532 -0.000001
# 6 -0.000001 -0.000008 0.000000 -0.409760 -0.000001 14.036766
#
#
# Mechanical properties :
#
#
# Convention : Reuss Voigt Hill
#
# Bulk Modulus (GPa) = 15.72576 26.37159 21.04868
# Shear Modulus (GPa) = 0.35110 21.29570 10.82340
#
# Velocity S-wave (km/s) = 0.39619 3.08554 2.19972
# Velocity P-wave (km/s) = 2.69067 4.94812 3.98269
#
# Compressibility (1/GPa) = 0.06358994
#
# Stress axis : x y z
#
# Youngs Moduli (GPa) = 51.88241 30.66538 57.11699
#
# Poissons Ratio (x) = -0.00089 0.30683
# Poissons Ratio (y) = -0.00150 -0.13947
# Poissons Ratio (z) = 0.27871 -0.07488
#
# Static dielectric constant tensor:
#      x y z
#    x 1.861600 0.000000 -0.014260 
#    y 0.000000 1.839290 0.000000 
#    z -0.014260 0.000000 1.840020 
# 
# From -- ./inp_files/26537.got.cif
#   From: 2010.05.17/outbox.cif.g08.bks.cpg/sg8_14_cif.got.tgz:26537.got - 2010.06.03 19:46:02.
