data_PCOD9132958
_publ_section_title
;
Structure prediction by ZEFSAII (Michael W. Deem and Ramdas Pophale) SiO2 
 PCOD9132958
Probable space group: C M
;
_chemical_formula_sum "Si O2"
_cell_formula_units_Z 28
_cell_length_a 11.091136
_cell_length_b 19.192001
_cell_length_c 6.990835
_cell_angle_alpha 90.000000
_cell_angle_beta 111.913191
_cell_angle_gamma 90.000000
_cell_volume 1380.563765
_symmetry_space_group_name_H-M "C M"
_symmetry_group_IT_number 8
_symmetry_cell_setting 'monoclinic'
loop_
_space_group_symop_operation_xyz
x,y,z
x,-y,z
1/2+x,1/2+y,z
1/2+x,1/2-y,z
loop_
_atom_site_type_symbol
_atom_site_label
_atom_site_fract_x
_atom_site_fract_y
_atom_site_fract_z
Si Si1 0.847090 0.419428 0.176790
Si Si2 0.039684 0.582649 0.622488
Si Si3 0.928479 0.814165 0.991456
Si Si4 0.640830 0.367149 0.352879
Si Si5 0.353612 0.835405 0.792417
Si Si6 0.831740 0.079962 0.665755
Si Si7 0.866379 0.078765 0.249807
O O1 0.859579 0.500000 0.134758
O O2 0.728636 0.407144 0.252014
O O3 0.971125 0.399032 0.379893
O O4 0.832027 0.377267 0.974502
O O5 0.012513 0.500000 0.643358
O O6 0.192622 0.590801 0.683085
O O7 0.973095 0.629532 0.745849
O O8 0.838802 0.856866 0.091442
O O9 0.063187 0.807857 0.187570
O O10 0.879898 0.743060 0.874875
O O11 0.935884 0.869051 0.821966
O O12 0.731026 0.340744 0.576837
O O13 0.523640 0.416046 0.355710
O O14 0.813567 0.090990 0.429566
O O15 0.872429 0.000000 0.716779
O O16 0.829543 0.000000 0.164243
#
# Coordination Sequence:
#
# PCOD9132958 Si02
#       7
#     4   4   4   4   4   4   4
#     4  10  21  38  64  92 123 166 211 260 311 361
#     4   9  21  41  62  93 126 160 214 260 298 371
#     4  10  24  39  61  94 129 162 204 257 317 377
#     4   9  23  40  59  94 123 157 211 260 307 367
#     4  11  23  41  63  90 128 170 205 252 318 375
#     4  10  21  40  67  91 122 166 207 258 317 364
#     4   9  20  39  64  96 126 157 208 265 309 363
#
# _framework density 20.281569999999999
#
# number of rings (size 3 to 8) (size 9 to 14) (size 15 to 20)
#    0.857    1.429    0.000    1.286    2.000    7.429 
#    0.000    2.857    0.000    0.000    0.000    0.000 
#    0.000    0.000    0.000    0.000    0.000    0.000 
#
# Total GULP energy -78040.682215 kJ/mol
# GULP energy per Si atom -5574.334444 kJ/mol
# Density = 2.023541 g / cm^3
# Si number density = 20.281570 Si / 1000 Ang^3
#
#
#
# Elastic Constant Matrix: (Units=GPa)
#
#
# Indices 1 2 3 4 5 6 
#
# 1 54.1993 25.0548 31.1451 0.0000 -4.8945 0.0000
# 2 25.0548 99.2938 68.2058 0.0000 -7.9543 0.0000
# 3 31.1451 68.2058 113.7801 0.0000 -8.5843 0.0000
# 4 0.0000 0.0000 0.0000 20.6142 0.0000 -18.1144
# 5 -4.8945 -7.9543 -8.5843 0.0000 22.2300 0.0000
# 6 0.0000 0.0000 0.0000 -18.1144 0.0000 -35.7808
#
#
#
# Elastic Compliance Matrix: (Units=1/GPa)
#
#
# Indices 1 2 3 4 5 6 
#
# 1 0.022350 -0.002331 -0.004545 0.000000 0.002332 0.000000
# 2 -0.002331 0.017472 -0.009685 0.000000 0.001999 0.000000
# 3 -0.004545 -0.009685 0.015967 0.000000 0.001700 0.000000
# 4 0.000000 0.000000 0.000000 0.033574 0.000000 -0.016997
# 5 0.002332 0.001999 0.001700 0.000000 0.046869 0.000000
# 6 0.000000 0.000000 0.000000 -0.016997 0.000000 -0.019343
#
#
# Mechanical properties :
#
#
# Convention : Reuss Voigt Hill
#
# Bulk Modulus (GPa) = 44.11523 57.34273 50.72898
# Shear Modulus (GPa) = 31.73275 10.93720 21.33498
#
# Velocity S-wave (km/s) = 3.95981 2.32473 3.24688
# Velocity P-wave (km/s) = 6.53493 5.96159 6.25483
#
# Compressibility (1/GPa) = 0.02266791
#
# Stress axis : x y z
#
# Youngs Moduli (GPa) = 44.74254 57.23453 62.63048
#
# Poissons Ratio (x) = 0.13342 0.28463
# Poissons Ratio (y) = 0.10430 0.60656
# Poissons Ratio (z) = 0.20334 0.55430
#
# Static dielectric constant tensor:
#      x y z
#    x 1.735210 0.000000 0.024190 
#    y 0.000000 1.697560 0.000000 
#    z 0.024190 0.000000 1.733000 
# 
# From -- ./inp_files/2958.got.cif
#   From: 2010.05.17/outbox.cif.g08.bks.cpg/sg8_2_cif.got.tgz:2958.got - 2010.06.03 19:46:02.
