data_PCOD9132585
_publ_section_title
;
Structure prediction by ZEFSAII (Michael W. Deem and Ramdas Pophale) SiO2 
 PCOD9132585
Probable space group: C M
;
_chemical_formula_sum "Si O2"
_cell_formula_units_Z 32
_cell_length_a 21.429820
_cell_length_b 9.340153
_cell_length_c 14.433172
_cell_angle_alpha 90.000000
_cell_angle_beta 145.310532
_cell_angle_gamma 90.000000
_cell_volume 1644.161786
_symmetry_space_group_name_H-M "C M"
_symmetry_group_IT_number 8
_symmetry_cell_setting 'monoclinic'
loop_
_space_group_symop_operation_xyz
x,y,z
x,-y,z
1/2+x,1/2+y,z
1/2+x,1/2-y,z
loop_
_atom_site_type_symbol
_atom_site_label
_atom_site_fract_x
_atom_site_fract_y
_atom_site_fract_z
Si Si1 0.329330 0.326607 0.850940
Si Si2 0.610687 0.833445 0.910682
Si Si3 0.228640 0.832982 0.212548
Si Si4 0.192988 0.336907 0.501285
Si Si5 0.077049 0.830463 0.203900
Si Si6 0.934502 0.158105 0.464513
Si Si7 0.414729 0.348309 0.660773
Si Si8 0.677617 0.669952 0.806360
O O1 0.322819 0.500000 0.847697
O O2 0.254237 0.284053 0.670052
O O3 0.273500 0.250464 0.870054
O O4 0.459711 0.290296 0.013133
O O5 0.484296 0.789844 0.769900
O O6 0.655340 0.742934 0.878107
O O7 0.625548 0.000000 0.912628
O O8 0.667218 0.775636 0.070851
O O9 0.175756 0.809005 0.249918
O O10 0.354526 0.789000 0.346855
O O11 0.211798 0.000000 0.170679
O O12 0.153652 0.500000 0.470032
O O13 0.103340 0.248285 0.333346
O O14 0.295230 0.343459 0.555807
O O15 0.071975 0.000000 0.216203
O O16 0.916930 0.144122 0.553396
O O17 0.063242 0.186279 0.609614
O O18 0.906781 0.000000 0.390000
O O19 0.466015 0.500000 0.758375
O O20 0.696599 0.500000 0.839881
#
# Coordination Sequence:
#
# PCOD9132585 Si02
#       8
#     4   4   4   4   4   4   4   4
#     4  10  22  41  62  86 120 165 208 249 300 358
#     4  11  22  35  57  86 116 152 196 244 301 361
#     4  11  21  35  57  88 123 154 191 239 299 363
#     4  10  20  37  62  89 122 162 203 246 301 360
#     4  10  22  39  61  91 127 160 198 249 302 359
#     4   9  18  34  57  82 112 148 188 237 293 347
#     4   9  17  33  56  82 117 153 187 233 294 354
#     4  10  22  42  62  82 113 154 201 249 296 352
#
# _framework density 19.462806
#
# number of rings (size 3 to 8) (size 9 to 14) (size 15 to 20)
#    0.000    2.000    1.250    3.375    0.000    6.500 
#    2.250    1.250    0.000    0.000    0.000    0.000 
#    0.000    0.000    0.000    0.000    0.000    0.000 
#
# Total GULP energy -89092.961964 kJ/mol
# GULP energy per Si atom -5568.310123 kJ/mol
# Density = 1.941851 g / cm^3
# Si number density = 19.462806 Si / 1000 Ang^3
#
#
#
# Elastic Constant Matrix: (Units=GPa)
#
#
# Indices 1 2 3 4 5 6 
#
# 1 33.6501 15.7258 2.7269 0.0000 8.0488 0.0000
# 2 15.7258 68.3706 33.7490 0.0000 -4.7687 0.0000
# 3 2.7269 33.7490 60.2272 0.0000 -14.0088 0.0000
# 4 0.0000 0.0000 0.0000 33.0117 0.0000 0.9879
# 5 8.0488 -4.7687 -14.0088 0.0000 22.1145 0.0000
# 6 0.0000 0.0000 0.0000 0.9879 0.0000 25.3321
#
#
#
# Elastic Compliance Matrix: (Units=1/GPa)
#
#
# Indices 1 2 3 4 5 6 
#
# 1 0.038179 -0.009966 0.000145 0.000000 -0.015953 0.000000
# 2 -0.009966 0.023028 -0.012261 0.000000 0.000826 0.000000
# 3 0.000145 -0.012261 0.026787 0.000000 0.014272 0.000000
# 4 0.000000 0.000000 0.000000 0.030328 0.000000 -0.001183
# 5 -0.015953 0.000826 0.014272 0.000000 0.060245 0.000000
# 6 0.000000 0.000000 0.000000 -0.001183 0.000000 0.039522
#
#
# Mechanical properties :
#
#
# Convention : Reuss Voigt Hill
#
# Bulk Modulus (GPa) = 22.81443 29.62791 26.22117
# Shear Modulus (GPa) = 18.05957 23.42806 20.74381
#
# Velocity S-wave (km/s) = 3.04945 3.47325 3.26823
# Velocity P-wave (km/s) = 4.91390 5.59826 5.26721
#
# Compressibility (1/GPa) = 0.04383192
#
# Stress axis : x y z
#
# Youngs Moduli (GPa) = 26.19246 43.42512 37.33103
#
# Poissons Ratio (x) = 0.43277 -0.00542
# Poissons Ratio (y) = 0.26103 0.45770
# Poissons Ratio (z) = -0.00381 0.53242
#
# Static dielectric constant tensor:
#      x y z
#    x 1.670740 0.000000 0.029600 
#    y 0.000000 1.700020 0.000000 
#    z 0.029600 0.000000 1.813030 
# 
# From -- ./inp_files/28201.got.cif
#   From: 2010.05.17/outbox.cif.g08.bks.cpg/sg8_15_cif.got.tgz:28201.got - 2010.06.03 19:46:02.
