data_PCOD9132841
_publ_section_title
;
Structure prediction by ZEFSAII (Michael W. Deem and Ramdas Pophale) SiO2 
 PCOD9132841
Probable space group: C M
;
_chemical_formula_sum "Si O2"
_cell_formula_units_Z 32
_cell_length_a 18.801523
_cell_length_b 15.693062
_cell_length_c 14.138705
_cell_angle_alpha 90.000000
_cell_angle_beta 159.963056
_cell_angle_gamma 90.000000
_cell_volume 1429.323867
_symmetry_space_group_name_H-M "C M"
_symmetry_group_IT_number 8
_symmetry_cell_setting 'monoclinic'
loop_
_space_group_symop_operation_xyz
x,y,z
x,-y,z
1/2+x,1/2+y,z
1/2+x,1/2-y,z
loop_
_atom_site_type_symbol
_atom_site_label
_atom_site_fract_x
_atom_site_fract_y
_atom_site_fract_z
Si Si1 0.773530 0.731895 0.253960
Si Si2 0.185841 0.091422 0.616219
Si Si3 0.858142 0.315629 0.152479
Si Si4 0.807824 0.224010 0.702639
Si Si5 0.528205 0.596998 0.623204
Si Si6 0.361084 0.593162 0.938355
Si Si7 0.733326 0.126264 0.978859
Si Si8 0.805574 0.405419 0.460026
O O1 0.886445 0.696407 0.301051
O O2 0.800213 0.668310 0.375391
O O3 0.863626 0.825276 0.397252
O O4 0.526759 0.724032 0.921722
O O5 0.276549 0.177318 0.688135
O O6 0.180504 0.098585 0.722632
O O7 0.942217 0.092551 0.285372
O O8 0.276227 0.000000 0.699916
O O9 0.754836 0.226611 0.994963
O O10 0.087279 0.313973 0.390403
O O11 0.686995 0.384052 0.908069
O O12 0.837533 0.167829 0.834391
O O13 0.441831 0.500000 0.522311
O O14 0.333283 0.500000 0.857556
O O15 0.223001 0.594536 0.858608
O O16 0.603510 0.600970 0.272984
O O17 0.532261 0.102060 0.787240
O O18 0.791506 0.500000 0.398766
#
# Coordination Sequence:
#
# PCOD9132841 Si02
#       8
#     4   4   4   4   4   4   4   4
#     4  11  22  43  64  91 124 166 209 259 316 378
#     4  10  21  39  60  86 123 161 205 256 312 371
#     4  11  23  41  63  89 125 163 210 255 307 376
#     4  10  22  39  65  90 122 167 206 256 317 375
#     4  11  23  43  67  94 130 173 214 264 321 381
#     4  10  21  36  57  91 122 150 199 252 304 371
#     4  11  19  35  61  86 120 157 197 247 310 360
#     4  10  21  36  61  91 120 153 198 255 311 366
#
# _framework density 22.388207999999999
#
# number of rings (size 3 to 8) (size 9 to 14) (size 15 to 20)
#    0.000    1.500    3.750    2.625    0.000    3.500 
#    2.250    0.000    0.000    0.000    0.000    0.000 
#    0.000    0.000    0.000    0.000    0.000    0.000 
#
# Total GULP energy -89201.926173 kJ/mol
# GULP energy per Si atom -5575.120386 kJ/mol
# Density = 2.233725 g / cm^3
# Si number density = 22.388208 Si / 1000 Ang^3
#
#
#
# Elastic Constant Matrix: (Units=GPa)
#
#
# Indices 1 2 3 4 5 6 
#
# 1 40.3484 14.2409 24.2330 0.0000 9.1730 0.0000
# 2 14.2409 90.5984 8.6217 0.0000 -17.1202 0.0000
# 3 24.2330 8.6217 80.9944 -0.0001 19.4921 0.0001
# 4 0.0000 0.0000 -0.0001 -739.3900 0.0001 672.8170
# 5 9.1730 -17.1202 19.4921 0.0001 35.3670 0.0000
# 6 0.0000 0.0000 0.0001 672.8170 0.0000 -573.0852
#
#
#
# Elastic Compliance Matrix: (Units=1/GPa)
#
#
# Indices 1 2 3 4 5 6 
#
# 1 0.033004 -0.005844 -0.007507 0.000000 -0.007251 0.000000
# 2 -0.005844 0.013910 -0.001980 0.000000 0.009340 0.000000
# 3 -0.007507 -0.001980 0.016793 0.000000 -0.008267 0.000000
# 4 0.000000 0.000000 0.000000 0.019796 0.000000 0.023241
# 5 -0.007251 0.009340 -0.008267 0.000000 0.039233 0.000000
# 6 0.000000 0.000000 0.000000 0.023241 0.000000 0.025541
#
#
# Mechanical properties :
#
#
# Convention : Reuss Voigt Hill
#
# Bulk Modulus (GPa) = 30.26241 34.01471 32.13856
# Shear Modulus (GPa) = 26.32215 -244.43193 -109.05489
#
# Velocity S-wave (km/s) = 3.43259 -10.46021 -6.98689
# Velocity P-wave (km/s) = 5.40895 11.43074 7.12057
#
# Compressibility (1/GPa) = 0.03304430
#
# Stress axis : x y z
#
# Youngs Moduli (GPa) = 30.29927 71.89221 59.54883
#
# Poissons Ratio (x) = 0.42011 0.44706
# Poissons Ratio (y) = 0.17706 0.11791
# Poissons Ratio (z) = 0.22747 0.14236
#
# Static dielectric constant tensor:
#      x y z
#    x 1.819070 0.000000 -0.028310 
#    y 0.000000 1.941210 0.000000 
#    z -0.028310 0.000000 1.939050 
# 
# From -- ./inp_files/16449.got.cif
#   From: 2010.05.17/outbox.cif.g08.bks.cpg/sg8_9_cif.got.tgz:16449.got - 2010.06.03 19:46:02.
