data_PCOD9132017
_publ_section_title
;
Structure prediction by ZEFSAII (Michael W. Deem and Ramdas Pophale) SiO2 
 PCOD9132017
Probable space group: C M
;
_chemical_formula_sum "Si O2"
_cell_formula_units_Z 32
_cell_length_a 20.939386
_cell_length_b 8.764713
_cell_length_c 25.619444
_cell_angle_alpha 90.000000
_cell_angle_beta 22.531810
_cell_angle_gamma 90.000000
_cell_volume 1801.742203
_symmetry_space_group_name_H-M "C M"
_symmetry_group_IT_number 8
_symmetry_cell_setting 'monoclinic'
loop_
_space_group_symop_operation_xyz
x,y,z
x,-y,z
1/2+x,1/2+y,z
1/2+x,1/2-y,z
loop_
_atom_site_type_symbol
_atom_site_label
_atom_site_fract_x
_atom_site_fract_y
_atom_site_fract_z
Si Si1 0.737640 0.819009 0.723940
Si Si2 0.435229 0.181661 0.416140
Si Si3 0.594414 0.317697 0.726307
Si Si4 0.176279 0.818812 0.152954
Si Si5 0.477719 0.318602 0.992722
Si Si6 0.215533 0.317706 0.008415
Si Si7 0.080277 0.817840 0.413121
Si Si8 0.933550 0.817944 0.147884
O O1 0.640196 0.769587 0.744901
O O2 0.652474 0.731656 0.835766
O O3 0.930668 0.782874 0.566269
O O4 0.720788 0.000000 0.744210
O O5 0.241101 0.214598 0.574352
O O6 0.513910 0.266448 0.307667
O O7 0.532330 0.236485 0.394845
O O8 0.457541 0.000000 0.393451
O O9 0.600630 0.500000 0.732828
O O10 0.407965 0.279871 0.849699
O O11 0.185743 0.738694 0.089840
O O12 0.180187 0.000000 0.143680
O O13 0.333433 0.765070 0.069040
O O14 0.454543 0.500000 0.004240
O O15 0.464468 0.279806 0.063646
O O16 0.196568 0.500000 0.020311
O O17 0.084874 0.240126 0.068626
O O18 0.259884 0.760011 0.294995
O O19 0.081640 0.000000 0.403651
O O20 0.917477 0.000000 0.164280
#
# Coordination Sequence:
#
# PCOD9132017 Si02
#       8
#     4   4   4   4   4   4   4   4
#     4  10  20  33  56  88 117 147 189 242 289 337
#     4  10  19  34  57  86 116 149 191 241 289 341
#     4   9  19  35  57  83 114 152 191 232 288 347
#     4  12  23  36  58  88 118 151 195 242 286 341
#     4  11  22  37  58  85 116 152 196 241 288 341
#     4  11  23  40  61  85 117 155 193 238 292 352
#     4  10  20  35  56  85 117 152 193 238 290 344
#     4  11  24  40  59  84 117 156 196 240 290 349
#
# _framework density 17.760587999999998
#
# number of rings (size 3 to 8) (size 9 to 14) (size 15 to 20)
#    0.000    1.500    2.500    3.375    0.000    4.000 
#    0.000    1.250    0.000    4.500    0.000    0.000 
#    0.000    0.000    0.000    0.000    0.000    0.000 
#
# Total GULP energy -89391.087358 kJ/mol
# GULP energy per Si atom -5586.942960 kJ/mol
# Density = 1.772016 g / cm^3
# Si number density = 17.760588 Si / 1000 Ang^3
#
#
#
# Elastic Constant Matrix: (Units=GPa)
#
#
# Indices 1 2 3 4 5 6 
#
# 1 68.3836 18.1124 41.6625 -0.0001 -9.6449 -0.0001
# 2 18.1124 40.1045 29.2581 0.0002 -2.7799 -0.0005
# 3 41.6625 29.2581 123.9002 -0.0014 -8.7712 -0.0004
# 4 -0.0001 0.0002 -0.0014 29.4780 -0.0001 0.2811
# 5 -9.6449 -2.7799 -8.7712 -0.0001 25.9412 0.0001
# 6 -0.0001 -0.0005 -0.0004 0.2811 0.0001 27.9202
#
#
#
# Elastic Compliance Matrix: (Units=1/GPa)
#
#
# Indices 1 2 3 4 5 6 
#
# 1 0.019750 -0.004814 -0.005144 0.000000 0.005088 0.000000
# 2 -0.004814 0.031316 -0.005804 0.000000 -0.000397 0.000000
# 3 -0.005144 -0.005804 0.011262 0.000001 0.001273 0.000000
# 4 0.000000 0.000000 0.000001 0.033927 0.000000 -0.000342
# 5 0.005088 -0.000397 0.001273 0.000000 0.040828 0.000000
# 6 0.000000 0.000000 0.000000 -0.000342 0.000000 0.035820
#
#
# Mechanical properties :
#
#
# Convention : Reuss Voigt Hill
#
# Bulk Modulus (GPa) = 32.46487 45.60604 39.03545
# Shear Modulus (GPa) = 23.28875 26.22487 24.75681
#
# Velocity S-wave (km/s) = 3.62506 3.84679 3.73757
# Velocity P-wave (km/s) = 5.98667 6.74273 6.37592
#
# Compressibility (1/GPa) = 0.03080252
#
# Stress axis : x y z
#
# Youngs Moduli (GPa) = 50.63248 31.93239 88.79773
#
# Poissons Ratio (x) = 0.15373 0.45679
# Poissons Ratio (y) = 0.24376 0.51541
# Poissons Ratio (z) = 0.26046 0.18535
#
# Static dielectric constant tensor:
#      x y z
#    x 1.562450 0.000000 0.006990 
#    y 0.000000 1.591610 0.000000 
#    z 0.006990 0.000000 1.630680 
# 
# From -- ./inp_files/33049.got.cif
#   From: 2010.05.17/outbox.cif.g08.bks.cpg/sg8_17_cif.got.tgz:33049.got - 2010.06.03 19:46:02.
