data_PCOD9132819
_publ_section_title
;
Structure prediction by ZEFSAII (Michael W. Deem and Ramdas Pophale) SiO2 
 PCOD9132819
Probable space group: C M
;
_chemical_formula_sum "Si O2"
_cell_formula_units_Z 32
_cell_length_a 14.365125
_cell_length_b 7.402998
_cell_length_c 14.293309
_cell_angle_alpha 90.000000
_cell_angle_beta 61.868643
_cell_angle_gamma 90.000000
_cell_volume 1340.460063
_symmetry_space_group_name_H-M "C M"
_symmetry_group_IT_number 8
_symmetry_cell_setting 'monoclinic'
loop_
_space_group_symop_operation_xyz
x,y,z
x,-y,z
1/2+x,1/2+y,z
1/2+x,1/2-y,z
loop_
_atom_site_type_symbol
_atom_site_label
_atom_site_fract_x
_atom_site_fract_y
_atom_site_fract_z
Si Si1 0.850700 0.278758 0.779920
Si Si2 0.543782 0.208884 0.566546
Si Si3 0.890335 0.291217 0.969567
Si Si4 0.765148 0.783293 0.420743
Si Si5 0.348303 0.785546 0.187829
Si Si6 0.080977 0.795218 0.146987
Si Si7 0.496687 0.279708 0.375329
Si Si8 0.125420 0.219090 0.924537
O O1 0.851679 0.500000 0.776419
O O2 0.943174 0.213429 0.668143
O O3 0.874380 0.215488 0.874281
O O4 0.729427 0.226536 0.818507
O O5 0.661152 0.288361 0.521434
O O6 0.523827 0.216384 0.465314
O O7 0.550657 0.000000 0.593384
O O8 0.858888 0.500000 0.975781
O O9 0.014479 0.282205 0.936168
O O10 0.830647 0.218504 0.090321
O O11 0.765082 0.741651 0.309766
O O12 0.877038 0.720693 0.407889
O O13 0.764497 0.000000 0.428685
O O14 0.457478 0.700106 0.173199
O O15 0.367366 0.000000 0.171765
O O16 0.071929 0.715045 0.254827
O O17 0.120321 0.000000 0.139890
O O18 0.135311 0.718128 0.028456
O O19 0.499823 0.500000 0.372539
O O20 0.120316 0.000000 0.930358
#
# Coordination Sequence:
#
# PCOD9132819 Si02
#       8
#     4   4   4   4   4   4   4   4
#     4   9  19  35  52  71  98 133 170 203 241 293
#     4  10  21  36  52  71  97 132 173 208 239 285
#     4   9  18  33  53  76 101 129 161 200 247 295
#     4   9  19  35  52  71 100 136 165 194 244 302
#     4   9  16  27  49  79 103 123 157 204 246 288
#     4   8  15  29  50  74 101 131 159 191 243 306
#     4   9  18  33  52  74  99 127 162 204 248 293
#     4   9  17  32  54  76  99 129 163 200 244 294
#
# _framework density 23.872402999999998
#
# number of rings (size 3 to 8) (size 9 to 14) (size 15 to 20)
#    0.000    3.000    0.000    1.125    0.000    5.000 
#    0.000    5.625    0.000    0.000    0.000    0.000 
#    0.000    0.000    0.000    0.000    0.000    0.000 
#
# Total GULP energy -89314.061412 kJ/mol
# GULP energy per Si atom -5582.128838 kJ/mol
# Density = 2.381807 g / cm^3
# Si number density = 23.872403 Si / 1000 Ang^3
#
#
#
# Elastic Constant Matrix: (Units=GPa)
#
#
# Indices 1 2 3 4 5 6 
#
# 1 64.8250 -3.2874 28.6950 0.0000 -22.7974 0.0000
# 2 -3.2874 88.7983 0.4220 0.0000 -6.9870 0.0000
# 3 28.6950 0.4220 106.9675 0.0000 -44.3337 0.0000
# 4 0.0000 0.0000 0.0000 6.6206 0.0000 8.4125
# 5 -22.7974 -6.9870 -44.3337 0.0000 46.3430 0.0000
# 6 0.0000 0.0000 0.0000 8.4125 0.0000 -2.0223
#
#
#
# Elastic Compliance Matrix: (Units=1/GPa)
#
#
# Indices 1 2 3 4 5 6 
#
# 1 0.019064 0.001325 -0.001905 0.000000 0.007756 0.000000
# 2 0.001325 0.011568 0.000981 0.000000 0.003334 0.000000
# 3 -0.001905 0.000981 0.015789 0.000000 0.014315 0.000000
# 4 0.000000 0.000000 0.000000 0.024029 0.000000 0.099960
# 5 0.007756 0.003334 0.014315 0.000000 0.039591 0.000000
# 6 0.000000 0.000000 0.000000 0.099960 0.000000 -0.078668
#
#
# Mechanical properties :
#
#
# Convention : Reuss Voigt Hill
#
# Bulk Modulus (GPa) = 21.17617 34.69443 27.93530
# Shear Modulus (GPa) = 107.96355 25.83901 66.90128
#
# Velocity S-wave (km/s) = 6.73227 3.29352 5.29956
# Velocity P-wave (km/s) = 8.32593 5.38775 7.01245
#
# Compressibility (1/GPa) = 0.04722289
#
# Stress axis : x y z
#
# Youngs Moduli (GPa) = 52.45481 86.44373 63.33610
#
# Poissons Ratio (x) = -0.11454 0.12065
# Poissons Ratio (y) = -0.06951 -0.06212
# Poissons Ratio (z) = 0.09992 -0.08478
#
# Static dielectric constant tensor:
#      x y z
#    x 1.923440 0.000000 -0.023840 
#    y 0.000000 1.961410 0.000000 
#    z -0.023840 0.000000 1.915260 
# 
# From -- ./inp_files/26524.got.cif
#   From: 2010.05.17/outbox.cif.g08.bks.cpg/sg8_14_cif.got.tgz:26524.got - 2010.06.03 19:46:02.
