data_PCOD9132635
_publ_section_title
;
Structure prediction by ZEFSAII (Michael W. Deem and Ramdas Pophale) SiO2 
 PCOD9132635
Probable space group: C M
;
_chemical_formula_sum "Si O2"
_cell_formula_units_Z 28
_cell_length_a 10.159342
_cell_length_b 21.014472
_cell_length_c 6.477446
_cell_angle_alpha 90.000000
_cell_angle_beta 90.784284
_cell_angle_gamma 90.000000
_cell_volume 1382.761172
_symmetry_space_group_name_H-M "C M"
_symmetry_group_IT_number 8
_symmetry_cell_setting 'monoclinic'
loop_
_space_group_symop_operation_xyz
x,y,z
x,-y,z
1/2+x,1/2+y,z
1/2+x,1/2-y,z
loop_
_atom_site_type_symbol
_atom_site_label
_atom_site_fract_x
_atom_site_fract_y
_atom_site_fract_z
Si Si1 0.294530 0.330035 0.717840
Si Si2 0.200561 0.861903 0.360364
Si Si3 0.724272 0.929584 0.064418
Si Si4 0.589257 0.226942 0.389729
Si Si5 0.869556 0.303443 0.714319
Si Si6 0.435357 0.426377 0.438024
Si Si7 0.460585 0.874237 0.102670
O O1 0.201813 0.308597 0.524462
O O2 0.322841 0.261419 0.823747
O O3 0.406074 0.373898 0.613598
O O4 0.236171 0.376420 0.889018
O O5 0.136754 0.793836 0.300877
O O6 0.260101 0.842208 0.584815
O O7 0.322685 0.882440 0.219758
O O8 0.082861 0.912045 0.363896
O O9 0.827344 0.917721 0.252685
O O10 0.571535 0.927640 0.130581
O O11 0.754201 0.000000 0.982452
O O12 0.469802 0.227428 0.550947
O O13 0.533802 0.185490 0.205402
O O14 0.932021 0.353970 0.868896
O O15 0.424082 0.500000 0.506509
#
# Coordination Sequence:
#
# PCOD9132635 Si02
#       7
#     4   4   4   4   4   4   4
#     4  11  21  38  64  92 122 158 206 254 302 368
#     4  10  24  39  60  96 126 159 205 250 310 373
#     4  11  25  41  63  92 122 166 215 251 298 367
#     4  10  20  38  61  93 125 156 198 251 311 370
#     4  10  22  37  63  97 125 154 200 255 319 362
#     4  11  24  44  64  86 125 171 208 252 302 364
#     4  11  23  39  65  94 124 162 200 255 316 360
#
# _framework density 20.249341000000001
#
# number of rings (size 3 to 8) (size 9 to 14) (size 15 to 20)
#    0.000    1.429    4.286    0.429    4.000    1.714 
#    0.000    0.714    0.000    0.000    0.000    0.000 
#    0.000    0.000    0.000    0.000    0.000    0.000 
#
# Total GULP energy -78039.772251 kJ/mol
# GULP energy per Si atom -5574.269446 kJ/mol
# Density = 2.020325 g / cm^3
# Si number density = 20.249341 Si / 1000 Ang^3
#
#
#
# Elastic Constant Matrix: (Units=GPa)
#
#
# Indices 1 2 3 4 5 6 
#
# 1 107.8316 32.3709 18.8913 0.0000 7.4713 0.0000
# 2 32.3709 72.1865 23.7879 0.0000 7.4083 0.0000
# 3 18.8913 23.7879 28.8994 0.0000 1.5056 0.0000
# 4 0.0000 0.0000 0.0000 14.9712 0.0000 -3.4958
# 5 7.4713 7.4083 1.5056 0.0000 22.1137 0.0000
# 6 0.0000 0.0000 0.0000 -3.4958 0.0000 15.1798
#
#
#
# Elastic Compliance Matrix: (Units=1/GPa)
#
#
# Indices 1 2 3 4 5 6 
#
# 1 0.011217 -0.003308 -0.004486 0.000000 -0.002376 0.000000
# 2 -0.003308 0.020630 -0.014569 0.000000 -0.004802 0.000000
# 3 -0.004486 -0.014569 0.049369 0.000000 0.003035 0.000000
# 4 0.000000 0.000000 0.000000 0.070591 0.000000 0.016257
# 5 -0.002376 -0.004802 0.003035 0.000000 0.047426 0.000000
# 6 0.000000 0.000000 0.000000 0.016257 0.000000 0.069621
#
#
# Mechanical properties :
#
#
# Convention : Reuss Voigt Hill
#
# Bulk Modulus (GPa) = 27.40389 39.89087 33.64738
# Shear Modulus (GPa) = 15.34955 19.37743 17.36349
#
# Velocity S-wave (km/s) = 2.75622 3.09680 2.93146
# Velocity P-wave (km/s) = 4.86740 5.70347 5.30194
#
# Compressibility (1/GPa) = 0.03649117
#
# Stress axis : x y z
#
# Youngs Moduli (GPa) = 89.14763 48.47286 20.25570
#
# Poissons Ratio (x) = 0.16035 0.09086
# Poissons Ratio (y) = 0.29491 0.29510
# Poissons Ratio (z) = 0.39991 0.70618
#
# Static dielectric constant tensor:
#      x y z
#    x 1.816860 0.000000 -0.035890 
#    y 0.000000 1.716390 0.000000 
#    z -0.035890 0.000000 1.709950 
# 
# From -- ./inp_files/2961.got.cif
#   From: 2010.05.17/outbox.cif.g08.bks.cpg/sg8_2_cif.got.tgz:2961.got - 2010.06.03 19:46:02.
