data_PCOD9132302
_publ_section_title
;
Structure prediction by ZEFSAII (Michael W. Deem and Ramdas Pophale) SiO2 
 PCOD9132302
Probable space group: C M
;
_chemical_formula_sum "Si O2"
_cell_formula_units_Z 32
_cell_length_a 26.230367
_cell_length_b 7.388293
_cell_length_c 24.763803
_cell_angle_alpha 90.000000
_cell_angle_beta 162.719510
_cell_angle_gamma 90.000000
_cell_volume 1425.591198
_symmetry_space_group_name_H-M "C M"
_symmetry_group_IT_number 8
_symmetry_cell_setting 'monoclinic'
loop_
_space_group_symop_operation_xyz
x,y,z
x,-y,z
1/2+x,1/2+y,z
1/2+x,1/2-y,z
loop_
_atom_site_type_symbol
_atom_site_label
_atom_site_fract_x
_atom_site_fract_y
_atom_site_fract_z
Si Si1 0.850910 0.220334 0.688970
Si Si2 0.672994 0.293830 0.322025
Si Si3 0.923705 0.720856 0.368231
Si Si4 0.319565 0.720396 0.777092
Si Si5 0.478356 0.708848 0.706501
Si Si6 0.140411 0.221715 0.168529
Si Si7 0.950775 0.718873 0.275928
Si Si8 0.832738 0.718296 0.038479
O O1 0.891734 0.276475 0.791185
O O2 0.955089 0.288930 0.742772
O O3 0.651644 0.267244 0.478168
O O4 0.860839 0.000000 0.698635
O O5 0.732807 0.500000 0.378847
O O6 0.799873 0.210193 0.494325
O O7 0.678248 0.215259 0.267324
O O8 0.479426 0.291013 0.148096
O O9 0.923112 0.500000 0.367447
O O10 0.785928 0.778067 0.273123
O O11 0.880405 0.778462 0.262986
O O12 0.120444 0.776728 0.579859
O O13 0.316533 0.500000 0.774095
O O14 0.453109 0.778140 0.957666
O O15 0.524870 0.500000 0.763438
O O16 0.636742 0.777718 0.831061
O O17 0.139414 0.000000 0.168480
O O18 0.940152 0.500000 0.265380
O O19 0.868875 0.776023 0.136936
O O20 0.851521 0.500000 0.053301
#
# Coordination Sequence:
#
# PCOD9132302 Si02
#       8
#     4   4   4   4   4   4   4   4
#     4   8  13  24  45  73 104 128 154 207 272 318
#     4  11  23  37  51  73 111 153 182 211 254 312
#     4   8  14  24  40  66  98 127 156 202 263 314
#     4   8  14  24  40  66  98 127 156 202 263 314
#     4  10  20  34  55  81 106 136 177 225 269 310
#     4   9  18  29  43  65  99 139 172 203 252 314
#     4   8  13  24  45  73 104 128 154 207 272 318
#     4  10  20  34  55  81 106 136 177 225 269 310
#
# _framework density 22.446828
#
# number of rings (size 3 to 8) (size 9 to 14) (size 15 to 20)
#    0.000    3.000    1.250    1.875    1.750    1.500 
#    0.000    2.500    0.000    0.000    0.000    3.500 
#    0.000    0.000    0.000    0.000    0.000    0.000 
#
# Total GULP energy -89281.746310 kJ/mol
# GULP energy per Si atom -5580.109144 kJ/mol
# Density = 2.239574 g / cm^3
# Si number density = 22.446828 Si / 1000 Ang^3
#
#
#
# Elastic Constant Matrix: (Units=GPa)
#
#
# Indices 1 2 3 4 5 6 
#
# 1 115.4349 -4.4065 20.8126 0.0017 16.3602 -0.0008
# 2 -4.4065 72.8929 -5.8954 0.0121 -1.7513 0.0040
# 3 20.8126 -5.8954 38.9899 0.0174 15.0015 0.0059
# 4 0.0017 0.0121 0.0174 -6.2128 0.0060 3.0819
# 5 16.3602 -1.7513 15.0015 0.0060 30.7860 0.0006
# 6 -0.0008 0.0040 0.0059 3.0819 0.0006 -0.3026
#
#
#
# Elastic Compliance Matrix: (Units=1/GPa)
#
#
# Indices 1 2 3 4 5 6 
#
# 1 0.009851 0.000196 -0.003962 0.000016 -0.003294 0.000055
# 2 0.000196 0.013895 0.002132 -0.000035 -0.000353 -0.000138
# 3 -0.003962 0.002132 0.033511 -0.000102 -0.014103 -0.000373
# 4 0.000016 -0.000035 -0.000102 0.039720 0.000023 0.404547
# 5 -0.003294 -0.000353 -0.014103 0.000023 0.041084 0.000049
# 6 0.000055 -0.000138 -0.000373 0.404547 0.000049 0.815526
#
#
# Mechanical properties :
#
#
# Convention : Reuss Voigt Hill
#
# Bulk Modulus (GPa) = 18.52220 27.59322 23.05771
# Shear Modulus (GPa) = 5.12899 19.30793 12.21846
#
# Velocity S-wave (km/s) = 1.51325 2.93604 2.33562
# Velocity P-wave (km/s) = 3.36492 4.87987 4.19141
#
# Compressibility (1/GPa) = 0.05398925
#
# Stress axis : x y z
#
# Youngs Moduli (GPa) = 101.50778 71.97048 29.84104
#
# Poissons Ratio (x) = -0.01411 0.11823
# Poissons Ratio (y) = -0.01989 -0.06362
# Poissons Ratio (z) = 0.40216 -0.15344
#
# Static dielectric constant tensor:
#      x y z
#    x 1.800520 0.000000 0.005110 
#    y 0.000000 1.936300 0.000000 
#    z 0.005110 0.000000 1.814490 
# 
# From -- ./inp_files/32394.got.cif
#   From: 2010.05.17/outbox.cif.g08.bks.cpg/sg8_17_cif.got.tgz:32394.got - 2010.06.03 19:46:02.
