data_PCOD9132579
_publ_section_title
;
Structure prediction by ZEFSAII (Michael W. Deem and Ramdas Pophale) SiO2 
 PCOD9132579
Probable space group: C M
;
_chemical_formula_sum "Si O2"
_cell_formula_units_Z 28
_cell_length_a 7.426461
_cell_length_b 23.087490
_cell_length_c 10.274236
_cell_angle_alpha 90.000000
_cell_angle_beta 47.514765
_cell_angle_gamma 90.000000
_cell_volume 1299.096979
_symmetry_space_group_name_H-M "C M"
_symmetry_group_IT_number 8
_symmetry_cell_setting 'monoclinic'
loop_
_space_group_symop_operation_xyz
x,y,z
x,-y,z
1/2+x,1/2+y,z
1/2+x,1/2-y,z
loop_
_atom_site_type_symbol
_atom_site_label
_atom_site_fract_x
_atom_site_fract_y
_atom_site_fract_z
Si Si1 0.194920 0.439111 0.803980
Si Si2 0.257258 0.063360 0.508858
Si Si3 0.679472 0.180252 0.942532
Si Si4 0.080973 0.606319 0.585809
Si Si5 0.657142 0.693210 0.887248
Si Si6 0.850117 0.189665 0.292702
Si Si7 0.382989 0.184572 0.335866
O O1 0.083972 0.500000 0.905229
O O2 0.482218 0.440740 0.693477
O O3 0.152765 0.433507 0.670773
O O4 0.117811 0.378529 0.900659
O O5 0.444163 0.073000 0.536256
O O6 0.256695 0.123600 0.427910
O O7 0.311981 0.000000 0.419062
O O8 0.702090 0.238118 0.846030
O O9 0.927136 0.176092 0.907989
O O10 0.456740 0.188389 0.149992
O O11 0.318899 0.638321 0.410952
O O12 0.885667 0.654277 0.733620
O O13 0.578358 0.688152 0.079738
O O14 0.623765 0.181643 0.306085
O O15 0.795983 0.249473 0.396905
#
# Coordination Sequence:
#
# PCOD9132579 Si02
#       7
#     4   4   4   4   4   4   4
#     4  11  24  39  59  86 116 157 203 240 285 349
#     4  10  22  40  59  82 116 156 200 242 285 343
#     4  10  20  38  58  88 122 151 196 240 293 356
#     4  11  22  39  65  85 117 158 192 244 298 344
#     4  10  20  37  61  91 122 152 188 246 299 347
#     4   9  21  35  57  94 116 149 190 237 299 354
#     4   9  20  36  59  84 118 153 185 243 297 343
#
# _framework density 21.553432999999998
#
# number of rings (size 3 to 8) (size 9 to 14) (size 15 to 20)
#    0.000    2.000    1.429    1.286    4.000    2.857 
#    0.000    0.000    0.000    1.714    0.000    0.000 
#    0.000    0.000    0.000    0.000    0.000    0.000 
#
# Total GULP energy -78022.957917 kJ/mol
# GULP energy per Si atom -5573.068423 kJ/mol
# Density = 2.150438 g / cm^3
# Si number density = 21.553433 Si / 1000 Ang^3
#
#
#
# Elastic Constant Matrix: (Units=GPa)
#
#
# Indices 1 2 3 4 5 6 
#
# 1 49.0199 4.5859 -8.6849 0.0000 16.2517 0.0000
# 2 4.5859 96.3449 7.9302 0.0000 4.5387 0.0000
# 3 -8.6849 7.9302 29.7036 0.0000 -1.2796 0.0000
# 4 0.0000 0.0000 0.0000 -2.7264 0.0000 -37.8303
# 5 16.2517 4.5387 -1.2796 0.0000 17.8770 0.0000
# 6 0.0000 0.0000 0.0000 -37.8303 0.0000 -77.0851
#
#
#
# Elastic Compliance Matrix: (Units=1/GPa)
#
#
# Indices 1 2 3 4 5 6 
#
# 1 0.030994 -0.000853 0.008110 0.000000 -0.027379 0.000000
# 2 -0.000853 0.010789 -0.003224 0.000000 -0.002194 0.000000
# 3 0.008110 -0.003224 0.036729 0.000000 -0.003925 0.000000
# 4 0.000000 0.000000 0.000000 0.063134 0.000000 -0.030984
# 5 -0.027379 -0.002194 -0.003925 0.000000 0.081104 0.000000
# 6 0.000000 0.000000 0.000000 -0.030984 0.000000 0.002233
#
#
# Mechanical properties :
#
#
# Convention : Reuss Voigt Hill
#
# Bulk Modulus (GPa) = 11.55036 20.30343 15.92690
# Shear Modulus (GPa) = 20.34379 -0.97107 9.68636
#
# Velocity S-wave (km/s) = 3.07559 -0.67195 2.12223
# Velocity P-wave (km/s) = 4.24063 2.97296 3.66206
#
# Compressibility (1/GPa) = 0.08657737
#
# Stress axis : x y z
#
# Youngs Moduli (GPa) = 32.26476 92.68912 27.22642
#
# Poissons Ratio (x) = 0.07907 -0.22082
# Poissons Ratio (y) = 0.02752 0.08779
# Poissons Ratio (z) = -0.26168 0.29886
#
# Static dielectric constant tensor:
#      x y z
#    x 1.782310 0.000000 0.010060 
#    y 0.000000 1.880760 0.000000 
#    z 0.010060 0.000000 1.821030 
# 
# From -- ./inp_files/8560.got.cif
#   From: 2010.05.17/outbox.cif.g08.bks.cpg/sg8_5_cif.got.tgz:8560.got - 2010.06.03 19:46:02.
