data_PCOD9132240
_publ_section_title
;
Structure prediction by ZEFSAII (Michael W. Deem and Ramdas Pophale) SiO2 
 PCOD9132240
Probable space group: C M
;
_chemical_formula_sum "Si O2"
_cell_formula_units_Z 30
_cell_length_a 6.729463
_cell_length_b 13.527630
_cell_length_c 17.939862
_cell_angle_alpha 90.000000
_cell_angle_beta 137.093425
_cell_angle_gamma 90.000000
_cell_volume 1111.844147
_symmetry_space_group_name_H-M "C M"
_symmetry_group_IT_number 8
_symmetry_cell_setting 'monoclinic'
loop_
_space_group_symop_operation_xyz
x,y,z
x,-y,z
1/2+x,1/2+y,z
1/2+x,1/2-y,z
loop_
_atom_site_type_symbol
_atom_site_label
_atom_site_fract_x
_atom_site_fract_y
_atom_site_fract_z
Si Si1 0.248470 0.389226 0.250000
Si Si2 0.831195 0.340012 0.492411
Si Si3 0.367296 0.391720 0.532009
Si Si4 0.190077 0.138076 0.763145
Si Si5 0.048582 0.000000 0.916993
Si Si6 0.151275 0.187440 0.131675
Si Si7 0.155595 0.367788 0.724428
Si Si8 0.543179 0.854101 0.000586
O O1 0.281666 0.500000 0.226754
O O2 0.515858 0.372943 0.379159
O O3 0.245568 0.287832 0.200766
O O4 0.929103 0.380851 0.198558
O O5 0.865589 0.219810 0.497845
O O6 0.077642 0.383315 0.505319
O O7 0.890205 0.378701 0.592850
O O8 0.344615 0.500000 0.487736
O O9 0.641192 0.397481 0.665823
O O10 0.154016 0.254063 0.743712
O O11 0.453685 0.120623 0.891328
O O12 0.920367 0.104843 0.740341
O O13 0.310271 0.914552 0.985347
O O14 0.784032 0.918284 0.832648
O O15 0.028330 0.239356 0.022323
O O16 0.889444 0.128749 0.098220
#
# Coordination Sequence:
#
# PCOD9132240 Si02
#       8
#     4   4   4   4   2   4   4   4
#     4  11  24  43  66  90 126 166 212 269 315 365
#     4  10  21  38  65  91 125 166 207 258 316 365
#     4  10  21  38  63  93 131 165 206 252 310 387
#     4   9  18  33  58  84 120 162 191 246 304 368
#     4  10  20  30  60  88 112 156 200 228 322 378
#     4  10  24  43  60  91 125 158 223 268 305 363
#     4   9  19  33  56  87 122 151 204 243 294 392
#     4  10  20  36  62  85 122 160 202 259 310 366
#
# _framework density 26.982199000000001
#
# number of rings (size 3 to 8) (size 9 to 14) (size 15 to 20)
#    0.000    2.133    0.000    2.800   11.200    0.000 
#    0.000    3.333   19.067    0.000    0.000    0.000 
#    0.000    0.000    0.000    0.000    0.000    0.000 
#
# Total GULP energy -83515.017683 kJ/mol
# GULP energy per Si atom -5567.667846 kJ/mol
# Density = 2.692079 g / cm^3
# Si number density = 26.982199 Si / 1000 Ang^3
#
#
#
# Elastic Constant Matrix: (Units=GPa)
#
#
# Indices 1 2 3 4 5 6 
#
# 1 58.8890 16.1969 44.8098 0.0001 5.2914 0.0001
# 2 16.1969 214.0990 50.1278 0.0004 -0.1898 0.0003
# 3 44.8098 50.1278 167.4288 0.0010 17.5643 0.0008
# 4 0.0001 0.0004 0.0010 9.0992 0.0002 26.9913
# 5 5.2914 -0.1898 17.5643 0.0002 31.7190 0.0002
# 6 0.0001 0.0003 0.0008 26.9913 0.0002 -47.4213
#
#
#
# Elastic Compliance Matrix: (Units=1/GPa)
#
#
# Indices 1 2 3 4 5 6 
#
# 1 0.021348 -0.000311 -0.005570 0.000000 -0.000479 0.000000
# 2 -0.000311 0.005053 -0.001527 0.000000 0.000928 0.000000
# 3 -0.005570 -0.001527 0.008307 0.000000 -0.003680 0.000000
# 4 0.000000 0.000000 0.000000 0.040880 0.000000 0.023268
# 5 -0.000479 0.000928 -0.003680 0.000000 0.033650 0.000000
# 6 0.000000 0.000000 0.000000 0.023268 0.000000 -0.007844
#
#
# Mechanical properties :
#
#
# Convention : Reuss Voigt Hill
#
# Bulk Modulus (GPa) = 50.27389 73.63176 61.95282
# Shear Modulus (GPa) = 40.70362 20.63153 30.66757
#
# Velocity S-wave (km/s) = 3.88820 2.76820 3.37499
# Velocity P-wave (km/s) = 6.23139 6.12907 6.18044
#
# Compressibility (1/GPa) = 0.01989104
#
# Stress axis : x y z
#
# Youngs Moduli (GPa) = 46.84258 197.91924 120.38694
#
# Poissons Ratio (x) = 0.06161 0.67056
# Poissons Ratio (y) = 0.01458 0.18380
# Poissons Ratio (z) = 0.26092 0.30217
#
# Static dielectric constant tensor:
#      x y z
#    x 2.286130 0.000000 -0.060820 
#    y 0.000000 2.120560 0.000000 
#    z -0.060820 0.000000 2.133120 
# 
# From -- ./inp_files/31769.got.cif
#   From: 2010.05.17/outbox.cif.g08.bks.cpg/sg8_16_cif.got.tgz:31769.got - 2010.06.03 19:46:02.
