data_PCOD9132166
_publ_section_title
;
Structure prediction by ZEFSAII (Michael W. Deem and Ramdas Pophale) SiO2 
 PCOD9132166
Probable space group: C M
;
_chemical_formula_sum "Si O2"
_cell_formula_units_Z 32
_cell_length_a 9.940132
_cell_length_b 26.140746
_cell_length_c 11.448524
_cell_angle_alpha 90.000000
_cell_angle_beta 152.518281
_cell_angle_gamma 90.000000
_cell_volume 1372.773661
_symmetry_space_group_name_H-M "C M"
_symmetry_group_IT_number 8
_symmetry_cell_setting 'monoclinic'
loop_
_space_group_symop_operation_xyz
x,y,z
x,-y,z
1/2+x,1/2+y,z
1/2+x,1/2-y,z
loop_
_atom_site_type_symbol
_atom_site_label
_atom_site_fract_x
_atom_site_fract_y
_atom_site_fract_z
Si Si1 0.619060 0.236519 0.944460
Si Si2 0.012518 0.747213 0.596744
Si Si3 0.364204 0.557065 0.380854
Si Si4 0.647515 0.348353 0.010665
Si Si5 0.445482 0.058108 0.673422
Si Si6 0.530258 0.357916 0.655069
Si Si7 0.620898 0.127548 0.995291
Si Si8 0.946190 0.637406 0.475009
O O1 0.273403 0.243614 0.705944
O O2 0.654501 0.235689 0.832803
O O3 0.734288 0.288628 0.086893
O O4 0.749706 0.184377 0.096365
O O5 0.871282 0.803483 0.510324
O O6 0.847044 0.695155 0.435470
O O7 0.247105 0.500000 0.305412
O O8 0.364797 0.589850 0.499633
O O9 0.194974 0.591111 0.157999
O O10 0.679629 0.552143 0.560491
O O11 0.828682 0.373771 0.254457
O O12 0.677792 0.359606 0.895779
O O13 0.299415 0.358375 0.756095
O O14 0.354792 0.092541 0.493360
O O15 0.543545 0.000000 0.721223
O O16 0.668350 0.094862 0.915199
O O17 0.781453 0.359235 0.750892
#
# Coordination Sequence:
#
# PCOD9132166 Si02
#       8
#     4   4   4   4   4   4   4   4
#     4   9  18  35  56  93 124 167 205 257 317 386
#     4   9  18  36  57  88 126 164 210 254 319 382
#     4  10  22  37  62  93 121 162 214 272 323 370
#     4  10  24  41  63  92 132 166 210 259 316 380
#     4  10  22  40  61  91 126 162 215 270 319 375
#     4   9  21  40  60  89 125 164 209 265 317 380
#     4  10  19  36  64  90 122 164 207 262 323 381
#     4  11  23  41  63  92 128 173 211 259 314 382
#
# _framework density 23.310469000000001
#
# number of rings (size 3 to 8) (size 9 to 14) (size 15 to 20)
#    0.000    2.250    1.250    0.375    5.250    0.500 
#    0.000    5.000    0.000    0.000    0.000    0.000 
#    0.000    0.000    0.000    0.000    0.000    0.000 
#
# Total GULP energy -89196.166420 kJ/mol
# GULP energy per Si atom -5574.760401 kJ/mol
# Density = 2.325741 g / cm^3
# Si number density = 23.310469 Si / 1000 Ang^3
#
#
#
# Elastic Constant Matrix: (Units=GPa)
#
#
# Indices 1 2 3 4 5 6 
#
# 1 62.6225 47.9096 40.3393 0.0000 -9.7623 -0.0001
# 2 47.9096 181.4022 45.3879 0.0001 -36.6540 0.0000
# 3 40.3393 45.3879 70.3441 0.0001 -20.9917 -0.0001
# 4 0.0000 0.0001 0.0001 7.2100 0.0000 -2.7673
# 5 -9.7623 -36.6540 -20.9917 0.0000 48.0864 -0.0001
# 6 -0.0001 0.0000 -0.0001 -2.7673 -0.0001 19.2835
#
#
#
# Elastic Compliance Matrix: (Units=1/GPa)
#
#
# Indices 1 2 3 4 5 6 
#
# 1 0.028150 -0.004674 -0.014355 0.000000 -0.004115 0.000000
# 2 -0.004674 0.007953 -0.001063 0.000000 0.004649 0.000000
# 3 -0.014355 -0.001063 0.025321 0.000000 0.007329 0.000000
# 4 0.000000 0.000000 0.000000 0.146781 0.000000 0.021064
# 5 -0.004115 0.004649 0.007329 0.000000 0.026703 0.000000
# 6 0.000000 0.000000 0.000000 0.021064 0.000000 0.054880
#
#
# Mechanical properties :
#
#
# Convention : Reuss Voigt Hill
#
# Bulk Modulus (GPa) = 47.08434 64.62695 55.85564
# Shear Modulus (GPa) = 14.83443 26.96478 20.89961
#
# Velocity S-wave (km/s) = 2.52540 3.40482 2.99754
# Velocity P-wave (km/s) = 5.36155 6.57584 5.99949
#
# Compressibility (1/GPa) = 0.02123849
#
# Stress axis : x y z
#
# Youngs Moduli (GPa) = 35.52353 125.74621 39.49313
#
# Poissons Ratio (x) = 0.58779 0.56692
# Poissons Ratio (y) = 0.16605 0.04200
# Poissons Ratio (z) = 0.50993 0.13371
#
# Static dielectric constant tensor:
#      x y z
#    x 1.942650 0.000000 0.067510 
#    y 0.000000 1.943480 0.000000 
#    z 0.067510 0.000000 1.939690 
# 
# From -- ./inp_files/20901.got.cif
#   From: 2010.05.17/outbox.cif.g08.bks.cpg/sg8_11_cif.got.tgz:20901.got - 2010.06.03 19:46:02.
