data_PCOD9132781
_publ_section_title
;
Structure prediction by ZEFSAII (Michael W. Deem and Ramdas Pophale) SiO2 
 PCOD9132781
Probable space group: C M
;
_chemical_formula_sum "Si O2"
_cell_formula_units_Z 22
_cell_length_a 13.288542
_cell_length_b 12.187861
_cell_length_c 16.057117
_cell_angle_alpha 90.000000
_cell_angle_beta 154.879260
_cell_angle_gamma 90.000000
_cell_volume 1104.022471
_symmetry_space_group_name_H-M "C M"
_symmetry_group_IT_number 8
_symmetry_cell_setting 'monoclinic'
loop_
_space_group_symop_operation_xyz
x,y,z
x,-y,z
1/2+x,1/2+y,z
1/2+x,1/2-y,z
loop_
_atom_site_type_symbol
_atom_site_label
_atom_site_fract_x
_atom_site_fract_y
_atom_site_fract_z
Si Si1 0.605770 0.500000 0.638840
Si Si2 0.110940 0.500000 0.950863
Si Si3 0.920359 0.201532 0.123728
Si Si4 0.616506 0.721497 0.751549
Si Si5 0.096001 0.242615 0.426661
Si Si6 0.425162 0.500000 0.339105
Si Si7 0.954462 0.628646 0.485970
O O1 0.613910 0.607739 0.700261
O O2 0.389015 0.500000 0.411128
O O3 0.830327 0.500000 0.744628
O O4 0.227846 0.606120 0.996245
O O5 0.190538 0.500000 0.107183
O O6 0.954568 0.268647 0.235161
O O7 0.178213 0.148859 0.301081
O O8 0.831367 0.266929 0.976808
O O9 0.607079 0.816546 0.674456
O O10 0.370808 0.732325 0.617610
O O11 0.006945 0.308278 0.439719
O O12 0.055028 0.112682 0.410341
O O13 0.001067 0.500000 0.513999
#
# Coordination Sequence:
#
# PCOD9132781 Si02
#       7
#     2   2   4   4   4   2   4
#     4  12  24  40  63  96 125 163 212 261 316 369
#     4  10  22  38  67  88 119 163 216 261 300 369
#     4  10  23  42  63  94 121 165 216 256 312 372
#     4  11  26  40  65  94 128 165 211 260 316 374
#     4  10  23  42  66  89 129 167 212 257 318 368
#     4  10  20  42  68  84 116 172 214 260 304 362
#     4  11  24  43  65  93 126 168 210 260 317 374
#
# _framework density 19.927129999999998
#
# number of rings (size 3 to 8) (size 9 to 14) (size 15 to 20)
#    0.000    1.455    2.727    1.091   11.455    0.000 
#    1.636    0.000    0.000    0.000    0.000    0.000 
#    0.000    0.000    0.000    0.000    0.000    0.000 
#
# Total GULP energy -61467.615214 kJ/mol
# GULP energy per Si atom -5587.965019 kJ/mol
# Density = 1.988178 g / cm^3
# Si number density = 19.927130 Si / 1000 Ang^3
#
#
#
# Elastic Constant Matrix: (Units=GPa)
#
#
# Indices 1 2 3 4 5 6 
#
# 1 105.2741 45.5828 28.6629 -0.0024 -27.1841 -0.0016
# 2 45.5828 96.9577 26.4256 0.0138 -18.1403 0.0192
# 3 28.6629 26.4256 73.9547 0.0020 -37.5143 0.0092
# 4 -0.0024 0.0138 0.0020 8.5587 -0.0011 -6.5340
# 5 -27.1841 -18.1403 -37.5143 -0.0011 41.9955 0.0032
# 6 -0.0016 0.0192 0.0092 -6.5340 0.0032 21.7002
#
#
#
# Elastic Compliance Matrix: (Units=1/GPa)
#
#
# Indices 1 2 3 4 5 6 
#
# 1 0.013365 -0.005055 -0.000170 0.000021 0.006316 0.000011
# 2 -0.005055 0.013468 -0.002856 -0.000040 -0.000006 -0.000023
# 3 -0.000170 -0.002856 0.025466 -0.000010 0.021405 -0.000014
# 4 0.000021 -0.000040 -0.000010 0.151716 -0.000012 0.045682
# 5 0.006316 -0.000006 0.021405 -0.000012 0.047019 -0.000019
# 6 0.000011 -0.000023 -0.000014 0.045682 -0.000019 0.059838
#
#
# Mechanical properties :
#
#
# Convention : Reuss Voigt Hill
#
# Bulk Modulus (GPa) = 27.67280 53.05879 40.36579
# Shear Modulus (GPa) = 14.74581 26.15188 20.44884
#
# Velocity S-wave (km/s) = 2.72322 3.62660 3.20688
# Velocity P-wave (km/s) = 4.87904 6.64985 5.83205
#
# Compressibility (1/GPa) = 0.03613657
#
# Stress axis : x y z
#
# Youngs Moduli (GPa) = 74.82168 74.25151 39.26784
#
# Poissons Ratio (x) = 0.37537 0.00666
# Poissons Ratio (y) = 0.37825 0.11216
# Poissons Ratio (z) = 0.01269 0.21207
#
# Static dielectric constant tensor:
#      x y z
#    x 1.703090 0.000000 -0.026700 
#    y 0.000000 1.675070 0.000000 
#    z -0.026700 0.000000 1.710560 
# 
# From -- ./inp_files/25985.got.cif
#   From: 2010.05.17/outbox.cif.g08.bks.cpg/sg8_13_cif.got.tgz:25985.got - 2010.06.03 19:46:02.
