data_PCOD9132994
_publ_section_title
;
Structure prediction by ZEFSAII (Michael W. Deem and Ramdas Pophale) SiO2 
 PCOD9132994
Probable space group: C M
;
_chemical_formula_sum "Si O2"
_cell_formula_units_Z 20
_cell_length_a 9.055098
_cell_length_b 17.887765
_cell_length_c 7.415113
_cell_angle_alpha 90.000000
_cell_angle_beta 130.664334
_cell_angle_gamma 90.000000
_cell_volume 911.057026
_symmetry_space_group_name_H-M "C M"
_symmetry_group_IT_number 8
_symmetry_cell_setting 'monoclinic'
loop_
_space_group_symop_operation_xyz
x,y,z
x,-y,z
1/2+x,1/2+y,z
1/2+x,1/2-y,z
loop_
_atom_site_type_symbol
_atom_site_label
_atom_site_fract_x
_atom_site_fract_y
_atom_site_fract_z
Si Si1 0.758690 0.587635 0.145200
Si Si2 0.275556 0.691841 0.282132
Si Si3 0.941881 0.812751 0.026191
Si Si4 0.992024 0.315368 0.615970
Si Si5 0.963946 0.587642 0.950803
O O1 0.793714 0.500000 0.204186
O O2 0.905138 0.638975 0.377669
O O3 0.545342 0.612619 0.038288
O O4 0.797625 0.603266 0.965703
O O5 0.389701 0.734201 0.530222
O O6 0.418146 0.688123 0.224218
O O7 0.092010 0.747171 0.095747
O O8 0.166716 0.613029 0.208315
O O9 0.722415 0.805553 0.785222
O O10 0.944790 0.365677 0.752431
O O11 0.966586 0.500000 0.912416
#
# Coordination Sequence:
#
# PCOD9132994 Si02
#       5
#     4   4   4   4   4
#     4  10  22  41  64  96 134 170 217 271 321 384
#     4  10  21  39  63  95 126 165 218 267 314 382
#     4  10  22  38  63  93 127 168 216 266 318 380
#     4  10  22  42  67  92 129 177 214 261 330 386
#     4  10  22  42  68  98 132 170 215 267 324 388
#
# _framework density 21.952521999999998
#
# number of rings (size 3 to 8) (size 9 to 14) (size 15 to 20)
#    0.000    2.000    0.000    3.000    0.000   13.600 
#    0.000   14.000    0.000   13.200    0.000    4.200 
#    0.000    0.000    0.000    0.000    0.000    0.000 
#
# Total GULP energy -55875.724066 kJ/mol
# GULP energy per Si atom -5587.572407 kJ/mol
# Density = 2.190256 g / cm^3
# Si number density = 21.952522 Si / 1000 Ang^3
#
#
#
# Elastic Constant Matrix: (Units=GPa)
#
#
# Indices 1 2 3 4 5 6 
#
# 1 150.1830 48.3996 34.1951 0.0000 -14.3899 0.0000
# 2 48.3996 57.6926 22.6299 0.0000 -13.3036 0.0000
# 3 34.1951 22.6299 93.7749 0.0000 12.4591 0.0000
# 4 0.0000 0.0000 0.0000 39.2041 0.0000 -2.9397
# 5 -14.3899 -13.3036 12.4591 0.0000 30.8302 0.0000
# 6 0.0000 0.0000 0.0000 -2.9397 0.0000 33.9572
#
#
#
# Elastic Compliance Matrix: (Units=1/GPa)
#
#
# Indices 1 2 3 4 5 6 
#
# 1 0.009510 -0.006521 -0.002230 0.000000 0.002526 0.000000
# 2 -0.006521 0.027666 -0.005791 0.000000 0.011235 0.000000
# 3 -0.002230 -0.005791 0.014102 0.000000 -0.009239 0.000000
# 4 0.000000 0.000000 0.000000 0.025674 0.000000 0.002223
# 5 0.002526 0.011235 -0.009239 0.000000 0.042196 0.000000
# 6 0.000000 0.000000 0.000000 0.002223 0.000000 0.029641
#
#
# Mechanical properties :
#
#
# Convention : Reuss Voigt Hill
#
# Bulk Modulus (GPa) = 45.05713 56.89996 50.97855
# Shear Modulus (GPa) = 26.98746 33.89337 30.44041
#
# Velocity S-wave (km/s) = 3.51002 3.93356 3.72781
# Velocity P-wave (km/s) = 6.08246 6.82689 6.46540
#
# Compressibility (1/GPa) = 0.02219405
#
# Stress axis : x y z
#
# Youngs Moduli (GPa) = 105.15547 36.14526 70.91227
#
# Poissons Ratio (x) = 0.23570 0.15811
# Poissons Ratio (y) = 0.68571 0.41067
# Poissons Ratio (z) = 0.23447 0.20933
#
# Static dielectric constant tensor:
#      x y z
#    x 1.794240 0.000000 -0.017080 
#    y 0.000000 1.818940 0.000000 
#    z -0.017080 0.000000 1.843620 
# 
# From -- ./inp_files/8229.got.cif
#   From: 2010.05.17/outbox.cif.g08.bks.cpg/sg8_5_cif.got.tgz:8229.got - 2010.06.03 19:46:02.
