data_PCOD9132594
_publ_section_title
;
Structure prediction by ZEFSAII (Michael W. Deem and Ramdas Pophale) SiO2 
 PCOD9132594
Probable space group: C M
;
_chemical_formula_sum "Si O2"
_cell_formula_units_Z 28
_cell_length_a 5.075613
_cell_length_b 17.417216
_cell_length_c 17.046106
_cell_angle_alpha 90.000000
_cell_angle_beta 119.923100
_cell_angle_gamma 90.000000
_cell_volume 1306.047784
_symmetry_space_group_name_H-M "C M"
_symmetry_group_IT_number 8
_symmetry_cell_setting 'monoclinic'
loop_
_space_group_symop_operation_xyz
x,y,z
x,-y,z
1/2+x,1/2+y,z
1/2+x,1/2-y,z
loop_
_atom_site_type_symbol
_atom_site_label
_atom_site_fract_x
_atom_site_fract_y
_atom_site_fract_z
Si Si1 0.509920 0.591435 0.205420
Si Si2 0.163200 0.588776 0.488027
Si Si3 0.486713 0.194021 0.584241
Si Si4 0.716860 0.908309 0.320448
Si Si5 0.227124 0.302717 0.034326
Si Si6 0.314186 0.803215 0.829897
Si Si7 0.294310 0.088089 0.680000
O O1 0.449759 0.500000 0.193860
O O2 0.427073 0.619817 0.280956
O O3 0.313470 0.635583 0.112200
O O4 0.866713 0.602877 0.243183
O O5 0.058321 0.500000 0.467170
O O6 0.230686 0.620733 0.411719
O O7 0.475506 0.589644 0.584444
O O8 0.923166 0.640260 0.499478
O O9 0.745422 0.249634 0.588896
O O10 0.534788 0.131597 0.659919
O O11 0.774578 0.000000 0.335930
O O12 0.530275 0.265718 0.043251
O O13 0.019127 0.333600 0.932287
O O14 0.511684 0.734756 0.819859
O O15 0.263587 0.865970 0.755859
O O16 0.379062 0.000000 0.704575
#
# Coordination Sequence:
#
# PCOD9132594 Si02
#       7
#     4   4   4   4   4   4   4
#     4  10  20  37  63  91 118 156 203 251 302 359
#     4  10  23  42  64  91 125 167 214 259 304 361
#     4  12  24  41  60  84 121 164 206 251 305 363
#     4   9  20  37  61  89 121 160 202 247 304 363
#     4  10  21  40  64  89 121 160 198 245 310 371
#     4  10  23  42  64  89 121 164 204 244 311 380
#     4  11  24  41  65  95 126 163 211 263 306 355
#
# _framework density 21.438725000000002
#
# number of rings (size 3 to 8) (size 9 to 14) (size 15 to 20)
#    0.000    1.714    1.429    2.143    4.000    0.571 
#    0.000    4.286    0.000    5.143    0.000    0.000 
#    0.000    0.000    0.000    0.000    0.000    0.000 
#
# Total GULP energy -78245.108970 kJ/mol
# GULP energy per Si atom -5588.936355 kJ/mol
# Density = 2.138993 g / cm^3
# Si number density = 21.438725 Si / 1000 Ang^3
#
#
#
# Elastic Constant Matrix: (Units=GPa)
#
#
# Indices 1 2 3 4 5 6 
#
# 1 96.2067 12.2109 14.1494 0.0000 -19.5730 0.0000
# 2 12.2109 65.8051 33.1629 0.0000 -2.9209 0.0000
# 3 14.1494 33.1629 123.4210 0.0000 -8.3149 0.0000
# 4 0.0000 0.0000 0.0000 36.5155 0.0000 -14.6778
# 5 -19.5730 -2.9209 -8.3149 0.0000 26.4652 0.0000
# 6 0.0000 0.0000 0.0000 -14.6778 0.0000 5.2699
#
#
#
# Elastic Compliance Matrix: (Units=1/GPa)
#
#
# Indices 1 2 3 4 5 6 
#
# 1 0.012484 -0.001737 -0.000363 0.000000 0.008927 0.000000
# 2 -0.001737 0.017824 -0.004642 0.000000 -0.000776 0.000000
# 3 -0.000363 -0.004642 0.009541 0.000000 0.002217 0.000000
# 4 0.000000 0.000000 0.000000 -0.229072 0.000000 -0.638019
# 5 0.008927 -0.000776 0.002217 0.000000 0.044999 0.000000
# 6 0.000000 0.000000 0.000000 -0.638019 0.000000 -1.587272
#
#
# Mechanical properties :
#
#
# Convention : Reuss Voigt Hill
#
# Bulk Modulus (GPa) = 37.93127 44.94214 41.43670
# Shear Modulus (GPa) = -2.92531 28.71076 12.89272
#
# Velocity S-wave (km/s) = -1.16938 3.66348 2.45496
# Velocity P-wave (km/s) = 3.98848 6.23725 5.23504
#
# Compressibility (1/GPa) = 0.02636347
#
# Stress axis : x y z
#
# Youngs Moduli (GPa) = 80.09959 56.10452 104.81423
#
# Poissons Ratio (x) = 0.09748 0.03804
# Poissons Ratio (y) = 0.13917 0.48658
# Poissons Ratio (z) = 0.02907 0.26046
#
# Static dielectric constant tensor:
#      x y z
#    x 1.818950 0.000000 0.025220 
#    y 0.000000 1.768750 0.000000 
#    z 0.025220 0.000000 1.802420 
# 
# From -- ./inp_files/24945.got.cif
#   From: 2010.05.17/outbox.cif.g08.bks.cpg/sg8_13_cif.got.tgz:24945.got - 2010.06.03 19:46:02.
