data_PCOD9132442
_publ_section_title
;
Structure prediction by ZEFSAII (Michael W. Deem and Ramdas Pophale) SiO2 
 PCOD9132442
Probable space group: C M
;
_chemical_formula_sum "Si O2"
_cell_formula_units_Z 32
_cell_length_a 14.474109
_cell_length_b 8.094876
_cell_length_c 12.458450
_cell_angle_alpha 90.000000
_cell_angle_beta 90.744041
_cell_angle_gamma 90.000000
_cell_volume 1459.585140
_symmetry_space_group_name_H-M "C M"
_symmetry_group_IT_number 8
_symmetry_cell_setting 'monoclinic'
loop_
_space_group_symop_operation_xyz
x,y,z
x,-y,z
1/2+x,1/2+y,z
1/2+x,1/2-y,z
loop_
_atom_site_type_symbol
_atom_site_label
_atom_site_fract_x
_atom_site_fract_y
_atom_site_fract_z
Si Si1 0.044790 0.692280 0.741770
Si Si2 0.805254 0.803821 0.563806
Si Si3 0.171728 0.699871 0.375116
Si Si4 0.907085 0.306836 0.014008
Si Si5 0.008581 0.696854 0.507056
Si Si6 0.108944 0.806884 0.956078
Si Si7 0.742826 0.699599 0.144445
Si Si8 0.344635 0.308833 0.794126
O O1 0.016735 0.500000 0.750334
O O2 0.068180 0.720437 0.617898
O O3 0.954020 0.800126 0.764786
O O4 0.115852 0.725510 0.838560
O O5 0.739163 0.737416 0.470319
O O6 0.797608 0.737691 0.685706
O O7 0.910015 0.778209 0.524849
O O8 0.788262 0.000000 0.573965
O O9 0.171882 0.500000 0.379170
O O10 0.068866 0.754585 0.407459
O O11 0.207492 0.750573 0.259989
O O12 0.928528 0.500000 0.026757
O O13 0.843114 0.285487 0.906683
O O14 0.845987 0.246483 0.112833
O O15 0.003304 0.216701 0.994454
O O16 0.992699 0.500000 0.497097
O O17 0.174011 0.738341 0.050419
O O18 0.127387 0.000000 0.942749
O O19 0.743032 0.500000 0.139553
O O20 0.318757 0.500000 0.810321
#
# Coordination Sequence:
#
# PCOD9132442 Si02
#       8
#     4   4   4   4   4   4   4   4
#     4   9  16  29  52  81 110 137 169 209 258 315
#     4   9  19  35  55  80 109 139 171 213 262 311
#     4  10  22  39  56  76 104 139 181 222 259 306
#     4  10  20  36  56  79 108 139 173 215 263 312
#     4   9  19  35  55  80 109 139 171 213 262 311
#     4  10  20  36  56  79 108 139 173 215 263 312
#     4  10  24  41  54  74 106 141 179 222 263 308
#     4   9  16  29  52  81 110 137 169 209 258 315
#
# _framework density 21.924036999999998
#
# number of rings (size 3 to 8) (size 9 to 14) (size 15 to 20)
#    0.000    2.500    0.000    3.000    0.000    6.000 
#    0.000    6.250    0.000    0.000    0.000    0.000 
#    0.000    0.000    0.000    0.000    0.000    0.000 
#
# Total GULP energy -89307.054705 kJ/mol
# GULP energy per Si atom -5581.690919 kJ/mol
# Density = 2.187414 g / cm^3
# Si number density = 21.924037 Si / 1000 Ang^3
#
#
#
# Elastic Constant Matrix: (Units=GPa)
#
#
# Indices 1 2 3 4 5 6 
#
# 1 53.3143 -2.7326 24.8253 0.0000 -9.7024 0.0000
# 2 -2.7326 28.7988 -2.8847 0.0000 -2.0463 0.0000
# 3 24.8253 -2.8847 67.6021 0.0000 -22.2707 0.0000
# 4 0.0000 0.0000 0.0000 30.7190 0.0000 0.1246
# 5 -9.7024 -2.0463 -22.2707 0.0000 39.4005 0.0000
# 6 0.0000 0.0000 0.0000 0.1246 0.0000 16.9560
#
#
#
# Elastic Compliance Matrix: (Units=1/GPa)
#
#
# Indices 1 2 3 4 5 6 
#
# 1 0.022722 0.001453 -0.007882 0.000000 0.001216 0.000000
# 2 0.001453 0.035310 0.002083 0.000000 0.003369 0.000000
# 3 -0.007882 0.002083 0.021101 0.000000 0.010095 0.000000
# 4 0.000000 0.000000 0.000000 0.032554 0.000000 -0.000239
# 5 0.001216 0.003369 0.010095 0.000000 0.031561 0.000000
# 6 0.000000 0.000000 0.000000 -0.000239 0.000000 0.058978
#
#
# Mechanical properties :
#
#
# Convention : Reuss Voigt Hill
#
# Bulk Modulus (GPa) = 14.19610 20.90344 17.54977
# Shear Modulus (GPa) = 21.33123 26.11557 23.72340
#
# Velocity S-wave (km/s) = 3.12262 3.45510 3.29306
# Velocity P-wave (km/s) = 4.41477 5.04699 4.74143
#
# Compressibility (1/GPa) = 0.07044190
#
# Stress axis : x y z
#
# Youngs Moduli (GPa) = 44.00924 28.32090 47.39054
#
# Poissons Ratio (x) = -0.04115 0.37352
# Poissons Ratio (y) = -0.06394 -0.09872
# Poissons Ratio (z) = 0.34687 -0.05899
#
# Static dielectric constant tensor:
#      x y z
#    x 1.847790 0.000000 0.011980 
#    y 0.000000 1.767720 0.000000 
#    z 0.011980 0.000000 1.815070 
# 
# From -- ./inp_files/22773.got.cif
#   From: 2010.05.17/outbox.cif.g08.bks.cpg/sg8_12_cif.got.tgz:22773.got - 2010.06.03 19:46:02.
