data_PCOD9132010
_publ_section_title
;
Structure prediction by ZEFSAII (Michael W. Deem and Ramdas Pophale) SiO2 
 PCOD9132010
Probable space group: C M
;
_chemical_formula_sum "Si O2"
_cell_formula_units_Z 32
_cell_length_a 21.790998
_cell_length_b 8.297255
_cell_length_c 19.498516
_cell_angle_alpha 90.000000
_cell_angle_beta 158.262085
_cell_angle_gamma 90.000000
_cell_volume 1305.686692
_symmetry_space_group_name_H-M "C M"
_symmetry_group_IT_number 8
_symmetry_cell_setting 'monoclinic'
loop_
_space_group_symop_operation_xyz
x,y,z
x,-y,z
1/2+x,1/2+y,z
1/2+x,1/2-y,z
loop_
_atom_site_type_symbol
_atom_site_label
_atom_site_fract_x
_atom_site_fract_y
_atom_site_fract_z
Si Si1 0.935630 0.308970 0.524980
Si Si2 0.915549 0.186069 0.973627
Si Si3 0.093110 0.188419 0.563030
Si Si4 0.826236 0.687527 0.627657
Si Si5 0.642975 0.186228 0.313958
Si Si6 0.554518 0.194778 0.983207
Si Si7 0.656628 0.810416 0.874602
Si Si8 0.367110 0.696902 0.212733
O O1 0.955450 0.500000 0.532257
O O2 0.773287 0.285283 0.402604
O O3 0.944328 0.212698 0.463389
O O4 0.087075 0.246957 0.730771
O O5 0.744274 0.227509 0.758283
O O6 0.045323 0.229493 0.048157
O O7 0.920382 0.000000 0.995552
O O8 0.966847 0.278063 0.096058
O O9 0.029475 0.248958 0.423006
O O10 0.132872 0.000000 0.597781
O O11 0.781343 0.500000 0.588269
O O12 0.682966 0.767824 0.433858
O O13 0.894270 0.746343 0.771413
O O14 0.993771 0.695661 0.754872
O O15 0.682324 0.000000 0.346082
O O16 0.548721 0.000000 0.982973
O O17 0.714814 0.237327 0.105405
O O18 0.692135 0.000000 0.899968
O O19 0.806865 0.742006 0.075995
O O20 0.373773 0.500000 0.215710
#
# Coordination Sequence:
#
# PCOD9132010 Si02
#       8
#     4   4   4   4   4   4   4   4
#     4  10  19  34  57  83 110 140 176 219 269 324
#     4  12  25  39  53  73 107 148 189 232 278 325
#     4  11  22  36  54  77 107 143 183 226 272 321
#     4   8  15  30  54  83 112 139 171 216 270 325
#     4  11  21  35  57  83 110 141 182 229 275 323
#     4   9  17  34  60  86 110 138 175 219 270 329
#     4   7  12  26  50  79 106 132 166 208 253 308
#     4   8  15  30  55  82 104 131 170 213 257 311
#
# _framework density 24.508175999999999
#
# number of rings (size 3 to 8) (size 9 to 14) (size 15 to 20)
#    0.000    2.500    0.000    6.000    0.000    1.500 
#    0.000    1.875    0.000   13.500    0.000    0.000 
#    0.000    0.000    0.000    0.000    0.000    0.000 
#
# Total GULP energy -89421.349182 kJ/mol
# GULP energy per Si atom -5588.834324 kJ/mol
# Density = 2.445239 g / cm^3
# Si number density = 24.508176 Si / 1000 Ang^3
#
#
#
# Elastic Constant Matrix: (Units=GPa)
#
#
# Indices 1 2 3 4 5 6 
#
# 1 88.7668 1.1560 33.9517 0.0002 -25.4788 0.0001
# 2 1.1560 36.0209 10.5892 0.0003 -8.2167 0.0002
# 3 33.9517 10.5892 181.9476 0.0004 -33.2903 0.0003
# 4 0.0002 0.0003 0.0004 22.1792 0.0001 0.3927
# 5 -25.4788 -8.2167 -33.2903 0.0001 56.6669 0.0001
# 6 0.0001 0.0002 0.0003 0.3927 0.0001 11.2386
#
#
#
# Elastic Compliance Matrix: (Units=1/GPa)
#
#
# Indices 1 2 3 4 5 6 
#
# 1 0.013370 0.001240 -0.001607 0.000000 0.005247 0.000000
# 2 0.001240 0.028996 -0.001174 0.000000 0.004072 -0.000001
# 3 -0.001607 -0.001174 0.006388 0.000000 0.002860 0.000000
# 4 0.000000 0.000000 0.000000 0.045115 0.000000 -0.001576
# 5 0.005247 0.004072 0.002860 0.000000 0.022277 0.000000
# 6 0.000000 -0.000001 0.000000 -0.001576 0.000000 0.089034
#
#
# Mechanical properties :
#
#
# Convention : Reuss Voigt Hill
#
# Bulk Modulus (GPa) = 21.89504 44.23655 33.06580
# Shear Modulus (GPa) = 22.37287 35.41950 28.89618
#
# Velocity S-wave (km/s) = 3.02466 3.80572 3.43744
# Velocity P-wave (km/s) = 4.59905 6.11557 5.41070
#
# Compressibility (1/GPa) = 0.04567244
#
# Stress axis : x y z
#
# Youngs Moduli (GPa) = 74.79377 34.48760 156.55551
#
# Poissons Ratio (x) = -0.04277 0.25158
# Poissons Ratio (y) = -0.09277 0.18377
# Poissons Ratio (z) = 0.12019 0.04048
#
# Static dielectric constant tensor:
#      x y z
#    x 2.003890 0.000000 0.067730 
#    y 0.000000 1.828680 0.000000 
#    z 0.067730 0.000000 2.029870 
# 
# From -- ./inp_files/32670.got.cif
#   From: 2010.05.17/outbox.cif.g08.bks.cpg/sg8_17_cif.got.tgz:32670.got - 2010.06.03 19:46:02.
