data_PCOD9132350
_publ_section_title
;
Structure prediction by ZEFSAII (Michael W. Deem and Ramdas Pophale) SiO2 
 PCOD9132350
Probable space group: C M
;
_chemical_formula_sum "Si O2"
_cell_formula_units_Z 32
_cell_length_a 23.054121
_cell_length_b 8.344102
_cell_length_c 28.379701
_cell_angle_alpha 90.000000
_cell_angle_beta 162.095198
_cell_angle_gamma 90.000000
_cell_volume 1678.383620
_symmetry_space_group_name_H-M "C M"
_symmetry_group_IT_number 8
_symmetry_cell_setting 'monoclinic'
loop_
_space_group_symop_operation_xyz
x,y,z
x,-y,z
1/2+x,1/2+y,z
1/2+x,1/2-y,z
loop_
_atom_site_type_symbol
_atom_site_label
_atom_site_fract_x
_atom_site_fract_y
_atom_site_fract_z
Si Si1 0.766470 0.803953 0.038750
Si Si2 0.559809 0.306533 0.594899
Si Si3 0.829612 0.806494 0.980123
Si Si4 0.506373 0.806830 0.658947
Si Si5 0.844780 0.306257 0.735304
Si Si6 0.243976 0.691898 0.276819
Si Si7 0.085376 0.806403 0.358285
Si Si8 0.030054 0.309649 0.420733
O O1 0.932470 0.750285 0.201822
O O2 0.766925 0.000000 0.039216
O O3 0.800829 0.751565 0.011654
O O4 0.559732 0.752186 0.896338
O O5 0.560406 0.500000 0.597478
O O6 0.558672 0.240441 0.646385
O O7 0.737713 0.255352 0.700297
O O8 0.373662 0.256032 0.421573
O O9 0.661964 0.748640 0.816540
O O10 0.823259 0.000000 0.975660
O O11 0.033407 0.754828 0.119106
O O12 0.296097 0.748438 0.508886
O O13 0.503034 0.000000 0.659196
O O14 0.843357 0.500000 0.733567
O O15 0.715762 0.250264 0.592135
O O16 0.242664 0.500000 0.275335
O O17 0.352605 0.750306 0.314303
O O18 0.030231 0.756032 0.368126
O O19 0.087951 0.000000 0.358503
O O20 0.030391 0.500000 0.420155
#
# Coordination Sequence:
#
# PCOD9132350 Si02
#       8
#     4   4   4   4   4   4   4   4
#     4   9  18  34  59  83 107 143 186 225 266 318
#     4   9  19  34  54  79 108 141 182 226 269 317
#     4  10  20  35  55  82 111 142 182 228 270 316
#     4  10  21  35  55  81 112 147 182 221 270 323
#     4   9  18  36  58  81 110 146 183 221 265 320
#     4  10  21  38  58  80 107 144 183 223 270 324
#     4  10  20  36  57  81 108 145 186 223 267 323
#     4  11  22  36  56  83 111 142 178 223 273 323
#
# _framework density 19.065961999999999
#
# number of rings (size 3 to 8) (size 9 to 14) (size 15 to 20)
#    0.000    2.250    0.000    3.750    0.000    7.500 
#    0.000    4.375    0.000    0.000    0.000    0.000 
#    0.000    0.000    0.000    0.000    0.000    0.000 
#
# Total GULP energy -89348.655286 kJ/mol
# GULP energy per Si atom -5584.290955 kJ/mol
# Density = 1.902257 g / cm^3
# Si number density = 19.065962 Si / 1000 Ang^3
#
#
#
# Elastic Constant Matrix: (Units=GPa)
#
#
# Indices 1 2 3 4 5 6 
#
# 1 180.9643 14.3769 128.6992 0.0025 -17.4774 0.0024
# 2 14.3769 10.6220 23.1339 -0.0018 -1.2258 0.0038
# 3 128.6992 23.1339 208.5836 0.0532 7.3131 0.0057
# 4 0.0025 -0.0018 0.0532 20.0391 0.0019 -0.0789
# 5 -17.4774 -1.2258 7.3131 0.0019 24.6632 0.0025
# 6 0.0024 0.0038 0.0057 -0.0789 0.0025 29.5229
#
#
#
# Elastic Compliance Matrix: (Units=1/GPa)
#
#
# Indices 1 2 3 4 5 6 
#
# 1 0.012291 0.002700 -0.008279 0.000020 0.011299 -0.000001
# 2 0.002700 0.127396 -0.016253 0.000053 0.013064 -0.000014
# 3 -0.008279 -0.016253 0.012065 -0.000031 -0.010252 0.000001
# 4 0.000020 0.000053 -0.000031 0.049903 0.000022 0.000133
# 5 0.011299 0.013064 -0.010252 0.000022 0.052242 -0.000005
# 6 -0.000001 -0.000014 0.000001 0.000133 -0.000005 0.033872
#
#
# Mechanical properties :
#
#
# Convention : Reuss Voigt Hill
#
# Bulk Modulus (GPa) = 9.25186 81.39887 45.32536
# Shear Modulus (GPa) = 13.60679 30.44238 22.02459
#
# Velocity S-wave (km/s) = 2.67436 4.00019 3.40248
# Velocity P-wave (km/s) = 3.79465 8.00758 6.26581
#
# Compressibility (1/GPa) = 0.10808641
#
# Stress axis : x y z
#
# Youngs Moduli (GPa) = 81.36252 7.84951 82.88661
#
# Poissons Ratio (x) = -0.02119 0.68623
# Poissons Ratio (y) = -0.21966 1.34718
# Poissons Ratio (z) = 0.67361 0.12758
#
# Static dielectric constant tensor:
#      x y z
#    x 1.632480 0.000000 0.004640 
#    y 0.000000 1.662790 -0.000010 
#    z 0.004640 -0.000010 1.653730 
# 
# From -- ./inp_files/33034.got.cif
#   From: 2010.05.17/outbox.cif.g08.bks.cpg/sg8_17_cif.got.tgz:33034.got - 2010.06.03 19:46:02.
