data_PCOD9132570
_publ_section_title
;
Structure prediction by ZEFSAII (Michael W. Deem and Ramdas Pophale) SiO2 
 PCOD9132570
Probable space group: C M
;
_chemical_formula_sum "Si O2"
_cell_formula_units_Z 28
_cell_length_a 5.215664
_cell_length_b 33.219650
_cell_length_c 8.846532
_cell_angle_alpha 90.000000
_cell_angle_beta 55.292478
_cell_angle_gamma 90.000000
_cell_volume 1260.045243
_symmetry_space_group_name_H-M "C M"
_symmetry_group_IT_number 8
_symmetry_cell_setting 'monoclinic'
loop_
_space_group_symop_operation_xyz
x,y,z
x,-y,z
1/2+x,1/2+y,z
1/2+x,1/2-y,z
loop_
_atom_site_type_symbol
_atom_site_label
_atom_site_fract_x
_atom_site_fract_y
_atom_site_fract_z
Si Si1 0.513780 0.081380 0.494480
Si Si2 0.292599 0.670456 0.724065
Si Si3 0.842289 0.349099 0.320572
Si Si4 0.683468 0.626341 0.837940
Si Si5 0.155652 0.000000 0.137037
Si Si6 0.609659 0.224480 0.047434
Si Si7 0.414237 0.000000 0.378143
Si Si8 0.154256 0.086168 0.146135
O O1 0.460172 0.122537 0.417262
O O2 0.403857 0.091673 0.696930
O O3 0.876151 0.073789 0.351004
O O4 0.352063 0.041446 0.486503
O O5 0.516957 0.668676 0.501378
O O6 0.435847 0.637441 0.792372
O O7 0.935286 0.661031 0.796568
O O8 0.295036 0.708810 0.835725
O O9 0.037185 0.312181 0.186641
O O10 0.822439 0.380201 0.187960
O O11 0.533767 0.609196 0.038952
O O12 0.214540 0.000000 0.295682
O O13 0.298903 0.956405 0.045442
O O14 0.788906 0.000000 0.212887
O O15 0.798261 0.256950 0.080564
#
# Coordination Sequence:
#
# PCOD9132570 Si02
#       8
#     4   4   4   4   2   4   2   4
#     4  10  22  39  64  97 132 177 218 266 316 379
#     4  11  24  44  65  97 126 166 214 267 317 391
#     4  11  23  41  73  92 128 171 221 254 327 393
#     4  11  23  37  67  95 126 172 221 259 317 374
#     4  10  22  35  60  95 131 175 214 271 315 363
#     4  12  28  45  68  98 131 164 209 274 335 385
#     4  10  20  37  60  91 137 171 216 265 319 361
#     4  11  21  39  65  93 134 171 222 263 316 378
#
# _framework density 22.221425
#
# number of rings (size 3 to 8) (size 9 to 14) (size 15 to 20)
#    0.000    1.143    4.286    1.714    2.000    1.714 
#    0.000    0.000    0.000    5.143    0.000    0.000 
#    0.000    0.000    0.000    0.000    0.000    0.000 
#
# Total GULP energy -78032.029903 kJ/mol
# GULP energy per Si atom -5573.716422 kJ/mol
# Density = 2.217085 g / cm^3
# Si number density = 22.221425 Si / 1000 Ang^3
#
#
#
# Elastic Constant Matrix: (Units=GPa)
#
#
# Indices 1 2 3 4 5 6 
#
# 1 57.6869 7.2993 12.1808 0.0000 10.7914 0.0000
# 2 7.2993 89.2254 19.2383 0.0000 5.0443 0.0000
# 3 12.1808 19.2383 86.1805 0.0000 0.9863 0.0000
# 4 0.0000 0.0000 0.0000 12.5813 0.0000 9.2184
# 5 10.7914 5.0443 0.9863 0.0000 24.5152 0.0000
# 6 0.0000 0.0000 0.0000 9.2184 0.0000 38.3474
#
#
#
# Elastic Compliance Matrix: (Units=1/GPa)
#
#
# Indices 1 2 3 4 5 6 
#
# 1 0.019508 -0.000577 -0.002533 0.000000 -0.008367 0.000000
# 2 -0.000577 0.011924 -0.002556 0.000000 -0.002097 0.000000
# 3 -0.002533 -0.002556 0.012519 0.000000 0.001137 0.000000
# 4 0.000000 0.000000 0.000000 0.096476 0.000000 -0.023192
# 5 -0.008367 -0.002097 0.001137 0.000000 0.044860 0.000000
# 6 0.000000 0.000000 0.000000 -0.023192 0.000000 0.031652
#
#
# Mechanical properties :
#
#
# Convention : Reuss Voigt Hill
#
# Bulk Modulus (GPa) = 30.65634 34.50328 32.57981
# Shear Modulus (GPa) = 20.90783 28.04707 24.47745
#
# Velocity S-wave (km/s) = 3.07071 3.55655 3.32252
# Velocity P-wave (km/s) = 5.13792 5.69439 5.42330
#
# Compressibility (1/GPa) = 0.03261968
#
# Stress axis : x y z
#
# Youngs Moduli (GPa) = 51.26136 83.86098 79.87732
#
# Poissons Ratio (x) = 0.04837 0.20231
# Poissons Ratio (y) = 0.02957 0.20420
# Poissons Ratio (z) = 0.12983 0.21438
#
# Static dielectric constant tensor:
#      x y z
#    x 1.856140 0.000000 -0.047270 
#    y 0.000000 1.923920 0.000000 
#    z -0.047270 0.000000 1.805050 
# 
# From -- ./inp_files/7126.got.cif
#   From: 2010.05.17/outbox.cif.g08.bks.cpg/sg8_4_cif.got.tgz:7126.got - 2010.06.03 19:46:02.
