data_PCOD9132905
_publ_section_title
;
Structure prediction by ZEFSAII (Michael W. Deem and Ramdas Pophale) SiO2 
 PCOD9132905
Probable space group: C M
;
_chemical_formula_sum "Si O2"
_cell_formula_units_Z 26
_cell_length_a 9.796908
_cell_length_b 7.446398
_cell_length_c 22.436854
_cell_angle_alpha 90.000000
_cell_angle_beta 41.275885
_cell_angle_gamma 90.000000
_cell_volume 1079.777112
_symmetry_space_group_name_H-M "C M"
_symmetry_group_IT_number 8
_symmetry_cell_setting 'monoclinic'
loop_
_space_group_symop_operation_xyz
x,y,z
x,-y,z
1/2+x,1/2+y,z
1/2+x,1/2-y,z
loop_
_atom_site_type_symbol
_atom_site_label
_atom_site_fract_x
_atom_site_fract_y
_atom_site_fract_z
Si Si1 0.694240 0.796214 0.405770
Si Si2 0.891775 0.500000 0.255109
Si Si3 0.666674 0.216233 0.989718
Si Si4 0.252297 0.715815 0.520721
Si Si5 0.714440 0.704571 0.104206
Si Si6 0.859240 0.781987 0.801767
Si Si7 0.295154 0.791861 0.692867
O O1 0.762977 0.656325 0.333950
O O2 0.445161 0.791088 0.493604
O O3 0.789467 0.746620 0.438532
O O4 0.756648 0.000000 0.371173
O O5 0.033762 0.343023 0.176570
O O6 0.765753 0.291930 0.016990
O O7 0.422540 0.259912 0.070354
O O8 0.685138 0.000000 0.985157
O O9 0.760250 0.278015 0.896384
O O10 0.252586 0.500000 0.528496
O O11 0.023572 0.787498 0.610188
O O12 0.662628 0.500000 0.138241
O O13 0.747137 0.718068 0.779096
O O14 0.098066 0.716692 0.722923
O O15 0.858019 0.000000 0.801641
O O16 0.310943 0.000000 0.670306
#
# Coordination Sequence:
#
# PCOD9132905 Si02
#       7
#     4   2   4   4   4   4   4
#     4  11  25  45  69  97 129 177 215 272 335 393
#     4  12  26  48  68  98 132 166 224 280 330 394
#     4  10  22  43  65  96 138 174 219 271 327 388
#     4  10  22  43  64  96 138 172 220 272 325 390
#     4  11  25  44  68  98 129 177 217 271 333 394
#     4  10  21  38  62  97 135 172 216 268 312 378
#     4  10  21  37  62  97 133 173 217 265 314 381
#
# _framework density 24.079042000000001
#
# number of rings (size 3 to 8) (size 9 to 14) (size 15 to 20)
#    0.000    1.538    1.538    2.308    2.154    4.308 
#    0.000    0.000    0.000    0.000    0.000    0.000 
#    0.000    0.000    0.000    0.000    0.000    0.000 
#
# Total GULP energy -72509.969113 kJ/mol
# GULP energy per Si atom -5577.689932 kJ/mol
# Density = 2.402424 g / cm^3
# Si number density = 24.079042 Si / 1000 Ang^3
#
#
#
# Elastic Constant Matrix: (Units=GPa)
#
#
# Indices 1 2 3 4 5 6 
#
# 1 88.9194 -4.7217 -11.2805 0.0000 10.1153 0.0000
# 2 -4.7217 97.8414 26.7727 0.0000 -0.0603 0.0000
# 3 -11.2805 26.7727 73.8487 0.0000 -11.4215 0.0000
# 4 0.0000 0.0000 0.0000 44.8203 0.0000 4.8421
# 5 10.1153 -0.0603 -11.4215 0.0000 -30.8367 0.0000
# 6 0.0000 0.0000 0.0000 4.8421 0.0000 1.3557
#
#
#
# Elastic Compliance Matrix: (Units=1/GPa)
#
#
# Indices 1 2 3 4 5 6 
#
# 1 0.011193 -0.000052 0.002172 0.000000 0.002867 0.000000
# 2 -0.000052 0.011281 -0.003882 0.000000 0.001398 0.000000
# 3 0.002172 -0.003882 0.014558 0.000000 -0.004672 0.000000
# 4 0.000000 0.000000 0.000000 0.036329 0.000000 -0.129750
# 5 0.002867 0.001398 -0.004672 0.000000 -0.029761 0.000000
# 6 0.000000 0.000000 0.000000 -0.129750 0.000000 1.201015
#
#
# Mechanical properties :
#
#
# Convention : Reuss Voigt Hill
#
# Bulk Modulus (GPa) = 29.84378 31.35007 30.59693
# Shear Modulus (GPa) = 3.97044 19.72380 11.84712
#
# Velocity S-wave (km/s) = 1.28550 2.86514 2.22054
# Velocity P-wave (km/s) = 3.82418 4.89830 4.39418
#
# Compressibility (1/GPa) = 0.03350782
#
# Stress axis : x y z
#
# Youngs Moduli (GPa) = 89.34344 88.64412 68.69252
#
# Poissons Ratio (x) = 0.00465 -0.14921
# Poissons Ratio (y) = 0.00469 0.26663
# Poissons Ratio (z) = -0.19407 0.34407
#
# Static dielectric constant tensor:
#      x y z
#    x 1.868530 0.000000 -0.014380 
#    y 0.000000 1.869330 0.000000 
#    z -0.014380 0.000000 1.945270 
# 
# From -- ./inp_files/30304.got.cif
#   From: 2010.05.17/outbox.cif.g08.bks.cpg/sg8_16_cif.got.tgz:30304.got - 2010.06.03 19:46:02.
