data_PCOD9132169
_publ_section_title
;
Structure prediction by ZEFSAII (Michael W. Deem and Ramdas Pophale) SiO2 
 PCOD9132169
Probable space group: C M
;
_chemical_formula_sum "Si O2"
_cell_formula_units_Z 32
_cell_length_a 9.126872
_cell_length_b 18.508953
_cell_length_c 11.519401
_cell_angle_alpha 90.000000
_cell_angle_beta 127.319587
_cell_angle_gamma 90.000000
_cell_volume 1547.555644
_symmetry_space_group_name_H-M "C M"
_symmetry_group_IT_number 8
_symmetry_cell_setting 'monoclinic'
loop_
_space_group_symop_operation_xyz
x,y,z
x,-y,z
1/2+x,1/2+y,z
1/2+x,1/2-y,z
loop_
_atom_site_type_symbol
_atom_site_label
_atom_site_fract_x
_atom_site_fract_y
_atom_site_fract_z
Si Si1 0.319470 0.211668 0.484260
Si Si2 0.242422 0.702736 0.683311
Si Si3 0.831185 0.686491 0.138335
Si Si4 0.826920 0.664472 0.868860
Si Si5 0.224057 0.363597 0.345089
Si Si6 0.192199 0.416748 0.065718
Si Si7 0.528875 0.336844 0.184142
Si Si8 0.464250 0.582781 0.666413
O O1 0.266005 0.244791 0.582602
O O2 0.527431 0.184422 0.590233
O O3 0.307814 0.282399 0.394029
O O4 0.172001 0.156665 0.360267
O O5 0.305971 0.752604 0.820160
O O6 0.365502 0.633346 0.714809
O O7 0.655046 0.679002 0.133941
O O8 0.900891 0.768245 0.154134
O O9 0.009320 0.645630 0.276890
O O10 0.800885 0.657449 0.994474
O O11 0.660822 0.619225 0.733524
O O12 0.027247 0.632618 0.937629
O O13 0.224285 0.394118 0.215732
O O14 0.336467 0.409998 0.491107
O O15 0.137811 0.500000 0.033264
O O16 0.387099 0.401458 0.099087
O O17 0.484823 0.500000 0.711089
#
# Coordination Sequence:
#
# PCOD9132169 Si02
#       8
#     4   4   4   4   4   4   4   4
#     4  10  19  36  64  99 122 158 213 281 308 385
#     4  11  21  38  65  94 129 164 217 262 329 380
#     4  10  22  37  65  94 119 165 215 271 309 386
#     4  11  24  42  65  91 127 176 222 260 316 398
#     4   9  18  40  66  94 124 169 216 267 332 390
#     4  11  24  41  63  92 133 174 220 270 328 391
#     4  11  21  37  64  91 129 155 218 268 326 365
#     4  11  23  39  66  97 133 169 217 273 336 393
#
# _framework density 20.677769999999999
#
# number of rings (size 3 to 8) (size 9 to 14) (size 15 to 20)
#    0.000    1.500    2.500    6.000    3.500    0.000 
#    0.000    5.625    0.000    0.750    0.000    0.000 
#    0.000    0.000    0.000    0.000    0.000    0.000 
#
# Total GULP energy -89434.932836 kJ/mol
# GULP energy per Si atom -5589.683302 kJ/mol
# Density = 2.063071 g / cm^3
# Si number density = 20.677770 Si / 1000 Ang^3
#
#
#
# Elastic Constant Matrix: (Units=GPa)
#
#
# Indices 1 2 3 4 5 6 
#
# 1 106.8736 21.2124 27.4135 0.0000 21.2026 0.0000
# 2 21.2124 68.7713 24.6936 0.0000 19.9803 0.0000
# 3 27.4135 24.6936 85.9801 0.0000 21.8150 0.0000
# 4 0.0000 0.0000 0.0000 10.7686 0.0000 -0.1086
# 5 21.2026 19.9803 21.8150 0.0000 34.0815 0.0000
# 6 0.0000 0.0000 0.0000 -0.1086 0.0000 15.7269
#
#
#
# Elastic Compliance Matrix: (Units=1/GPa)
#
#
# Indices 1 2 3 4 5 6 
#
# 1 0.011079 -0.001306 -0.001914 0.000000 -0.004902 0.000000
# 2 -0.001306 0.018306 -0.002775 0.000000 -0.008143 0.000000
# 3 -0.001914 -0.002775 0.014712 0.000000 -0.006600 0.000000
# 4 0.000000 0.000000 0.000000 0.092869 0.000000 0.000641
# 5 -0.004902 -0.008143 -0.006600 0.000000 0.041389 0.000000
# 6 0.000000 0.000000 0.000000 0.000641 0.000000 0.063590
#
#
# Mechanical properties :
#
#
# Convention : Reuss Voigt Hill
#
# Bulk Modulus (GPa) = 31.14463 45.36265 38.25364
# Shear Modulus (GPa) = 18.89372 24.66910 21.78141
#
# Velocity S-wave (km/s) = 3.02606 3.45777 3.24909
# Velocity P-wave (km/s) = 5.22532 6.15849 5.71100
#
# Compressibility (1/GPa) = 0.03210826
#
# Stress axis : x y z
#
# Youngs Moduli (GPa) = 90.25707 54.62671 67.97076
#
# Poissons Ratio (x) = 0.07135 0.13007
# Poissons Ratio (y) = 0.11788 0.18862
# Poissons Ratio (z) = 0.17272 0.15159
#
# Static dielectric constant tensor:
#      x y z
#    x 1.759100 0.000000 -0.009870 
#    y 0.000000 1.722310 0.000000 
#    z -0.009870 0.000000 1.782010 
# 
# From -- ./inp_files/19276.got.cif
#   From: 2010.05.17/outbox.cif.g08.bks.cpg/sg8_10_cif.got.tgz:19276.got - 2010.06.03 19:46:02.
