data_PCOD9132640
_publ_section_title
;
Structure prediction by ZEFSAII (Michael W. Deem and Ramdas Pophale) SiO2 
 PCOD9132640
Probable space group: C M
;
_chemical_formula_sum "Si O2"
_cell_formula_units_Z 24
_cell_length_a 14.898027
_cell_length_b 8.344098
_cell_length_c 15.669535
_cell_angle_alpha 90.000000
_cell_angle_beta 148.453146
_cell_angle_gamma 90.000000
_cell_volume 1019.127169
_symmetry_space_group_name_H-M "C M"
_symmetry_group_IT_number 8
_symmetry_cell_setting 'monoclinic'
loop_
_space_group_symop_operation_xyz
x,y,z
x,-y,z
1/2+x,1/2+y,z
1/2+x,1/2-y,z
loop_
_atom_site_type_symbol
_atom_site_label
_atom_site_fract_x
_atom_site_fract_y
_atom_site_fract_z
Si Si1 0.595120 0.308723 0.692820
Si Si2 0.838777 0.813106 0.325757
Si Si3 0.272262 0.185974 0.096040
Si Si4 0.061479 0.190914 0.221330
Si Si5 0.891369 0.306009 0.822504
Si Si6 0.807102 0.690003 0.572052
O O1 0.598710 0.500000 0.712505
O O2 0.473966 0.283152 0.511133
O O3 0.782983 0.250945 0.816574
O O4 0.497274 0.224138 0.690294
O O5 0.869550 0.715477 0.264728
O O6 0.651434 0.773666 0.213588
O O7 0.848584 0.000000 0.310798
O O8 0.370906 0.269444 0.097937
O O9 0.261341 0.000000 0.067419
O O10 0.084880 0.252992 0.965814
O O11 0.176840 0.252226 0.395249
O O12 0.082207 0.000000 0.227924
O O13 0.886849 0.500000 0.820785
O O14 0.795248 0.249149 0.658378
O O15 0.777955 0.500000 0.551988
#
# Coordination Sequence:
#
# PCOD9132640 Si02
#       6
#     4   4   4   4   4   4
#     4   9  19  36  60  85 109 140 182 228 279 332
#     4  10  20  38  62  87 113 145 185 233 282 333
#     4  12  25  38  54  82 116 154 193 230 276 332
#     4  10  20  38  62  87 113 145 185 233 282 333
#     4  10  21  38  56  78 112 152 185 224 278 334
#     4   9  19  36  60  85 109 140 182 228 279 332
#
# _framework density 23.549562999999999
#
# number of rings (size 3 to 8) (size 9 to 14) (size 15 to 20)
#    0.000    2.000    0.000    3.500    0.000    6.667 
#    0.000    5.000    0.000    0.000    0.000    0.000 
#    0.000    0.000    0.000    0.000    0.000    0.000 
#
# Total GULP energy -67103.229912 kJ/mol
# GULP energy per Si atom -5591.935826 kJ/mol
# Density = 2.349596 g / cm^3
# Si number density = 23.549563 Si / 1000 Ang^3
#
#
#
# Elastic Constant Matrix: (Units=GPa)
#
#
# Indices 1 2 3 4 5 6 
#
# 1 118.2622 -2.5438 11.7707 0.0000 20.6515 0.0000
# 2 -2.5438 14.4356 -4.2072 0.0001 -0.8593 0.0000
# 3 11.7707 -4.2072 56.6776 0.0001 20.5551 0.0000
# 4 0.0000 0.0001 0.0001 18.5489 0.0000 4.2227
# 5 20.6515 -0.8593 20.5551 0.0000 40.8189 0.0000
# 6 0.0000 0.0000 0.0000 4.2227 0.0000 28.8931
#
#
#
# Elastic Compliance Matrix: (Units=1/GPa)
#
#
# Indices 1 2 3 4 5 6 
#
# 1 0.009303 0.001317 -0.000168 0.000000 -0.004594 0.000000
# 2 0.001317 0.071058 0.005751 0.000000 -0.002066 0.000000
# 3 -0.000168 0.005751 0.022059 0.000000 -0.010902 0.000000
# 4 0.000000 0.000000 0.000000 0.055767 0.000000 -0.008150
# 5 -0.004594 -0.002066 -0.010902 0.000000 0.032269 0.000000
# 6 0.000000 0.000000 0.000000 -0.008150 0.000000 0.035802
#
#
# Mechanical properties :
#
#
# Convention : Reuss Voigt Hill
#
# Bulk Modulus (GPa) = 8.60443 22.15721 15.38082
# Shear Modulus (GPa) = 19.90451 29.94256 24.92353
#
# Velocity S-wave (km/s) = 2.91042 3.56964 3.25675
# Velocity P-wave (km/s) = 3.86726 5.13993 4.54833
#
# Compressibility (1/GPa) = 0.11621920
#
# Stress axis : x y z
#
# Youngs Moduli (GPa) = 107.49069 14.07301 45.33232
#
# Poissons Ratio (x) = -0.01853 0.00762
# Poissons Ratio (y) = -0.14155 -0.26069
# Poissons Ratio (z) = 0.01807 -0.08093
#
# Static dielectric constant tensor:
#      x y z
#    x 1.883320 0.000000 -0.010480 
#    y 0.000000 1.798610 0.000000 
#    z -0.010480 0.000000 2.000810 
# 
# From -- ./inp_files/12067.got.cif
#   From: 2010.05.17/outbox.cif.g08.bks.cpg/sg8_7_cif.got.tgz:12067.got - 2010.06.03 19:46:02.
