data_PCOD9132258
_publ_section_title
;
Structure prediction by ZEFSAII (Michael W. Deem and Ramdas Pophale) SiO2 
 PCOD9132258
Probable space group: C M
;
_chemical_formula_sum "Si O2"
_cell_formula_units_Z 32
_cell_length_a 22.698821
_cell_length_b 7.620833
_cell_length_c 11.528513
_cell_angle_alpha 90.000000
_cell_angle_beta 49.948984
_cell_angle_gamma 90.000000
_cell_volume 1526.540167
_symmetry_space_group_name_H-M "C M"
_symmetry_group_IT_number 8
_symmetry_cell_setting 'monoclinic'
loop_
_space_group_symop_operation_xyz
x,y,z
x,-y,z
1/2+x,1/2+y,z
1/2+x,1/2-y,z
loop_
_atom_site_type_symbol
_atom_site_label
_atom_site_fract_x
_atom_site_fract_y
_atom_site_fract_z
Si Si1 0.161790 0.791205 0.538060
Si Si2 0.461426 0.296979 0.149992
Si Si3 0.507455 0.787460 0.593729
Si Si4 0.121431 0.784940 0.844085
Si Si5 0.195336 0.788293 0.989064
Si Si6 0.351157 0.784855 0.914590
Si Si7 0.033378 0.292996 0.300960
Si Si8 0.810518 0.702437 0.221314
O O1 0.084231 0.765056 0.564060
O O2 0.149825 0.722420 0.683564
O O3 0.235085 0.717233 0.376135
O O4 0.174773 0.000000 0.535107
O O5 0.450936 0.500000 0.132783
O O6 0.487038 0.285403 0.251300
O O7 0.382082 0.206479 0.218244
O O8 0.534334 0.227493 0.984121
O O9 0.431332 0.726224 0.757293
O O10 0.511250 0.725047 0.455796
O O11 0.505912 0.000000 0.592534
O O12 0.174154 0.729881 0.885727
O O13 0.119971 0.000000 0.846278
O O14 0.277186 0.729296 0.933436
O O15 0.196283 0.000000 0.986725
O O16 0.123838 0.735421 0.160916
O O17 0.353550 0.000000 0.911014
O O18 0.337964 0.723688 0.063144
O O19 0.018044 0.500000 0.317497
O O20 0.790355 0.500000 0.220967
#
# Coordination Sequence:
#
# PCOD9132258 Si02
#       8
#     4   4   4   4   4   4   4   4
#     4  10  20  34  53  77 104 135 171 209 252 302
#     4  10  20  35  55  76 101 136 172 206 251 305
#     4  10  21  35  52  75 103 136 172 211 255 300
#     4   8  16  31  52  77 101 130 169 207 245 295
#     4   9  17  33  56  77 102 137 172 206 248 302
#     4   9  18  33  53  77 104 136 172 208 251 302
#     4  10  20  34  53  77 104 133 168 212 257 299
#     4  10  20  33  52  78 105 133 168 211 255 299
#
# _framework density 20.962437000000001
#
# number of rings (size 3 to 8) (size 9 to 14) (size 15 to 20)
#    0.000    2.500    0.000    3.000    0.000    3.500 
#    0.000    7.500    0.000    3.000    0.000    0.000 
#    0.000    0.000    0.000    0.000    0.000    0.000 
#
# Total GULP energy -89345.650779 kJ/mol
# GULP energy per Si atom -5584.103174 kJ/mol
# Density = 2.091473 g / cm^3
# Si number density = 20.962437 Si / 1000 Ang^3
#
#
#
# Elastic Constant Matrix: (Units=GPa)
#
#
# Indices 1 2 3 4 5 6 
#
# 1 117.9809 -10.1421 107.5511 0.0000 -14.2727 0.0000
# 2 -10.1421 42.2486 1.5599 0.0000 2.5757 0.0000
# 3 107.5511 1.5599 217.9724 0.0000 9.3566 0.0000
# 4 0.0000 0.0000 0.0000 6.3641 0.0000 -0.4873
# 5 -14.2727 2.5757 9.3566 0.0000 32.6899 0.0000
# 6 0.0000 0.0000 0.0000 -0.4873 0.0000 17.4803
#
#
#
# Elastic Compliance Matrix: (Units=1/GPa)
#
#
# Indices 1 2 3 4 5 6 
#
# 1 0.019327 0.004341 -0.010038 0.000000 0.010969 0.000000
# 2 0.004341 0.024761 -0.002346 0.000000 0.000616 0.000000
# 3 -0.010038 -0.002346 0.009859 0.000000 -0.007020 0.000000
# 4 0.000000 0.000000 0.000000 0.157469 0.000000 0.004390
# 5 0.010969 0.000616 -0.007020 0.000000 0.037340 0.000000
# 6 0.000000 0.000000 0.000000 0.004390 0.000000 0.057330
#
#
# Mechanical properties :
#
#
# Convention : Reuss Voigt Hill
#
# Bulk Modulus (GPa) = 26.41206 64.01554 45.21380
# Shear Modulus (GPa) = 14.93471 29.92239 22.42855
#
# Velocity S-wave (km/s) = 2.67207 3.78223 3.27454
# Velocity P-wave (km/s) = 4.70606 7.04828 5.99271
#
# Compressibility (1/GPa) = 0.03786149
#
# Stress axis : x y z
#
# Youngs Moduli (GPa) = 51.74128 40.38659 101.43176
#
# Poissons Ratio (x) = -0.17534 1.01819
# Poissons Ratio (y) = -0.22463 0.23794
# Poissons Ratio (z) = 0.51939 0.09474
#
# Static dielectric constant tensor:
#      x y z
#    x 1.706510 0.000000 0.013880 
#    y 0.000000 1.825440 0.000000 
#    z 0.013880 0.000000 1.744810 
# 
# From -- ./inp_files/23855.got.cif
#   From: 2010.05.17/outbox.cif.g08.bks.cpg/sg8_12_cif.got.tgz:23855.got - 2010.06.03 19:46:02.
