data_PCOD9132425
_publ_section_title
;
Structure prediction by ZEFSAII (Michael W. Deem and Ramdas Pophale) SiO2 
 PCOD9132425
Probable space group: C M
;
_chemical_formula_sum "Si O2"
_cell_formula_units_Z 32
_cell_length_a 32.657713
_cell_length_b 9.014447
_cell_length_c 12.551428
_cell_angle_alpha 90.000000
_cell_angle_beta 26.716465
_cell_angle_gamma 90.000000
_cell_volume 1661.195831
_symmetry_space_group_name_H-M "C M"
_symmetry_group_IT_number 8
_symmetry_cell_setting 'monoclinic'
loop_
_space_group_symop_operation_xyz
x,y,z
x,-y,z
1/2+x,1/2+y,z
1/2+x,1/2-y,z
loop_
_atom_site_type_symbol
_atom_site_label
_atom_site_fract_x
_atom_site_fract_y
_atom_site_fract_z
Si Si1 0.141550 0.676643 0.654220
Si Si2 0.819911 0.177084 0.844502
Si Si3 0.958147 0.823525 0.057346
Si Si4 0.756265 0.823002 0.596163
Si Si5 0.516299 0.322388 0.486902
Si Si6 0.705226 0.677221 0.932050
Si Si7 0.243862 0.171363 0.226538
Si Si8 0.946579 0.671320 0.856016
O O1 0.141051 0.500000 0.642020
O O2 0.209774 0.714626 0.591594
O O3 0.174288 0.752488 0.468973
O O4 0.042562 0.738421 0.912037
O O5 0.924750 0.212335 0.631904
O O6 0.784585 0.249633 0.818421
O O7 0.811150 0.000000 0.860038
O O8 0.757973 0.242357 0.083724
O O9 0.863265 0.790650 0.335955
O O10 0.972768 0.000000 0.024560
O O11 0.951772 0.766618 0.950723
O O12 0.712697 0.736709 0.795209
O O13 0.745435 0.000000 0.637528
O O14 0.515789 0.500000 0.507341
O O15 0.507108 0.238849 0.620568
O O16 0.608017 0.283357 0.211136
O O17 0.713743 0.500000 0.914676
O O18 0.219265 0.000000 0.263750
O O19 0.342751 0.175269 0.054161
O O20 0.970869 0.500000 0.821171
#
# Coordination Sequence:
#
# PCOD9132425 Si02
#       8
#     4   4   4   4   4   4   4   4
#     4  11  23  40  62  91 122 159 206 253 306 366
#     4  10  21  39  62  88 122 162 204 249 302 365
#     4  11  23  40  62  89 122 162 203 251 309 368
#     4  10  24  45  64  85 121 164 206 251 305 367
#     4   9  21  40  60  86 121 162 201 244 304 365
#     4  11  24  41  64  90 120 160 207 256 304 362
#     4  10  20  36  60  91 127 162 200 251 308 364
#     4  10  20  35  60  92 125 159 201 251 302 361
#
# _framework density 19.26323
#
# number of rings (size 3 to 8) (size 9 to 14) (size 15 to 20)
#    0.000    1.750    1.250    2.250    1.750    5.500 
#    0.000    3.750    0.000    0.000    0.000    0.000 
#    0.000    0.000    0.000    0.000    0.000    0.000 
#
# Total GULP energy -89448.921656 kJ/mol
# GULP energy per Si atom -5590.557604 kJ/mol
# Density = 1.921939 g / cm^3
# Si number density = 19.263230 Si / 1000 Ang^3
#
#
#
# Elastic Constant Matrix: (Units=GPa)
#
#
# Indices 1 2 3 4 5 6 
#
# 1 28.1492 12.0428 10.2599 0.0000 4.7945 0.0000
# 2 12.0428 45.0389 31.1196 0.0000 6.0588 0.0000
# 3 10.2599 31.1196 78.6731 0.0000 8.7502 0.0000
# 4 0.0000 0.0000 0.0000 31.8404 0.0000 5.1349
# 5 4.7945 6.0588 8.7502 0.0000 25.4047 0.0000
# 6 0.0000 0.0000 0.0000 5.1349 0.0000 34.0020
#
#
#
# Elastic Compliance Matrix: (Units=1/GPa)
#
#
# Indices 1 2 3 4 5 6 
#
# 1 0.040838 -0.009559 -0.000979 0.000000 -0.005090 0.000000
# 2 -0.009559 0.033051 -0.011595 0.000000 -0.002085 0.000000
# 3 -0.000979 -0.011595 0.017778 0.000000 -0.003173 0.000000
# 4 0.000000 0.000000 0.000000 0.032191 0.000000 -0.004861
# 5 -0.005090 -0.002085 -0.003173 0.000000 0.041914 0.000000
# 6 0.000000 0.000000 0.000000 -0.004861 0.000000 0.030144
#
#
# Mechanical properties :
#
#
# Convention : Reuss Voigt Hill
#
# Bulk Modulus (GPa) = 21.09602 28.74511 24.92057
# Shear Modulus (GPa) = 19.53271 24.81200 22.17235
#
# Velocity S-wave (km/s) = 3.18777 3.59283 3.39635
# Velocity P-wave (km/s) = 4.95221 5.67150 5.32402
#
# Compressibility (1/GPa) = 0.04740230
#
# Stress axis : x y z
#
# Youngs Moduli (GPa) = 24.48691 30.25629 56.24967
#
# Poissons Ratio (x) = 0.28921 0.05505
# Poissons Ratio (y) = 0.23406 0.65222
# Poissons Ratio (z) = 0.02396 0.35082
#
# Static dielectric constant tensor:
#      x y z
#    x 1.664590 0.000000 -0.034360 
#    y 0.000000 1.640180 0.000000 
#    z -0.034360 0.000000 1.656640 
# 
# From -- ./inp_files/24820.got.cif
#   From: 2010.05.17/outbox.cif.g08.bks.cpg/sg8_13_cif.got.tgz:24820.got - 2010.06.03 19:46:02.
