data_PCOD9132797
_publ_section_title
;
Structure prediction by ZEFSAII (Michael W. Deem and Ramdas Pophale) SiO2 
 PCOD9132797
Probable space group: C M
;
_chemical_formula_sum "Si O2"
_cell_formula_units_Z 32
_cell_length_a 5.333895
_cell_length_b 26.773996
_cell_length_c 12.113233
_cell_angle_alpha 90.000000
_cell_angle_beta 109.855723
_cell_angle_gamma 90.000000
_cell_volume 1627.046719
_symmetry_space_group_name_H-M "C M"
_symmetry_group_IT_number 8
_symmetry_cell_setting 'monoclinic'
loop_
_space_group_symop_operation_xyz
x,y,z
x,-y,z
1/2+x,1/2+y,z
1/2+x,1/2-y,z
loop_
_atom_site_type_symbol
_atom_site_label
_atom_site_fract_x
_atom_site_fract_y
_atom_site_fract_z
Si Si1 0.591730 0.057116 0.339570
Si Si2 0.861055 0.440539 0.697474
Si Si3 0.006884 0.280746 0.233224
Si Si4 0.273871 0.606430 0.589056
Si Si5 0.203938 0.282249 0.512044
Si Si6 0.875050 0.944857 0.167728
Si Si7 0.830839 0.554371 0.950285
Si Si8 0.720863 0.620772 0.122413
O O1 0.635845 0.087648 0.455964
O O2 0.844822 0.057002 0.295117
O O3 0.369917 0.081778 0.228169
O O4 0.532939 0.000000 0.359074
O O5 0.851294 0.500000 0.671131
O O6 0.573105 0.415560 0.631943
O O7 0.900620 0.434839 0.834879
O O8 0.097528 0.415386 0.662883
O O9 0.768821 0.240471 0.212562
O O10 0.871718 0.327899 0.154235
O O11 0.098239 0.294345 0.371832
O O12 0.269625 0.666376 0.583789
O O13 0.466520 0.248392 0.534946
O O14 0.940953 0.887987 0.139345
O O15 0.003350 0.000000 0.160294
O O16 0.594929 0.950410 0.062664
O O17 0.688642 0.500000 0.930765
O O18 0.683103 0.597725 0.995392
#
# Coordination Sequence:
#
# PCOD9132797 Si02
#       8
#     4   4   4   4   4   4   4   4
#     4  10  21  34  52  91 129 155 190 241 311 381
#     4  11  25  42  62  91 130 172 213 252 301 373
#     4  10  23  38  59  89 123 155 198 252 311 372
#     4  12  24  41  64  92 126 169 206 257 319 370
#     4  10  21  40  64  90 120 159 210 262 307 371
#     4   9  19  33  57  87 119 158 203 246 298 365
#     4   9  21  39  59  89 121 163 215 250 289 363
#     4  11  20  35  63  85 120 161 201 252 306 365
#
# _framework density 19.667536999999999
#
# number of rings (size 3 to 8) (size 9 to 14) (size 15 to 20)
#    0.000    1.750    1.250    3.750    7.000    1.000 
#    0.000    0.000    0.000    4.500    0.000    0.000 
#    0.000    0.000    0.000    0.000    0.000    0.000 
#
# Total GULP energy -89113.674528 kJ/mol
# GULP energy per Si atom -5569.604658 kJ/mol
# Density = 1.962277 g / cm^3
# Si number density = 19.667537 Si / 1000 Ang^3
#
#
#
# Elastic Constant Matrix: (Units=GPa)
#
#
# Indices 1 2 3 4 5 6 
#
# 1 43.0881 9.4046 -7.3312 0.0000 -7.1755 0.0000
# 2 9.4046 89.9826 14.5718 0.0000 -8.3006 0.0000
# 3 -7.3312 14.5718 57.1604 0.0000 -20.0141 0.0000
# 4 0.0000 0.0000 0.0000 22.8627 0.0000 9.0401
# 5 -7.1755 -8.3006 -20.0141 0.0000 21.8707 0.0000
# 6 0.0000 0.0000 0.0000 9.0401 0.0000 29.3800
#
#
#
# Elastic Compliance Matrix: (Units=1/GPa)
#
#
# Indices 1 2 3 4 5 6 
#
# 1 0.028754 -0.003083 0.010841 0.000000 0.018184 0.000000
# 2 -0.003083 0.012016 -0.003261 0.000000 0.000565 0.000000
# 3 0.010841 -0.003261 0.030207 0.000000 0.029962 0.000000
# 4 0.000000 0.000000 0.000000 0.049798 0.000000 -0.015323
# 5 0.018184 0.000565 0.029962 0.000000 0.079322 0.000000
# 6 0.000000 0.000000 0.000000 -0.015323 0.000000 0.038752
#
#
# Mechanical properties :
#
#
# Convention : Reuss Voigt Hill
#
# Bulk Modulus (GPa) = 12.50465 24.83573 18.67019
# Shear Modulus (GPa) = 19.49226 26.39507 22.94366
#
# Velocity S-wave (km/s) = 3.15157 3.66739 3.41922
# Velocity P-wave (km/s) = 4.42888 5.53066 5.01015
#
# Compressibility (1/GPa) = 0.07997027
#
# Stress axis : x y z
#
# Youngs Moduli (GPa) = 34.77770 83.22464 33.10469
#
# Poissons Ratio (x) = 0.25661 -0.35889
# Poissons Ratio (y) = 0.10723 0.10795
# Poissons Ratio (z) = -0.37702 0.27139
#
# Static dielectric constant tensor:
#      x y z
#    x 1.986470 0.000000 0.001040 
#    y 0.000000 1.717100 0.000000 
#    z 0.001040 0.000000 1.653040 
# 
# From -- ./inp_files/18189.got.cif
#   From: 2010.05.17/outbox.cif.g08.bks.cpg/sg8_10_cif.got.tgz:18189.got - 2010.06.03 19:46:02.
