data_PCOD9132033
_publ_section_title
;
Structure prediction by ZEFSAII (Michael W. Deem and Ramdas Pophale) SiO2 
 PCOD9132033
Probable space group: C M
;
_chemical_formula_sum "Si O2"
_cell_formula_units_Z 32
_cell_length_a 12.964838
_cell_length_b 15.790210
_cell_length_c 16.139628
_cell_angle_alpha 90.000000
_cell_angle_beta 152.321578
_cell_angle_gamma 90.000000
_cell_volume 1534.766281
_symmetry_space_group_name_H-M "C M"
_symmetry_group_IT_number 8
_symmetry_cell_setting 'monoclinic'
loop_
_space_group_symop_operation_xyz
x,y,z
x,-y,z
1/2+x,1/2+y,z
1/2+x,1/2-y,z
loop_
_atom_site_type_symbol
_atom_site_label
_atom_site_fract_x
_atom_site_fract_y
_atom_site_fract_z
Si Si1 0.519470 0.737803 0.404240
Si Si2 0.226478 0.408638 0.273980
Si Si3 0.520358 0.625375 0.622250
Si Si4 0.715280 0.407896 0.931120
Si Si5 0.147618 0.690751 0.670679
Si Si6 0.645362 0.276304 0.022479
Si Si7 0.486726 0.907150 0.862038
Si Si8 0.347472 0.903929 0.574247
O O1 0.353455 0.670752 0.328716
O O2 0.631516 0.790502 0.559667
O O3 0.357360 0.791874 0.231035
O O4 0.678004 0.674900 0.464857
O O5 0.305227 0.500000 0.298198
O O6 0.296274 0.405060 0.419996
O O7 0.965958 0.402930 0.075106
O O8 0.538205 0.726087 0.633385
O O9 0.733661 0.597641 0.717748
O O10 0.554243 0.594685 0.738520
O O11 0.692742 0.500000 0.957574
O O12 0.681765 0.327774 0.964557
O O13 0.009233 0.614645 0.611843
O O14 0.404356 0.691403 0.880914
O O15 0.614597 0.175310 0.985711
O O16 0.472446 0.902102 0.752323
O O17 0.576113 0.000000 0.949235
O O18 0.254870 0.000000 0.500744
#
# Coordination Sequence:
#
# PCOD9132033 Si02
#       8
#     4   4   4   4   4   4   4   4
#     4  11  23  39  65  93 122 166 211 267 323 384
#     4  10  19  34  58  89 120 150 192 259 320 368
#     4  10  19  35  63  88 123 155 193 254 323 374
#     4  11  24  37  58  91 124 163 213 258 309 379
#     4  10  23  42  62  91 126 169 208 259 322 388
#     4  11  24  41  62  89 128 176 215 262 317 390
#     4  10  19  37  63  94 124 156 202 261 324 381
#     4  11  22  41  68  97 131 171 217 272 330 390
#
# _framework density 20.850079000000001
#
# number of rings (size 3 to 8) (size 9 to 14) (size 15 to 20)
#    0.000    1.500    3.750    3.750    3.500    2.500 
#    0.000    0.625    0.000    0.000    0.000    0.000 
#    0.000    0.000    0.000    0.000    0.000    0.000 
#
# Total GULP energy -89268.300345 kJ/mol
# GULP energy per Si atom -5579.268772 kJ/mol
# Density = 2.080262 g / cm^3
# Si number density = 20.850079 Si / 1000 Ang^3
#
#
#
# Elastic Constant Matrix: (Units=GPa)
#
#
# Indices 1 2 3 4 5 6 
#
# 1 63.0954 37.7446 23.7205 -0.0055 -1.3579 -0.0008
# 2 37.7446 59.3862 10.0063 -0.0056 0.5732 -0.0064
# 3 23.7205 10.0063 87.6665 -0.0149 -17.6888 -0.0060
# 4 -0.0055 -0.0056 -0.0149 8.5459 -0.0039 17.7708
# 5 -1.3579 0.5732 -17.6888 -0.0039 23.2416 0.0029
# 6 -0.0008 -0.0064 -0.0060 17.7708 0.0029 -1.5786
#
#
#
# Elastic Compliance Matrix: (Units=1/GPa)
#
#
# Indices 1 2 3 4 5 6 
#
# 1 0.028231 -0.016863 -0.006258 -0.000006 -0.002698 0.000001
# 2 -0.016863 0.027343 0.001308 0.000010 -0.000664 0.000000
# 3 -0.006258 0.001308 0.015206 0.000004 0.011175 0.000011
# 4 -0.000006 0.000010 0.000004 0.004794 -0.000003 0.053967
# 5 -0.002698 -0.000664 0.011175 -0.000003 0.051390 0.000021
# 6 0.000001 0.000000 0.000011 0.053967 0.000021 -0.025952
#
#
# Mechanical properties :
#
#
# Convention : Reuss Voigt Hill
#
# Bulk Modulus (GPa) = 36.82834 39.23232 38.03033
# Shear Modulus (GPa) = 32.53330 15.28691 23.91011
#
# Velocity S-wave (km/s) = 3.95440 2.71067 3.39006
# Velocity P-wave (km/s) = 6.20899 5.35296 5.79680
#
# Compressibility (1/GPa) = 0.02715300
#
# Stress axis : x y z
#
# Youngs Moduli (GPa) = 35.42177 36.57306 65.76448
#
# Poissons Ratio (x) = 0.61672 0.41158
# Poissons Ratio (y) = 0.59730 -0.08600
# Poissons Ratio (z) = 0.22168 -0.04783
#
# Static dielectric constant tensor:
#      x y z
#    x 1.778110 0.000010 -0.007200 
#    y 0.000010 1.801080 0.000010 
#    z -0.007200 0.000010 1.775530 
# 
# From -- ./inp_files/26279.got.cif
#   From: 2010.05.17/outbox.cif.g08.bks.cpg/sg8_14_cif.got.tgz:26279.got - 2010.06.03 19:46:02.
