data_PCOD9132140
_publ_section_title
;
Structure prediction by ZEFSAII (Michael W. Deem and Ramdas Pophale) SiO2 
 PCOD9132140
Probable space group: C M
;
_chemical_formula_sum "Si O2"
_cell_formula_units_Z 24
_cell_length_a 8.208464
_cell_length_b 14.419940
_cell_length_c 8.012079
_cell_angle_alpha 90.000000
_cell_angle_beta 82.285834
_cell_angle_gamma 90.000000
_cell_volume 939.771639
_symmetry_space_group_name_H-M "C M"
_symmetry_group_IT_number 8
_symmetry_cell_setting 'monoclinic'
loop_
_space_group_symop_operation_xyz
x,y,z
x,-y,z
1/2+x,1/2+y,z
1/2+x,1/2-y,z
loop_
_atom_site_type_symbol
_atom_site_label
_atom_site_fract_x
_atom_site_fract_y
_atom_site_fract_z
Si Si1 0.668940 0.603572 0.557200
Si Si2 0.124042 0.693056 0.619651
Si Si3 0.603621 0.891676 0.288722
Si Si4 0.348814 0.400484 0.812340
Si Si5 0.498442 0.394249 0.216426
Si Si6 0.581907 0.221089 0.986755
O O1 0.751044 0.500000 0.551884
O O2 0.720628 0.710736 0.579497
O O3 0.533649 0.598837 0.725075
O O4 0.584641 0.610406 0.385572
O O5 0.041439 0.660028 0.462201
O O6 0.249627 0.612249 0.653383
O O7 0.020610 0.704911 0.805344
O O8 0.517232 0.847464 0.138883
O O9 0.802200 0.876697 0.261700
O O10 0.573942 0.000000 0.298010
O O11 0.304288 0.500000 0.894233
O O12 0.267928 0.319456 0.933096
O O13 0.521229 0.500000 0.154134
O O14 0.573459 0.320925 0.074711
#
# Coordination Sequence:
#
# PCOD9132140 Si02
#       6
#     4   4   4   4   4   4
#     4  10  19  36  60  83 109 146 187 227 270 326
#     4  10  21  34  55  86 114 141 179 232 275 320
#     4  11  21  37  61  82 110 147 184 227 273 323
#     4   9  19  36  56  81 110 140 183 226 265 322
#     4  10  20  36  58  85 110 143 188 228 270 326
#     4  10  22  33  54  89 113 139 181 232 275 321
#
# _framework density 25.538118999999998
#
# number of rings (size 3 to 8) (size 9 to 14) (size 15 to 20)
#    1.000    1.000    3.333    1.000    2.333    0.667 
#    0.000    0.000    0.000   12.000    0.000    0.000 
#    0.000    0.000    0.000    0.000    0.000    0.000 
#
# Total GULP energy -66891.007774 kJ/mol
# GULP energy per Si atom -5574.250648 kJ/mol
# Density = 2.547999 g / cm^3
# Si number density = 25.538119 Si / 1000 Ang^3
#
#
#
# Elastic Constant Matrix: (Units=GPa)
#
#
# Indices 1 2 3 4 5 6 
#
# 1 19.5587 25.7136 29.1549 0.0000 -3.5411 0.0000
# 2 25.7136 204.7496 89.8797 0.0000 -4.4862 0.0000
# 3 29.1549 89.8797 212.4172 0.0000 16.1411 0.0000
# 4 0.0000 0.0000 0.0000 9.4056 0.0000 2.9425
# 5 -3.5411 -4.4862 16.1411 0.0000 25.8113 0.0000
# 6 0.0000 0.0000 0.0000 2.9425 0.0000 -0.8695
#
#
#
# Elastic Compliance Matrix: (Units=1/GPa)
#
#
# Indices 1 2 3 4 5 6 
#
# 1 0.074092 -0.004921 -0.009233 0.000000 0.015083 0.000000
# 2 -0.004921 0.006518 -0.002223 0.000000 0.001848 0.000000
# 3 -0.009233 -0.002223 0.007393 0.000000 -0.006276 0.000000
# 4 0.000000 0.000000 0.000000 0.051644 0.000000 0.174772
# 5 0.015083 0.001848 -0.006276 0.000000 0.045058 0.000000
# 6 0.000000 0.000000 0.000000 0.174772 0.000000 -0.558658
#
#
# Mechanical properties :
#
#
# Convention : Reuss Voigt Hill
#
# Bulk Modulus (GPa) = 18.10017 80.69133 49.39575
# Shear Modulus (GPa) = -15.49033 26.33463 5.42215
#
# Velocity S-wave (km/s) = -2.46551 3.21470 1.45869
# Velocity P-wave (km/s) = 1.00104 6.74122 4.71391
#
# Compressibility (1/GPa) = 0.05524810
#
# Stress axis : x y z
#
# Youngs Moduli (GPa) = 13.49668 153.41114 135.27114
#
# Poissons Ratio (x) = 0.75498 1.24899
# Poissons Ratio (y) = 0.06642 0.30072
# Poissons Ratio (z) = 0.12462 0.34105
#
# Static dielectric constant tensor:
#      x y z
#    x 2.143470 0.000000 -0.004460 
#    y 0.000000 2.077020 0.000000 
#    z -0.004460 0.000000 2.061210 
# 
# From -- ./inp_files/10438.got.cif
#   From: 2010.05.17/outbox.cif.g08.bks.cpg/sg8_6_cif.got.tgz:10438.got - 2010.06.03 19:46:02.
