data_PCOD9132083
_publ_section_title
;
Structure prediction by ZEFSAII (Michael W. Deem and Ramdas Pophale) SiO2 
 PCOD9132083
Probable space group: C M
;
_chemical_formula_sum "Si O2"
_cell_formula_units_Z 32
_cell_length_a 34.377665
_cell_length_b 8.091512
_cell_length_c 13.007990
_cell_angle_alpha 90.000000
_cell_angle_beta 25.543064
_cell_angle_gamma 90.000000
_cell_volume 1560.214443
_symmetry_space_group_name_H-M "C M"
_symmetry_group_IT_number 8
_symmetry_cell_setting 'monoclinic'
loop_
_space_group_symop_operation_xyz
x,y,z
x,-y,z
1/2+x,1/2+y,z
1/2+x,1/2-y,z
loop_
_atom_site_type_symbol
_atom_site_label
_atom_site_fract_x
_atom_site_fract_y
_atom_site_fract_z
Si Si1 0.798260 0.201685 0.825720
Si Si2 0.264842 0.694456 0.486283
Si Si3 0.998914 0.802356 0.408894
Si Si4 0.131472 0.191618 0.634141
Si Si5 0.243086 0.308275 0.178820
Si Si6 0.438490 0.191770 0.765573
Si Si7 0.191930 0.299828 0.876706
Si Si8 0.955556 0.799314 0.948644
O O1 0.903171 0.252701 0.587616
O O2 0.748891 0.257276 0.840213
O O3 0.797865 0.000000 0.827536
O O4 0.746240 0.253169 0.053849
O O5 0.281827 0.500000 0.461099
O O6 0.186135 0.714890 0.591015
O O7 0.234955 0.762625 0.667776
O O8 0.357139 0.762190 0.217566
O O9 0.001277 0.730336 0.518750
O O10 0.995902 0.000000 0.423465
O O11 0.087964 0.750785 0.136273
O O12 0.183804 0.210252 0.401341
O O13 0.030704 0.251041 0.851628
O O14 0.129033 0.000000 0.669853
O O15 0.214628 0.500000 0.248664
O O16 0.347084 0.296482 0.968101
O O17 0.478432 0.233741 0.780977
O O18 0.413050 0.000000 0.823292
O O19 0.194812 0.500000 0.869440
O O20 0.956062 0.000000 0.941632
#
# Coordination Sequence:
#
# PCOD9132083 Si02
#       8
#     4   4   4   4   4   4   4   4
#     4   8  18  36  58  83 115 154 194 233 288 358
#     4  10  22  41  62  82 118 163 200 246 302 355
#     4  10  21  38  59  87 120 157 192 241 303 356
#     4  11  23  37  58  89 119 153 202 250 296 354
#     4  10  19  35  58  85 122 160 194 239 302 359
#     4  11  21  35  59  89 121 157 196 245 298 355
#     4  10  21  39  62  88 114 155 208 247 289 352
#     4  10  22  39  58  85 119 159 200 245 300 357
#
# _framework density 20.510000999999999
#
# number of rings (size 3 to 8) (size 9 to 14) (size 15 to 20)
#    0.000    2.000    1.250    3.000    1.750    2.500 
#    0.000    5.625    0.000    0.000    0.000    0.000 
#    0.000    0.000    0.000    0.000    0.000    0.000 
#
# Total GULP energy -89368.042825 kJ/mol
# GULP energy per Si atom -5585.502677 kJ/mol
# Density = 2.046332 g / cm^3
# Si number density = 20.510001 Si / 1000 Ang^3
#
#
#
# Elastic Constant Matrix: (Units=GPa)
#
#
# Indices 1 2 3 4 5 6 
#
# 1 102.7923 0.5938 28.8450 0.0000 8.4590 0.0000
# 2 0.5938 25.3983 1.4445 0.0000 1.8189 0.0000
# 3 28.8450 1.4445 38.5463 0.0000 7.6453 0.0000
# 4 0.0000 0.0000 0.0000 24.0579 0.0000 -0.5668
# 5 8.4590 1.8189 7.6453 0.0000 23.6247 0.0000
# 6 0.0000 0.0000 0.0000 -0.5668 0.0000 6.2053
#
#
#
# Elastic Compliance Matrix: (Units=1/GPa)
#
#
# Indices 1 2 3 4 5 6 
#
# 1 0.012369 0.000332 -0.008960 0.000000 -0.001555 0.000000
# 2 0.000332 0.039632 -0.001180 0.000000 -0.002788 0.000000
# 3 -0.008960 -0.001180 0.034235 0.000000 -0.007780 0.000000
# 4 0.000000 0.000000 0.000000 0.041656 0.000000 0.003805
# 5 -0.001555 -0.002788 -0.007780 0.000000 0.045618 0.000000
# 6 0.000000 0.000000 0.000000 0.003805 0.000000 0.161500
#
#
# Mechanical properties :
#
#
# Convention : Reuss Voigt Hill
#
# Bulk Modulus (GPa) = 15.01088 25.38930 20.20009
# Shear Modulus (GPa) = 13.26852 19.83447 16.55149
#
# Velocity S-wave (km/s) = 2.54624 3.11314 2.84385
# Velocity P-wave (km/s) = 3.99739 5.03270 4.54462
#
# Compressibility (1/GPa) = 0.06661835
#
# Stress axis : x y z
#
# Youngs Moduli (GPa) = 80.84967 25.23231 29.20987
#
# Poissons Ratio (x) = -0.00837 0.26171
# Poissons Ratio (y) = -0.02682 0.03448
# Poissons Ratio (z) = 0.72440 0.02978
#
# Static dielectric constant tensor:
#      x y z
#    x 1.720270 0.000000 -0.007580 
#    y 0.000000 1.718540 0.000000 
#    z -0.007580 0.000000 1.726190 
# 
# From -- ./inp_files/24812.got.cif
#   From: 2010.05.17/outbox.cif.g08.bks.cpg/sg8_13_cif.got.tgz:24812.got - 2010.06.03 19:46:02.
