data_PCOD9132448
_publ_section_title
;
Structure prediction by ZEFSAII (Michael W. Deem and Ramdas Pophale) SiO2 
 PCOD9132448
Probable space group: C M
;
_chemical_formula_sum "Si O2"
_cell_formula_units_Z 32
_cell_length_a 25.280517
_cell_length_b 7.582447
_cell_length_c 14.365634
_cell_angle_alpha 90.000000
_cell_angle_beta 150.619000
_cell_angle_gamma 90.000000
_cell_volume 1351.016944
_symmetry_space_group_name_H-M "C M"
_symmetry_group_IT_number 8
_symmetry_cell_setting 'monoclinic'
loop_
_space_group_symop_operation_xyz
x,y,z
x,-y,z
1/2+x,1/2+y,z
1/2+x,1/2-y,z
loop_
_atom_site_type_symbol
_atom_site_label
_atom_site_fract_x
_atom_site_fract_y
_atom_site_fract_z
Si Si1 0.073010 0.786879 0.813780
Si Si2 0.419846 0.705155 0.020293
Si Si3 0.138667 0.786387 0.717283
Si Si4 0.188997 0.798024 0.594788
Si Si5 0.343761 0.283565 0.501554
Si Si6 0.311245 0.705614 0.243037
Si Si7 0.879801 0.205681 0.155612
Si Si8 0.648828 0.799659 0.326298
O O1 0.062697 0.739288 0.687731
O O2 0.967587 0.731503 0.708950
O O3 0.081185 0.000000 0.829457
O O4 0.185148 0.713958 0.022945
O O5 0.390150 0.500000 0.983650
O O6 0.440016 0.776373 0.156612
O O7 0.530933 0.716692 0.135293
O O8 0.315499 0.795480 0.816700
O O9 0.126392 0.729316 0.591114
O O10 0.142671 0.000000 0.719151
O O11 0.255626 0.719580 0.930271
O O12 0.176723 0.703386 0.478332
O O13 0.154746 0.000000 0.525856
O O14 0.342560 0.500000 0.502598
O O15 0.321779 0.222745 0.362486
O O16 0.249662 0.220669 0.425135
O O17 0.344076 0.500000 0.299121
O O18 0.375604 0.783639 0.253010
O O19 0.909618 0.000000 0.212197
O O20 0.636469 0.000000 0.275422
#
# Coordination Sequence:
#
# PCOD9132448 Si02
#       8
#     4   4   4   4   4   4   4   4
#     4   9  17  33  55  78 103 133 166 208 259 312
#     4  10  20  36  57  82 109 140 175 217 267 319
#     4   8  15  28  51  79 105 130 163 206 258 316
#     4  10  20  36  57  82 109 140 175 217 267 319
#     4   9  20  36  53  73 101 137 178 215 254 304
#     4   9  17  33  55  78 103 133 166 208 259 312
#     4   8  15  28  51  79 105 130 163 206 258 316
#     4  11  23  38  53  75 107 145 186 225 260 306
#
# _framework density 23.685860000000002
#
# number of rings (size 3 to 8) (size 9 to 14) (size 15 to 20)
#    0.000    2.750    0.000    1.125    0.000    3.000 
#    0.000    9.375    0.000    0.000    0.000    0.000 
#    0.000    0.000    0.000    0.000    0.000    0.000 
#
# Total GULP energy -89308.896767 kJ/mol
# GULP energy per Si atom -5581.806048 kJ/mol
# Density = 2.363195 g / cm^3
# Si number density = 23.685860 Si / 1000 Ang^3
#
#
#
# Elastic Constant Matrix: (Units=GPa)
#
#
# Indices 1 2 3 4 5 6 
#
# 1 115.3937 3.6757 33.5879 0.0000 38.9392 0.0000
# 2 3.6757 55.8057 -5.4064 0.0000 2.8092 0.0000
# 3 33.5879 -5.4064 65.5064 0.0000 15.0734 0.0000
# 4 0.0000 0.0000 0.0000 14.7614 0.0000 1.1029
# 5 38.9392 2.8092 15.0734 0.0000 42.6528 0.0000
# 6 0.0000 0.0000 0.0000 1.1029 0.0000 9.4109
#
#
#
# Elastic Compliance Matrix: (Units=1/GPa)
#
#
# Indices 1 2 3 4 5 6 
#
# 1 0.013675 -0.000801 -0.004591 0.000000 -0.010810 0.000000
# 2 -0.000801 0.018249 0.002204 0.000000 -0.001249 0.000000
# 3 -0.004591 0.002204 0.018364 0.000000 -0.002444 0.000000
# 4 0.000000 0.000000 0.000000 0.068343 0.000000 -0.008010
# 5 -0.010810 -0.001249 -0.002444 0.000000 0.034260 0.000000
# 6 0.000000 0.000000 0.000000 -0.008010 0.000000 0.107199
#
#
# Mechanical properties :
#
#
# Convention : Reuss Voigt Hill
#
# Bulk Modulus (GPa) = 22.77250 33.38001 28.07625
# Shear Modulus (GPa) = 17.78718 27.02159 22.40438
#
# Velocity S-wave (km/s) = 2.74334 3.38128 3.07888
# Velocity P-wave (km/s) = 4.43507 5.41918 4.95163
#
# Compressibility (1/GPa) = 0.04391262
#
# Stress axis : x y z
#
# Youngs Moduli (GPa) = 73.12392 54.79883 54.45480
#
# Poissons Ratio (x) = 0.04391 0.24999
# Poissons Ratio (y) = 0.05860 -0.12004
# Poissons Ratio (z) = 0.33569 -0.12080
#
# Static dielectric constant tensor:
#      x y z
#    x 1.928120 0.000000 0.007990 
#    y 0.000000 1.974710 0.000000 
#    z 0.007990 0.000000 1.912540 
# 
# From -- ./inp_files/26548.got.cif
#   From: 2010.05.17/outbox.cif.g08.bks.cpg/sg8_14_cif.got.tgz:26548.got - 2010.06.03 19:46:02.
