data_PCOD9132587
_publ_section_title
;
Structure prediction by ZEFSAII (Michael W. Deem and Ramdas Pophale) SiO2 
 PCOD9132587
Probable space group: C M
;
_chemical_formula_sum "Si O2"
_cell_formula_units_Z 32
_cell_length_a 16.679243
_cell_length_b 15.312022
_cell_length_c 12.336738
_cell_angle_alpha 90.000000
_cell_angle_beta 152.735048
_cell_angle_gamma 90.000000
_cell_volume 1443.361464
_symmetry_space_group_name_H-M "C M"
_symmetry_group_IT_number 8
_symmetry_cell_setting 'monoclinic'
loop_
_space_group_symop_operation_xyz
x,y,z
x,-y,z
1/2+x,1/2+y,z
1/2+x,1/2-y,z
loop_
_atom_site_type_symbol
_atom_site_label
_atom_site_fract_x
_atom_site_fract_y
_atom_site_fract_z
Si Si1 0.134220 0.896526 0.907150
Si Si2 0.925493 0.107581 0.163855
Si Si3 0.507891 0.893941 0.259333
Si Si4 0.171880 0.600145 0.044209
Si Si5 0.794199 0.598070 0.571598
Si Si6 0.262072 0.338172 0.377092
Si Si7 0.159128 0.394381 0.669156
Si Si8 0.289150 0.145011 0.325690
O O1 0.952628 0.850604 0.659341
O O2 0.110852 0.000000 0.859909
O O3 0.306717 0.868148 0.045134
O O4 0.183733 0.884399 0.093122
O O5 0.804876 0.138868 0.117266
O O6 0.121582 0.141656 0.411334
O O7 0.935034 0.000000 0.176699
O O8 0.834320 0.133118 0.941514
O O9 0.604906 0.857561 0.270908
O O10 0.624987 0.868707 0.504713
O O11 0.508105 0.000000 0.252251
O O12 0.144547 0.500000 0.973512
O O13 0.247678 0.600351 0.254886
O O14 0.980259 0.642678 0.813471
O O15 0.805697 0.500000 0.632614
O O16 0.762555 0.592726 0.404769
O O17 0.245776 0.242838 0.306770
O O18 0.154058 0.500000 0.665693
O O19 0.992744 0.363064 0.538109
#
# Coordination Sequence:
#
# PCOD9132587 Si02
#       8
#     4   4   4   4   4   4   4   4
#     4  10  23  45  72  96 124 176 233 272 314 385
#     4   9  18  33  61  94 115 151 210 265 313 364
#     4   9  20  41  66  93 125 168 224 273 317 382
#     4  10  21  39  61  86 126 166 204 256 315 388
#     4  10  20  37  62  91 119 159 211 261 312 377
#     4  12  26  41  62  97 135 172 210 262 337 396
#     4   9  17  37  66  94 126 167 219 275 319 373
#     4  11  23  39  62  95 133 165 209 270 330 379
#
# _framework density 22.170470000000002
#
# number of rings (size 3 to 8) (size 9 to 14) (size 15 to 20)
#    0.000    2.000    1.250    3.000    3.500    1.000 
#    6.750    2.500    0.000    0.000    0.000    0.000 
#    0.000    0.000    0.000    0.000    0.000    0.000 
#
# Total GULP energy -89376.229024 kJ/mol
# GULP energy per Si atom -5586.014314 kJ/mol
# Density = 2.212001 g / cm^3
# Si number density = 22.170470 Si / 1000 Ang^3
#
#
#
# Elastic Constant Matrix: (Units=GPa)
#
#
# Indices 1 2 3 4 5 6 
#
# 1 58.1222 3.9967 36.0365 0.0000 2.7035 0.0000
# 2 3.9967 43.0852 -1.3480 0.0000 6.2447 0.0000
# 3 36.0365 -1.3480 113.2336 0.0000 15.7634 0.0000
# 4 0.0000 0.0000 0.0000 9.5747 0.0000 -3.2520
# 5 2.7035 6.2447 15.7634 0.0000 22.6603 0.0000
# 6 0.0000 0.0000 0.0000 -3.2520 0.0000 3.1638
#
#
#
# Elastic Compliance Matrix: (Units=1/GPa)
#
#
# Indices 1 2 3 4 5 6 
#
# 1 0.021860 -0.002744 -0.007454 0.000000 0.003333 0.000000
# 2 -0.002744 0.024707 0.002292 0.000000 -0.008075 0.000000
# 3 -0.007454 0.002292 0.012395 0.000000 -0.008365 0.000000
# 4 0.000000 0.000000 0.000000 0.160465 0.000000 0.164941
# 5 0.003333 -0.008075 -0.008365 0.000000 0.051777 0.000000
# 6 0.000000 0.000000 0.000000 0.164941 0.000000 0.485618
#
#
# Mechanical properties :
#
#
# Convention : Reuss Voigt Hill
#
# Bulk Modulus (GPa) = 23.17522 32.42349 27.79936
# Shear Modulus (GPa) = 6.35310 18.79680 12.57495
#
# Velocity S-wave (km/s) = 1.69464 2.91491 2.38417
# Velocity P-wave (km/s) = 3.78219 5.09758 4.48833
#
# Compressibility (1/GPa) = 0.04314954
#
# Stress axis : x y z
#
# Youngs Moduli (GPa) = 45.74537 40.47514 80.67654
#
# Poissons Ratio (x) = 0.11107 0.60134
# Poissons Ratio (y) = 0.12553 -0.18488
# Poissons Ratio (z) = 0.34097 -0.09275
#
# Static dielectric constant tensor:
#      x y z
#    x 1.794210 0.000000 0.022620 
#    y 0.000000 1.895890 0.000000 
#    z 0.022620 0.000000 1.810700 
# 
# From -- ./inp_files/22421.got.cif
#   From: 2010.05.17/outbox.cif.g08.bks.cpg/sg8_12_cif.got.tgz:22421.got - 2010.06.03 19:46:02.
