data_PCOD9132091
_publ_section_title
;
Structure prediction by ZEFSAII (Michael W. Deem and Ramdas Pophale) SiO2 
 PCOD9132091
Probable space group: C M
;
_chemical_formula_sum "Si O2"
_cell_formula_units_Z 32
_cell_length_a 21.118892
_cell_length_b 8.672276
_cell_length_c 12.493891
_cell_angle_alpha 90.000000
_cell_angle_beta 127.527067
_cell_angle_gamma 90.000000
_cell_volume 1814.726088
_symmetry_space_group_name_H-M "C M"
_symmetry_group_IT_number 8
_symmetry_cell_setting 'monoclinic'
loop_
_space_group_symop_operation_xyz
x,y,z
x,-y,z
1/2+x,1/2+y,z
1/2+x,1/2-y,z
loop_
_atom_site_type_symbol
_atom_site_label
_atom_site_fract_x
_atom_site_fract_y
_atom_site_fract_z
Si Si1 0.814080 0.183480 0.243940
Si Si2 0.839395 0.314838 0.927435
Si Si3 0.791982 0.815299 0.654343
Si Si4 0.610722 0.187432 0.504538
Si Si5 0.369430 0.815265 0.520476
Si Si6 0.951049 0.686445 0.231186
Si Si7 0.200492 0.815822 0.954190
Si Si8 0.054177 0.313757 0.683062
O O1 0.821049 0.245594 0.371095
O O2 0.890916 0.246431 0.257770
O O3 0.814637 0.000000 0.243787
O O4 0.737800 0.244489 0.099703
O O5 0.839475 0.500000 0.912360
O O6 0.833333 0.233219 0.807874
O O7 0.762372 0.274938 0.921605
O O8 0.915597 0.272009 0.078890
O O9 0.699603 0.761343 0.567506
O O10 0.834422 0.741340 0.596331
O O11 0.792821 0.000000 0.645002
O O12 0.540881 0.234705 0.351014
O O13 0.584700 0.236288 0.596957
O O14 0.611970 0.000000 0.506675
O O15 0.462387 0.767939 0.604687
O O16 0.366415 0.000000 0.510748
O O17 0.946223 0.500000 0.234853
O O18 0.114321 0.754141 0.832256
O O19 0.200402 0.000000 0.963382
O O20 0.058260 0.500000 0.691109
#
# Coordination Sequence:
#
# PCOD9132091 Si02
#       8
#     4   4   4   4   4   4   4   4
#     4  11  21  34  55  84 115 147 188 231 279 332
#     4   9  18  32  53  80 110 145 183 223 275 336
#     4  11  22  36  56  81 113 148 185 232 283 334
#     4   9  17  33  57  83 110 143 186 232 277 326
#     4  11  23  40  59  79 113 154 190 228 280 341
#     4   9  17  34  57  82 111 146 187 230 279 330
#     4  10  20  34  56  85 116 146 183 233 283 330
#     4  10  19  35  59  84 110 145 190 235 280 329
#
# _framework density 17.633514999999999
#
# number of rings (size 3 to 8) (size 9 to 14) (size 15 to 20)
#    0.000    2.000    2.500    3.000    0.000    3.000 
#    0.000    2.500    0.000    6.000    0.000    0.000 
#    0.000    0.000    0.000    0.000    0.000    0.000 
#
# Total GULP energy -89310.249339 kJ/mol
# GULP energy per Si atom -5581.890584 kJ/mol
# Density = 1.759338 g / cm^3
# Si number density = 17.633515 Si / 1000 Ang^3
#
#
#
# Elastic Constant Matrix: (Units=GPa)
#
#
# Indices 1 2 3 4 5 6 
#
# 1 94.5807 28.2311 66.9798 0.0000 -2.6510 0.0000
# 2 28.2311 38.6023 43.1017 0.0000 -4.8018 0.0000
# 3 66.9798 43.1017 167.9866 0.0000 -1.1701 0.0000
# 4 0.0000 0.0000 0.0000 30.2596 0.0000 -0.2015
# 5 -2.6510 -4.8018 -1.1701 0.0000 24.9160 0.0000
# 6 0.0000 0.0000 0.0000 -0.2015 0.0000 18.2795
#
#
#
# Elastic Compliance Matrix: (Units=1/GPa)
#
#
# Indices 1 2 3 4 5 6 
#
# 1 0.015763 -0.006281 -0.004672 0.000000 0.000247 0.000000
# 2 -0.006281 0.039914 -0.007690 0.000000 0.006663 0.000000
# 3 -0.004672 -0.007690 0.009778 0.000000 -0.001520 0.000000
# 4 0.000000 0.000000 0.000000 0.033050 0.000000 0.000364
# 5 0.000247 0.006663 -0.001520 0.000000 0.041374 0.000000
# 6 0.000000 0.000000 0.000000 0.000364 0.000000 0.054710
#
#
# Mechanical properties :
#
#
# Convention : Reuss Voigt Hill
#
# Bulk Modulus (GPa) = 35.49968 64.19943 49.84956
# Shear Modulus (GPa) = 20.72404 25.54814 23.13609
#
# Velocity S-wave (km/s) = 3.43193 3.81049 3.62616
# Velocity P-wave (km/s) = 5.98998 7.47305 6.77223
#
# Compressibility (1/GPa) = 0.02816927
#
# Stress axis : x y z
#
# Youngs Moduli (GPa) = 63.43893 25.05369 102.26838
#
# Poissons Ratio (x) = 0.15736 0.47778
# Poissons Ratio (y) = 0.39846 0.78648
# Poissons Ratio (z) = 0.29637 0.19267
#
# Static dielectric constant tensor:
#      x y z
#    x 1.576290 0.000000 0.014090 
#    y 0.000000 1.596440 0.000000 
#    z 0.014090 0.000000 1.602990 
# 
# From -- ./inp_files/23704.got.cif
#   From: 2010.05.17/outbox.cif.g08.bks.cpg/sg8_12_cif.got.tgz:23704.got - 2010.06.03 19:46:02.
