data_PCOD9132554
_publ_section_title
;
Structure prediction by ZEFSAII (Michael W. Deem and Ramdas Pophale) SiO2 
 PCOD9132554
Probable space group: C M
;
_chemical_formula_sum "Si O2"
_cell_formula_units_Z 32
_cell_length_a 14.499297
_cell_length_b 8.685242
_cell_length_c 28.944571
_cell_angle_alpha 90.000000
_cell_angle_beta 151.565373
_cell_angle_gamma 90.000000
_cell_volume 1735.581503
_symmetry_space_group_name_H-M "C M"
_symmetry_group_IT_number 8
_symmetry_cell_setting 'monoclinic'
loop_
_space_group_symop_operation_xyz
x,y,z
x,-y,z
1/2+x,1/2+y,z
1/2+x,1/2-y,z
loop_
_atom_site_type_symbol
_atom_site_label
_atom_site_fract_x
_atom_site_fract_y
_atom_site_fract_z
Si Si1 0.464090 0.316661 0.460440
Si Si2 0.762589 0.817836 0.662244
Si Si3 0.252331 0.176995 0.750590
Si Si4 0.360709 0.815441 0.317726
Si Si5 0.054483 0.184725 0.310750
Si Si6 0.040598 0.182006 0.943469
Si Si7 0.177818 0.179735 0.819412
Si Si8 0.450281 0.814336 0.167279
O O1 0.444529 0.500000 0.448133
O O2 0.645158 0.270205 0.571457
O O3 0.469362 0.244217 0.411638
O O4 0.272872 0.247351 0.400762
O O5 0.683578 0.779698 0.678197
O O6 0.988277 0.768459 0.762543
O O7 0.756624 0.000000 0.650476
O O8 0.459815 0.231384 0.862622
O O9 0.125851 0.189070 0.741634
O O10 0.258251 0.000000 0.738564
O O11 0.457622 0.748879 0.314394
O O12 0.141159 0.753671 0.227089
O O13 0.360987 0.000000 0.317048
O O14 0.946567 0.246821 0.217389
O O15 0.055548 0.000000 0.311343
O O16 0.877146 0.226331 0.909698
O O17 0.034339 0.000000 0.932344
O O18 0.253435 0.225620 0.053702
O O19 0.217593 0.000000 0.847156
O O20 0.466335 0.000000 0.176594
#
# Coordination Sequence:
#
# PCOD9132554 Si02
#       8
#     4   4   4   4   4   4   4   4
#     4  11  23  39  59  85 117 149 186 235 285 339
#     4  11  21  37  58  83 112 149 191 233 281 333
#     4   9  19  36  54  78 110 147 188 231 277 328
#     4  11  22  39  61  86 115 148 187 235 284 339
#     4  11  22  39  61  86 114 149 189 233 283 340
#     4   9  18  35  58  82 113 149 186 232 281 329
#     4   8  19  36  54  76 110 147 184 229 276 326
#     4  10  20  37  59  86 117 150 189 234 283 338
#
# _framework density 18.437624
#
# number of rings (size 3 to 8) (size 9 to 14) (size 15 to 20)
#    0.750    1.250    0.000    6.000    0.000    4.000 
#    2.250    3.750    0.000    0.000    0.000    0.000 
#    0.000    0.000    0.000    0.000    0.000    0.000 
#
# Total GULP energy -89192.891453 kJ/mol
# GULP energy per Si atom -5574.555716 kJ/mol
# Density = 1.839566 g / cm^3
# Si number density = 18.437624 Si / 1000 Ang^3
#
#
#
# Elastic Constant Matrix: (Units=GPa)
#
#
# Indices 1 2 3 4 5 6 
#
# 1 91.8365 33.0583 12.8813 -0.0001 -8.8414 0.0000
# 2 33.0583 107.1191 21.2641 0.0000 -3.7128 0.0000
# 3 12.8813 21.2641 48.4087 -0.0002 -6.8417 0.0000
# 4 -0.0001 0.0000 -0.0002 31.7409 0.0000 -1.7087
# 5 -8.8414 -3.7128 -6.8417 0.0000 9.9717 0.0000
# 6 0.0000 0.0000 0.0000 -1.7087 0.0000 27.7406
#
#
#
# Elastic Compliance Matrix: (Units=1/GPa)
#
#
# Indices 1 2 3 4 5 6 
#
# 1 0.013235 -0.003636 -0.000506 0.000000 0.010033 0.000000
# 2 -0.003636 0.011232 -0.004242 0.000000 -0.001953 0.000000
# 3 -0.000506 -0.004242 0.024771 0.000000 0.014967 0.000000
# 4 0.000000 0.000000 0.000000 0.031610 0.000000 0.001947
# 5 0.010033 -0.001953 0.014967 0.000000 0.118723 0.000000
# 6 0.000000 0.000000 0.000000 0.001947 0.000000 0.036168
#
#
# Mechanical properties :
#
#
# Convention : Reuss Voigt Hill
#
# Bulk Modulus (GPa) = 30.79934 42.41908 36.60921
# Shear Modulus (GPa) = 18.98754 25.90135 22.44444
#
# Velocity S-wave (km/s) = 3.21257 3.75214 3.49279
# Velocity P-wave (km/s) = 5.52283 6.46747 6.01373
#
# Compressibility (1/GPa) = 0.03246822
#
# Stress axis : x y z
#
# Youngs Moduli (GPa) = 75.55849 89.03135 40.36975
#
# Poissons Ratio (x) = 0.32373 0.02045
# Poissons Ratio (y) = 0.27474 0.17126
# Poissons Ratio (z) = 0.03827 0.37769
#
# Static dielectric constant tensor:
#      x y z
#    x 1.629990 0.000000 0.004070 
#    y 0.000000 1.617880 0.000000 
#    z 0.004070 0.000000 1.627900 
# 
# From -- ./inp_files/33297.got.cif
#   From: 2010.05.17/outbox.cif.g08.bks.cpg/sg8_17_cif.got.tgz:33297.got - 2010.06.03 19:46:02.
