data_PCOD9132407
_publ_section_title
;
Structure prediction by ZEFSAII (Michael W. Deem and Ramdas Pophale) SiO2 
 PCOD9132407
Probable space group: C M
;
_chemical_formula_sum "Si O2"
_cell_formula_units_Z 32
_cell_length_a 25.722004
_cell_length_b 8.741423
_cell_length_c 17.118122
_cell_angle_alpha 90.000000
_cell_angle_beta 154.044427
_cell_angle_gamma 90.000000
_cell_volume 1684.588746
_symmetry_space_group_name_H-M "C M"
_symmetry_group_IT_number 8
_symmetry_cell_setting 'monoclinic'
loop_
_space_group_symop_operation_xyz
x,y,z
x,-y,z
1/2+x,1/2+y,z
1/2+x,1/2-y,z
loop_
_atom_site_type_symbol
_atom_site_label
_atom_site_fract_x
_atom_site_fract_y
_atom_site_fract_z
Si Si1 0.705480 0.182019 0.111190
Si Si2 0.099216 0.180904 0.117925
Si Si3 0.973490 0.186308 0.502482
Si Si4 0.664113 0.684101 0.629988
Si Si5 0.545271 0.683435 0.772184
Si Si6 0.615298 0.182801 0.392965
Si Si7 0.421122 0.315744 0.012358
Si Si8 0.790114 0.182381 0.491032
O O1 0.617925 0.238800 0.060944
O O2 0.838570 0.239391 0.308198
O O3 0.707738 0.000000 0.115138
O O4 0.657233 0.241145 0.964047
O O5 0.212456 0.226052 0.323532
O O6 0.987361 0.226400 0.020348
O O7 0.093437 0.000000 0.097519
O O8 0.060397 0.230943 0.550006
O O9 0.021829 0.234999 0.652139
O O10 0.970274 0.000000 0.499726
O O11 0.670616 0.500000 0.637017
O O12 0.634008 0.745198 0.503004
O O13 0.789131 0.749918 0.829579
O O14 0.559325 0.500000 0.791535
O O15 0.427277 0.719284 0.663316
O O16 0.503462 0.250113 0.193329
O O17 0.731782 0.212309 0.496333
O O18 0.601489 0.000000 0.380873
O O19 0.419313 0.500000 0.015541
O O20 0.775841 0.000000 0.455635
#
# Coordination Sequence:
#
# PCOD9132407 Si02
#       8
#     4   4   4   4   4   4   4   4
#     4  11  22  38  59  87 118 154 195 240 294 352
#     4  10  20  35  58  87 121 154 192 240 293 350
#     4   9  21  42  62  81 117 158 197 243 295 347
#     4  11  23  40  63  89 118 159 204 247 294 352
#     4  10  20  38  60  85 116 155 193 239 296 347
#     4  10  21  38  60  90 122 158 199 242 295 355
#     4  10  22  40  60  87 122 159 198 247 299 350
#     4   9  18  35  60  84 118 157 190 236 296 349
#
# _framework density 18.995733000000001
#
# number of rings (size 3 to 8) (size 9 to 14) (size 15 to 20)
#    0.000    2.000    1.250    1.875    1.750    3.500 
#    0.000    6.250    0.000    0.000    0.000    0.000 
#    0.000    0.000    0.000    0.000    0.000    0.000 
#
# Total GULP energy -89350.394360 kJ/mol
# GULP energy per Si atom -5584.399647 kJ/mol
# Density = 1.895250 g / cm^3
# Si number density = 18.995733 Si / 1000 Ang^3
#
#
#
# Elastic Constant Matrix: (Units=GPa)
#
#
# Indices 1 2 3 4 5 6 
#
# 1 117.5029 38.8849 62.5332 0.0000 -16.8717 0.0000
# 2 38.8849 37.3702 29.1963 0.0000 -4.7341 0.0000
# 3 62.5332 29.1963 84.1464 0.0000 -21.8140 0.0000
# 4 0.0000 0.0000 0.0000 34.5297 0.0000 -7.0148
# 5 -16.8717 -4.7341 -21.8140 0.0000 23.1154 0.0000
# 6 0.0000 0.0000 0.0000 -7.0148 0.0000 20.3661
#
#
#
# Elastic Compliance Matrix: (Units=1/GPa)
#
#
# Indices 1 2 3 4 5 6 
#
# 1 0.016712 -0.010793 -0.008056 0.000000 0.002385 0.000000
# 2 -0.010793 0.044312 -0.009325 0.000000 -0.007603 0.000000
# 3 -0.008056 -0.009325 0.025269 0.000000 0.016056 0.000000
# 4 0.000000 0.000000 0.000000 0.031140 0.000000 0.010726
# 5 0.002385 -0.007603 0.016056 0.000000 0.058597 0.000000
# 6 0.000000 0.000000 0.000000 0.010726 0.000000 0.052796
#
#
# Mechanical properties :
#
#
# Convention : Reuss Voigt Hill
#
# Bulk Modulus (GPa) = 33.39545 55.58316 44.48930
# Shear Modulus (GPa) = 16.94019 22.82924 19.88471
#
# Velocity S-wave (km/s) = 2.98952 3.47047 3.23894
# Velocity P-wave (km/s) = 5.43461 6.73671 6.12039
#
# Compressibility (1/GPa) = 0.02994420
#
# Stress axis : x y z
#
# Youngs Moduli (GPa) = 59.83688 22.56719 39.57400
#
# Poissons Ratio (x) = 0.24357 0.31883
# Poissons Ratio (y) = 0.64583 0.36903
# Poissons Ratio (z) = 0.48208 0.21044
#
# Static dielectric constant tensor:
#      x y z
#    x 1.655680 0.000000 0.003490 
#    y 0.000000 1.641870 0.000000 
#    z 0.003490 0.000000 1.643590 
# 
# From -- ./inp_files/24830.got.cif
#   From: 2010.05.17/outbox.cif.g08.bks.cpg/sg8_13_cif.got.tgz:24830.got - 2010.06.03 19:46:02.
