data_PCOD9132522
_publ_section_title
;
Structure prediction by ZEFSAII (Michael W. Deem and Ramdas Pophale) SiO2 
 PCOD9132522
Probable space group: C M
;
_chemical_formula_sum "Si O2"
_cell_formula_units_Z 28
_cell_length_a 14.636497
_cell_length_b 18.702286
_cell_length_c 7.126393
_cell_angle_alpha 90.000000
_cell_angle_beta 144.756514
_cell_angle_gamma 90.000000
_cell_volume 1125.684843
_symmetry_space_group_name_H-M "C M"
_symmetry_group_IT_number 8
_symmetry_cell_setting 'monoclinic'
loop_
_space_group_symop_operation_xyz
x,y,z
x,-y,z
1/2+x,1/2+y,z
1/2+x,1/2-y,z
loop_
_atom_site_type_symbol
_atom_site_label
_atom_site_fract_x
_atom_site_fract_y
_atom_site_fract_z
Si Si1 0.789950 0.686465 0.838970
Si Si2 0.049110 0.924452 0.591342
Si Si3 0.263090 0.653274 0.659298
Si Si4 0.561274 0.342362 0.955701
Si Si5 0.690022 0.111722 0.927610
Si Si6 0.337739 0.245564 0.313405
Si Si7 0.520496 0.083358 0.995361
O O1 0.634818 0.642081 0.637436
O O2 0.746881 0.762199 0.671761
O O3 0.880837 0.704752 0.190619
O O4 0.892913 0.634739 0.879568
O O5 0.081582 0.912730 0.865875
O O6 0.860121 0.923431 0.255011
O O7 0.112434 0.000000 0.628055
O O8 0.460261 0.712806 0.652166
O O9 0.183550 0.620159 0.342091
O O10 0.182230 0.609777 0.691464
O O11 0.451971 0.356093 0.950822
O O12 0.730623 0.306384 0.259085
O O13 0.722635 0.193585 0.037307
O O14 0.545395 0.086097 0.811742
O O15 0.505335 0.000000 0.023235
#
# Coordination Sequence:
#
# PCOD9132522 Si02
#       7
#     4   4   4   4   4   4   4
#     4  10  24  38  66  96 131 167 220 272 328 397
#     4  10  20  40  63  90 127 171 210 263 332 400
#     4  11  24  39  70  94 128 165 229 266 333 386
#     4  10  20  36  63  98 128 169 213 277 329 392
#     4  10  22  39  64  93 128 166 219 269 324 395
#     4   9  19  36  62  95 131 167 219 272 330 391
#     4  12  25  44  66  96 135 177 216 271 338 399
#
# _framework density 24.873745
#
# number of rings (size 3 to 8) (size 9 to 14) (size 15 to 20)
#    0.000    1.714    2.857    1.714   10.000    1.143 
#    0.000    0.000    0.000    0.000    0.000    0.000 
#    0.000    0.000    0.000    0.000    0.000    0.000 
#
# Total GULP energy -78233.500530 kJ/mol
# GULP energy per Si atom -5588.107181 kJ/mol
# Density = 2.481713 g / cm^3
# Si number density = 24.873745 Si / 1000 Ang^3
#
#
#
# Elastic Constant Matrix: (Units=GPa)
#
#
# Indices 1 2 3 4 5 6 
#
# 1 147.2876 27.2582 18.5886 0.0000 4.8678 0.0000
# 2 27.2582 102.7836 8.8978 0.0000 6.7580 0.0000
# 3 18.5886 8.8978 37.7755 0.0000 3.1519 0.0000
# 4 0.0000 0.0000 0.0000 5.9003 0.0000 3.0990
# 5 4.8678 6.7580 3.1519 0.0000 39.7583 0.0000
# 6 0.0000 0.0000 0.0000 3.0990 0.0000 14.2588
#
#
#
# Elastic Compliance Matrix: (Units=1/GPa)
#
#
# Indices 1 2 3 4 5 6 
#
# 1 0.007528 -0.001688 -0.003275 0.000000 -0.000375 0.000000
# 2 -0.001688 0.010401 -0.001499 0.000000 -0.001442 0.000000
# 3 -0.003275 -0.001499 0.028571 0.000000 -0.001609 0.000000
# 4 0.000000 0.000000 0.000000 0.191324 0.000000 -0.041582
# 5 -0.000375 -0.001442 -0.001609 0.000000 0.025571 0.000000
# 6 0.000000 0.000000 0.000000 -0.041582 0.000000 0.079170
#
#
# Mechanical properties :
#
#
# Convention : Reuss Voigt Hill
#
# Bulk Modulus (GPa) = 29.78354 44.14844 36.96599
# Shear Modulus (GPa) = 13.63583 27.52361 20.57972
#
# Velocity S-wave (km/s) = 2.34391 3.33007 2.87952
# Velocity P-wave (km/s) = 4.39603 5.70731 5.09404
#
# Compressibility (1/GPa) = 0.03357559
#
# Stress axis : x y z
#
# Youngs Moduli (GPa) = 132.84426 96.14017 35.00026
#
# Poissons Ratio (x) = 0.16230 0.11464
# Poissons Ratio (y) = 0.22426 0.05246
# Poissons Ratio (z) = 0.43510 0.14411
#
# Static dielectric constant tensor:
#      x y z
#    x 2.032670 0.000000 -0.011310 
#    y 0.000000 1.958890 0.000000 
#    z -0.011310 0.000000 2.000660 
# 
# From -- ./inp_files/23377.got.cif
#   From: 2010.05.17/outbox.cif.g08.bks.cpg/sg8_12_cif.got.tgz:23377.got - 2010.06.03 19:46:02.
