data_PCOD9132827
_publ_section_title
;
Structure prediction by ZEFSAII (Michael W. Deem and Ramdas Pophale) SiO2 
 PCOD9132827
Probable space group: C M
;
_chemical_formula_sum "Si O2"
_cell_formula_units_Z 32
_cell_length_a 34.095434
_cell_length_b 8.860172
_cell_length_c 12.620432
_cell_angle_alpha 90.000000
_cell_angle_beta 26.712636
_cell_angle_gamma 90.000000
_cell_volume 1713.790625
_symmetry_space_group_name_H-M "C M"
_symmetry_group_IT_number 8
_symmetry_cell_setting 'monoclinic'
loop_
_space_group_symop_operation_xyz
x,y,z
x,-y,z
1/2+x,1/2+y,z
1/2+x,1/2-y,z
loop_
_atom_site_type_symbol
_atom_site_label
_atom_site_fract_x
_atom_site_fract_y
_atom_site_fract_z
Si Si1 0.619670 0.326625 0.313620
Si Si2 0.338437 0.324058 0.079937
Si Si3 0.784964 0.172482 0.976957
Si Si4 0.503028 0.824933 0.751077
Si Si5 0.296037 0.818614 0.628116
Si Si6 0.850514 0.320380 0.257548
Si Si7 0.105181 0.678873 0.131771
Si Si8 0.934670 0.823060 0.457018
O O1 0.601071 0.500000 0.336589
O O2 0.722010 0.291367 0.074198
O O3 0.580344 0.275816 0.521060
O O4 0.584086 0.226088 0.303677
O O5 0.364750 0.500000 0.024154
O O6 0.283388 0.308926 0.106903
O O7 0.301033 0.270447 0.283551
O O8 0.422899 0.217012 0.865995
O O9 0.755670 0.000000 0.022102
O O10 0.881368 0.187049 0.696578
O O11 0.526805 0.000000 0.690347
O O12 0.453297 0.790535 0.981799
O O13 0.323486 0.782980 0.440794
O O14 0.368871 0.748820 0.530078
O O15 0.293866 0.000000 0.646130
O O16 0.199556 0.752347 0.880264
O O17 0.838051 0.500000 0.270954
O O18 0.111196 0.500000 0.107491
O O19 0.027506 0.742779 0.246260
O O20 0.947286 0.000000 0.403216
#
# Coordination Sequence:
#
# PCOD9132827 Si02
#       8
#     4   4   4   4   4   4   4   4
#     4  12  23  35  56  87 122 160 204 256 310 372
#     4   9  17  32  56  84 112 149 197 242 293 358
#     4  10  21  36  55  84 123 159 198 252 311 370
#     4   9  18  35  56  81 112 152 195 241 300 359
#     4  11  22  42  66  93 127 164 212 261 309 371
#     4   8  19  37  60  85 117 160 200 250 307 361
#     4  12  25  41  62  91 126 167 209 256 314 375
#     4  11  23  40  63  93 127 163 207 258 314 374
#
# _framework density 18.672059000000001
#
# number of rings (size 3 to 8) (size 9 to 14) (size 15 to 20)
#    0.750    1.000    1.250    4.125    0.000    3.500 
#    0.000    1.250    0.000    1.500    0.000    0.000 
#    0.000    0.000    0.000    0.000    0.000    0.000 
#
# Total GULP energy -89135.107260 kJ/mol
# GULP energy per Si atom -5570.944204 kJ/mol
# Density = 1.862956 g / cm^3
# Si number density = 18.672059 Si / 1000 Ang^3
#
#
#
# Elastic Constant Matrix: (Units=GPa)
#
#
# Indices 1 2 3 4 5 6 
#
# 1 99.5631 50.2246 45.7117 0.0000 4.7152 0.0000
# 2 50.2246 93.2539 44.3156 0.0000 -0.3181 0.0000
# 3 45.7117 44.3156 90.4726 0.0000 1.3415 0.0000
# 4 0.0000 0.0000 0.0000 26.4881 0.0000 -3.7834
# 5 4.7152 -0.3181 1.3415 0.0000 31.8641 0.0000
# 6 0.0000 0.0000 0.0000 -3.7834 0.0000 26.4791
#
#
#
# Elastic Compliance Matrix: (Units=1/GPa)
#
#
# Indices 1 2 3 4 5 6 
#
# 1 0.015378 -0.006012 -0.004794 0.000000 -0.002134 0.000000
# 2 -0.006012 0.016333 -0.004981 0.000000 0.001262 0.000000
# 3 -0.004794 -0.004981 0.015915 0.000000 -0.000010 0.000000
# 4 0.000000 0.000000 0.000000 0.038539 0.000000 0.005507
# 5 -0.002134 0.001262 -0.000010 0.000000 0.031712 0.000000
# 6 0.000000 0.000000 0.000000 0.005507 0.000000 0.038552
#
#
# Mechanical properties :
#
#
# Convention : Reuss Voigt Hill
#
# Bulk Modulus (GPa) = 62.29462 62.64372 62.46917
# Shear Modulus (GPa) = 25.85913 26.50208 26.18061
#
# Velocity S-wave (km/s) = 3.72548 3.77151 3.74856
# Velocity P-wave (km/s) = 7.20697 7.25176 7.22940
#
# Compressibility (1/GPa) = 0.01605275
#
# Stress axis : x y z
#
# Youngs Moduli (GPa) = 65.02586 61.22651 62.83263
#
# Poissons Ratio (x) = 0.36808 0.30120
# Poissons Ratio (y) = 0.39092 0.31300
# Poissons Ratio (z) = 0.31172 0.30500
#
# Static dielectric constant tensor:
#      x y z
#    x 1.637330 0.000000 0.010880 
#    y 0.000000 1.632610 0.000000 
#    z 0.010880 0.000000 1.678010 
# 
# From -- ./inp_files/24793.got.cif
#   From: 2010.05.17/outbox.cif.g08.bks.cpg/sg8_13_cif.got.tgz:24793.got - 2010.06.03 19:46:02.
