data_PCOD9132281
_publ_section_title
;
Structure prediction by ZEFSAII (Michael W. Deem and Ramdas Pophale) SiO2 
 PCOD9132281
Probable space group: C M
;
_chemical_formula_sum "Si O2"
_cell_formula_units_Z 32
_cell_length_a 29.566512
_cell_length_b 8.041316
_cell_length_c 21.456394
_cell_angle_alpha 90.000000
_cell_angle_beta 165.903606
_cell_angle_gamma 90.000000
_cell_volume 1242.450721
_symmetry_space_group_name_H-M "C M"
_symmetry_group_IT_number 8
_symmetry_cell_setting 'monoclinic'
loop_
_space_group_symop_operation_xyz
x,y,z
x,-y,z
1/2+x,1/2+y,z
1/2+x,1/2-y,z
loop_
_atom_site_type_symbol
_atom_site_label
_atom_site_fract_x
_atom_site_fract_y
_atom_site_fract_z
Si Si1 0.346890 0.203748 0.870810
Si Si2 0.718511 0.203193 0.442573
Si Si3 0.252722 0.806772 0.183925
Si Si4 0.014855 0.693927 0.288081
Si Si5 0.529700 0.806449 0.995112
Si Si6 0.949747 0.807394 0.338726
Si Si7 0.921919 0.197088 0.594595
Si Si8 0.621844 0.195213 0.743444
O O1 0.147589 0.263427 0.627450
O O2 0.339004 0.000000 0.858417
O O3 0.524510 0.246320 0.148798
O O4 0.385187 0.267884 0.851526
O O5 0.673956 0.258661 0.453626
O O6 0.873593 0.258809 0.599875
O O7 0.733483 0.000000 0.464753
O O8 0.075132 0.753360 0.986419
O O9 0.280773 0.779759 0.148146
O O10 0.440798 0.732419 0.466065
O O11 0.262772 0.000000 0.209680
O O12 0.047541 0.500000 0.344666
O O13 0.979027 0.789147 0.304284
O O14 0.811979 0.709301 0.984513
O O15 0.725166 0.788329 0.294223
O O16 0.489279 0.000000 0.936259
O O17 0.930348 0.000000 0.328072
O O18 0.066908 0.287241 0.743370
O O19 0.965684 0.000000 0.655440
O O20 0.647818 0.000000 0.764479
#
# Coordination Sequence:
#
# PCOD9132281 Si02
#       8
#     4   4   4   4   4   4   4   4
#     4   8  15  30  54  80 101 127 169 215 256 305
#     4   8  15  30  54  80 101 127 169 215 256 305
#     4  10  20  34  53  79 108 136 171 214 257 304
#     4  11  22  36  53  74 104 140 177 215 258 306
#     4   8  14  28  52  79 103 129 166 211 257 305
#     4  11  22  36  53  74 104 140 177 215 258 306
#     4   8  14  28  52  79 103 129 166 211 257 305
#     4  10  20  34  53  79 108 136 171 214 257 304
#
# _framework density 25.755549999999999
#
# number of rings (size 3 to 8) (size 9 to 14) (size 15 to 20)
#    0.000    2.750    0.000    3.750    0.000    2.500 
#    0.000    3.750    0.000    9.000    0.000    0.000 
#    0.000    0.000    0.000    0.000    0.000    0.000 
#
# Total GULP energy -89416.133443 kJ/mol
# GULP energy per Si atom -5588.508340 kJ/mol
# Density = 2.569693 g / cm^3
# Si number density = 25.755550 Si / 1000 Ang^3
#
#
#
# Elastic Constant Matrix: (Units=GPa)
#
#
# Indices 1 2 3 4 5 6 
#
# 1 182.9994 -2.0830 30.5982 0.0002 34.0984 0.0001
# 2 -2.0830 27.6890 1.8760 0.0001 13.0221 0.0001
# 3 30.5982 1.8760 92.6775 0.0004 37.0698 0.0003
# 4 0.0002 0.0001 0.0004 15.2166 0.0003 1.4011
# 5 34.0984 13.0221 37.0698 0.0003 60.7875 0.0001
# 6 0.0001 0.0001 0.0003 1.4011 0.0001 31.5969
#
#
#
# Elastic Compliance Matrix: (Units=1/GPa)
#
#
# Indices 1 2 3 4 5 6 
#
# 1 0.006269 0.002196 -0.000687 0.000000 -0.003568 0.000000
# 2 0.002196 0.041796 0.003310 0.000000 -0.012205 0.000000
# 3 -0.000687 0.003310 0.014654 0.000000 -0.009260 0.000000
# 4 0.000000 0.000000 0.000000 0.065987 0.000000 -0.002926
# 5 -0.003568 -0.012205 -0.009260 0.000000 0.026714 0.000000
# 6 0.000000 0.000000 0.000000 -0.002926 0.000000 0.031778
#
#
# Mechanical properties :
#
#
# Convention : Reuss Voigt Hill
#
# Bulk Modulus (GPa) = 13.82007 40.46096 27.14051
# Shear Modulus (GPa) = 24.79191 39.71851 32.25521
#
# Velocity S-wave (km/s) = 3.10592 3.93126 3.54271
# Velocity P-wave (km/s) = 4.27081 6.02911 5.22446
#
# Compressibility (1/GPa) = 0.07235852
#
# Stress axis : x y z
#
# Youngs Moduli (GPa) = 159.50884 23.92569 68.24156
#
# Poissons Ratio (x) = -0.05255 0.04689
# Poissons Ratio (y) = -0.35033 -0.22591
# Poissons Ratio (z) = 0.10959 -0.07921
#
# Static dielectric constant tensor:
#      x y z
#    x 2.113270 0.000000 -0.102430 
#    y 0.000000 1.880800 0.000000 
#    z -0.102430 0.000000 2.123350 
# 
# From -- ./inp_files/19259.got.cif
#   From: 2010.05.17/outbox.cif.g08.bks.cpg/sg8_10_cif.got.tgz:19259.got - 2010.06.03 19:46:02.
