data_PCOD9132787
_publ_section_title
;
Structure prediction by ZEFSAII (Michael W. Deem and Ramdas Pophale) SiO2 
 PCOD9132787
Probable space group: C M
;
_chemical_formula_sum "Si O2"
_cell_formula_units_Z 30
_cell_length_a 7.381859
_cell_length_b 15.999391
_cell_length_c 11.046118
_cell_angle_alpha 90.000000
_cell_angle_beta 95.517923
_cell_angle_gamma 90.000000
_cell_volume 1298.559192
_symmetry_space_group_name_H-M "C M"
_symmetry_group_IT_number 8
_symmetry_cell_setting 'monoclinic'
loop_
_space_group_symop_operation_xyz
x,y,z
x,-y,z
1/2+x,1/2+y,z
1/2+x,1/2-y,z
loop_
_atom_site_type_symbol
_atom_site_label
_atom_site_fract_x
_atom_site_fract_y
_atom_site_fract_z
Si Si1 0.754640 0.859994 0.672440
Si Si2 0.330984 0.842074 0.982031
Si Si3 0.177636 0.097526 0.718354
Si Si4 0.727901 0.148631 0.945183
Si Si5 0.218929 0.500000 0.466104
Si Si6 0.726771 0.699416 0.515368
Si Si7 0.377950 0.341016 0.356914
Si Si8 0.528007 0.406012 0.130256
O O1 0.685685 0.871547 0.803427
O O2 0.707892 0.929169 0.572618
O O3 0.686996 0.774770 0.606166
O O4 0.976336 0.860409 0.700262
O O5 0.259795 0.886236 0.855265
O O6 0.543714 0.859058 0.008673
O O7 0.296970 0.744072 0.956819
O O8 0.216383 0.872971 0.088780
O O9 0.304224 0.133259 0.617656
O O10 0.148442 0.000000 0.696395
O O11 0.888294 0.093746 0.009518
O O12 0.252820 0.422396 0.370506
O O13 0.561444 0.647493 0.447318
O O14 0.810592 0.751974 0.408007
O O15 0.441189 0.343644 0.222849
O O16 0.548563 0.500000 0.181177
#
# Coordination Sequence:
#
# PCOD9132787 Si02
#       8
#     4   4   4   4   2   4   4   4
#     4  11  21  40  71 102 145 186 238 297 371 440
#     4  12  26  45  72 111 144 193 247 301 370 444
#     4  12  22  42  68 104 151 191 235 302 379 442
#     4  12  26  44  75 110 146 190 246 303 371 444
#     4  10  20  44  68  98 136 196 232 292 372 432
#     4  11  23  39  70 102 131 183 243 295 354 436
#     4  11  25  45  71  98 140 190 253 290 361 440
#     4  12  28  50  76 103 148 202 247 308 368 434
#
# _framework density 23.102528
#
# number of rings (size 3 to 8) (size 9 to 14) (size 15 to 20)
#    0.000    0.533    8.000    0.400    4.667    1.067 
#    0.000    0.000    0.000    0.000    0.000    0.000 
#    0.000    0.000    0.000    0.000    0.000    0.000 
#
# Total GULP energy -83539.512159 kJ/mol
# GULP energy per Si atom -5569.300811 kJ/mol
# Density = 2.304995 g / cm^3
# Si number density = 23.102528 Si / 1000 Ang^3
#
#
#
# Elastic Constant Matrix: (Units=GPa)
#
#
# Indices 1 2 3 4 5 6 
#
# 1 70.0615 9.1682 0.8598 0.0000 -24.2994 0.0000
# 2 9.1682 91.3174 -3.1997 0.0000 -10.0284 0.0000
# 3 0.8598 -3.1997 60.1468 0.0000 -11.9596 0.0000
# 4 0.0000 0.0000 0.0000 25.8163 0.0000 -2.4400
# 5 -24.2994 -10.0284 -11.9596 0.0000 26.7128 0.0000
# 6 0.0000 0.0000 0.0000 -2.4400 0.0000 11.3538
#
#
#
# Elastic Compliance Matrix: (Units=1/GPa)
#
#
# Indices 1 2 3 4 5 6 
#
# 1 0.021690 0.000341 0.004014 0.000000 0.021656 0.000000
# 2 0.000341 0.011570 0.001686 0.000000 0.005409 0.000000
# 3 0.004014 0.001686 0.019221 0.000000 0.012890 0.000000
# 4 0.000000 0.000000 0.000000 0.039538 0.000000 0.008497
# 5 0.021656 0.005409 0.012890 0.000000 0.064936 0.000000
# 6 0.000000 0.000000 0.000000 0.008497 0.000000 0.089902
#
#
# Mechanical properties :
#
#
# Convention : Reuss Voigt Hill
#
# Bulk Modulus (GPa) = 15.48851 26.13136 20.80993
# Shear Modulus (GPa) = 19.50867 27.08974 23.29920
#
# Velocity S-wave (km/s) = 2.90908 3.42802 3.17915
# Velocity P-wave (km/s) = 4.24293 5.19654 4.74376
#
# Compressibility (1/GPa) = 0.06456401
#
# Stress axis : x y z
#
# Youngs Moduli (GPa) = 46.10389 86.43327 52.02540
#
# Poissons Ratio (x) = -0.02949 -0.20884
# Poissons Ratio (y) = -0.01573 -0.08772
# Poissons Ratio (z) = -0.18507 -0.14573
#
# Static dielectric constant tensor:
#      x y z
#    x 1.956620 0.000000 -0.043660 
#    y 0.000000 2.070200 0.000000 
#    z -0.043660 0.000000 1.884370 
# 
# From -- ./inp_files/18790.got.cif
#   From: 2010.05.17/outbox.cif.g08.bks.cpg/sg8_10_cif.got.tgz:18790.got - 2010.06.03 19:46:02.
