data_PCOD9132079
_publ_section_title
;
Structure prediction by ZEFSAII (Michael W. Deem and Ramdas Pophale) SiO2 
 PCOD9132079
Probable space group: C M
;
_chemical_formula_sum "Si O2"
_cell_formula_units_Z 32
_cell_length_a 20.522361
_cell_length_b 8.726360
_cell_length_c 12.469654
_cell_angle_alpha 90.000000
_cell_angle_beta 53.953310
_cell_angle_gamma 90.000000
_cell_volume 1805.573405
_symmetry_space_group_name_H-M "C M"
_symmetry_group_IT_number 8
_symmetry_cell_setting 'monoclinic'
loop_
_space_group_symop_operation_xyz
x,y,z
x,-y,z
1/2+x,1/2+y,z
1/2+x,1/2-y,z
loop_
_atom_site_type_symbol
_atom_site_label
_atom_site_fract_x
_atom_site_fract_y
_atom_site_fract_z
Si Si1 0.200180 0.317350 0.341930
Si Si2 0.726544 0.182575 0.987046
Si Si3 0.836939 0.682470 0.053855
Si Si4 0.986895 0.183983 0.020318
Si Si5 0.250350 0.817354 0.514986
Si Si6 0.674392 0.684444 0.817581
Si Si7 0.089969 0.815982 0.274717
Si Si8 0.926873 0.183903 0.318836
O O1 0.203007 0.500000 0.331641
O O2 0.277141 0.249344 0.203269
O O3 0.206677 0.263411 0.457522
O O4 0.122826 0.253418 0.353413
O O5 0.720144 0.235504 0.871071
O O6 0.725206 0.000000 0.997690
O O7 0.803562 0.248838 0.975344
O O8 0.649558 0.251891 0.125070
O O9 0.829785 0.500000 0.059653
O O10 0.926288 0.734747 0.997634
O O11 0.958490 0.221201 0.168708
O O12 0.979869 0.000000 0.014175
O O13 0.079973 0.226327 0.914889
O O14 0.211153 0.776311 0.666779
O O15 0.343499 0.767247 0.422282
O O16 0.244355 0.000000 0.506611
O O17 0.679670 0.500000 0.827034
O O18 0.998723 0.777335 0.331281
O O19 0.097860 0.000000 0.268814
O O20 0.913914 0.000000 0.334896
#
# Coordination Sequence:
#
# PCOD9132079 Si02
#       8
#     4   4   4   4   4   4   4   4
#     4  11  21  35  55  82 116 150 186 232 283 332
#     4  11  21  34  56  85 115 148 186 231 283 333
#     4  11  21  34  56  85 115 146 187 235 281 330
#     4  10  19  36  59  84 113 146 189 234 281 330
#     4  11  23  38  59  84 114 152 190 230 279 337
#     4  10  22  41  60  81 114 153 189 229 280 338
#     4  10  19  35  58  84 113 147 188 232 281 332
#     4  10  20  35  59  85 114 148 185 235 282 330
#
# _framework density 17.722902000000001
#
# number of rings (size 3 to 8) (size 9 to 14) (size 15 to 20)
#    0.000    1.500    2.500    5.625    0.000    2.500 
#    0.000    1.250    0.000    1.500    0.000    0.000 
#    0.000    0.000    0.000    0.000    0.000    0.000 
#
# Total GULP energy -89395.957920 kJ/mol
# GULP energy per Si atom -5587.247370 kJ/mol
# Density = 1.768256 g / cm^3
# Si number density = 17.722902 Si / 1000 Ang^3
#
#
#
# Elastic Constant Matrix: (Units=GPa)
#
#
# Indices 1 2 3 4 5 6 
#
# 1 157.7468 69.9626 69.2868 0.0000 21.1241 0.0000
# 2 69.9626 93.1622 52.9117 0.0000 12.6953 0.0000
# 3 69.2868 52.9117 102.2318 0.0000 11.2752 0.0000
# 4 0.0000 0.0000 0.0000 14.8611 0.0000 1.1871
# 5 21.1241 12.6953 11.2752 0.0000 25.8909 0.0000
# 6 0.0000 0.0000 0.0000 1.1871 0.0000 34.4157
#
#
#
# Elastic Compliance Matrix: (Units=1/GPa)
#
#
# Indices 1 2 3 4 5 6 
#
# 1 0.011237 -0.005340 -0.004338 0.000000 -0.004661 0.000000
# 2 -0.005340 0.018195 -0.005562 0.000000 -0.002143 0.000000
# 3 -0.004338 -0.005562 0.015661 0.000000 -0.000554 0.000000
# 4 0.000000 0.000000 0.000000 0.067476 0.000000 -0.002327
# 5 -0.004661 -0.002143 -0.000554 0.000000 0.043718 0.000000
# 6 0.000000 0.000000 0.000000 -0.002327 0.000000 0.029137
#
#
# Mechanical properties :
#
#
# Convention : Reuss Voigt Hill
#
# Bulk Modulus (GPa) = 68.42682 81.94034 75.18358
# Shear Modulus (GPa) = 22.64752 25.76552 24.20652
#
# Velocity S-wave (km/s) = 3.57861 3.81701 3.69973
# Velocity P-wave (km/s) = 7.46782 8.10929 7.79515
#
# Compressibility (1/GPa) = 0.01461415
#
# Stress axis : x y z
#
# Youngs Moduli (GPa) = 88.99101 54.96070 63.85113
#
# Poissons Ratio (x) = 0.29348 0.27699
# Poissons Ratio (y) = 0.47520 0.35512
# Poissons Ratio (z) = 0.38605 0.30567
#
# Static dielectric constant tensor:
#      x y z
#    x 1.607770 0.000000 0.006780 
#    y 0.000000 1.594030 0.000000 
#    z 0.006780 0.000000 1.578720 
# 
# From -- ./inp_files/23696.got.cif
#   From: 2010.05.17/outbox.cif.g08.bks.cpg/sg8_12_cif.got.tgz:23696.got - 2010.06.03 19:46:02.
