data_PCOD9132627
_publ_section_title
;
Structure prediction by ZEFSAII (Michael W. Deem and Ramdas Pophale) SiO2 
 PCOD9132627
Probable space group: C M
;
_chemical_formula_sum "Si O2"
_cell_formula_units_Z 32
_cell_length_a 11.195797
_cell_length_b 13.238839
_cell_length_c 17.337494
_cell_angle_alpha 90.000000
_cell_angle_beta 142.590932
_cell_angle_gamma 90.000000
_cell_volume 1561.128449
_symmetry_space_group_name_H-M "C M"
_symmetry_group_IT_number 8
_symmetry_cell_setting 'monoclinic'
loop_
_space_group_symop_operation_xyz
x,y,z
x,-y,z
1/2+x,1/2+y,z
1/2+x,1/2-y,z
loop_
_atom_site_type_symbol
_atom_site_label
_atom_site_fract_x
_atom_site_fract_y
_atom_site_fract_z
Si Si1 0.240060 0.762487 0.111980
Si Si2 0.134606 0.887118 0.738656
Si Si3 0.419044 0.817378 0.758554
Si Si4 0.569312 0.381063 0.295679
Si Si5 0.364876 0.807870 0.564970
Si Si6 0.188535 0.384244 0.620352
Si Si7 0.810090 0.274741 0.967153
Si Si8 0.892691 0.380106 0.333649
O O1 0.346881 0.653796 0.170747
O O2 0.358090 0.832116 0.232926
O O3 0.282508 0.796836 0.044858
O O4 0.019388 0.753188 0.034479
O O5 0.319129 0.874149 0.776620
O O6 0.220776 0.862581 0.867101
O O7 0.976222 0.800692 0.632660
O O8 0.056159 0.000000 0.690975
O O9 0.336088 0.852665 0.634600
O O10 0.344903 0.700189 0.725147
O O11 0.653571 0.816827 0.876046
O O12 0.586507 0.500000 0.319867
O O13 0.668953 0.317087 0.415066
O O14 0.699945 0.357190 0.287062
O O15 0.517959 0.875392 0.595869
O O16 0.255670 0.500000 0.651428
O O17 0.079325 0.353417 0.484068
O O18 0.904826 0.500000 0.331372
#
# Coordination Sequence:
#
# PCOD9132627 Si02
#       8
#     4   4   4   4   4   4   4   4
#     4  12  22  42  66  92 126 171 217 266 311 373
#     4  10  22  40  64  94 128 167 212 266 327 380
#     4  10  20  38  60  88 124 166 208 258 325 374
#     4  10  21  39  65  95 127 169 215 259 317 385
#     4   9  19  36  62  91 129 163 205 259 318 380
#     4   9  18  35  61  92 123 156 205 259 318 380
#     4  11  24  41  64  87 126 171 217 263 314 365
#     4   9  19  37  63  93 123 163 210 260 317 381
#
# _framework density 20.497993000000001
#
# number of rings (size 3 to 8) (size 9 to 14) (size 15 to 20)
#    0.000    2.000    2.500    1.875    0.000    4.000 
#    0.000    1.250    0.000    0.750    0.000    0.000 
#    0.000    0.000    0.000    0.000    0.000    0.000 
#
# Total GULP energy -89147.087411 kJ/mol
# GULP energy per Si atom -5571.692963 kJ/mol
# Density = 2.045134 g / cm^3
# Si number density = 20.497993 Si / 1000 Ang^3
#
#
#
# Elastic Constant Matrix: (Units=GPa)
#
#
# Indices 1 2 3 4 5 6 
#
# 1 153.7422 33.3835 59.3904 0.0000 -8.0847 0.0000
# 2 33.3835 74.4634 34.4795 0.0000 -13.1485 0.0000
# 3 59.3904 34.4795 83.9699 0.0000 -6.9468 0.0000
# 4 0.0000 0.0000 0.0000 16.3210 0.0000 -8.5690
# 5 -8.0847 -13.1485 -6.9468 0.0000 58.0053 0.0000
# 6 0.0000 0.0000 0.0000 -8.5690 0.0000 9.3517
#
#
#
# Elastic Compliance Matrix: (Units=1/GPa)
#
#
# Indices 1 2 3 4 5 6 
#
# 1 0.009062 -0.001307 -0.005851 0.000000 0.000266 0.000000
# 2 -0.001307 0.017294 -0.005927 0.000000 0.003028 0.000000
# 3 -0.005851 -0.005927 0.018486 0.000000 0.000055 0.000000
# 4 0.000000 0.000000 0.000000 0.118075 0.000000 0.108193
# 5 0.000266 0.003028 0.000055 0.000000 0.017970 0.000000
# 6 0.000000 0.000000 0.000000 0.108193 0.000000 0.206070
#
#
# Mechanical properties :
#
#
# Convention : Reuss Voigt Hill
#
# Bulk Modulus (GPa) = 53.55206 62.96469 58.25838
# Shear Modulus (GPa) = 11.92322 29.06375 20.49348
#
# Velocity S-wave (km/s) = 2.41442 3.76956 3.16536
# Velocity P-wave (km/s) = 5.82707 7.05197 6.46858
#
# Compressibility (1/GPa) = 0.01867342
#
# Stress axis : x y z
#
# Youngs Moduli (GPa) = 110.34615 57.82300 54.09618
#
# Poissons Ratio (x) = 0.07555 0.31653
# Poissons Ratio (y) = 0.14417 0.32061
# Poissons Ratio (z) = 0.64565 0.34270
#
# Static dielectric constant tensor:
#      x y z
#    x 1.792100 0.000000 0.022500 
#    y 0.000000 1.726780 0.000000 
#    z 0.022500 0.000000 1.774670 
# 
# From -- ./inp_files/28892.got.cif
#   From: 2010.05.17/outbox.cif.g08.bks.cpg/sg8_15_cif.got.tgz:28892.got - 2010.06.03 19:46:02.
