data_PCOD9132531
_publ_section_title
;
Structure prediction by ZEFSAII (Michael W. Deem and Ramdas Pophale) SiO2 
 PCOD9132531
Probable space group: C M
;
_chemical_formula_sum "Si O2"
_cell_formula_units_Z 32
_cell_length_a 8.529595
_cell_length_b 12.323137
_cell_length_c 18.875772
_cell_angle_alpha 90.000000
_cell_angle_beta 127.961622
_cell_angle_gamma 90.000000
_cell_volume 1564.277050
_symmetry_space_group_name_H-M "C M"
_symmetry_group_IT_number 8
_symmetry_cell_setting 'monoclinic'
loop_
_space_group_symop_operation_xyz
x,y,z
x,-y,z
1/2+x,1/2+y,z
1/2+x,1/2-y,z
loop_
_atom_site_type_symbol
_atom_site_label
_atom_site_fract_x
_atom_site_fract_y
_atom_site_fract_z
Si Si1 0.397290 0.621371 0.611410
Si Si2 0.754407 0.193885 0.842703
Si Si3 0.963440 0.124528 0.141565
Si Si4 0.826567 0.304353 0.710962
Si Si5 0.572572 0.877086 0.397743
Si Si6 0.082238 0.327821 0.107378
Si Si7 0.712323 0.212837 0.292120
Si Si8 0.676142 0.382108 0.935755
O O1 0.374949 0.500000 0.635776
O O2 0.621140 0.632347 0.643072
O O3 0.355024 0.712605 0.658623
O O4 0.239323 0.633943 0.504299
O O5 0.791558 0.247369 0.776650
O O6 0.539755 0.135518 0.776784
O O7 0.721279 0.287564 0.891732
O O8 0.961264 0.132373 0.912341
O O9 0.051536 0.197435 0.102969
O O10 0.051233 0.190769 0.233112
O O11 0.726061 0.136125 0.084299
O O12 0.020488 0.000000 0.154607
O O13 0.665912 0.859665 0.346330
O O14 0.412924 0.780622 0.358937
O O15 0.488505 0.000000 0.379681
O O16 0.184783 0.353614 0.211354
O O17 0.863400 0.376027 0.040354
O O18 0.676819 0.500000 0.900005
#
# Coordination Sequence:
#
# PCOD9132531 Si02
#       8
#     4   4   4   4   4   4   4   4
#     4  10  21  37  61  86 115 155 189 230 294 348
#     4   9  21  37  60  88 111 147 193 231 288 352
#     4  10  20  37  56  77 108 151 192 234 281 326
#     4   9  19  39  60  85 117 146 185 239 283 348
#     4  11  22  37  58  86 117 152 194 241 288 334
#     4  10  21  37  57  84 113 155 197 235 280 346
#     4  10  20  39  55  82 117 152 194 242 275 341
#     4  11  22  39  59  84 120 152 190 242 287 333
#
# _framework density 20.456734000000001
#
# number of rings (size 3 to 8) (size 9 to 14) (size 15 to 20)
#    0.750    1.250    1.250    2.250    0.000    6.000 
#    0.000    6.875    0.000    7.500    0.000    0.000 
#    0.000    0.000    0.000    0.000    0.000    0.000 
#
# Total GULP energy -89112.118620 kJ/mol
# GULP energy per Si atom -5569.507414 kJ/mol
# Density = 2.041017 g / cm^3
# Si number density = 20.456734 Si / 1000 Ang^3
#
#
#
# Elastic Constant Matrix: (Units=GPa)
#
#
# Indices 1 2 3 4 5 6 
#
# 1 60.8204 0.3630 20.3976 0.0000 15.9361 0.0000
# 2 0.3630 79.6816 15.7545 0.0000 -3.2547 0.0000
# 3 20.3976 15.7545 82.7851 0.0000 21.0853 0.0000
# 4 0.0000 0.0000 0.0000 -12.7128 0.0000 -10.4871
# 5 15.9361 -3.2547 21.0853 0.0000 37.2882 0.0000
# 6 0.0000 0.0000 0.0000 -10.4871 0.0000 19.6789
#
#
#
# Elastic Compliance Matrix: (Units=1/GPa)
#
#
# Indices 1 2 3 4 5 6 
#
# 1 0.019170 0.000274 -0.003148 0.000000 -0.006389 0.000000
# 2 0.000274 0.013332 -0.003354 0.000000 0.002943 0.000000
# 3 -0.003148 -0.003354 0.015451 0.000000 -0.007684 0.000000
# 4 0.000000 0.000000 0.000000 -0.054640 0.000000 -0.029118
# 5 -0.006389 0.002943 -0.007684 0.000000 0.034151 0.000000
# 6 0.000000 0.000000 0.000000 -0.029118 0.000000 0.035298
#
#
# Mechanical properties :
#
#
# Convention : Reuss Voigt Hill
#
# Bulk Modulus (GPa) = 28.17237 32.92413 30.54825
# Shear Modulus (GPa) = 57.43781 21.30230 39.37006
#
# Velocity S-wave (km/s) = 5.30459 3.23047 4.39173
# Velocity P-wave (km/s) = 7.16378 5.48125 6.37824
#
# Compressibility (1/GPa) = 0.03549577
#
# Stress axis : x y z
#
# Youngs Moduli (GPa) = 52.16473 75.00660 64.72184
#
# Poissons Ratio (x) = -0.02057 0.20377
# Poissons Ratio (y) = -0.01430 0.21710
# Poissons Ratio (z) = 0.16423 0.25160
#
# Static dielectric constant tensor:
#      x y z
#    x 1.742360 0.000000 0.041690 
#    y 0.000000 1.692920 0.000000 
#    z 0.041690 0.000000 1.764190 
# 
# From -- ./inp_files/30358.got.cif
#   From: 2010.05.17/outbox.cif.g08.bks.cpg/sg8_16_cif.got.tgz:30358.got - 2010.06.03 19:46:02.
