data_PCOD9132476
_publ_section_title
;
Structure prediction by ZEFSAII (Michael W. Deem and Ramdas Pophale) SiO2 
 PCOD9132476
Probable space group: C M
;
_chemical_formula_sum "Si O2"
_cell_formula_units_Z 32
_cell_length_a 20.853911
_cell_length_b 8.844211
_cell_length_c 25.645701
_cell_angle_alpha 90.000000
_cell_angle_beta 157.456202
_cell_angle_gamma 90.000000
_cell_volume 1813.432767
_symmetry_space_group_name_H-M "C M"
_symmetry_group_IT_number 8
_symmetry_cell_setting 'monoclinic'
loop_
_space_group_symop_operation_xyz
x,y,z
x,-y,z
1/2+x,1/2+y,z
1/2+x,1/2-y,z
loop_
_atom_site_type_symbol
_atom_site_label
_atom_site_fract_x
_atom_site_fract_y
_atom_site_fract_z
Si Si1 0.865280 0.680128 0.414010
Si Si2 0.369266 0.319043 0.699845
Si Si3 0.125680 0.679322 0.697041
Si Si4 0.014527 0.819760 0.422146
Si Si5 0.190800 0.180188 0.130390
Si Si6 0.012813 0.179142 0.108198
Si Si7 0.427930 0.819469 0.857797
Si Si8 0.158763 0.820673 0.834603
O O1 0.878801 0.500000 0.411655
O O2 0.669369 0.718378 0.262922
O O3 0.956315 0.705734 0.537016
O O4 0.960875 0.769605 0.440356
O O5 0.351228 0.500000 0.691198
O O6 0.196579 0.249347 0.549224
O O7 0.404524 0.249269 0.782966
O O8 0.521491 0.285359 0.775234
O O9 0.161418 0.500000 0.723330
O O10 0.274096 0.762912 0.777898
O O11 0.117723 0.737247 0.749765
O O12 0.871874 0.750136 0.277977
O O13 0.016937 0.000000 0.420167
O O14 0.081314 0.206732 0.100878
O O15 0.202425 0.000000 0.132014
O O16 0.094545 0.256995 0.010577
O O17 0.979010 0.000000 0.087329
O O18 0.843881 0.269295 0.990424
O O19 0.429409 0.000000 0.856678
O O20 0.157737 0.000000 0.824688
#
# Coordination Sequence:
#
# PCOD9132476 Si02
#       8
#     4   4   4   4   4   4   4   4
#     4   9  19  35  57  84 115 151 191 234 290 354
#     4  11  24  42  59  80 117 163 200 239 299 357
#     4  11  21  36  60  86 117 155 193 238 293 351
#     4  11  21  34  57  88 117 150 193 247 292 338
#     4  10  20  36  59  86 118 156 189 233 294 353
#     4   9  18  34  57  83 113 151 191 233 288 349
#     4  12  23  36  59  91 118 146 197 253 290 338
#     4  11  24  39  58  84 117 156 198 243 288 346
#
# _framework density 17.646091999999999
#
# number of rings (size 3 to 8) (size 9 to 14) (size 15 to 20)
#    0.000    1.500    2.500    4.500    0.000    4.500 
#    0.000    1.250    0.000    6.000    0.000    0.000 
#    0.000    0.000    0.000    0.000    0.000    0.000 
#
# Total GULP energy -89396.445453 kJ/mol
# GULP energy per Si atom -5587.277841 kJ/mol
# Density = 1.760593 g / cm^3
# Si number density = 17.646092 Si / 1000 Ang^3
#
#
#
# Elastic Constant Matrix: (Units=GPa)
#
#
# Indices 1 2 3 4 5 6 
#
# 1 78.2762 59.2615 62.3676 0.0004 0.2684 0.0001
# 2 59.2615 103.6902 77.3441 -0.0032 7.1668 0.0010
# 3 62.3676 77.3441 161.0758 -0.0035 1.0610 0.0008
# 4 0.0004 -0.0032 -0.0035 24.8870 0.0007 2.1142
# 5 0.2684 7.1668 1.0610 0.0007 23.3894 -0.0004
# 6 0.0001 0.0010 0.0008 2.1142 -0.0004 24.5579
#
#
#
# Elastic Compliance Matrix: (Units=1/GPa)
#
#
# Indices 1 2 3 4 5 6 
#
# 1 0.024510 -0.011128 -0.004169 -0.000003 0.003318 0.000001
# 2 -0.011128 0.020519 -0.005505 0.000002 -0.005910 -0.000001
# 3 -0.004169 -0.005505 0.010457 0.000001 0.001260 0.000000
# 4 -0.000003 0.000002 0.000001 0.040478 -0.000002 -0.003485
# 5 0.003318 -0.005910 0.001260 -0.000002 0.044470 0.000001
# 6 0.000001 -0.000001 0.000000 -0.003485 0.000001 0.041020
#
#
# Mechanical properties :
#
#
# Convention : Reuss Voigt Hill
#
# Bulk Modulus (GPa) = 72.03021 82.33206 77.18113
# Shear Modulus (GPa) = 21.96019 24.17146 23.06583
#
# Velocity S-wave (km/s) = 3.53154 3.70508 3.61935
# Velocity P-wave (km/s) = 7.58532 8.06611 7.82941
#
# Compressibility (1/GPa) = 0.01388306
#
# Stress axis : x y z
#
# Youngs Moduli (GPa) = 40.79945 48.73614 95.62663
#
# Poissons Ratio (x) = 0.54233 0.39864
# Poissons Ratio (y) = 0.45401 0.52641
# Poissons Ratio (z) = 0.17008 0.26829
#
# Static dielectric constant tensor:
#      x y z
#    x 1.565940 0.000000 -0.009330 
#    y 0.000000 1.587690 0.000000 
#    z -0.009330 0.000000 1.611850 
# 
# From -- ./inp_files/29728.got.cif
#   From: 2010.05.17/outbox.cif.g08.bks.cpg/sg8_15_cif.got.tgz:29728.got - 2010.06.03 19:46:02.
