data_PCOD9132121
_publ_section_title
;
Structure prediction by ZEFSAII (Michael W. Deem and Ramdas Pophale) SiO2 
 PCOD9132121
Probable space group: C M
;
_chemical_formula_sum "Si O2"
_cell_formula_units_Z 32
_cell_length_a 22.481833
_cell_length_b 7.901850
_cell_length_c 14.765179
_cell_angle_alpha 90.000000
_cell_angle_beta 150.664805
_cell_angle_gamma 90.000000
_cell_volume 1285.057765
_symmetry_space_group_name_H-M "C M"
_symmetry_group_IT_number 8
_symmetry_cell_setting 'monoclinic'
loop_
_space_group_symop_operation_xyz
x,y,z
x,-y,z
1/2+x,1/2+y,z
1/2+x,1/2-y,z
loop_
_atom_site_type_symbol
_atom_site_label
_atom_site_fract_x
_atom_site_fract_y
_atom_site_fract_z
Si Si1 0.043080 0.197435 0.171740
Si Si2 0.806152 0.311478 0.956822
Si Si3 0.682482 0.295231 0.184777
Si Si4 0.910115 0.192648 0.277776
Si Si5 0.538397 0.292835 0.825910
Si Si6 0.168318 0.692658 0.609413
Si Si7 0.442377 0.303092 0.518055
Si Si8 0.292079 0.703894 0.597548
O O1 0.074548 0.247941 0.110603
O O2 0.172104 0.220486 0.392569
O O3 0.007026 0.000000 0.124555
O O4 0.937519 0.294833 0.083180
O O5 0.759185 0.500000 0.885985
O O6 0.715191 0.204554 0.774132
O O7 0.828535 0.272479 0.091562
O O8 0.696478 0.500000 0.207282
O O9 0.807090 0.209287 0.379610
O O10 0.647605 0.243264 0.036569
O O11 0.924215 0.278038 0.395320
O O12 0.050598 0.196487 0.432898
O O13 0.869316 0.000000 0.234317
O O14 0.538594 0.500000 0.823399
O O15 0.531089 0.232568 0.712702
O O16 0.415767 0.237862 0.715118
O O17 0.132025 0.500000 0.541119
O O18 0.276293 0.738736 0.683626
O O19 0.474346 0.500000 0.546018
O O20 0.289158 0.500000 0.582885
#
# Coordination Sequence:
#
# PCOD9132121 Si02
#       8
#     4   4   4   4   4   4   4   4
#     4  11  21  35  59  91 127 159 197 251 305 360
#     4  12  25  41  63  90 121 165 209 252 309 365
#     4  10  21  37  60  90 122 159 198 243 299 358
#     4  11  24  42  62  89 123 161 210 261 307 360
#     4   9  18  36  60  85 118 157 193 234 292 364
#     4  11  23  40  64  94 124 159 201 251 312 370
#     4  10  22  40  62  86 117 158 202 251 301 353
#     4  10  19  35  62  89 120 158 196 239 305 374
#
# _framework density 24.901603999999999
#
# number of rings (size 3 to 8) (size 9 to 14) (size 15 to 20)
#    0.000    1.500    2.500    3.000    0.000    5.000 
#    0.000    2.500    0.000    0.000    0.000    0.000 
#    0.000    0.000    0.000    0.000    0.000    0.000 
#
# Total GULP energy -89509.919831 kJ/mol
# GULP energy per Si atom -5594.369989 kJ/mol
# Density = 2.484493 g / cm^3
# Si number density = 24.901604 Si / 1000 Ang^3
#
#
#
# Elastic Constant Matrix: (Units=GPa)
#
#
# Indices 1 2 3 4 5 6 
#
# 1 95.7541 12.1755 26.0380 0.0000 -26.9346 0.0000
# 2 12.1755 40.6923 -1.4465 0.0000 -3.2216 0.0000
# 3 26.0380 -1.4465 120.6449 0.0000 -21.1033 0.0000
# 4 0.0000 0.0000 0.0000 15.8456 0.0000 0.1744
# 5 -26.9346 -3.2216 -21.1033 0.0000 55.2566 0.0000
# 6 0.0000 0.0000 0.0000 0.1744 0.0000 13.1321
#
#
#
# Elastic Compliance Matrix: (Units=1/GPa)
#
#
# Indices 1 2 3 4 5 6 
#
# 1 0.012913 -0.003506 -0.001890 0.000000 0.005368 0.000000
# 2 -0.003506 0.025679 0.001101 0.000000 0.000209 0.000000
# 3 -0.001890 0.001101 0.009173 0.000000 0.002646 0.000000
# 4 0.000000 0.000000 0.000000 0.063118 0.000000 -0.000838
# 5 0.005368 0.000209 0.002646 0.000000 0.021737 0.000000
# 6 0.000000 0.000000 0.000000 -0.000838 0.000000 0.076160
#
#
# Mechanical properties :
#
#
# Convention : Reuss Voigt Hill
#
# Bulk Modulus (GPa) = 25.52610 36.73616 31.13113
# Shear Modulus (GPa) = 21.69866 31.53514 26.61690
#
# Velocity S-wave (km/s) = 2.95511 3.56250 3.27292
# Velocity P-wave (km/s) = 4.68152 5.63084 5.17798
#
# Compressibility (1/GPa) = 0.03917559
#
# Stress axis : x y z
#
# Youngs Moduli (GPa) = 77.44022 38.94180 109.01850
#
# Poissons Ratio (x) = 0.13653 0.20604
# Poissons Ratio (y) = 0.27150 -0.12004
# Poissons Ratio (z) = 0.14636 -0.04288
#
# Static dielectric constant tensor:
#      x y z
#    x 2.060670 0.000000 -0.028040 
#    y 0.000000 1.869330 0.000000 
#    z -0.028040 0.000000 1.931540 
# 
# From -- ./inp_files/26543.got.cif
#   From: 2010.05.17/outbox.cif.g08.bks.cpg/sg8_14_cif.got.tgz:26543.got - 2010.06.03 19:46:02.
