data_PCOD9132560
_publ_section_title
;
Structure prediction by ZEFSAII (Michael W. Deem and Ramdas Pophale) SiO2 
 PCOD9132560
Probable space group: C M
;
_chemical_formula_sum "Si O2"
_cell_formula_units_Z 30
_cell_length_a 13.708836
_cell_length_b 9.584999
_cell_length_c 10.392084
_cell_angle_alpha 90.000000
_cell_angle_beta 68.608539
_cell_angle_gamma 90.000000
_cell_volume 1271.441487
_symmetry_space_group_name_H-M "C M"
_symmetry_group_IT_number 8
_symmetry_cell_setting 'monoclinic'
loop_
_space_group_symop_operation_xyz
x,y,z
x,-y,z
1/2+x,1/2+y,z
1/2+x,1/2-y,z
loop_
_atom_site_type_symbol
_atom_site_label
_atom_site_fract_x
_atom_site_fract_y
_atom_site_fract_z
Si Si1 0.923700 0.654050 0.835250
Si Si2 0.301302 0.658182 0.714567
Si Si3 0.518741 0.656691 0.999321
Si Si4 0.009210 0.500000 0.551691
Si Si5 0.517629 0.705429 0.468231
Si Si6 0.653554 0.344751 0.172008
Si Si7 0.224632 0.159130 0.531385
Si Si8 0.806103 0.840413 0.263149
O O1 0.884796 0.500000 0.895136
O O2 0.835752 0.761633 0.827561
O O3 0.988498 0.617972 0.675228
O O4 0.995218 0.727942 0.904993
O O5 0.263501 0.500000 0.751453
O O6 0.407875 0.653617 0.577110
O O7 0.227459 0.756362 0.663329
O O8 0.527945 0.500000 0.937730
O O9 0.616572 0.681707 0.045131
O O10 0.417607 0.657231 0.140957
O O11 0.020232 0.372385 0.446928
O O12 0.551713 0.649546 0.313124
O O13 0.611739 0.658542 0.518224
O O14 0.701130 0.500000 0.159720
O O15 0.728783 0.229579 0.196184
O O16 0.295198 0.243163 0.394112
O O17 0.261751 0.000000 0.536443
O O18 0.775347 0.000000 0.312743
#
# Coordination Sequence:
#
# PCOD9132560 Si02
#       8
#     4   4   4   2   4   4   4   4
#     4   9  20  39  58  85 114 152 199 259 283 343
#     4  11  21  37  61  85 114 158 203 244 296 352
#     4  10  21  40  62  83 117 160 204 243 299 352
#     4   8  20  36  58  86 114 148 200 246 288 346
#     4  10  20  37  60  84 126 157 185 247 301 357
#     4  10  21  36  58  90 123 154 196 240 301 369
#     4  11  23  36  57  90 125 157 196 240 301 368
#     4  10  21  37  57  88 122 153 195 247 294 361
#
# _framework density 23.595265999999999
#
# number of rings (size 3 to 8) (size 9 to 14) (size 15 to 20)
#    0.400    1.600    0.000    4.400    5.600    2.667 
#    0.000    2.667    2.933    3.200    0.000    0.000 
#    0.000    0.000    0.000    0.000    0.000    0.000 
#
# Total GULP energy -83599.184588 kJ/mol
# GULP energy per Si atom -5573.278973 kJ/mol
# Density = 2.354156 g / cm^3
# Si number density = 23.595266 Si / 1000 Ang^3
#
#
#
# Elastic Constant Matrix: (Units=GPa)
#
#
# Indices 1 2 3 4 5 6 
#
# 1 48.5668 21.3067 18.1178 0.0000 0.7353 0.0000
# 2 21.3067 240.5611 50.1206 0.0000 28.9541 0.0000
# 3 18.1178 50.1206 54.0327 0.0000 15.4804 0.0000
# 4 0.0000 0.0000 0.0000 42.6819 0.0000 4.9791
# 5 0.7353 28.9541 15.4804 0.0000 41.2068 0.0000
# 6 0.0000 0.0000 0.0000 4.9791 0.0000 20.3779
#
#
#
# Elastic Compliance Matrix: (Units=1/GPa)
#
#
# Indices 1 2 3 4 5 6 
#
# 1 0.023956 -0.000798 -0.008215 0.000000 0.003219 0.000000
# 2 -0.000798 0.005338 -0.004049 0.000000 -0.002215 0.000000
# 3 -0.008215 -0.004049 0.027075 0.000000 -0.007180 0.000000
# 4 0.000000 0.000000 0.000000 0.024117 0.000000 -0.005893
# 5 0.003219 -0.002215 -0.007180 0.000000 0.028464 0.000000
# 6 0.000000 0.000000 0.000000 -0.005893 0.000000 0.050513
#
#
# Mechanical properties :
#
#
# Convention : Reuss Voigt Hill
#
# Bulk Modulus (GPa) = 33.06362 58.02790 45.54576
# Shear Modulus (GPa) = 25.55348 37.76101 31.65725
#
# Velocity S-wave (km/s) = 3.29445 4.00479 3.66687
# Velocity P-wave (km/s) = 5.33990 6.78461 6.10514
#
# Compressibility (1/GPa) = 0.03024472
#
# Stress axis : x y z
#
# Youngs Moduli (GPa) = 41.74311 187.34014 36.93445
#
# Poissons Ratio (x) = 0.14943 0.30342
# Poissons Ratio (y) = 0.03330 0.14956
# Poissons Ratio (z) = 0.34293 0.75859
#
# Static dielectric constant tensor:
#      x y z
#    x 1.967680 0.000000 -0.034110 
#    y 0.000000 1.927220 0.000000 
#    z -0.034110 0.000000 1.876780 
# 
# From -- ./inp_files/21350.got.cif
#   From: 2010.05.17/outbox.cif.g08.bks.cpg/sg8_11_cif.got.tgz:21350.got - 2010.06.03 19:46:02.
