data_PCOD9132884
_publ_section_title
;
Structure prediction by ZEFSAII (Michael W. Deem and Ramdas Pophale) SiO2 
 PCOD9132884
Probable space group: C M
;
_chemical_formula_sum "Si O2"
_cell_formula_units_Z 32
_cell_length_a 10.890083
_cell_length_b 15.753187
_cell_length_c 11.862675
_cell_angle_alpha 90.000000
_cell_angle_beta 38.746177
_cell_angle_gamma 90.000000
_cell_volume 1273.700679
_symmetry_space_group_name_H-M "C M"
_symmetry_group_IT_number 8
_symmetry_cell_setting 'monoclinic'
loop_
_space_group_symop_operation_xyz
x,y,z
x,-y,z
1/2+x,1/2+y,z
1/2+x,1/2-y,z
loop_
_atom_site_type_symbol
_atom_site_label
_atom_site_fract_x
_atom_site_fract_y
_atom_site_fract_z
Si Si1 0.379920 0.843531 0.360870
Si Si2 0.464487 0.665693 0.482037
Si Si3 0.820369 0.902990 0.808171
Si Si4 0.859473 0.362443 0.612418
Si Si5 0.776373 0.854308 0.397173
Si Si6 0.308502 0.719381 0.021607
Si Si7 0.599443 0.340418 0.997288
Si Si8 0.366967 0.906060 0.130110
O O1 0.303497 0.888323 0.527181
O O2 0.284423 0.751223 0.395424
O O3 0.390462 0.904242 0.247852
O O4 0.606592 0.816394 0.217920
O O5 0.459003 0.616377 0.603065
O O6 0.383967 0.759184 0.574297
O O7 0.316708 0.624961 0.497648
O O8 0.672948 0.654431 0.265671
O O9 0.872057 0.847120 0.879371
O O10 0.828324 0.000000 0.834710
O O11 0.591777 0.887080 0.932051
O O12 0.720654 0.386769 0.814363
O O13 0.074470 0.388095 0.496336
O O14 0.944309 0.883109 0.190864
O O15 0.465842 0.720494 0.010447
O O16 0.249696 0.796481 0.978671
O O17 0.314482 0.000000 0.125187
#
# Coordination Sequence:
#
# PCOD9132884 Si02
#       8
#     4   4   4   4   4   4   4   4
#     4   9  19  34  55  80 119 147 193 236 288 349
#     4  11  22  35  59  85 119 153 200 243 294 352
#     4  10  22  39  60  87 117 154 203 249 290 347
#     4  11  21  33  56  83 122 154 187 233 302 350
#     4  10  22  37  53  86 121 157 187 242 299 357
#     4  10  21  37  58  87 124 156 194 243 298 354
#     4  11  23  35  57  87 126 161 191 238 302 358
#     4  10  21  38  60  85 115 154 195 244 293 345
#
# _framework density 25.123642
#
# number of rings (size 3 to 8) (size 9 to 14) (size 15 to 20)
#    0.000    1.750    3.750    0.375    5.250    1.000 
#    0.000    0.000    0.000    3.000    0.000    2.625 
#    0.000    0.000    0.000    0.000    0.000    0.000 
#
# Total GULP energy -89269.150740 kJ/mol
# GULP energy per Si atom -5579.321921 kJ/mol
# Density = 2.506646 g / cm^3
# Si number density = 25.123642 Si / 1000 Ang^3
#
#
#
# Elastic Constant Matrix: (Units=GPa)
#
#
# Indices 1 2 3 4 5 6 
#
# 1 90.0192 -7.8103 14.6900 -0.0081 21.5827 0.0029
# 2 -7.8103 37.9803 -3.9105 -0.0111 -1.5256 0.0031
# 3 14.6900 -3.9105 142.4491 -0.0090 14.6465 0.0048
# 4 -0.0081 -0.0111 -0.0090 1.3643 0.0060 -2.0710
# 5 21.5827 -1.5256 14.6465 0.0060 47.9916 -0.0027
# 6 0.0029 0.0031 0.0048 -2.0710 -0.0027 8.2332
#
#
#
# Elastic Compliance Matrix: (Units=1/GPa)
#
#
# Indices 1 2 3 4 5 6 
#
# 1 0.012727 0.002328 -0.000689 0.000168 -0.005439 0.000036
# 2 0.002328 0.026849 0.000534 0.000354 -0.000356 0.000078
# 3 -0.000689 0.000534 0.007301 0.000080 -0.001901 0.000015
# 4 0.000168 0.000354 0.000080 1.185728 -0.000221 0.298263
# 5 -0.005439 -0.000356 -0.001901 -0.000221 0.023852 -0.000045
# 6 0.000036 0.000078 0.000015 0.298263 -0.000045 0.196486
#
#
# Mechanical properties :
#
#
# Convention : Reuss Voigt Hill
#
# Bulk Modulus (GPa) = 19.52291 30.70966 25.11628
# Shear Modulus (GPa) = 3.41140 29.34978 16.38059
#
# Velocity S-wave (km/s) = 1.16653 3.42162 2.55620
# Velocity P-wave (km/s) = 3.09871 5.27825 4.32793
#
# Compressibility (1/GPa) = 0.05122188
#
# Stress axis : x y z
#
# Youngs Moduli (GPa) = 78.57101 37.24548 136.96227
#
# Poissons Ratio (x) = -0.08670 0.09441
# Poissons Ratio (y) = -0.18290 -0.07309
# Poissons Ratio (z) = 0.05416 -0.01988
#
# Static dielectric constant tensor:
#      x y z
#    x 2.063180 0.000000 -0.058180 
#    y 0.000000 2.038430 0.000000 
#    z -0.058180 0.000000 1.974090 
# 
# From -- ./inp_files/20783.got.cif
#   From: 2010.05.17/outbox.cif.g08.bks.cpg/sg8_11_cif.got.tgz:20783.got - 2010.06.03 19:46:02.
