data_PCOD9132493
_publ_section_title
;
Structure prediction by ZEFSAII (Michael W. Deem and Ramdas Pophale) SiO2 
 PCOD9132493
Probable space group: C M
;
_chemical_formula_sum "Si O2"
_cell_formula_units_Z 26
_cell_length_a 17.930142
_cell_length_b 8.501623
_cell_length_c 7.134209
_cell_angle_alpha 90.000000
_cell_angle_beta 103.549249
_cell_angle_gamma 90.000000
_cell_volume 1057.238875
_symmetry_space_group_name_H-M "C M"
_symmetry_group_IT_number 8
_symmetry_cell_setting 'monoclinic'
loop_
_space_group_symop_operation_xyz
x,y,z
x,-y,z
1/2+x,1/2+y,z
1/2+x,1/2-y,z
loop_
_atom_site_type_symbol
_atom_site_label
_atom_site_fract_x
_atom_site_fract_y
_atom_site_fract_z
Si Si1 0.878860 0.824951 0.979490
Si Si2 0.329450 0.675444 0.366723
Si Si3 0.027776 0.820059 0.811989
Si Si4 0.684868 0.500000 0.658131
Si Si5 0.099780 0.325772 0.537631
Si Si6 0.325616 0.000000 0.459753
Si Si7 0.303796 0.000000 0.998027
Si Si8 0.648485 0.822679 0.151585
O O1 0.834852 0.660979 0.925454
O O2 0.958205 0.807941 0.917217
O O3 0.845926 0.000000 0.910723
O O4 0.880049 0.829006 0.207637
O O5 0.332506 0.500000 0.453419
O O6 0.355969 0.822181 0.506866
O O7 0.238752 0.704601 0.255775
O O8 0.028369 0.702657 0.634461
O O9 0.027149 0.000000 0.742097
O O10 0.103853 0.782675 0.977966
O O11 0.645988 0.668066 0.608134
O O12 0.748755 0.500000 0.533939
O O13 0.717149 0.500000 0.885928
O O14 0.132521 0.500000 0.598702
O O15 0.097466 0.320828 0.311341
O O16 0.318076 0.000000 0.227390
O O17 0.647364 0.000000 0.074806
#
# Coordination Sequence:
#
# PCOD9132493 Si02
#       8
#     4   4   4   2   4   2   2   4
#     4   9  21  41  61  90 125 164 208 256 305 376
#     4   9  18  35  60  85 117 155 197 247 306 358
#     4  11  24  39  66  94 125 170 215 256 318 374
#     4  12  24  38  62 102 118 161 211 257 321 370
#     4  11  25  41  61  93 134 163 208 263 312 378
#     4  10  20  36  60  86 126 148 191 258 305 362
#     4  10  24  40  66  88 126 165 200 257 320 366
#     4  10  22  39  64  93 121 167 208 258 317 371
#
# _framework density 24.592359999999999
#
# number of rings (size 3 to 8) (size 9 to 14) (size 15 to 20)
#    0.000    1.846    2.308    0.462    8.615    0.615 
#    0.000    3.077    0.000    5.538    0.000    0.000 
#    0.000    0.000    0.000    0.000    0.000    0.000 
#
# Total GULP energy -72475.970302 kJ/mol
# GULP energy per Si atom -5575.074639 kJ/mol
# Density = 2.453639 g / cm^3
# Si number density = 24.592360 Si / 1000 Ang^3
#
#
#
# Elastic Constant Matrix: (Units=GPa)
#
#
# Indices 1 2 3 4 5 6 
#
# 1 93.4148 53.4932 36.2919 0.0000 -29.6341 0.0000
# 2 53.4932 222.1274 13.3280 0.0000 -6.1793 0.0000
# 3 36.2919 13.3280 97.2478 0.0000 -32.0910 0.0000
# 4 0.0000 0.0000 0.0000 -13.2000 0.0000 -10.9247
# 5 -29.6341 -6.1793 -32.0910 0.0000 43.2517 0.0000
# 6 0.0000 0.0000 0.0000 -10.9247 0.0000 13.8801
#
#
#
# Elastic Compliance Matrix: (Units=1/GPa)
#
#
# Indices 1 2 3 4 5 6 
#
# 1 0.016652 -0.003596 -0.002815 0.000000 0.008806 0.000000
# 2 -0.003596 0.005318 0.000067 0.000000 -0.001654 0.000000
# 3 -0.002815 0.000067 0.014157 0.000000 0.008585 0.000000
# 4 0.000000 0.000000 0.000000 -0.045874 0.000000 -0.036107
# 5 0.008806 -0.001654 0.008585 0.000000 0.035288 0.000000
# 6 0.000000 0.000000 0.000000 -0.036107 0.000000 0.043627
#
#
# Mechanical properties :
#
#
# Convention : Reuss Voigt Hill
#
# Bulk Modulus (GPa) = 42.66468 68.77958 55.72213
# Shear Modulus (GPa) = 55.76115 29.43146 42.59631
#
# Velocity S-wave (km/s) = 4.76691 3.46319 4.16636
# Velocity P-wave (km/s) = 6.90538 6.63477 6.77143
#
# Compressibility (1/GPa) = 0.02343859
#
# Stress axis : x y z
#
# Youngs Moduli (GPa) = 60.05403 188.04403 70.63449
#
# Poissons Ratio (x) = 0.67624 0.19886
# Poissons Ratio (y) = 0.21597 -0.00476
# Poissons Ratio (z) = 0.16907 -0.01267
#
# Static dielectric constant tensor:
#      x y z
#    x 2.001800 0.000000 -0.021150 
#    y 0.000000 2.140510 0.000000 
#    z -0.021150 0.000000 1.943050 
# 
# From -- ./inp_files/14429.got.cif
#   From: 2010.05.17/outbox.cif.g08.bks.cpg/sg8_8_cif.got.tgz:14429.got - 2010.06.03 19:46:02.
