data_PCOD9132459
_publ_section_title
;
Structure prediction by ZEFSAII (Michael W. Deem and Ramdas Pophale) SiO2 
 PCOD9132459
Probable space group: C M
;
_chemical_formula_sum "Si O2"
_cell_formula_units_Z 32
_cell_length_a 20.906676
_cell_length_b 8.801866
_cell_length_c 25.659300
_cell_angle_alpha 90.000000
_cell_angle_beta 22.556747
_cell_angle_gamma 90.000000
_cell_volume 1811.261648
_symmetry_space_group_name_H-M "C M"
_symmetry_group_IT_number 8
_symmetry_cell_setting 'monoclinic'
loop_
_space_group_symop_operation_xyz
x,y,z
x,-y,z
1/2+x,1/2+y,z
1/2+x,1/2-y,z
loop_
_atom_site_type_symbol
_atom_site_label
_atom_site_fract_x
_atom_site_fract_y
_atom_site_fract_z
Si Si1 0.009780 0.820228 0.992490
Si Si2 0.444410 0.818628 0.429411
Si Si3 0.340067 0.818159 0.687933
Si Si4 0.000476 0.817805 0.273099
Si Si5 0.721926 0.818188 0.397983
Si Si6 0.356672 0.319305 0.992485
Si Si7 0.184935 0.680967 0.700765
Si Si8 0.252855 0.179501 0.261245
O O1 0.202082 0.781653 0.835411
O O2 0.913999 0.794811 0.009587
O O3 0.997540 0.000000 0.013729
O O4 0.919776 0.725991 0.104808
O O5 0.466597 0.755130 0.354771
O O6 0.279250 0.753131 0.580861
O O7 0.600785 0.762919 0.346323
O O8 0.441658 0.000000 0.431104
O O9 0.530856 0.785932 0.558034
O O10 0.288980 0.731683 0.673761
O O11 0.323040 0.000000 0.690302
O O12 0.854056 0.777943 0.342949
O O13 0.007531 0.000000 0.273018
O O14 0.177750 0.756173 0.119858
O O15 0.757635 0.734415 0.317037
O O16 0.733238 0.000000 0.380368
O O17 0.349497 0.500000 0.989706
O O18 0.500429 0.246356 0.848960
O O19 0.182100 0.500000 0.699009
O O20 0.225431 0.000000 0.279040
#
# Coordination Sequence:
#
# PCOD9132459 Si02
#       8
#     4   4   4   4   4   4   4   4
#     4   9  18  33  56  84 113 149 191 236 288 345
#     4  12  23  38  59  84 117 156 197 243 295 349
#     4   9  18  35  58  83 114 153 193 231 288 358
#     4  11  23  39  60  88 118 154 200 246 290 346
#     4  10  22  40  61  84 118 158 192 236 296 356
#     4  10  20  36  58  84 117 158 192 233 295 356
#     4  11  21  34  57  89 118 147 191 250 292 336
#     4  12  23  35  57  88 117 149 196 247 288 340
#
# _framework density 17.667244
#
# number of rings (size 3 to 8) (size 9 to 14) (size 15 to 20)
#    0.000    1.500    2.500    4.875    0.000    3.000 
#    0.000    1.250    0.000    6.000    0.000    0.000 
#    0.000    0.000    0.000    0.000    0.000    0.000 
#
# Total GULP energy -89397.503972 kJ/mol
# GULP energy per Si atom -5587.343998 kJ/mol
# Density = 1.762703 g / cm^3
# Si number density = 17.667244 Si / 1000 Ang^3
#
#
#
# Elastic Constant Matrix: (Units=GPa)
#
#
# Indices 1 2 3 4 5 6 
#
# 1 88.3258 59.5304 71.1663 0.0000 -2.2706 -0.0001
# 2 59.5304 101.1391 74.0502 -0.0011 -2.2553 -0.0002
# 3 71.1663 74.0502 169.1537 -0.0035 -1.5215 -0.0004
# 4 0.0000 -0.0011 -0.0035 24.3030 -0.0009 0.3265
# 5 -2.2706 -2.2553 -1.5215 -0.0009 24.1016 -0.0004
# 6 -0.0001 -0.0002 -0.0004 0.3265 -0.0004 22.6475
#
#
#
# Elastic Compliance Matrix: (Units=1/GPa)
#
#
# Indices 1 2 3 4 5 6 
#
# 1 0.021446 -0.008835 -0.005147 -0.000001 0.000869 0.000000
# 2 -0.008835 0.018213 -0.004251 0.000000 0.000604 0.000000
# 3 -0.005147 -0.004251 0.009936 0.000001 -0.000255 0.000000
# 4 -0.000001 0.000000 0.000001 0.041155 0.000002 -0.000593
# 5 0.000869 0.000604 -0.000255 0.000002 0.041613 0.000001
# 6 0.000000 0.000000 0.000000 -0.000593 0.000001 0.044164
#
#
# Mechanical properties :
#
#
# Convention : Reuss Voigt Hill
#
# Bulk Modulus (GPa) = 76.16638 85.34583 80.75610
# Shear Modulus (GPa) = 23.00226 24.46852 23.73539
#
# Velocity S-wave (km/s) = 3.61220 3.72555 3.66931
# Velocity P-wave (km/s) = 7.78476 8.18038 7.98502
#
# Compressibility (1/GPa) = 0.01312915
#
# Stress axis : x y z
#
# Youngs Moduli (GPa) = 46.62851 54.90453 100.64576
#
# Poissons Ratio (x) = 0.48509 0.51804
# Poissons Ratio (y) = 0.41197 0.42781
# Poissons Ratio (z) = 0.24001 0.23338
#
# Static dielectric constant tensor:
#      x y z
#    x 1.565370 0.000000 -0.001150 
#    y 0.000000 1.588230 0.000000 
#    z -0.001150 0.000000 1.615350 
# 
# From -- ./inp_files/31642.got.cif
#   From: 2010.05.17/outbox.cif.g08.bks.cpg/sg8_16_cif.got.tgz:31642.got - 2010.06.03 19:46:02.
