data_PCOD9132223
_publ_section_title
;
Structure prediction by ZEFSAII (Michael W. Deem and Ramdas Pophale) SiO2 
 PCOD9132223
Probable space group: C M
;
_chemical_formula_sum "Si O2"
_cell_formula_units_Z 24
_cell_length_a 14.267775
_cell_length_b 13.885481
_cell_length_c 9.389625
_cell_angle_alpha 90.000000
_cell_angle_beta 43.217133
_cell_angle_gamma 90.000000
_cell_volume 1273.816936
_symmetry_space_group_name_H-M "C M"
_symmetry_group_IT_number 8
_symmetry_cell_setting 'monoclinic'
loop_
_space_group_symop_operation_xyz
x,y,z
x,-y,z
1/2+x,1/2+y,z
1/2+x,1/2-y,z
loop_
_atom_site_type_symbol
_atom_site_label
_atom_site_fract_x
_atom_site_fract_y
_atom_site_fract_z
Si Si1 0.332901 0.500000 0.716910
Si Si2 0.517051 0.000000 0.163875
Si Si3 0.919884 0.282293 0.219791
Si Si4 0.287096 0.000000 0.640031
Si Si5 0.889803 0.207501 0.555919
Si Si6 0.608936 0.500000 0.554044
Si Si7 0.691056 0.680809 0.272221
Si Si8 0.203176 0.827063 0.935555
O O1 0.367580 0.592819 0.580495
O O2 0.444940 0.500000 0.720274
O O3 0.179966 0.500000 0.951638
O O4 0.465282 0.895337 0.161772
O O5 0.440641 0.000000 0.403374
O O6 0.851429 0.258008 0.449180
O O7 0.815199 0.263360 0.207595
O O8 0.050667 0.211667 0.073372
O O9 0.253176 0.090366 0.775829
O O10 0.181133 0.000000 0.625764
O O11 0.800633 0.238980 0.788337
O O12 0.047130 0.235323 0.412142
O O13 0.660055 0.593093 0.411965
O O14 0.720860 0.645164 0.080003
#
# Coordination Sequence:
#
# PCOD9132223 Si02
#       8
#     2   2   4   2   4   2   4   4
#     4  10  22  37  63  88 124 158 200 243 301 354
#     4  12  20  38  64  87 119 160 197 246 295 355
#     4  11  22  39  63  87 122 157 203 243 301 353
#     4  12  23  40  64  87 121 157 205 244 301 358
#     4  10  21  39  60  89 118 162 197 249 295 352
#     4  10  19  39  61  86 118 163 198 239 303 355
#     4  10  21  37  60  87 121 157 199 243 297 358
#     4  11  23  38  61  91 121 157 200 250 296 353
#
# _framework density 18.841011999999999
#
# number of rings (size 3 to 8) (size 9 to 14) (size 15 to 20)
#    0.000    1.333    5.000    0.500    0.000    6.000 
#    0.000    0.000    0.000    5.000    0.000    0.000 
#    0.000    0.000    0.000    0.000    0.000    0.000 
#
# Total GULP energy -66856.960919 kJ/mol
# GULP energy per Si atom -5571.413410 kJ/mol
# Density = 1.879813 g / cm^3
# Si number density = 18.841012 Si / 1000 Ang^3
#
#
#
# Elastic Constant Matrix: (Units=GPa)
#
#
# Indices 1 2 3 4 5 6 
#
# 1 137.0083 16.7797 53.8175 0.0000 5.6105 0.0000
# 2 16.7797 62.4962 1.0979 0.0000 0.0369 0.0000
# 3 53.8175 1.0979 97.6096 0.0000 -6.7366 0.0000
# 4 0.0000 0.0000 0.0000 25.9718 0.0000 6.6110
# 5 5.6105 0.0369 -6.7366 0.0000 26.5464 0.0000
# 6 0.0000 0.0000 0.0000 6.6110 0.0000 19.3116
#
#
#
# Elastic Compliance Matrix: (Units=1/GPa)
#
#
# Indices 1 2 3 4 5 6 
#
# 1 0.010016 -0.002586 -0.005740 0.000000 -0.003570 0.000000
# 2 -0.002586 0.016672 0.001297 0.000000 0.000853 0.000000
# 3 -0.005740 0.001297 0.013719 0.000000 0.004693 0.000000
# 4 0.000000 0.000000 0.000000 0.042179 0.000000 -0.014439
# 5 -0.003570 0.000853 0.004693 0.000000 0.039614 0.000000
# 6 0.000000 0.000000 0.000000 -0.014439 0.000000 0.056725
#
#
# Mechanical properties :
#
#
# Convention : Reuss Voigt Hill
#
# Bulk Modulus (GPa) = 37.95133 48.94492 43.44812
# Shear Modulus (GPa) = 24.78113 29.39390 27.08751
#
# Velocity S-wave (km/s) = 3.63061 3.95410 3.79580
# Velocity P-wave (km/s) = 6.14506 6.84695 6.50548
#
# Compressibility (1/GPa) = 0.02634954
#
# Stress axis : x y z
#
# Youngs Moduli (GPa) = 99.83587 59.98047 72.89221
#
# Poissons Ratio (x) = 0.15513 0.41839
# Poissons Ratio (y) = 0.25821 -0.09457
# Poissons Ratio (z) = 0.57305 -0.07782
#
# Static dielectric constant tensor:
#      x y z
#    x 1.660910 0.000000 -0.027750 
#    y 0.000000 1.793710 0.000000 
#    z -0.027750 0.000000 1.670270 
# 
# From -- ./inp_files/11095.got.cif
#   From: 2010.05.17/outbox.cif.g08.bks.cpg/sg8_6_cif.got.tgz:11095.got - 2010.06.03 19:46:02.
