data_PCOD9132179
_publ_section_title
;
Structure prediction by ZEFSAII (Michael W. Deem and Ramdas Pophale) SiO2 
 PCOD9132179
Probable space group: C M
;
_chemical_formula_sum "Si O2"
_cell_formula_units_Z 32
_cell_length_a 18.704350
_cell_length_b 13.658790
_cell_length_c 22.658500
_cell_angle_alpha 90.000000
_cell_angle_beta 17.563997
_cell_angle_gamma 90.000000
_cell_volume 1746.881015
_symmetry_space_group_name_H-M "C M"
_symmetry_group_IT_number 8
_symmetry_cell_setting 'monoclinic'
loop_
_space_group_symop_operation_xyz
x,y,z
x,-y,z
1/2+x,1/2+y,z
1/2+x,1/2-y,z
loop_
_atom_site_type_symbol
_atom_site_label
_atom_site_fract_x
_atom_site_fract_y
_atom_site_fract_z
Si Si1 0.620670 0.725800 0.654390
Si Si2 0.597915 0.798724 0.086185
Si Si3 0.181459 0.885296 0.490443
Si Si4 0.368365 0.114412 0.154766
Si Si5 0.951042 0.741955 0.504224
Si Si6 0.974483 0.613369 0.674351
Si Si7 0.720126 0.769979 0.806243
Si Si8 0.301300 0.611498 0.299755
O O1 0.671486 0.641596 0.566840
O O2 0.574682 0.822967 0.650163
O O3 0.828205 0.732991 0.538107
O O4 0.374301 0.702457 0.881103
O O5 0.418570 0.839350 0.276077
O O6 0.547902 0.863857 0.067445
O O7 0.513396 0.688554 0.137804
O O8 0.950785 0.834512 0.643052
O O9 0.175264 0.000000 0.484039
O O10 0.122018 0.163419 0.367718
O O11 0.347734 0.000000 0.159887
O O12 0.484337 0.172753 0.009172
O O13 0.121902 0.654052 0.391621
O O14 0.755520 0.750247 0.709583
O O15 0.928352 0.500000 0.725150
O O16 0.752682 0.672377 0.820458
O O17 0.162478 0.615187 0.471897
O O18 0.369803 0.500000 0.234283
#
# Coordination Sequence:
#
# PCOD9132179 Si02
#       8
#     4   4   4   4   4   4   4   4
#     4  11  23  38  58  88 123 154 190 243 304 358
#     4  11  20  36  60  92 114 152 201 244 293 350
#     4  11  21  37  62  89 120 153 198 249 292 347
#     4  11  21  36  61  88 115 154 203 244 289 351
#     4  10  23  39  57  84 124 153 188 246 301 353
#     4   9  17  35  59  80 111 152 193 236 286 343
#     4  10  19  37  57  88 113 152 200 244 289 346
#     4   9  18  38  62  81 108 152 199 242 286 340
#
# _framework density 18.318363000000002
#
# number of rings (size 3 to 8) (size 9 to 14) (size 15 to 20)
#    0.000    1.750    7.500    0.750    0.000    3.500 
#    0.000    0.000    0.000    3.000    0.000    0.000 
#    0.000    0.000    0.000    0.000    0.000    0.000 
#
# Total GULP energy -89268.485856 kJ/mol
# GULP energy per Si atom -5579.280366 kJ/mol
# Density = 1.827667 g / cm^3
# Si number density = 18.318363 Si / 1000 Ang^3
#
#
#
# Elastic Constant Matrix: (Units=GPa)
#
#
# Indices 1 2 3 4 5 6 
#
# 1 66.0347 0.6187 -0.8851 -0.1512 -2.2978 -0.0005
# 2 0.6187 99.1345 8.2441 -0.3844 4.9400 0.0014
# 3 -0.8851 8.2441 57.8466 -0.2398 8.5929 -0.0042
# 4 -0.1512 -0.3844 -0.2398 12.8880 -0.0001 7.7558
# 5 -2.2978 4.9400 8.5929 -0.0001 21.4600 -0.0119
# 6 -0.0005 0.0014 -0.0042 7.7558 -0.0119 9.8683
#
#
#
# Elastic Compliance Matrix: (Units=1/GPa)
#
#
# Indices 1 2 3 4 5 6 
#
# 1 0.015204 -0.000178 0.000012 0.000326 0.001664 -0.000253
# 2 -0.000178 0.010284 -0.001182 0.000541 -0.001913 -0.000430
# 3 0.000012 -0.001182 0.018519 0.000588 -0.007142 -0.000462
# 4 0.000326 0.000541 0.000588 0.147280 -0.000389 -0.115752
# 5 0.001664 -0.001913 -0.007142 -0.000389 0.050077 0.000363
# 6 -0.000253 -0.000430 -0.000462 -0.115752 0.000363 0.192308
#
#
# Mechanical properties :
#
#
# Convention : Reuss Voigt Hill
#
# Bulk Modulus (GPa) = 24.20575 26.55235 25.37905
# Shear Modulus (GPa) = 11.10770 23.17914 17.14342
#
# Velocity S-wave (km/s) = 2.46513 3.56103 3.06250
# Velocity P-wave (km/s) = 4.62008 5.60664 5.13709
#
# Compressibility (1/GPa) = 0.04131249
#
# Stress axis : x y z
#
# Youngs Moduli (GPa) = 65.77205 97.23696 53.99842
#
# Poissons Ratio (x) = 0.01726 -0.00065
# Poissons Ratio (y) = 0.01168 0.06382
# Poissons Ratio (z) = -0.00080 0.11493
#
# Static dielectric constant tensor:
#      x y z
#    x 1.606490 -0.000010 0.040130 
#    y -0.000010 1.632680 0.000040 
#    z 0.040130 0.000040 1.653790 
# 
# From -- ./inp_files/31199.got.cif
#   From: 2010.05.17/outbox.cif.g08.bks.cpg/sg8_16_cif.got.tgz:31199.got - 2010.06.03 19:46:02.
