data_PCOD9132601
_publ_section_title
;
Structure prediction by ZEFSAII (Michael W. Deem and Ramdas Pophale) SiO2 
 PCOD9132601
Probable space group: C M
;
_chemical_formula_sum "Si O2"
_cell_formula_units_Z 32
_cell_length_a 20.066137
_cell_length_b 8.587603
_cell_length_c 20.076741
_cell_angle_alpha 90.000000
_cell_angle_beta 151.443479
_cell_angle_gamma 90.000000
_cell_volume 1653.788539
_symmetry_space_group_name_H-M "C M"
_symmetry_group_IT_number 8
_symmetry_cell_setting 'monoclinic'
loop_
_space_group_symop_operation_xyz
x,y,z
x,-y,z
1/2+x,1/2+y,z
1/2+x,1/2-y,z
loop_
_atom_site_type_symbol
_atom_site_label
_atom_site_fract_x
_atom_site_fract_y
_atom_site_fract_z
Si Si1 0.540730 0.814928 0.898190
Si Si2 0.980684 0.689782 0.449340
Si Si3 0.982654 0.315277 0.107759
Si Si4 0.181029 0.185084 0.888974
Si Si5 0.995901 0.681883 0.611511
Si Si6 0.242239 0.312451 0.592095
Si Si7 0.162720 0.186634 0.143487
Si Si8 0.223351 0.316384 0.419605
O O1 0.632136 0.760590 0.915021
O O2 0.382641 0.757903 0.746011
O O3 0.541704 0.000000 0.902689
O O4 0.602066 0.746860 0.020403
O O5 0.976039 0.500000 0.444548
O O6 0.028775 0.735148 0.565724
O O7 0.822864 0.742757 0.295406
O O8 0.100172 0.739805 0.503203
O O9 0.973407 0.500000 0.085057
O O10 0.063672 0.239227 0.117271
O O11 0.074243 0.296393 0.254771
O O12 0.828250 0.256840 0.988980
O O13 0.068610 0.222119 0.733458
O O14 0.190836 0.000000 0.908507
O O15 0.030987 0.500000 0.649898
O O16 0.831759 0.709010 0.476144
O O17 0.251901 0.500000 0.607244
O O18 0.230897 0.277400 0.503861
O O19 0.165526 0.000000 0.144303
O O20 0.261291 0.500000 0.445145
#
# Coordination Sequence:
#
# PCOD9132601 Si02
#       8
#     4   4   4   4   4   4   4   4
#     4  12  26  43  61  90 127 162 204 257 307 363
#     4   9  21  39  63  93 122 158 205 250 299 361
#     4  10  23  41  63  94 127 160 205 257 304 360
#     4  11  24  42  64  91 122 165 208 250 308 367
#     4  11  21  38  62  91 124 158 202 258 304 356
#     4  10  21  40  65  91 120 163 208 248 302 365
#     4  11  23  42  66  90 123 166 205 249 307 370
#     4  10  20  37  64  90 119 160 203 253 307 362
#
# _framework density 19.349512000000001
#
# number of rings (size 3 to 8) (size 9 to 14) (size 15 to 20)
#    0.000    1.500    2.500    2.250    3.500    1.000 
#    0.000    1.875    0.000    0.000    0.000    0.000 
#    0.000    0.000    0.000    0.000    0.000    0.000 
#
# Total GULP energy -89376.865099 kJ/mol
# GULP energy per Si atom -5586.054069 kJ/mol
# Density = 1.930547 g / cm^3
# Si number density = 19.349512 Si / 1000 Ang^3
#
#
#
# Elastic Constant Matrix: (Units=GPa)
#
#
# Indices 1 2 3 4 5 6 
#
# 1 115.9342 23.2653 47.9846 0.0000 3.5561 0.0000
# 2 23.2653 34.1635 15.9864 0.0000 -0.9186 0.0000
# 3 47.9846 15.9864 79.9806 0.0000 -2.2561 0.0000
# 4 0.0000 0.0000 0.0000 17.1071 0.0000 3.4610
# 5 3.5561 -0.9186 -2.2561 0.0000 39.5021 0.0000
# 6 0.0000 0.0000 0.0000 3.4610 0.0000 25.7124
#
#
#
# Elastic Compliance Matrix: (Units=1/GPa)
#
#
# Indices 1 2 3 4 5 6 
#
# 1 0.012431 -0.005513 -0.006402 0.000000 -0.001613 0.000000
# 2 -0.005513 0.034742 -0.003605 0.000000 0.001098 0.000000
# 3 -0.006402 -0.003605 0.017106 0.000000 0.001469 0.000000
# 4 0.000000 0.000000 0.000000 0.060092 0.000000 -0.008089
# 5 -0.001613 0.001098 0.001469 0.000000 0.025570 0.000000
# 6 0.000000 0.000000 0.000000 -0.008089 0.000000 0.039980
#
#
# Mechanical properties :
#
#
# Convention : Reuss Voigt Hill
#
# Bulk Modulus (GPa) = 30.08579 44.95011 37.51795
# Shear Modulus (GPa) = 21.54789 25.98712 23.76750
#
# Velocity S-wave (km/s) = 3.34071 3.66872 3.50855
# Velocity P-wave (km/s) = 5.51931 6.42083 5.98706
#
# Compressibility (1/GPa) = 0.03323828
#
# Stress axis : x y z
#
# Youngs Moduli (GPa) = 80.44391 28.78337 58.45993
#
# Poissons Ratio (x) = 0.15869 0.37423
# Poissons Ratio (y) = 0.44352 0.21078
# Poissons Ratio (z) = 0.51496 0.10378
#
# Static dielectric constant tensor:
#      x y z
#    x 1.658190 0.000000 0.012680 
#    y 0.000000 1.662900 0.000000 
#    z 0.012680 0.000000 1.653930 
# 
# From -- ./inp_files/31358.got.cif
#   From: 2010.05.17/outbox.cif.g08.bks.cpg/sg8_16_cif.got.tgz:31358.got - 2010.06.03 19:46:02.
