data_PCOD9132810
_publ_section_title
;
Structure prediction by ZEFSAII (Michael W. Deem and Ramdas Pophale) SiO2 
 PCOD9132810
Probable space group: C M
;
_chemical_formula_sum "Si O2"
_cell_formula_units_Z 28
_cell_length_a 7.820342
_cell_length_b 19.022253
_cell_length_c 14.500056
_cell_angle_alpha 90.000000
_cell_angle_beta 44.486091
_cell_angle_gamma 90.000000
_cell_volume 1511.512937
_symmetry_space_group_name_H-M "C M"
_symmetry_group_IT_number 8
_symmetry_cell_setting 'monoclinic'
loop_
_space_group_symop_operation_xyz
x,y,z
x,-y,z
1/2+x,1/2+y,z
1/2+x,1/2-y,z
loop_
_atom_site_type_symbol
_atom_site_label
_atom_site_fract_x
_atom_site_fract_y
_atom_site_fract_z
Si Si1 0.270590 0.579799 0.298770
Si Si2 0.079983 0.184754 0.642525
Si Si3 0.212667 0.845294 0.042260
Si Si4 0.572427 0.836896 0.742238
Si Si5 0.418652 0.809684 0.341202
Si Si6 0.861456 0.289731 0.162115
Si Si7 0.983100 0.583886 0.586251
O O1 0.207382 0.500000 0.303810
O O2 0.531751 0.597542 0.155395
O O3 0.082672 0.630642 0.321721
O O4 0.215986 0.591739 0.427874
O O5 0.057171 0.255426 0.712975
O O6 0.205249 0.204410 0.495632
O O7 0.258394 0.129221 0.627187
O O8 0.817580 0.156371 0.709737
O O9 0.401184 0.830320 0.052433
O O10 0.048768 0.775210 0.090788
O O11 0.349372 0.857836 0.894737
O O12 0.554858 0.884276 0.657441
O O13 0.587975 0.741304 0.267432
O O14 0.367666 0.830286 0.255822
O O15 0.925675 0.500000 0.613009
#
# Coordination Sequence:
#
# PCOD9132810 Si02
#       7
#     4   4   4   4   4   4   4
#     4   9  20  40  60  81 113 158 201 244 297 362
#     4  11  22  36  64  95 128 156 211 257 308 370
#     4  10  21  35  56  85 121 152 193 243 297 362
#     4  12  23  37  63  95 127 165 206 254 313 367
#     4   9  18  32  56  87 114 149 191 250 300 351
#     4   9  18  32  55  83 118 146 190 244 305 337
#     4  10  24  44  64  90 128 166 206 258 313 367
#
# _framework density 18.524484999999999
#
# number of rings (size 3 to 8) (size 9 to 14) (size 15 to 20)
#    0.000    2.000    1.429    1.714    8.000    1.143 
#    2.571    0.714    0.000    0.000    0.000    0.000 
#    0.000    0.000    0.000    0.000    0.000    0.000 
#
# Total GULP energy -77985.931403 kJ/mol
# GULP energy per Si atom -5570.423672 kJ/mol
# Density = 1.848232 g / cm^3
# Si number density = 18.524485 Si / 1000 Ang^3
#
#
#
# Elastic Constant Matrix: (Units=GPa)
#
#
# Indices 1 2 3 4 5 6 
#
# 1 56.4773 10.2851 25.4242 0.0000 6.7485 0.0000
# 2 10.2851 62.9629 25.3737 0.0000 11.7477 0.0000
# 3 25.4242 25.3737 129.5997 -0.0001 12.7139 0.0001
# 4 0.0000 0.0000 -0.0001 3.8530 0.0001 10.1856
# 5 6.7485 11.7477 12.7139 0.0001 29.0310 0.0000
# 6 0.0000 0.0000 0.0001 10.1856 0.0000 1.1381
#
#
#
# Elastic Compliance Matrix: (Units=1/GPa)
#
#
# Indices 1 2 3 4 5 6 
#
# 1 0.019777 -0.001401 -0.003354 0.000000 -0.002562 0.000000
# 2 -0.001401 0.018311 -0.002733 0.000000 -0.005887 0.000000
# 3 -0.003354 -0.002733 0.009116 0.000000 -0.002107 0.000000
# 4 0.000000 0.000000 0.000000 -0.011455 0.000000 0.102511
# 5 -0.002562 -0.005887 -0.002107 0.000000 0.038346 0.000000
# 6 0.000000 0.000000 0.000000 0.102511 0.000000 -0.038778
#
#
# Mechanical properties :
#
#
# Convention : Reuss Voigt Hill
#
# Bulk Modulus (GPa) = 31.02858 41.24512 36.13685
# Shear Modulus (GPa) = 81.91882 19.33489 50.62685
#
# Velocity S-wave (km/s) = 6.65717 3.23421 5.23345
# Velocity P-wave (km/s) = 8.71074 6.02166 7.48790
#
# Compressibility (1/GPa) = 0.03222835
#
# Stress axis : x y z
#
# Youngs Moduli (GPa) = 50.56274 54.61221 109.70014
#
# Poissons Ratio (x) = 0.07651 0.36796
# Poissons Ratio (y) = 0.07084 0.29977
# Poissons Ratio (z) = 0.16960 0.14923
#
# Static dielectric constant tensor:
#      x y z
#    x 1.679170 0.000000 -0.002210 
#    y 0.000000 1.627850 0.000000 
#    z -0.002210 0.000000 1.675810 
# 
# From -- ./inp_files/8567.got.cif
#   From: 2010.05.17/outbox.cif.g08.bks.cpg/sg8_5_cif.got.tgz:8567.got - 2010.06.03 19:46:02.
