data_PCOD9132919
_publ_section_title
;
Structure prediction by ZEFSAII (Michael W. Deem and Ramdas Pophale) SiO2 
 PCOD9132919
Probable space group: C M
;
_chemical_formula_sum "Si O2"
_cell_formula_units_Z 22
_cell_length_a 25.724155
_cell_length_b 10.263394
_cell_length_c 12.725329
_cell_angle_alpha 90.000000
_cell_angle_beta 23.204857
_cell_angle_gamma 90.000000
_cell_volume 1323.790350
_symmetry_space_group_name_H-M "C M"
_symmetry_group_IT_number 8
_symmetry_cell_setting 'monoclinic'
loop_
_space_group_symop_operation_xyz
x,y,z
x,-y,z
1/2+x,1/2+y,z
1/2+x,1/2-y,z
loop_
_atom_site_type_symbol
_atom_site_label
_atom_site_fract_x
_atom_site_fract_y
_atom_site_fract_z
Si Si1 0.086010 0.154011 0.740410
Si Si2 0.054595 0.844501 0.549780
Si Si3 0.391857 0.147437 0.215613
Si Si4 0.638816 0.000000 0.136580
Si Si5 0.944351 0.500000 0.318743
Si Si6 0.773612 0.753055 0.984858
Si Si7 0.343350 0.000000 0.729185
O O1 0.068896 0.175984 0.647718
O O2 0.238227 0.181118 0.487433
O O3 0.061150 0.000000 0.807991
O O4 0.986614 0.247644 0.987084
O O5 0.916333 0.788423 0.765750
O O6 0.058247 0.000000 0.523955
O O7 0.173045 0.778277 0.265863
O O8 0.425062 0.121904 0.276651
O O9 0.409764 0.000000 0.135029
O O10 0.501210 0.000000 0.457304
O O11 0.584240 0.000000 0.118740
O O12 0.719646 0.873389 0.017730
O O13 0.840423 0.500000 0.607719
O O14 0.783172 0.627367 0.892919
#
# Coordination Sequence:
#
# PCOD9132919 Si02
#       7
#     4   4   4   2   2   4   2
#     4  10  21  38  59  86 120 149 198 236 286 345
#     4  11  22  35  58  90 118 158 190 233 287 350
#     4   9  20  40  59  82 117 150 190 248 282 341
#     4  10  22  39  55  89 117 145 196 243 277 352
#     4   8  20  42  59  83 115 153 193 243 295 333
#     4  12  21  39  61  85 123 153 191 236 290 341
#     4  10  22  39  60  86 114 154 193 238 288 341
#
# _framework density 16.618946000000001
#
# number of rings (size 3 to 8) (size 9 to 14) (size 15 to 20)
#    1.091    0.727    3.636    1.091    0.000    2.182 
#    3.273    0.000    2.000    0.000    0.000    0.000 
#    0.000    0.000    0.000    0.000    0.000    0.000 
#
# Total GULP energy -61278.944911 kJ/mol
# GULP energy per Si atom -5570.813174 kJ/mol
# Density = 1.658112 g / cm^3
# Si number density = 16.618946 Si / 1000 Ang^3
#
#
#
# Elastic Constant Matrix: (Units=GPa)
#
#
# Indices 1 2 3 4 5 6 
#
# 1 85.4888 40.6240 23.7741 0.0000 5.7658 0.0000
# 2 40.6240 102.0346 39.4425 0.0000 -0.4209 0.0000
# 3 23.7741 39.4425 72.3052 0.0000 -5.3172 0.0000
# 4 0.0000 0.0000 0.0000 34.3017 0.0000 5.5601
# 5 5.7658 -0.4209 -5.3172 0.0000 16.3132 0.0000
# 6 0.0000 0.0000 0.0000 5.5601 0.0000 16.4909
#
#
#
# Elastic Compliance Matrix: (Units=1/GPa)
#
#
# Indices 1 2 3 4 5 6 
#
# 1 0.015297 -0.005056 -0.002745 0.000000 -0.006432 0.000000
# 2 -0.005056 0.014150 -0.006043 0.000000 0.000182 0.000000
# 3 -0.002745 -0.006043 0.018533 0.000000 0.006855 0.000000
# 4 0.000000 0.000000 0.000000 0.030838 0.000000 -0.010398
# 5 -0.006432 0.000182 0.006855 0.000000 0.065812 0.000000
# 6 0.000000 0.000000 0.000000 -0.010398 0.000000 0.064145
#
#
# Mechanical properties :
#
#
# Convention : Reuss Voigt Hill
#
# Bulk Modulus (GPa) = 49.27758 51.94553 50.61155
# Shear Modulus (GPa) = 20.55677 23.82035 22.18856
#
# Velocity S-wave (km/s) = 3.52084 3.79004 3.65792
# Velocity P-wave (km/s) = 6.80031 7.10473 6.95419
#
# Compressibility (1/GPa) = 0.02029321
#
# Stress axis : x y z
#
# Youngs Moduli (GPa) = 65.37204 70.66942 53.95659
#
# Poissons Ratio (x) = 0.35730 0.14809
# Poissons Ratio (y) = 0.33052 0.32607
# Poissons Ratio (z) = 0.17942 0.42707
#
# Static dielectric constant tensor:
#      x y z
#    x 1.547620 0.000000 -0.003950 
#    y 0.000000 1.553580 0.000000 
#    z -0.003950 0.000000 1.535190 
# 
# From -- ./inp_files/24663.got.cif
#   From: 2010.05.17/outbox.cif.g08.bks.cpg/sg8_13_cif.got.tgz:24663.got - 2010.06.03 19:46:02.
