data_PCOD9132816
_publ_section_title
;
Structure prediction by ZEFSAII (Michael W. Deem and Ramdas Pophale) SiO2 
 PCOD9132816
Probable space group: C M
;
_chemical_formula_sum "Si O2"
_cell_formula_units_Z 24
_cell_length_a 20.598852
_cell_length_b 11.398018
_cell_length_c 5.247554
_cell_angle_alpha 90.000000
_cell_angle_beta 106.623958
_cell_angle_gamma 90.000000
_cell_volume 1180.556597
_symmetry_space_group_name_H-M "C M"
_symmetry_group_IT_number 8
_symmetry_cell_setting 'monoclinic'
loop_
_space_group_symop_operation_xyz
x,y,z
x,-y,z
1/2+x,1/2+y,z
1/2+x,1/2-y,z
loop_
_atom_site_type_symbol
_atom_site_label
_atom_site_fract_x
_atom_site_fract_y
_atom_site_fract_z
Si Si1 0.876070 0.365874 0.271300
Si Si2 0.323095 0.237888 0.705189
Si Si3 0.168757 0.738725 0.541051
Si Si4 0.501382 0.000000 0.956535
Si Si5 0.089905 0.500000 0.552573
Si Si6 0.609712 0.639870 0.965928
Si Si7 0.961334 0.751500 0.724048
O O1 0.895380 0.500000 0.260649
O O2 0.831222 0.350563 0.476133
O O3 0.941479 0.284932 0.411786
O O4 0.833064 0.322438 0.987128
O O5 0.248467 0.287921 0.606876
O O6 0.392443 0.313826 0.745627
O O7 0.132019 0.617426 0.560970
O O8 0.151552 0.822969 0.760956
O O9 0.140069 0.795909 0.249136
O O10 0.557499 0.000000 0.795493
O O11 0.463519 0.876669 0.865162
O O12 0.535299 0.000000 0.267052
O O13 0.610869 0.500000 0.000707
O O14 0.531971 0.684371 0.837564
#
# Coordination Sequence:
#
# PCOD9132816 Si02
#       7
#     4   4   4   2   2   4   4
#     4  10  21  35  61  93 127 163 209 269 321 366
#     4  10  24  38  61  92 131 162 209 267 320 387
#     4  12  25  47  67  98 132 171 224 267 330 385
#     4  12  22  38  72  98 132 160 215 290 321 374
#     4  12  24  42  72  98 128 168 213 284 327 378
#     4  12  27  45  68  93 136 182 216 259 324 404
#     4  10  23  41  66  97 127 168 220 270 325 375
#
# _framework density 20.329394000000001
#
# number of rings (size 3 to 8) (size 9 to 14) (size 15 to 20)
#    1.000    0.000    4.167    2.000    5.833    4.000 
#    1.500    0.000    1.833    0.000    0.000    0.000 
#    0.000    0.000    0.000    0.000    0.000    0.000 
#
# Total GULP energy -66952.073294 kJ/mol
# GULP energy per Si atom -5579.339441 kJ/mol
# Density = 2.028312 g / cm^3
# Si number density = 20.329394 Si / 1000 Ang^3
#
#
#
# Elastic Constant Matrix: (Units=GPa)
#
#
# Indices 1 2 3 4 5 6 
#
# 1 93.7750 -8.2376 15.5773 0.0000 23.3346 0.0000
# 2 -8.2376 49.6878 -0.6740 0.0000 5.2696 0.0000
# 3 15.5773 -0.6740 108.4580 0.0000 -7.5834 0.0000
# 4 0.0000 0.0000 0.0000 13.5412 0.0000 -10.5796
# 5 23.3346 5.2696 -7.5834 0.0000 28.8917 0.0000
# 6 0.0000 0.0000 0.0000 -10.5796 0.0000 -15.3199
#
#
#
# Elastic Compliance Matrix: (Units=1/GPa)
#
#
# Indices 1 2 3 4 5 6 
#
# 1 0.014875 0.003859 -0.003058 0.000000 -0.013520 0.000000
# 2 0.003859 0.021526 -0.000930 0.000000 -0.007286 0.000000
# 3 -0.003058 -0.000930 0.010022 0.000000 0.005270 0.000000
# 4 0.000000 0.000000 0.000000 0.047968 0.000000 -0.033126
# 5 -0.013520 -0.007286 0.005270 0.000000 0.048244 0.000000
# 6 0.000000 0.000000 0.000000 -0.033126 0.000000 -0.042399
#
#
# Mechanical properties :
#
#
# Convention : Reuss Voigt Hill
#
# Bulk Modulus (GPa) = 21.66179 29.47246 25.56712
# Shear Modulus (GPa) = 43.14721 21.77293 32.46007
#
# Velocity S-wave (km/s) = 4.61195 3.27618 4.00022
# Velocity P-wave (km/s) = 6.24810 5.37029 5.82575
#
# Compressibility (1/GPa) = 0.04616424
#
# Stress axis : x y z
#
# Youngs Moduli (GPa) = 67.22667 46.45653 99.78027
#
# Poissons Ratio (x) = -0.17925 0.30511
# Poissons Ratio (y) = -0.25939 0.09278
# Poissons Ratio (z) = 0.20557 0.04320
#
# Static dielectric constant tensor:
#      x y z
#    x 1.793510 0.000000 -0.007170 
#    y 0.000000 1.698830 0.000000 
#    z -0.007170 0.000000 1.745110 
# 
# From -- ./inp_files/5421.got.cif
#   From: 2010.05.17/outbox.cif.g08.bks.cpg/sg8_3_cif.got.tgz:5421.got - 2010.06.03 19:46:02.
