data_PCOD9132550
_publ_section_title
;
Structure prediction by ZEFSAII (Michael W. Deem and Ramdas Pophale) SiO2 
 PCOD9132550
Probable space group: C M
;
_chemical_formula_sum "Si O2"
_cell_formula_units_Z 32
_cell_length_a 14.496347
_cell_length_b 8.011795
_cell_length_c 12.246699
_cell_angle_alpha 90.000000
_cell_angle_beta 87.291131
_cell_angle_gamma 90.000000
_cell_volume 1420.763803
_symmetry_space_group_name_H-M "C M"
_symmetry_group_IT_number 8
_symmetry_cell_setting 'monoclinic'
loop_
_space_group_symop_operation_xyz
x,y,z
x,-y,z
1/2+x,1/2+y,z
1/2+x,1/2-y,z
loop_
_atom_site_type_symbol
_atom_site_label
_atom_site_fract_x
_atom_site_fract_y
_atom_site_fract_z
Si Si1 0.323590 0.304179 0.345970
Si Si2 0.676541 0.698568 0.207597
Si Si3 0.970790 0.202159 0.163687
Si Si4 0.277478 0.303945 0.744072
Si Si5 0.238680 0.807107 0.981435
Si Si6 0.067734 0.702747 0.700257
Si Si7 0.033202 0.300722 0.939351
Si Si8 0.415897 0.191698 0.560052
O O1 0.315625 0.500000 0.328545
O O2 0.224314 0.231611 0.320014
O O3 0.396137 0.233888 0.253488
O O4 0.363994 0.276252 0.463080
O O5 0.673478 0.500000 0.190751
O O6 0.572222 0.760408 0.199209
O O7 0.740408 0.766310 0.104013
O O8 0.969802 0.000000 0.164463
O O9 0.961503 0.260424 0.038955
O O10 0.288178 0.500000 0.718765
O O11 0.283165 0.279653 0.874140
O O12 0.174179 0.250223 0.711880
O O13 0.350302 0.203030 0.669395
O O14 0.127998 0.793721 0.964728
O O15 0.268430 0.000000 0.978591
O O16 0.066334 0.500000 0.694010
O O17 0.014625 0.748330 0.815585
O O18 0.013006 0.765541 0.597662
O O19 0.051459 0.500000 0.939562
O O20 0.430019 0.000000 0.527310
#
# Coordination Sequence:
#
# PCOD9132550 Si02
#       8
#     4   4   4   4   4   4   4   4
#     4  11  24  40  56  79 110 143 187 237 278 322
#     4   9  19  37  59  82 111 147 183 221 270 330
#     4   9  20  38  57  80 113 147 179 222 276 331
#     4  10  20  37  59  85 115 145 181 226 275 324
#     4   9  17  32  55  84 116 147 180 219 270 331
#     4   8  18  36  57  81 111 144 177 219 270 326
#     4   9  16  30  55  85 113 141 178 223 272 327
#     4  11  23  40  58  78 107 146 191 231 273 327
#
# _framework density 22.523097
#
# number of rings (size 3 to 8) (size 9 to 14) (size 15 to 20)
#    0.000    2.500    0.000    3.375    0.000    5.500 
#    0.000   13.750    0.000    0.000    0.000    0.000 
#    0.000    0.000    0.000    0.000    0.000    0.000 
#
# Total GULP energy -89314.401350 kJ/mol
# GULP energy per Si atom -5582.150084 kJ/mol
# Density = 2.247183 g / cm^3
# Si number density = 22.523097 Si / 1000 Ang^3
#
#
#
# Elastic Constant Matrix: (Units=GPa)
#
#
# Indices 1 2 3 4 5 6 
#
# 1 57.0529 -2.6986 18.8954 0.0000 20.4125 0.0000
# 2 -2.6986 31.3755 -6.9153 0.0000 2.1639 0.0000
# 3 18.8954 -6.9153 61.0718 0.0000 28.1999 0.0000
# 4 0.0000 0.0000 0.0000 30.1660 0.0000 -1.9409
# 5 20.4125 2.1639 28.1999 0.0000 37.9311 0.0000
# 6 0.0000 0.0000 0.0000 -1.9409 0.0000 13.4498
#
#
#
# Elastic Compliance Matrix: (Units=1/GPa)
#
#
# Indices 1 2 3 4 5 6 
#
# 1 0.022025 0.002299 -0.001554 0.000000 -0.010828 0.000000
# 2 0.002299 0.034207 0.007057 0.000000 -0.008435 0.000000
# 3 -0.001554 0.007057 0.026578 0.000000 -0.019325 0.000000
# 4 0.000000 0.000000 0.000000 0.033461 0.000000 0.004829
# 5 -0.010828 -0.008435 -0.019325 0.000000 0.047039 0.000000
# 6 0.000000 0.000000 0.000000 0.004829 0.000000 0.075047
#
#
# Mechanical properties :
#
#
# Convention : Reuss Voigt Hill
#
# Bulk Modulus (GPa) = 10.16132 18.67368 14.41750
# Shear Modulus (GPa) = 19.56499 25.65730 22.61114
#
# Velocity S-wave (km/s) = 2.95051 3.37880 3.17189
# Velocity P-wave (km/s) = 4.01605 4.85084 4.45305
#
# Compressibility (1/GPa) = 0.09841239
#
# Stress axis : x y z
#
# Youngs Moduli (GPa) = 45.40237 29.23393 37.62570
#
# Poissons Ratio (x) = -0.06720 0.05848
# Poissons Ratio (y) = -0.10436 -0.26552
# Poissons Ratio (z) = 0.07057 -0.20630
#
# Static dielectric constant tensor:
#      x y z
#    x 1.873880 0.000000 0.010060 
#    y 0.000000 1.779290 0.000000 
#    z 0.010060 0.000000 1.839410 
# 
# From -- ./inp_files/21539.got.cif
#   From: 2010.05.17/outbox.cif.g08.bks.cpg/sg8_11_cif.got.tgz:21539.got - 2010.06.03 19:46:02.
