data_PCOD9132129
_publ_section_title
;
Structure prediction by ZEFSAII (Michael W. Deem and Ramdas Pophale) SiO2 
 PCOD9132129
Probable space group: C M
;
_chemical_formula_sum "Si O2"
_cell_formula_units_Z 28
_cell_length_a 12.778296
_cell_length_b 18.078726
_cell_length_c 5.289102
_cell_angle_alpha 90.000000
_cell_angle_beta 72.320678
_cell_angle_gamma 90.000000
_cell_volume 1164.156332
_symmetry_space_group_name_H-M "C M"
_symmetry_group_IT_number 8
_symmetry_cell_setting 'monoclinic'
loop_
_space_group_symop_operation_xyz
x,y,z
x,-y,z
1/2+x,1/2+y,z
1/2+x,1/2-y,z
loop_
_atom_site_type_symbol
_atom_site_label
_atom_site_fract_x
_atom_site_fract_y
_atom_site_fract_z
Si Si1 0.445730 0.771066 0.045500
Si Si2 0.776144 0.000000 0.693252
Si Si3 0.833955 0.846168 0.862001
Si Si4 0.728514 0.737187 0.552098
Si Si5 0.728278 0.421705 0.499976
Si Si6 0.876261 0.578941 0.888503
Si Si7 0.126906 0.500000 0.299190
Si Si8 0.609042 0.841566 0.312044
O O1 0.330224 0.770981 0.284411
O O2 0.438723 0.690307 0.921611
O O3 0.438765 0.844347 0.877565
O O4 0.542271 0.789360 0.171490
O O5 0.841826 0.922316 0.694854
O O6 0.715889 0.000000 0.465204
O O7 0.682710 0.000000 0.980490
O O8 0.787334 0.775346 0.743573
O O9 0.732704 0.860367 0.125657
O O10 0.674094 0.656872 0.593573
O O11 0.636458 0.794828 0.537347
O O12 0.665937 0.500000 0.565135
O O13 0.817128 0.421975 0.661847
O O14 0.785692 0.420683 0.182641
O O15 0.936431 0.500000 0.882544
O O16 0.059463 0.423416 0.371001
#
# Coordination Sequence:
#
# PCOD9132129 Si02
#       8
#     4   2   4   4   4   4   2   4
#     4  10  21  35  56  87 116 157 196 244 296 364
#     4  10  20  38  64  84 119 160 208 249 302 362
#     4  10  20  38  59  85 116 160 199 247 302 355
#     4  10  19  36  57  81 115 156 196 242 296 359
#     4   9  17  31  52  77 106 146 187 227 279 343
#     4   9  17  30  49  78 113 144 178 222 279 349
#     4  10  20  38  58  92 125 158 190 251 316 366
#     4  10  22  36  58  88 123 154 197 247 305 362
#
# _framework density 24.051753999999999
#
# number of rings (size 3 to 8) (size 9 to 14) (size 15 to 20)
#    0.000    2.286    2.857    0.000    1.000    1.143 
#    0.000    0.000    1.571    0.000    3.714    0.000 
#    0.000    0.000    0.000    0.000    0.000    0.000 
#
# Total GULP energy -78078.701006 kJ/mol
# GULP energy per Si atom -5577.050072 kJ/mol
# Density = 2.399701 g / cm^3
# Si number density = 24.051754 Si / 1000 Ang^3
#
#
#
# Elastic Constant Matrix: (Units=GPa)
#
#
# Indices 1 2 3 4 5 6 
#
# 1 72.1520 30.5987 24.3758 0.0000 0.3358 0.0000
# 2 30.5987 139.4657 28.8872 0.0000 -14.2349 0.0000
# 3 24.3758 28.8872 70.5083 0.0000 12.2017 0.0000
# 4 0.0000 0.0000 0.0000 48.8324 0.0000 8.7599
# 5 0.3358 -14.2349 12.2017 0.0000 25.1701 0.0000
# 6 0.0000 0.0000 0.0000 8.7599 0.0000 18.5199
#
#
#
# Elastic Compliance Matrix: (Units=1/GPa)
#
#
# Indices 1 2 3 4 5 6 
#
# 1 0.016566 -0.002579 -0.004781 0.000000 0.000638 0.000000
# 2 -0.002579 0.009363 -0.004221 0.000000 0.007376 0.000000
# 3 -0.004781 -0.004221 0.019612 0.000000 -0.011831 0.000000
# 4 0.000000 0.000000 0.000000 0.022377 0.000000 -0.010584
# 5 0.000638 0.007376 -0.011831 0.000000 0.049628 0.000000
# 6 0.000000 0.000000 0.000000 -0.010584 0.000000 0.059002
#
#
# Mechanical properties :
#
#
# Convention : Reuss Voigt Hill
#
# Bulk Modulus (GPa) = 44.68381 49.98325 47.33353
# Shear Modulus (GPa) = 24.13490 31.72209 27.92850
#
# Velocity S-wave (km/s) = 3.17118 3.63562 3.41131
# Velocity P-wave (km/s) = 5.65924 6.20083 5.93621
#
# Compressibility (1/GPa) = 0.02237947
#
# Stress axis : x y z
#
# Youngs Moduli (GPa) = 60.36632 106.80143 50.98897
#
# Poissons Ratio (x) = 0.27546 0.24376
# Poissons Ratio (y) = 0.15569 0.21522
# Poissons Ratio (z) = 0.28859 0.45079
#
# Static dielectric constant tensor:
#      x y z
#    x 1.908110 0.000000 -0.056880 
#    y 0.000000 2.061130 0.000000 
#    z -0.056880 0.000000 1.963330 
# 
# From -- ./inp_files/4057.got.cif
#   From: 2010.05.17/outbox.cif.g08.bks.cpg/sg8_3_cif.got.tgz:4057.got - 2010.06.03 19:46:02.
