data_PCOD9132279
_publ_section_title
;
Structure prediction by ZEFSAII (Michael W. Deem and Ramdas Pophale) SiO2 
 PCOD9132279
Probable space group: C M
;
_chemical_formula_sum "Si O2"
_cell_formula_units_Z 32
_cell_length_a 28.894911
_cell_length_b 9.068401
_cell_length_c 7.142431
_cell_angle_alpha 90.000000
_cell_angle_beta 87.298306
_cell_angle_gamma 90.000000
_cell_volume 1869.455519
_symmetry_space_group_name_H-M "C M"
_symmetry_group_IT_number 8
_symmetry_cell_setting 'monoclinic'
loop_
_space_group_symop_operation_xyz
x,y,z
x,-y,z
1/2+x,1/2+y,z
1/2+x,1/2-y,z
loop_
_atom_site_type_symbol
_atom_site_label
_atom_site_fract_x
_atom_site_fract_y
_atom_site_fract_z
Si Si1 0.848460 0.175875 0.278600
Si Si2 0.337727 0.824536 0.879303
Si Si3 0.591030 0.675616 0.868305
Si Si4 0.414991 0.176216 0.553708
Si Si5 0.021135 0.676015 0.605674
Si Si6 0.164165 0.323123 0.581551
Si Si7 0.095223 0.674721 0.267648
Si Si8 0.771647 0.176335 0.602922
O O1 0.892149 0.240052 0.383884
O O2 0.803683 0.209872 0.416966
O O3 0.852110 0.000000 0.260440
O O4 0.843380 0.249309 0.078238
O O5 0.382393 0.793957 0.739248
O O6 0.294191 0.759563 0.773844
O O7 0.333395 0.000000 0.900453
O O8 0.591328 0.500000 0.861727
O O9 0.546089 0.738891 0.768893
O O10 0.634646 0.740792 0.745130
O O11 0.592594 0.733922 0.079289
O O12 0.467930 0.217513 0.583581
O O13 0.413414 0.000000 0.518164
O O14 0.023383 0.500000 0.643796
O O15 0.051622 0.701990 0.413330
O O16 0.159029 0.500000 0.611067
O O17 0.140113 0.290410 0.386670
O O18 0.218192 0.285691 0.579278
O O19 0.096129 0.500000 0.222899
O O20 0.774612 0.000000 0.634712
#
# Coordination Sequence:
#
# PCOD9132279 Si02
#       8
#     4   4   4   4   4   4   4   4
#     4  10  20  34  53  78 108 139 172 212 257 305
#     4  10  20  34  53  78 108 139 171 210 257 307
#     4  11  22  34  51  78 110 137 164 208 264 313
#     4   9  19  36  56  77 102 135 176 218 257 300
#     4   9  19  37  58  76  98 135 180 218 252 299
#     4   9  19  37  58  76  98 134 178 217 252 300
#     4   9  18  34  55  76  99 132 174 215 254 301
#     4   9  19  36  56  77 101 133 175 218 257 299
#
# _framework density 17.117283
#
# number of rings (size 3 to 8) (size 9 to 14) (size 15 to 20)
#    0.000    2.500    0.000    2.625    0.000    6.000 
#    0.000    7.500    0.000    0.000    0.000    0.000 
#    0.000    0.000    0.000    0.000    0.000    0.000 
#
# Total GULP energy -89283.640484 kJ/mol
# GULP energy per Si atom -5580.227530 kJ/mol
# Density = 1.707832 g / cm^3
# Si number density = 17.117283 Si / 1000 Ang^3
#
#
#
# Elastic Constant Matrix: (Units=GPa)
#
#
# Indices 1 2 3 4 5 6 
#
# 1 171.4914 67.6539 85.2142 0.0000 25.9386 0.0000
# 2 67.6539 66.8087 84.7551 0.0000 13.7654 0.0000
# 3 85.2142 84.7551 160.2132 0.0000 26.2150 0.0000
# 4 0.0000 0.0000 0.0000 20.9743 0.0000 5.2989
# 5 25.9386 13.7654 26.2150 0.0000 10.5331 0.0000
# 6 0.0000 0.0000 0.0000 5.2989 0.0000 25.5294
#
#
#
# Elastic Compliance Matrix: (Units=1/GPa)
#
#
# Indices 1 2 3 4 5 6 
#
# 1 0.012575 -0.013034 0.004195 0.000000 -0.024374 0.000000
# 2 -0.013034 0.059026 -0.028549 0.000000 0.026012 0.000000
# 3 0.004195 -0.028549 0.024797 0.000000 -0.034735 0.000000
# 4 0.000000 0.000000 0.000000 0.050316 0.000000 -0.010443
# 5 -0.024374 0.026012 -0.034735 0.000000 0.207417 0.000000
# 6 0.000000 0.000000 0.000000 -0.010443 0.000000 0.041338
#
#
# Mechanical properties :
#
#
# Convention : Reuss Voigt Hill
#
# Bulk Modulus (GPa) = 46.25046 97.08440 71.66743
# Shear Modulus (GPa) = 10.47224 22.13338 16.30281
#
# Velocity S-wave (km/s) = 2.47613 3.59979 3.08948
# Velocity P-wave (km/s) = 5.93745 8.60920 7.39499
#
# Compressibility (1/GPa) = 0.02162141
#
# Stress axis : x y z
#
# Youngs Moduli (GPa) = 79.52004 16.94182 40.32754
#
# Poissons Ratio (x) = 0.22082 -0.16917
# Poissons Ratio (y) = 1.03647 1.15131
# Poissons Ratio (z) = -0.33358 0.48367
#
# Static dielectric constant tensor:
#      x y z
#    x 1.569810 0.000000 -0.004960 
#    y 0.000000 1.569990 0.000000 
#    z -0.004960 0.000000 1.546530 
# 
# From -- ./inp_files/6341.got.cif
#   From: 2010.05.17/outbox.cif.g08.bks.cpg/sg8_4_cif.got.tgz:6341.got - 2010.06.03 19:46:02.
