data_PCOD9132156
_publ_section_title
;
Structure prediction by ZEFSAII (Michael W. Deem and Ramdas Pophale) SiO2 
 PCOD9132156
Probable space group: C M
;
_chemical_formula_sum "Si O2"
_cell_formula_units_Z 20
_cell_length_a 9.516055
_cell_length_b 15.433571
_cell_length_c 10.492156
_cell_angle_alpha 90.000000
_cell_angle_beta 142.073798
_cell_angle_gamma 90.000000
_cell_volume 947.137782
_symmetry_space_group_name_H-M "C M"
_symmetry_group_IT_number 8
_symmetry_cell_setting 'monoclinic'
loop_
_space_group_symop_operation_xyz
x,y,z
x,-y,z
1/2+x,1/2+y,z
1/2+x,1/2-y,z
loop_
_atom_site_type_symbol
_atom_site_label
_atom_site_fract_x
_atom_site_fract_y
_atom_site_fract_z
Si Si1 0.809300 0.852628 0.581070
Si Si2 0.452806 0.596809 0.406918
Si Si3 0.924489 0.335817 0.644512
Si Si4 0.399064 0.594386 0.921558
Si Si5 0.826222 0.711754 0.278375
O O1 0.920697 0.760376 0.699051
O O2 0.831932 0.907596 0.724529
O O3 0.544371 0.829017 0.361146
O O4 0.924590 0.893089 0.539444
O O5 0.375037 0.500000 0.313738
O O6 0.715298 0.610285 0.552105
O O7 0.329384 0.684015 0.265857
O O8 0.878355 0.313443 0.462717
O O9 0.167552 0.381108 0.829082
O O10 0.485217 0.500000 0.023854
O O11 0.591929 0.665710 0.078545
#
# Coordination Sequence:
#
# PCOD9132156 Si02
#       5
#     4   4   4   4   4
#     4   9  20  39  59  82 116 152 188 235 286 337
#     4  10  19  36  62  87 115 150 187 236 292 335
#     4   9  20  39  59  82 116 152 188 235 286 337
#     4  11  22  37  61  87 113 152 196 233 277 340
#     4   9  21  39  57  82 118 156 191 229 279 343
#
# _framework density 21.116250999999998
#
# number of rings (size 3 to 8) (size 9 to 14) (size 15 to 20)
#    0.000    2.400    0.000    2.400    0.000    9.600 
#    0.000    2.000    0.000   21.600    0.000    0.000 
#    0.000    0.000    0.000    0.000    0.000    0.000 
#
# Total GULP energy -55803.403655 kJ/mol
# GULP energy per Si atom -5580.340365 kJ/mol
# Density = 2.106819 g / cm^3
# Si number density = 21.116251 Si / 1000 Ang^3
#
#
#
# Elastic Constant Matrix: (Units=GPa)
#
#
# Indices 1 2 3 4 5 6 
#
# 1 98.5161 37.0970 21.4879 0.0000 34.3504 -0.0001
# 2 37.0970 170.3826 61.2993 0.0000 27.4178 0.0000
# 3 21.4879 61.2993 66.7772 -0.0001 23.2651 -0.0001
# 4 0.0000 0.0000 -0.0001 11.4650 -0.0001 -1.8879
# 5 34.3504 27.4178 23.2651 -0.0001 25.7082 -0.0001
# 6 -0.0001 0.0000 -0.0001 -1.8879 -0.0001 -1.7107
#
#
#
# Elastic Compliance Matrix: (Units=1/GPa)
#
#
# Indices 1 2 3 4 5 6 
#
# 1 0.019994 -0.001450 0.005354 0.000000 -0.030015 0.000000
# 2 -0.001450 0.009032 -0.007512 0.000000 -0.000898 0.000001
# 3 0.005354 -0.007512 0.028989 0.000000 -0.025377 -0.000001
# 4 0.000000 0.000000 0.000000 0.073809 0.000000 -0.081455
# 5 -0.030015 -0.000898 -0.025377 0.000000 0.102925 -0.000002
# 6 0.000000 0.000001 -0.000001 -0.081455 -0.000002 -0.494661
#
#
# Mechanical properties :
#
#
# Convention : Reuss Voigt Hill
#
# Bulk Modulus (GPa) = 19.68495 63.93826 41.81161
# Shear Modulus (GPa) = -21.20763 21.47861 0.13549
#
# Velocity S-wave (km/s) = -3.17255 3.19276 0.25358
# Velocity P-wave (km/s) = 2.01933 6.62846 4.46424
#
# Compressibility (1/GPa) = 0.05080022
#
# Stress axis : x y z
#
# Youngs Moduli (GPa) = 50.01462 110.72128 34.49595
#
# Poissons Ratio (x) = 0.16050 -0.18469
# Poissons Ratio (y) = 0.07250 0.25912
# Poissons Ratio (z) = -0.26777 0.83169
#
# Static dielectric constant tensor:
#      x y z
#    x 1.778380 0.000000 -0.012430 
#    y 0.000000 1.776960 0.000000 
#    z -0.012430 0.000000 1.732900 
# 
# From -- ./inp_files/19055.got.cif
#   From: 2010.05.17/outbox.cif.g08.bks.cpg/sg8_10_cif.got.tgz:19055.got - 2010.06.03 19:46:02.
