data_PCOD9132668
_publ_section_title
;
Structure prediction by ZEFSAII (Michael W. Deem and Ramdas Pophale) SiO2 
 PCOD9132668
Probable space group: C M
;
_chemical_formula_sum "Si O2"
_cell_formula_units_Z 26
_cell_length_a 23.386900
_cell_length_b 10.302128
_cell_length_c 8.095556
_cell_angle_alpha 90.000000
_cell_angle_beta 37.579310
_cell_angle_gamma 90.000000
_cell_volume 1189.530917
_symmetry_space_group_name_H-M "C M"
_symmetry_group_IT_number 8
_symmetry_cell_setting 'monoclinic'
loop_
_space_group_symop_operation_xyz
x,y,z
x,-y,z
1/2+x,1/2+y,z
1/2+x,1/2-y,z
loop_
_atom_site_type_symbol
_atom_site_label
_atom_site_fract_x
_atom_site_fract_y
_atom_site_fract_z
Si Si1 0.339720 0.000000 0.154320
Si Si2 0.712532 0.155290 0.903149
Si Si3 0.807692 0.244169 0.012710
Si Si4 0.530883 0.149812 0.143327
Si Si5 0.871327 0.754503 0.313918
Si Si6 0.486216 0.356071 0.750551
Si Si7 0.622645 0.144239 0.569796
O O1 0.358431 0.116156 0.250987
O O2 0.320849 0.114082 0.058233
O O3 0.758495 0.230823 0.949306
O O4 0.605797 0.194162 0.106990
O O5 0.775697 0.186684 0.599433
O O6 0.714510 0.000000 0.930092
O O7 0.909426 0.177532 0.788190
O O8 0.732506 0.170005 0.302156
O O9 0.585832 0.152038 0.841116
O O10 0.506460 0.000000 0.235184
O O11 0.439187 0.231732 0.315630
O O12 0.925823 0.843894 0.058391
O O13 0.524889 0.500000 0.642852
O O14 0.566376 0.249492 0.592282
O O15 0.598425 0.000000 0.563564
#
# Coordination Sequence:
#
# PCOD9132668 Si02
#       7
#     2   4   4   4   4   4   4
#     4  10  22  40  66  92 124 164 224 272 318 360
#     4  11  23  39  62  93 128 171 210 256 336 397
#     4  11  24  40  62  89 134 169 211 263 329 398
#     4   9  18  36  62  88 117 159 214 268 305 376
#     4  10  20  38  66  92 124 162 220 272 318 376
#     4  10  21  37  63  92 123 166 220 274 318 374
#     4  10  21  38  64  91 121 168 224 269 319 377
#
# _framework density 21.857355999999999
#
# number of rings (size 3 to 8) (size 9 to 14) (size 15 to 20)
#    0.000    1.846    0.769    3.692    7.538    3.077 
#    0.000    0.000    5.077    0.000    0.000    0.000 
#    0.000    0.000    0.000    0.000    0.000    0.000 
#
# Total GULP energy -72385.798006 kJ/mol
# GULP energy per Si atom -5568.138308 kJ/mol
# Density = 2.180761 g / cm^3
# Si number density = 21.857356 Si / 1000 Ang^3
#
#
#
# Elastic Constant Matrix: (Units=GPa)
#
#
# Indices 1 2 3 4 5 6 
#
# 1 161.0795 49.6658 6.2620 0.0000 -10.5576 0.0000
# 2 49.6658 127.6146 6.0017 0.0000 -5.0917 0.0000
# 3 6.2620 6.0017 43.4248 0.0000 -3.3885 0.0000
# 4 0.0000 0.0000 0.0000 6.0224 0.0000 0.8184
# 5 -10.5576 -5.0917 -3.3885 0.0000 32.5797 0.0000
# 6 0.0000 0.0000 0.0000 0.8184 0.0000 45.3221
#
#
#
# Elastic Compliance Matrix: (Units=1/GPa)
#
#
# Indices 1 2 3 4 5 6 
#
# 1 0.007181 -0.002697 -0.000518 0.000000 0.001852 0.000000
# 2 -0.002697 0.008941 -0.000813 0.000000 0.000439 0.000000
# 3 -0.000518 -0.000813 0.023382 0.000000 0.002137 0.000000
# 4 0.000000 0.000000 0.000000 0.166456 0.000000 -0.003006
# 5 0.001852 0.000439 0.002137 0.000000 0.031585 0.000000
# 6 0.000000 0.000000 0.000000 -0.003006 0.000000 0.022119
#
#
# Mechanical properties :
#
#
# Convention : Reuss Voigt Hill
#
# Bulk Modulus (GPa) = 31.79710 50.66422 41.23066
# Shear Modulus (GPa) = 17.97253 34.79747 26.38500
#
# Velocity S-wave (km/s) = 2.87063 3.99435 3.47817
# Velocity P-wave (km/s) = 5.05633 6.67105 5.91901
#
# Compressibility (1/GPa) = 0.03144941
#
# Stress axis : x y z
#
# Youngs Moduli (GPa) = 139.25537 111.84086 42.76768
#
# Poissons Ratio (x) = 0.30158 0.02217
# Poissons Ratio (y) = 0.37550 0.03476
# Poissons Ratio (z) = 0.07218 0.09089
#
# Static dielectric constant tensor:
#      x y z
#    x 1.840720 0.000000 0.021820 
#    y 0.000000 1.749120 0.000000 
#    z 0.021820 0.000000 1.817750 
# 
# From -- ./inp_files/15946.got.cif
#   From: 2010.05.17/outbox.cif.g08.bks.cpg/sg8_8_cif.got.tgz:15946.got - 2010.06.03 19:46:02.
