data_PCOD9132492
_publ_section_title
;
Structure prediction by ZEFSAII (Michael W. Deem and Ramdas Pophale) SiO2 
 PCOD9132492
Probable space group: C M
;
_chemical_formula_sum "Si O2"
_cell_formula_units_Z 32
_cell_length_a 11.281623
_cell_length_b 24.658983
_cell_length_c 11.816312
_cell_angle_alpha 90.000000
_cell_angle_beta 145.514840
_cell_angle_gamma 90.000000
_cell_volume 1861.199846
_symmetry_space_group_name_H-M "C M"
_symmetry_group_IT_number 8
_symmetry_cell_setting 'monoclinic'
loop_
_space_group_symop_operation_xyz
x,y,z
x,-y,z
1/2+x,1/2+y,z
1/2+x,1/2-y,z
loop_
_atom_site_type_symbol
_atom_site_label
_atom_site_fract_x
_atom_site_fract_y
_atom_site_fract_z
Si Si1 0.116930 0.937342 0.605550
Si Si2 0.256051 0.744146 0.665174
Si Si3 0.587008 0.341588 0.968686
Si Si4 0.769221 0.561226 0.985153
Si Si5 0.976785 0.358619 0.844803
Si Si6 0.679016 0.124972 0.247956
Si Si7 0.284987 0.310079 0.912811
Si Si8 0.000857 0.722139 0.246162
O O1 0.185864 0.938197 0.791159
O O2 0.308393 0.906282 0.695394
O O3 0.905668 0.902262 0.430965
O O4 0.087695 0.000000 0.545964
O O5 0.439118 0.700104 0.782452
O O6 0.352687 0.802467 0.766305
O O7 0.170357 0.720667 0.717257
O O8 0.111930 0.747438 0.442559
O O9 0.620266 0.399269 0.938460
O O10 0.470626 0.342789 0.996909
O O11 0.812997 0.314095 0.148548
O O12 0.770879 0.500000 0.028861
O O13 0.003352 0.585691 0.165067
O O14 0.128940 0.347202 0.859999
O O15 0.109972 0.368321 0.063264
O O16 0.650625 0.182352 0.290686
O O17 0.394470 0.266283 0.080679
#
# Coordination Sequence:
#
# PCOD9132492 Si02
#       8
#     4   4   4   4   4   4   4   4
#     4  10  22  37  59  86 109 147 200 245 292 336
#     4  10  22  35  57  84 116 155 188 231 286 345
#     4   9  20  37  51  85 118 144 199 232 278 354
#     4   9  18  35  60  84 113 147 189 250 293 328
#     4  11  22  38  55  84 120 152 187 238 287 348
#     4  10  20  36  60  86 113 145 193 243 289 342
#     4  10  21  38  52  86 122 150 193 229 282 355
#     4  11  20  36  58  83 117 154 188 236 289 344
#
# _framework density 17.193210000000001
#
# number of rings (size 3 to 8) (size 9 to 14) (size 15 to 20)
#    0.750    1.250    2.500    1.125    1.750    2.500 
#    0.000    0.625    0.000    0.000    0.000    0.000 
#    0.000    0.000    0.000    0.000    0.000    0.000 
#
# Total GULP energy -89154.660768 kJ/mol
# GULP energy per Si atom -5572.166298 kJ/mol
# Density = 1.715408 g / cm^3
# Si number density = 17.193210 Si / 1000 Ang^3
#
#
#
# Elastic Constant Matrix: (Units=GPa)
#
#
# Indices 1 2 3 4 5 6 
#
# 1 111.6506 50.3436 25.4593 0.0000 11.4252 0.0000
# 2 50.3436 99.2777 26.3049 0.0000 10.0774 0.0000
# 3 25.4593 26.3049 76.1245 0.0000 -1.3455 0.0000
# 4 0.0000 0.0000 0.0000 15.9765 0.0000 2.5100
# 5 11.4252 10.0774 -1.3455 0.0000 17.7630 0.0000
# 6 0.0000 0.0000 0.0000 2.5100 0.0000 24.7211
#
#
#
# Elastic Compliance Matrix: (Units=1/GPa)
#
#
# Indices 1 2 3 4 5 6 
#
# 1 0.012344 -0.005073 -0.002468 0.000000 -0.005249 0.000000
# 2 -0.005073 0.014000 -0.003228 0.000000 -0.004925 0.000000
# 3 -0.002468 -0.003228 0.015158 0.000000 0.004567 0.000000
# 4 0.000000 0.000000 0.000000 0.063607 0.000000 -0.006458
# 5 -0.005249 -0.004925 0.004567 0.000000 0.062812 0.000000
# 6 0.000000 0.000000 0.000000 -0.006458 0.000000 0.041107
#
#
# Mechanical properties :
#
#
# Convention : Reuss Voigt Hill
#
# Bulk Modulus (GPa) = 50.09078 54.58537 52.33808
# Shear Modulus (GPa) = 21.07737 24.02179 22.54958
#
# Velocity S-wave (km/s) = 3.50510 3.74192 3.62545
# Velocity P-wave (km/s) = 6.75117 7.10538 6.93054
#
# Compressibility (1/GPa) = 0.01996375
#
# Stress axis : x y z
#
# Youngs Moduli (GPa) = 81.01279 71.42642 65.97122
#
# Poissons Ratio (x) = 0.36233 0.16283
# Poissons Ratio (y) = 0.41096 0.21298
# Poissons Ratio (z) = 0.19995 0.23059
#
# Static dielectric constant tensor:
#      x y z
#    x 1.587310 0.000000 0.009520 
#    y 0.000000 1.581260 0.000000 
#    z 0.009520 0.000000 1.588350 
# 
# From -- ./inp_files/20897.got.cif
#   From: 2010.05.17/outbox.cif.g08.bks.cpg/sg8_11_cif.got.tgz:20897.got - 2010.06.03 19:46:02.
