data_PCOD9132934
_publ_section_title
;
Structure prediction by ZEFSAII (Michael W. Deem and Ramdas Pophale) SiO2 
 PCOD9132934
Probable space group: C M
;
_chemical_formula_sum "Si O2"
_cell_formula_units_Z 32
_cell_length_a 24.736759
_cell_length_b 9.020326
_cell_length_c 25.735266
_cell_angle_alpha 90.000000
_cell_angle_beta 16.163651
_cell_angle_gamma 90.000000
_cell_volume 1598.580749
_symmetry_space_group_name_H-M "C M"
_symmetry_group_IT_number 8
_symmetry_cell_setting 'monoclinic'
loop_
_space_group_symop_operation_xyz
x,y,z
x,-y,z
1/2+x,1/2+y,z
1/2+x,1/2-y,z
loop_
_atom_site_type_symbol
_atom_site_label
_atom_site_fract_x
_atom_site_fract_y
_atom_site_fract_z
Si Si1 0.504550 0.822551 0.159770
Si Si2 0.426837 0.822549 0.751291
Si Si3 0.483716 0.174401 0.814643
Si Si4 0.410560 0.676037 0.660588
Si Si5 0.947454 0.325615 0.096622
Si Si6 0.083762 0.676485 0.398123
Si Si7 0.520612 0.323957 0.250671
Si Si8 0.847392 0.323508 0.513154
O O1 0.399981 0.794335 0.201332
O O2 0.434947 0.750682 0.277611
O O3 0.520797 0.000000 0.150493
O O4 0.715615 0.749883 0.955599
O O5 0.531247 0.794208 0.709890
O O6 0.496296 0.750605 0.633584
O O7 0.410909 0.000000 0.760269
O O8 0.624516 0.270286 0.720155
O O9 0.519135 0.000000 0.790884
O O10 0.254592 0.200940 0.033896
O O11 0.445007 0.500000 0.631031
O O12 0.491554 0.744727 0.533262
O O13 0.176580 0.700942 0.877372
O O14 0.912029 0.500000 0.120353
O O15 0.806653 0.229680 0.191130
O O16 0.074324 0.500000 0.413070
O O17 0.965606 0.717975 0.455608
O O18 0.486145 0.500000 0.280230
O O19 0.439581 0.255279 0.378030
O O20 0.856790 0.500000 0.498245
#
# Coordination Sequence:
#
# PCOD9132934 Si02
#       8
#     4   4   4   4   4   4   4   4
#     4   9  17  32  56  87 119 148 183 226 277 338
#     4   9  17  32  56  87 119 148 183 226 277 338
#     4   9  20  38  60  86 114 148 187 228 279 336
#     4  10  21  38  61  87 115 149 188 231 282 337
#     4   9  20  38  60  86 114 148 187 228 279 336
#     4  11  25  41  57  81 112 149 194 239 283 334
#     4  10  21  38  61  87 115 149 188 231 282 337
#     4  11  25  41  57  81 112 149 194 239 283 334
#
# _framework density 20.017757
#
# number of rings (size 3 to 8) (size 9 to 14) (size 15 to 20)
#    0.000    2.250    0.000    3.750    0.000   10.000 
#    0.000    5.000    0.000    0.000    0.000    0.000 
#    0.000    0.000    0.000    0.000    0.000    0.000 
#
# Total GULP energy -89364.589675 kJ/mol
# GULP energy per Si atom -5585.286855 kJ/mol
# Density = 1.997220 g / cm^3
# Si number density = 20.017757 Si / 1000 Ang^3
#
#
#
# Elastic Constant Matrix: (Units=GPa)
#
#
# Indices 1 2 3 4 5 6 
#
# 1 111.6926 58.7755 25.6664 0.0087 -18.2010 -0.0010
# 2 58.7755 62.5822 24.7872 0.0116 -14.8423 -0.0026
# 3 25.6664 24.7872 53.9878 0.0363 -1.0745 -0.0139
# 4 0.0087 0.0116 0.0363 26.2660 -0.0051 1.5697
# 5 -18.2010 -14.8423 -1.0745 -0.0051 29.0989 0.0000
# 6 -0.0010 -0.0026 -0.0139 1.5697 0.0000 32.4209
#
#
#
# Elastic Compliance Matrix: (Units=1/GPa)
#
#
# Indices 1 2 3 4 5 6 
#
# 1 0.018003 -0.015612 -0.001326 0.000004 0.003248 -0.000001
# 2 -0.015612 0.036204 -0.009033 0.000003 0.008368 -0.000002
# 3 -0.001326 -0.009033 0.023209 -0.000029 -0.004580 0.000011
# 4 0.000004 0.000003 -0.000029 0.038183 0.000010 -0.001849
# 5 0.003248 0.008368 -0.004580 0.000010 0.040496 -0.000002
# 6 -0.000001 -0.000002 0.000011 -0.001849 -0.000002 0.030934
#
#
# Mechanical properties :
#
#
# Convention : Reuss Voigt Hill
#
# Bulk Modulus (GPa) = 39.25755 49.63565 44.44660
# Shear Modulus (GPa) = 20.20508 25.49272 22.84890
#
# Velocity S-wave (km/s) = 3.18049 3.57249 3.38217
# Velocity P-wave (km/s) = 5.75684 6.47044 6.12404
#
# Compressibility (1/GPa) = 0.02547280
#
# Stress axis : x y z
#
# Youngs Moduli (GPa) = 55.54737 27.62149 43.08582
#
# Poissons Ratio (x) = 0.43123 0.05714
# Poissons Ratio (y) = 0.86720 0.38921
# Poissons Ratio (z) = 0.07367 0.24952
#
# Static dielectric constant tensor:
#      x y z
#    x 1.696450 0.000000 -0.011110 
#    y 0.000000 1.656690 0.000000 
#    z -0.011110 0.000000 1.763980 
# 
# From -- ./inp_files/32405.got.cif
#   From: 2010.05.17/outbox.cif.g08.bks.cpg/sg8_17_cif.got.tgz:32405.got - 2010.06.03 19:46:02.
