data_PCOD9132696
_publ_section_title
;
Structure prediction by ZEFSAII (Michael W. Deem and Ramdas Pophale) SiO2 
 PCOD9132696
Probable space group: C M
;
_chemical_formula_sum "Si O2"
_cell_formula_units_Z 32
_cell_length_a 12.074839
_cell_length_b 14.181632
_cell_length_c 18.026780
_cell_angle_alpha 90.000000
_cell_angle_beta 150.134351
_cell_angle_gamma 90.000000
_cell_volume 1537.188328
_symmetry_space_group_name_H-M "C M"
_symmetry_group_IT_number 8
_symmetry_cell_setting 'monoclinic'
loop_
_space_group_symop_operation_xyz
x,y,z
x,-y,z
1/2+x,1/2+y,z
1/2+x,1/2-y,z
loop_
_atom_site_type_symbol
_atom_site_label
_atom_site_fract_x
_atom_site_fract_y
_atom_site_fract_z
Si Si1 0.151460 0.783507 0.079760
Si Si2 0.267595 0.102330 0.685794
Si Si3 0.738013 0.895928 0.368312
Si Si4 0.234228 0.164839 0.827931
Si Si5 0.821733 0.397272 0.040975
Si Si6 0.584174 0.308413 0.328802
Si Si7 0.266982 0.747044 0.574354
Si Si8 0.836032 0.387202 0.332469
O O1 0.318437 0.693445 0.180418
O O2 0.216145 0.849402 0.187551
O O3 0.210043 0.827173 0.033964
O O4 0.897145 0.753589 0.932618
O O5 0.305073 0.110443 0.795297
O O6 0.353071 0.195737 0.695688
O O7 0.001495 0.107487 0.514860
O O8 0.349349 0.000000 0.707237
O O9 0.650839 0.803258 0.359003
O O10 0.685825 0.000000 0.371658
O O11 0.589361 0.889990 0.207430
O O12 0.255112 0.112785 0.917925
O O13 0.979074 0.191706 0.667794
O O14 0.755218 0.500000 0.029572
O O15 0.690308 0.326713 0.470490
O O16 0.686308 0.361883 0.317999
O O17 0.061908 0.675913 0.471181
O O18 0.874686 0.500000 0.351654
#
# Coordination Sequence:
#
# PCOD9132696 Si02
#       8
#     4   4   4   4   4   4   4   4
#     4  10  22  39  63  87 126 168 204 257 318 376
#     4  11  23  40  62  91 126 167 212 260 320 379
#     4   9  17  35  62  88 119 156 205 261 312 370
#     4  12  23  40  61  92 128 166 208 260 316 377
#     4  10  21  36  58  89 120 157 206 256 309 369
#     4  10  20  39  62  92 123 162 215 259 316 374
#     4  11  23  40  63  90 127 170 212 263 320 376
#     4  11  23  41  66  97 129 168 217 264 316 381
#
# _framework density 20.817226999999999
#
# number of rings (size 3 to 8) (size 9 to 14) (size 15 to 20)
#    0.000    1.500    2.500    3.000    1.750    4.500 
#    0.000    3.750    0.000    0.000    0.000    0.000 
#    0.000    0.000    0.000    0.000    0.000    0.000 
#
# Total GULP energy -89206.609997 kJ/mol
# GULP energy per Si atom -5575.413125 kJ/mol
# Density = 2.076985 g / cm^3
# Si number density = 20.817227 Si / 1000 Ang^3
#
#
#
# Elastic Constant Matrix: (Units=GPa)
#
#
# Indices 1 2 3 4 5 6 
#
# 1 82.9498 21.5378 15.2185 0.0019 -16.5897 0.0006
# 2 21.5378 78.7124 5.2017 0.0068 -4.8138 0.0019
# 3 15.2185 5.2017 80.0255 0.0152 -13.4104 0.0057
# 4 0.0019 0.0068 0.0152 13.1741 0.0023 -4.5495
# 5 -16.5897 -4.8138 -13.4104 0.0023 26.5586 0.0002
# 6 0.0006 0.0019 0.0057 -4.5495 0.0002 0.2549
#
#
#
# Elastic Compliance Matrix: (Units=1/GPa)
#
#
# Indices 1 2 3 4 5 6 
#
# 1 0.014781 -0.003474 -0.001249 -0.000001 0.007973 -0.000002
# 2 -0.003474 0.013681 -0.000193 0.000007 0.000212 0.000039
# 3 -0.001249 -0.000193 0.013775 0.000024 0.006140 0.000118
# 4 -0.000001 0.000007 0.000024 -0.014703 0.000016 -0.262382
# 5 0.007973 0.000212 0.006140 0.000016 0.045771 0.000093
# 6 -0.000002 0.000039 0.000118 -0.262382 0.000093 -0.759787
#
#
# Mechanical properties :
#
#
# Convention : Reuss Voigt Hill
#
# Bulk Modulus (GPa) = 30.86027 36.17817 33.51922
# Shear Modulus (GPa) = -7.50923 21.31285 6.90181
#
# Velocity S-wave (km/s) = -1.90133 3.20317 1.82281
# Velocity P-wave (km/s) = 3.16804 5.57648 4.53506
#
# Compressibility (1/GPa) = 0.03240412
#
# Stress axis : x y z
#
# Youngs Moduli (GPa) = 67.65318 73.09473 72.59497
#
# Poissons Ratio (x) = 0.25396 0.09068
# Poissons Ratio (y) = 0.23506 0.01401
# Poissons Ratio (z) = 0.08451 0.01411
#
# Static dielectric constant tensor:
#      x y z
#    x 1.775350 0.000000 -0.027310 
#    y 0.000000 1.776560 0.000000 
#    z -0.027310 0.000000 1.762980 
# 
# From -- ./inp_files/28896.got.cif
#   From: 2010.05.17/outbox.cif.g08.bks.cpg/sg8_15_cif.got.tgz:28896.got - 2010.06.03 19:46:02.
