data_PCOD9132970
_publ_section_title
;
Structure prediction by ZEFSAII (Michael W. Deem and Ramdas Pophale) SiO2 
 PCOD9132970
Probable space group: C M
;
_chemical_formula_sum "Si O2"
_cell_formula_units_Z 28
_cell_length_a 5.002927
_cell_length_b 29.643325
_cell_length_c 8.907990
_cell_angle_alpha 90.000000
_cell_angle_beta 59.210555
_cell_angle_gamma 90.000000
_cell_volume 1134.883738
_symmetry_space_group_name_H-M "C M"
_symmetry_group_IT_number 8
_symmetry_cell_setting 'monoclinic'
loop_
_space_group_symop_operation_xyz
x,y,z
x,-y,z
1/2+x,1/2+y,z
1/2+x,1/2-y,z
loop_
_atom_site_type_symbol
_atom_site_label
_atom_site_fract_x
_atom_site_fract_y
_atom_site_fract_z
Si Si1 0.022530 0.276051 0.739740
Si Si2 0.938826 0.952508 0.080106
Si Si3 0.204331 0.875903 0.212378
Si Si4 0.783732 0.450210 0.407138
Si Si5 0.401070 0.722045 0.317409
Si Si6 0.313171 0.083869 0.720397
Si Si7 0.721928 0.132863 0.840202
O O1 0.173610 0.235728 0.794047
O O2 0.214367 0.279284 0.528792
O O3 0.096181 0.320855 0.808568
O O4 0.056752 0.909222 0.133342
O O5 0.573891 0.954426 0.211154
O O6 0.065863 0.000000 0.106422
O O7 0.063090 0.947641 0.876902
O O8 0.047205 0.827073 0.254814
O O9 0.142117 0.903460 0.383966
O O10 0.557861 0.871055 0.050252
O O11 0.624859 0.500000 0.455330
O O12 0.907849 0.439197 0.538180
O O13 0.662817 0.760483 0.261439
O O14 0.092622 0.126928 0.745449
O O15 0.581145 0.095923 0.762467
#
# Coordination Sequence:
#
# PCOD9132970 Si02
#       7
#     4   4   4   4   4   4   4
#     4  10  21  39  60  90 127 168 218 279 332 393
#     4  10  23  44  65  99 139 178 226 280 334 401
#     4  11  24  42  69  96 141 173 228 280 343 394
#     4  11  24  42  69 100 133 184 227 276 339 401
#     4  10  24  40  65  96 131 172 223 278 334 398
#     4  11  24  43  66  97 134 179 224 270 332 396
#     4  11  24  42  66  96 131 178 222 277 335 401
#
# _framework density 24.672132000000001
#
# number of rings (size 3 to 8) (size 9 to 14) (size 15 to 20)
#    0.000    1.429    1.429    2.571    6.000    2.286 
#    0.000    1.429    0.000    0.000    0.000    0.000 
#    0.000    0.000    0.000    0.000    0.000    0.000 
#
# Total GULP energy -78244.473581 kJ/mol
# GULP energy per Si atom -5588.890970 kJ/mol
# Density = 2.461598 g / cm^3
# Si number density = 24.672132 Si / 1000 Ang^3
#
#
#
# Elastic Constant Matrix: (Units=GPa)
#
#
# Indices 1 2 3 4 5 6 
#
# 1 61.8569 -13.7343 10.7018 0.0000 7.9114 0.0000
# 2 -13.7343 109.5410 10.3264 0.0000 7.1982 0.0000
# 3 10.7018 10.3264 78.2803 0.0000 3.9323 0.0000
# 4 0.0000 0.0000 0.0000 17.3669 0.0000 8.5627
# 5 7.9114 7.1982 3.9323 0.0000 26.0239 0.0000
# 6 0.0000 0.0000 0.0000 8.5627 0.0000 21.8893
#
#
#
# Elastic Compliance Matrix: (Units=1/GPa)
#
#
# Indices 1 2 3 4 5 6 
#
# 1 0.018000 0.002883 -0.002546 0.000000 -0.005885 0.000000
# 2 0.002883 0.009856 -0.001525 0.000000 -0.003372 0.000000
# 3 -0.002546 -0.001525 0.013365 0.000000 -0.000824 0.000000
# 4 0.000000 0.000000 0.000000 0.071340 0.000000 -0.027907
# 5 -0.005885 -0.003372 -0.000824 0.000000 0.041272 0.000000
# 6 0.000000 0.000000 0.000000 -0.027907 0.000000 0.056601
#
#
# Mechanical properties :
#
#
# Convention : Reuss Voigt Hill
#
# Bulk Modulus (GPa) = 25.74217 29.36288 27.55253
# Shear Modulus (GPa) = 22.14765 29.21497 25.68131
#
# Velocity S-wave (km/s) = 2.99938 3.44485 3.22980
# Velocity P-wave (km/s) = 4.73829 5.26780 5.01005
#
# Compressibility (1/GPa) = 0.03884676
#
# Stress axis : x y z
#
# Youngs Moduli (GPa) = 55.55662 101.46206 74.82140
#
# Poissons Ratio (x) = -0.29256 0.19046
# Poissons Ratio (y) = -0.16020 0.11410
# Poissons Ratio (z) = 0.14142 0.15472
#
# Static dielectric constant tensor:
#      x y z
#    x 1.970700 0.000000 -0.019430 
#    y 0.000000 2.014860 0.000000 
#    z -0.019430 0.000000 1.968420 
# 
# From -- ./inp_files/7074.got.cif
#   From: 2010.05.17/outbox.cif.g08.bks.cpg/sg8_4_cif.got.tgz:7074.got - 2010.06.03 19:46:02.
