data_PCOD9132101
_publ_section_title
;
Structure prediction by ZEFSAII (Michael W. Deem and Ramdas Pophale) SiO2 
 PCOD9132101
Probable space group: C M
;
_chemical_formula_sum "Si O2"
_cell_formula_units_Z 28
_cell_length_a 23.994935
_cell_length_b 9.972458
_cell_length_c 17.373501
_cell_angle_alpha 90.000000
_cell_angle_beta 20.055983
_cell_angle_gamma 90.000000
_cell_volume 1425.689424
_symmetry_space_group_name_H-M "C M"
_symmetry_group_IT_number 8
_symmetry_cell_setting 'monoclinic'
loop_
_space_group_symop_operation_xyz
x,y,z
x,-y,z
1/2+x,1/2+y,z
1/2+x,1/2-y,z
loop_
_atom_site_type_symbol
_atom_site_label
_atom_site_fract_x
_atom_site_fract_y
_atom_site_fract_z
Si Si1 0.371490 0.659009 0.728060
Si Si2 0.510397 0.152455 0.127891
Si Si3 0.963362 0.849714 0.046907
Si Si4 0.495233 0.151353 0.879494
Si Si5 0.792762 0.280403 0.552269
Si Si6 0.528910 0.653867 0.366065
Si Si7 0.903603 0.654604 0.831540
O O1 0.381305 0.500000 0.732719
O O2 0.187503 0.684389 0.935157
O O3 0.490137 0.692365 0.503502
O O4 0.416263 0.746947 0.743525
O O5 0.462820 0.259867 0.124469
O O6 0.519673 0.000000 0.083938
O O7 0.379656 0.156999 0.365988
O O8 0.901075 0.756563 0.056694
O O9 0.153085 0.862680 0.776607
O O10 0.894169 0.000000 0.144033
O O11 0.680481 0.156870 0.669385
O O12 0.498609 0.193284 0.785915
O O13 0.429494 0.000000 0.969202
O O14 0.927908 0.240634 0.437579
O O15 0.471863 0.500000 0.432294
O O16 0.716494 0.658771 0.101652
O O17 0.943435 0.500000 0.759627
#
# Coordination Sequence:
#
# PCOD9132101 Si02
#       7
#     4   4   4   4   4   4   4
#     4  10  20  36  56  84 115 147 186 229 280 335
#     4  11  21  36  59  87 117 148 186 234 288 337
#     4  10  22  37  57  84 114 145 191 238 277 331
#     4   9  20  39  60  79 115 156 187 230 285 337
#     4  10  20  36  60  83 113 144 194 230 283 330
#     4  10  19  35  60  85 109 145 190 234 277 333
#     4  10  21  39  58  82 113 149 190 231 278 333
#
# _framework density 19.639620000000001
#
# number of rings (size 3 to 8) (size 9 to 14) (size 15 to 20)
#    0.857    1.143    2.857    1.286    0.000    2.286 
#    2.571    0.714    0.000    0.000    0.000    0.000 
#    0.000    0.000    0.000    0.000    0.000    0.000 
#
# Total GULP energy -78002.160290 kJ/mol
# GULP energy per Si atom -5571.582878 kJ/mol
# Density = 1.959492 g / cm^3
# Si number density = 19.639620 Si / 1000 Ang^3
#
#
#
# Elastic Constant Matrix: (Units=GPa)
#
#
# Indices 1 2 3 4 5 6 
#
# 1 104.3675 65.0025 13.5122 0.0000 27.3334 0.0000
# 2 65.0025 104.8666 11.4484 0.0000 26.0655 0.0000
# 3 13.5122 11.4484 40.1730 0.0000 24.4656 0.0000
# 4 0.0000 0.0000 0.0000 14.2767 0.0000 4.3353
# 5 27.3334 26.0655 24.4656 0.0000 33.3039 0.0000
# 6 0.0000 0.0000 0.0000 4.3353 0.0000 29.2229
#
#
#
# Elastic Compliance Matrix: (Units=1/GPa)
#
#
# Indices 1 2 3 4 5 6 
#
# 1 0.016919 -0.008549 0.002040 0.000000 -0.008693 0.000000
# 2 -0.008549 0.016546 0.003209 0.000000 -0.008291 0.000000
# 3 0.002040 0.003209 0.046761 0.000000 -0.038538 0.000000
# 4 0.000000 0.000000 0.000000 0.073349 0.000000 -0.010882
# 5 -0.008693 -0.008291 -0.038538 0.000000 0.071960 0.000000
# 6 0.000000 0.000000 0.000000 -0.010882 0.000000 0.035834
#
#
# Mechanical properties :
#
#
# Convention : Reuss Voigt Hill
#
# Bulk Modulus (GPa) = 13.58219 47.70370 30.64295
# Shear Modulus (GPa) = 17.09342 25.99031 21.54186
#
# Velocity S-wave (km/s) = 2.95338 3.64175 3.31548
# Velocity P-wave (km/s) = 4.30821 6.48270 5.50391
#
# Compressibility (1/GPa) = 0.07362582
#
# Stress axis : x y z
#
# Youngs Moduli (GPa) = 59.10596 60.43925 21.38523
#
# Poissons Ratio (x) = 0.51671 -0.04362
# Poissons Ratio (y) = 0.50531 -0.06863
# Poissons Ratio (z) = -0.12057 -0.19397
#
# Static dielectric constant tensor:
#      x y z
#    x 1.674620 0.000000 -0.005420 
#    y 0.000000 1.709220 0.000000 
#    z -0.005420 0.000000 1.704770 
# 
# From -- ./inp_files/27822.got.cif
#   From: 2010.05.17/outbox.cif.g08.bks.cpg/sg8_14_cif.got.tgz:27822.got - 2010.06.03 19:46:02.
