data_PCOD9132222
_publ_section_title
;
Structure prediction by ZEFSAII (Michael W. Deem and Ramdas Pophale) SiO2 
 PCOD9132222
Probable space group: C M
;
_chemical_formula_sum "Si O2"
_cell_formula_units_Z 20
_cell_length_a 5.324292
_cell_length_b 20.837650
_cell_length_c 7.068860
_cell_angle_alpha 90.000000
_cell_angle_beta 75.616729
_cell_angle_gamma 90.000000
_cell_volume 759.677804
_symmetry_space_group_name_H-M "C M"
_symmetry_group_IT_number 8
_symmetry_cell_setting 'monoclinic'
loop_
_space_group_symop_operation_xyz
x,y,z
x,-y,z
1/2+x,1/2+y,z
1/2+x,1/2-y,z
loop_
_atom_site_type_symbol
_atom_site_label
_atom_site_fract_x
_atom_site_fract_y
_atom_site_fract_z
Si Si1 0.950230 0.604143 0.881650
Si Si2 0.831641 0.254962 0.844824
Si Si3 0.472388 0.073276 0.307495
Si Si4 0.712923 0.789923 0.274134
Si Si5 0.012817 0.927082 0.657230
O O1 0.840071 0.674870 0.931880
O O2 0.734856 0.576205 0.779167
O O3 0.243588 0.609479 0.744377
O O4 0.968718 0.571657 0.081243
O O5 0.620008 0.256274 0.724602
O O6 0.785838 0.210238 0.034485
O O7 0.641004 0.135984 0.335131
O O8 0.183807 0.087184 0.440481
O O9 0.545129 0.000000 0.358755
O O10 0.958927 0.755832 0.324639
O O11 0.920429 0.000000 0.664698
#
# Coordination Sequence:
#
# PCOD9132222 Si02
#       5
#     4   4   4   4   4
#     4  12  24  46  75 100 144 197 231 292 367 418
#     4  10  19  38  69  96 137 181 230 292 344 414
#     4  11  25  47  78 107 144 195 238 296 369 421
#     4  10  21  41  70  98 143 183 230 297 346 418
#     4  11  27  46  67 111 148 178 247 301 343 443
#
# _framework density 26.326951000000001
#
# number of rings (size 3 to 8) (size 9 to 14) (size 15 to 20)
#    0.000    1.200    4.000    3.000    2.800    3.200 
#    0.000   11.000    0.000    0.000    0.000    0.000 
#    0.000    0.000    0.000    0.000    0.000    0.000 
#
# Total GULP energy -55892.910131 kJ/mol
# GULP energy per Si atom -5589.291013 kJ/mol
# Density = 2.626703 g / cm^3
# Si number density = 26.326951 Si / 1000 Ang^3
#
#
#
# Elastic Constant Matrix: (Units=GPa)
#
#
# Indices 1 2 3 4 5 6 
#
# 1 234.4875 49.8597 55.8458 0.0000 -26.4679 0.0000
# 2 49.8597 153.4722 15.3841 0.0000 -17.8954 0.0000
# 3 55.8458 15.3841 145.9741 0.0000 -18.9039 0.0000
# 4 0.0000 0.0000 0.0000 8.3129 0.0000 -29.3745
# 5 -26.4679 -17.8954 -18.9039 0.0000 40.5610 0.0000
# 6 0.0000 0.0000 0.0000 -29.3745 0.0000 44.3041
#
#
#
# Elastic Compliance Matrix: (Units=1/GPa)
#
#
# Indices 1 2 3 4 5 6 
#
# 1 0.005141 -0.001273 -0.001565 0.000000 0.002064 0.000000
# 2 -0.001273 0.007201 0.000034 0.000000 0.002363 0.000000
# 3 -0.001565 0.000034 0.007785 0.000000 0.002622 0.000000
# 4 0.000000 0.000000 0.000000 -0.089582 0.000000 -0.059394
# 5 0.002064 0.002363 0.002622 0.000000 0.028265 0.000000
# 6 0.000000 0.000000 0.000000 -0.059394 0.000000 -0.016808
#
#
# Mechanical properties :
#
#
# Convention : Reuss Voigt Hill
#
# Bulk Modulus (GPa) = 68.87348 86.23479 77.55413
# Shear Modulus (GPa) = -105.15471 46.15853 -29.49809
#
# Velocity S-wave (km/s) = -6.32681 4.19176 -3.35095
# Velocity P-wave (km/s) = 5.21093 7.50028 3.81448
#
# Compressibility (1/GPa) = 0.01451938
#
# Stress axis : x y z
#
# Youngs Moduli (GPa) = 194.51513 138.86232 128.44561
#
# Poissons Ratio (x) = 0.17672 0.20107
# Poissons Ratio (y) = 0.24755 -0.00435
# Poissons Ratio (z) = 0.30450 -0.00471
#
# Static dielectric constant tensor:
#      x y z
#    x 2.180080 0.000000 -0.028450 
#    y 0.000000 1.953830 0.000000 
#    z -0.028450 0.000000 2.033350 
# 
# From -- ./inp_files/6719.got.cif
#   From: 2010.05.17/outbox.cif.g08.bks.cpg/sg8_4_cif.got.tgz:6719.got - 2010.06.03 19:46:02.
