data_PCOD9132839
_publ_section_title
;
Structure prediction by ZEFSAII (Michael W. Deem and Ramdas Pophale) SiO2 
 PCOD9132839
Probable space group: C M
;
_chemical_formula_sum "Si O2"
_cell_formula_units_Z 32
_cell_length_a 15.593305
_cell_length_b 8.503830
_cell_length_c 22.716220
_cell_angle_alpha 90.000000
_cell_angle_beta 32.708740
_cell_angle_gamma 90.000000
_cell_volume 1627.717296
_symmetry_space_group_name_H-M "C M"
_symmetry_group_IT_number 8
_symmetry_cell_setting 'monoclinic'
loop_
_space_group_symop_operation_xyz
x,y,z
x,-y,z
1/2+x,1/2+y,z
1/2+x,1/2-y,z
loop_
_atom_site_type_symbol
_atom_site_label
_atom_site_fract_x
_atom_site_fract_y
_atom_site_fract_z
Si Si1 0.150130 0.183908 0.447640
Si Si2 0.311944 0.689829 0.041772
Si Si3 0.493201 0.316284 0.408732
Si Si4 0.919489 0.314735 0.677398
Si Si5 0.652864 0.807929 0.640509
Si Si6 0.963117 0.310268 0.205080
Si Si7 0.306049 0.686264 0.177621
Si Si8 0.608418 0.186710 0.799630
O O1 0.327074 0.241851 0.329875
O O2 0.056499 0.189368 0.439553
O O3 0.053394 0.281545 0.550944
O O4 0.154521 0.000000 0.463281
O O5 0.306426 0.500000 0.046450
O O6 0.345563 0.744062 0.089220
O O7 0.138414 0.745185 0.120643
O O8 0.450687 0.741612 0.918382
O O9 0.495182 0.500000 0.389670
O O10 0.313705 0.254962 0.515019
O O11 0.620808 0.223406 0.296826
O O12 0.885651 0.500000 0.699595
O O13 0.760480 0.226879 0.751218
O O14 0.998169 0.263172 0.693193
O O15 0.643815 0.754434 0.712989
O O16 0.662477 0.000000 0.635236
O O17 0.960210 0.500000 0.208563
O O18 0.906148 0.261128 0.172941
O O19 0.330671 0.500000 0.165905
O O20 0.589138 0.000000 0.807466
#
# Coordination Sequence:
#
# PCOD9132839 Si02
#       8
#     4   4   4   4   4   4   4   4
#     4   9  17  33  58  84 117 156 190 230 284 344
#     4  10  23  42  61  84 117 155 194 240 291 339
#     4   9  17  35  59  81 117 158 190 230 285 347
#     4  11  22  36  58  88 118 150 189 240 294 341
#     4   9  20  38  58  82 114 153 190 234 290 342
#     4   9  20  39  60  82 117 159 193 232 286 345
#     4  10  21  36  57  88 121 149 188 241 290 338
#     4  11  23  43  63  81 113 156 200 239 284 346
#
# _framework density 19.659434000000001
#
# number of rings (size 3 to 8) (size 9 to 14) (size 15 to 20)
#    0.000    2.250    1.250    1.875    1.750    4.500 
#    0.000    6.875    0.000    0.000    0.000    0.000 
#    0.000    0.000    0.000    0.000    0.000    0.000 
#
# Total GULP energy -89332.376431 kJ/mol
# GULP energy per Si atom -5583.273527 kJ/mol
# Density = 1.961469 g / cm^3
# Si number density = 19.659434 Si / 1000 Ang^3
#
#
#
# Elastic Constant Matrix: (Units=GPa)
#
#
# Indices 1 2 3 4 5 6 
#
# 1 41.0338 -1.8352 16.6864 0.0000 -19.0341 0.0000
# 2 -1.8352 4.5252 -3.7271 0.0000 -0.0161 0.0000
# 3 16.6864 -3.7271 82.8976 0.0000 -19.2483 0.0000
# 4 0.0000 0.0000 0.0000 34.1623 0.0000 -0.1261
# 5 -19.0341 -0.0161 -19.2483 0.0000 24.5327 0.0000
# 6 0.0000 0.0000 0.0000 -0.1261 0.0000 20.3639
#
#
#
# Elastic Compliance Matrix: (Units=1/GPa)
#
#
# Indices 1 2 3 4 5 6 
#
# 1 0.039199 0.015892 -0.000137 0.000000 0.030317 0.000000
# 2 0.015892 0.237983 0.012717 0.000000 0.022464 0.000000
# 3 -0.000137 0.012717 0.015455 0.000000 0.012029 0.000000
# 4 0.000000 0.000000 0.000000 0.029273 0.000000 0.000181
# 5 0.030317 0.022464 0.012029 0.000000 0.073736 0.000000
# 6 0.000000 0.000000 0.000000 0.000181 0.000000 0.049108
#
#
# Mechanical properties :
#
#
# Convention : Reuss Voigt Hill
#
# Bulk Modulus (GPa) = 2.86055 16.74498 9.80276
# Shear Modulus (GPa) = 9.91403 23.63394 16.77399
#
# Velocity S-wave (km/s) = 2.24807 3.47099 2.92418
# Velocity P-wave (km/s) = 2.86298 4.95981 4.04947
#
# Compressibility (1/GPa) = 0.34958313
#
# Stress axis : x y z
#
# Youngs Moduli (GPa) = 25.51072 4.20198 64.70279
#
# Poissons Ratio (x) = -0.06678 0.00883
# Poissons Ratio (y) = -0.40543 -0.82282
# Poissons Ratio (z) = 0.00348 -0.05344
#
# Static dielectric constant tensor:
#      x y z
#    x 1.698500 0.000000 -0.006880 
#    y 0.000000 1.673790 0.000000 
#    z -0.006880 0.000000 1.670630 
# 
# From -- ./inp_files/24787.got.cif
#   From: 2010.05.17/outbox.cif.g08.bks.cpg/sg8_13_cif.got.tgz:24787.got - 2010.06.03 19:46:02.
