data_PCOD9132209
_publ_section_title
;
Structure prediction by ZEFSAII (Michael W. Deem and Ramdas Pophale) SiO2 
 PCOD9132209
Probable space group: C M
;
_chemical_formula_sum "Si O2"
_cell_formula_units_Z 26
_cell_length_a 22.368937
_cell_length_b 12.200381
_cell_length_c 7.684336
_cell_angle_alpha 90.000000
_cell_angle_beta 31.409712
_cell_angle_gamma 90.000000
_cell_volume 1092.927659
_symmetry_space_group_name_H-M "C M"
_symmetry_group_IT_number 8
_symmetry_cell_setting 'monoclinic'
loop_
_space_group_symop_operation_xyz
x,y,z
x,-y,z
1/2+x,1/2+y,z
1/2+x,1/2-y,z
loop_
_atom_site_type_symbol
_atom_site_label
_atom_site_fract_x
_atom_site_fract_y
_atom_site_fract_z
Si Si1 0.541641 0.000000 0.681970
Si Si2 0.444153 0.627612 0.642824
Si Si3 0.841914 0.701677 0.678896
Si Si4 0.788619 0.876863 0.565764
Si Si5 0.444725 0.000000 0.287520
Si Si6 0.044428 0.875057 0.767761
Si Si7 0.195142 0.672372 0.427779
Si Si8 0.867332 0.500000 0.825704
O O1 0.614969 0.890602 0.486724
O O2 0.423873 0.000000 0.871199
O O3 0.525369 0.000000 0.928478
O O4 0.449516 0.500000 0.569816
O O5 0.446453 0.722398 0.491433
O O6 0.526461 0.637189 0.604058
O O7 0.319386 0.654695 0.034587
O O8 0.761829 0.788406 0.780988
O O9 0.875626 0.613387 0.448028
O O10 0.807034 0.613346 0.916559
O O11 0.712282 0.869537 0.582677
O O12 0.782352 0.000000 0.651416
O O13 0.920033 0.857881 0.169244
O O14 0.475267 0.000000 0.417192
O O15 0.138273 0.789662 0.593814
O O16 0.078704 0.000000 0.718228
#
# Coordination Sequence:
#
# PCOD9132209 Si02
#       8
#     2   4   4   4   2   4   4   2
#     4  12  18  40  64  92 134 156 208 278 312 372
#     4  10  19  38  60  86 123 163 213 261 311 379
#     4   9  19  38  54  90 123 163 206 256 314 383
#     4  10  19  38  60  86 123 163 213 261 311 379
#     4   8  22  38  60  98 120 160 213 255 324 376
#     4   9  20  37  59  83 121 158 215 260 306 390
#     4  11  21  35  59  97 116 169 222 248 324 380
#     4   8  22  38  60  98 120 160 213 255 324 376
#
# _framework density 23.789315999999999
#
# number of rings (size 3 to 8) (size 9 to 14) (size 15 to 20)
#    0.923    1.231    1.538    3.231    0.000    1.231 
#    8.308    1.538    3.385    0.000    0.000    0.000 
#    0.000    0.000    0.000    0.000    0.000    0.000 
#
# Total GULP energy -72399.627660 kJ/mol
# GULP energy per Si atom -5569.202128 kJ/mol
# Density = 2.373517 g / cm^3
# Si number density = 23.789316 Si / 1000 Ang^3
#
#
#
# Elastic Constant Matrix: (Units=GPa)
#
#
# Indices 1 2 3 4 5 6 
#
# 1 90.0164 58.2202 18.2308 0.0000 1.4924 0.0000
# 2 58.2202 189.8704 21.6952 0.0000 -2.3489 0.0000
# 3 18.2308 21.6952 27.9680 0.0000 -2.4895 0.0000
# 4 0.0000 0.0000 0.0000 16.7073 0.0000 -5.7525
# 5 1.4924 -2.3489 -2.4895 0.0000 17.4443 0.0000
# 6 0.0000 0.0000 0.0000 -5.7525 0.0000 44.0685
#
#
#
# Elastic Compliance Matrix: (Units=1/GPa)
#
#
# Indices 1 2 3 4 5 6 
#
# 1 0.015082 -0.003849 -0.007097 0.000000 -0.002821 0.000000
# 2 -0.003849 0.006761 -0.002660 0.000000 0.000860 0.000000
# 3 -0.007097 -0.002660 0.043013 0.000000 0.006388 0.000000
# 4 0.000000 0.000000 0.000000 0.062671 0.000000 0.008181
# 5 -0.002821 0.000860 0.006388 0.000000 0.058594 0.000000
# 6 0.000000 0.000000 0.000000 0.008181 0.000000 0.023760
#
#
# Mechanical properties :
#
#
# Convention : Reuss Voigt Hill
#
# Bulk Modulus (GPa) = 26.56315 56.01635 41.28975
# Shear Modulus (GPa) = 20.02874 29.62459 24.82667
#
# Velocity S-wave (km/s) = 2.90474 3.53269 3.23399
# Velocity P-wave (km/s) = 4.73711 6.34333 5.59813
#
# Compressibility (1/GPa) = 0.03764614
#
# Stress axis : x y z
#
# Youngs Moduli (GPa) = 66.30219 147.89792 23.24876
#
# Poissons Ratio (x) = 0.56922 0.16500
# Poissons Ratio (y) = 0.25518 0.06183
# Poissons Ratio (z) = 0.47055 0.39335
#
# Static dielectric constant tensor:
#      x y z
#    x 1.870630 0.000000 0.066640 
#    y 0.000000 1.956060 0.000000 
#    z 0.066640 0.000000 1.967290 
# 
# From -- ./inp_files/16988.got.cif
#   From: 2010.05.17/outbox.cif.g08.bks.cpg/sg8_9_cif.got.tgz:16988.got - 2010.06.03 19:46:02.
