data_PCOD9132114
_publ_section_title
;
Structure prediction by ZEFSAII (Michael W. Deem and Ramdas Pophale) SiO2 
 PCOD9132114
Probable space group: C M
;
_chemical_formula_sum "Si O2"
_cell_formula_units_Z 32
_cell_length_a 14.783568
_cell_length_b 12.349139
_cell_length_c 17.203607
_cell_angle_alpha 90.000000
_cell_angle_beta 28.003522
_cell_angle_gamma 90.000000
_cell_volume 1474.670359
_symmetry_space_group_name_H-M "C M"
_symmetry_group_IT_number 8
_symmetry_cell_setting 'monoclinic'
loop_
_space_group_symop_operation_xyz
x,y,z
x,-y,z
1/2+x,1/2+y,z
1/2+x,1/2-y,z
loop_
_atom_site_type_symbol
_atom_site_label
_atom_site_fract_x
_atom_site_fract_y
_atom_site_fract_z
Si Si1 0.029420 0.625302 0.538540
Si Si2 0.618066 0.755172 0.077914
Si Si3 0.794612 0.716139 0.432476
Si Si4 0.340801 0.374150 0.171895
Si Si5 0.322198 0.813734 0.075095
Si Si6 0.214460 0.724057 0.732704
Si Si7 0.472579 0.619549 0.418819
Si Si8 0.503897 0.624208 0.764465
O O1 0.011713 0.500000 0.571538
O O2 0.171861 0.689356 0.485667
O O3 0.135817 0.632982 0.373542
O O4 0.827369 0.686316 0.695627
O O5 0.454390 0.821731 0.249652
O O6 0.502282 0.684524 0.102693
O O7 0.717574 0.680758 0.070497
O O8 0.790374 0.827628 0.913518
O O9 0.903412 0.781686 0.417589
O O10 0.644425 0.633343 0.583365
O O11 0.385938 0.500000 0.128209
O O12 0.325392 0.310570 0.102920
O O13 0.201176 0.875404 0.232563
O O14 0.545014 0.843936 0.900169
O O15 0.379543 0.647802 0.571624
O O16 0.103446 0.794811 0.751103
O O17 0.405972 0.500000 0.444528
O O18 0.496704 0.500000 0.796489
#
# Coordination Sequence:
#
# PCOD9132114 Si02
#       8
#     4   4   4   4   4   4   4   4
#     4  10  19  35  61  89 120 150 190 253 311 350
#     4   9  21  39  58  87 127 154 196 255 301 361
#     4   9  20  37  59  87 116 151 197 249 297 360
#     4  10  21  39  66  94 120 158 206 257 308 360
#     4  10  21  38  61  89 124 159 199 250 303 366
#     4  10  21  37  58  88 121 150 197 249 296 363
#     4  10  20  39  61  83 117 159 199 245 300 360
#     4  10  21  38  58  83 117 159 198 240 298 362
#
# _framework density 21.699763999999998
#
# number of rings (size 3 to 8) (size 9 to 14) (size 15 to 20)
#    0.000    2.250    1.250    0.750    1.750    6.500 
#    0.000    6.250    0.000    0.000    0.000    0.000 
#    0.000    0.000    0.000    0.000    0.000    0.000 
#
# Total GULP energy -89232.039458 kJ/mol
# GULP energy per Si atom -5577.002466 kJ/mol
# Density = 2.165037 g / cm^3
# Si number density = 21.699764 Si / 1000 Ang^3
#
#
#
# Elastic Constant Matrix: (Units=GPa)
#
#
# Indices 1 2 3 4 5 6 
#
# 1 49.8714 8.4498 8.9364 -0.0004 -12.4111 -0.0004
# 2 8.4498 70.3529 36.7731 0.0006 -2.2818 -0.0016
# 3 8.9364 36.7731 142.8991 -0.0013 -17.4749 -0.0027
# 4 -0.0004 0.0006 -0.0013 5.7126 -0.0004 3.2617
# 5 -12.4111 -2.2818 -17.4749 -0.0004 25.2681 0.0011
# 6 -0.0004 -0.0016 -0.0027 3.2617 0.0011 5.3343
#
#
#
# Elastic Compliance Matrix: (Units=1/GPa)
#
#
# Indices 1 2 3 4 5 6 
#
# 1 0.023304 -0.002778 0.000685 0.000005 0.011669 -0.000005
# 2 -0.002778 0.016812 -0.004516 -0.000008 -0.002969 0.000008
# 3 0.000685 -0.004516 0.008858 0.000003 0.006054 0.000000
# 4 0.000005 -0.000008 0.000003 0.268948 0.000015 -0.164450
# 5 0.011669 -0.002969 0.006054 0.000015 0.049226 -0.000017
# 6 -0.000005 0.000008 0.000000 -0.164450 -0.000017 0.288019
#
#
# Mechanical properties :
#
#
# Convention : Reuss Voigt Hill
#
# Bulk Modulus (GPa) = 27.96879 41.27134 34.62006
# Shear Modulus (GPa) = 7.34967 21.19393 14.27180
#
# Velocity S-wave (km/s) = 1.84237 3.12859 2.56734
# Velocity P-wave (km/s) = 4.17645 5.66669 4.97765
#
# Compressibility (1/GPa) = 0.03575414
#
# Stress axis : x y z
#
# Youngs Moduli (GPa) = 42.91190 59.48222 112.89835
#
# Poissons Ratio (x) = 0.16526 -0.07729
# Poissons Ratio (y) = 0.11922 0.50981
# Poissons Ratio (z) = -0.02938 0.26860
#
# Static dielectric constant tensor:
#      x y z
#    x 1.804780 0.000000 0.020240 
#    y 0.000000 1.738790 0.000000 
#    z 0.020240 0.000000 1.902500 
# 
# From -- ./inp_files/29220.got.cif
#   From: 2010.05.17/outbox.cif.g08.bks.cpg/sg8_15_cif.got.tgz:29220.got - 2010.06.03 19:46:02.
