data_PCOD9132736
_publ_section_title
;
Structure prediction by ZEFSAII (Michael W. Deem and Ramdas Pophale) SiO2 
 PCOD9132736
Probable space group: C M
;
_chemical_formula_sum "Si O2"
_cell_formula_units_Z 26
_cell_length_a 9.830548
_cell_length_b 7.980151
_cell_length_c 16.951588
_cell_angle_alpha 90.000000
_cell_angle_beta 53.408216
_cell_angle_gamma 90.000000
_cell_volume 1067.732068
_symmetry_space_group_name_H-M "C M"
_symmetry_group_IT_number 8
_symmetry_cell_setting 'monoclinic'
loop_
_space_group_symop_operation_xyz
x,y,z
x,-y,z
1/2+x,1/2+y,z
1/2+x,1/2-y,z
loop_
_atom_site_type_symbol
_atom_site_label
_atom_site_fract_x
_atom_site_fract_y
_atom_site_fract_z
Si Si1 0.875000 0.802996 0.275250
Si Si2 0.558628 0.500000 0.024426
Si Si3 0.823997 0.796383 0.471204
Si Si4 0.450323 0.804215 0.587607
Si Si5 0.220085 0.687663 0.173877
Si Si6 0.109635 0.685291 0.785385
Si Si7 0.252199 0.318263 0.912099
O O1 0.857688 0.740592 0.370037
O O2 0.761339 0.730017 0.244826
O O3 0.072998 0.790732 0.183492
O O4 0.832918 0.000000 0.290286
O O5 0.699893 0.650397 0.974586
O O6 0.403086 0.645167 0.074605
O O7 0.630813 0.743580 0.557255
O O8 0.946772 0.723160 0.494550
O O9 0.833795 0.000000 0.470355
O O10 0.283962 0.720967 0.680012
O O11 0.439353 0.000000 0.608743
O O12 0.143607 0.500000 0.209868
O O13 0.052932 0.500000 0.780733
O O14 0.157665 0.689526 0.860819
O O15 0.953483 0.807856 0.825820
O O16 0.215110 0.500000 0.963177
#
# Coordination Sequence:
#
# PCOD9132736 Si02
#       7
#     4   2   4   4   4   4   4
#     4  10  20  40  64  88 126 168 213 261 330 382
#     4  10  24  46  66 100 132 166 222 280 326 394
#     4  10  22  38  60  91 127 170 212 264 314 384
#     4  11  23  38  61  95 128 170 214 263 319 382
#     4   9  22  41  60  91 124 160 207 270 322 382
#     4  11  24  43  66  94 134 172 217 269 326 389
#     4  11  25  44  68  98 130 178 216 269 332 392
#
# _framework density 24.350677000000001
#
# number of rings (size 3 to 8) (size 9 to 14) (size 15 to 20)
#    0.462    1.231    0.769    2.769    2.154    8.000 
#    0.000    0.000    0.000    0.000    0.000    0.000 
#    0.000    0.000    0.000    0.000    0.000    0.000 
#
# Total GULP energy -72401.905450 kJ/mol
# GULP energy per Si atom -5569.377342 kJ/mol
# Density = 2.429525 g / cm^3
# Si number density = 24.350677 Si / 1000 Ang^3
#
#
#
# Elastic Constant Matrix: (Units=GPa)
#
#
# Indices 1 2 3 4 5 6 
#
# 1 74.4200 -8.3922 -10.5269 0.0000 -3.9479 0.0000
# 2 -8.3922 88.4794 16.5367 0.0000 -2.5083 0.0000
# 3 -10.5269 16.5367 74.8662 0.0000 -6.5831 0.0000
# 4 0.0000 0.0000 0.0000 -48.6807 0.0000 -48.6018
# 5 -3.9479 -2.5083 -6.5831 0.0000 39.7899 0.0000
# 6 0.0000 0.0000 0.0000 -48.6018 0.0000 -7.3403
#
#
#
# Elastic Compliance Matrix: (Units=1/GPa)
#
#
# Indices 1 2 3 4 5 6 
#
# 1 0.013912 0.001017 0.001886 0.000000 0.001756 0.000000
# 2 0.001017 0.011867 -0.002439 0.000000 0.000445 0.000000
# 3 0.001886 -0.002439 0.014373 0.000000 0.002411 0.000000
# 4 0.000000 0.000000 0.000000 0.003661 0.000000 -0.024243
# 5 0.001756 0.000445 0.002411 0.000000 0.025733 0.000000
# 6 0.000000 0.000000 0.000000 -0.024243 0.000000 0.024282
#
#
# Mechanical properties :
#
#
# Convention : Reuss Voigt Hill
#
# Bulk Modulus (GPa) = 24.34304 25.88897 25.11600
# Shear Modulus (GPa) = 46.90681 12.76366 29.83524
#
# Velocity S-wave (km/s) = 4.39373 2.29194 3.50413
# Velocity P-wave (km/s) = 5.97983 4.20224 5.16803
#
# Compressibility (1/GPa) = 0.04107951
#
# Stress axis : x y z
#
# Youngs Moduli (GPa) = 71.88104 84.26733 69.57429
#
# Poissons Ratio (x) = -0.08569 -0.13122
# Poissons Ratio (y) = -0.07309 0.16970
# Poissons Ratio (z) = -0.13557 0.20553
#
# Static dielectric constant tensor:
#      x y z
#    x 1.923350 0.000000 0.054310 
#    y 0.000000 1.931700 0.000000 
#    z 0.054310 0.000000 2.021180 
# 
# From -- ./inp_files/28491.got.cif
#   From: 2010.05.17/outbox.cif.g08.bks.cpg/sg8_15_cif.got.tgz:28491.got - 2010.06.03 19:46:02.
