data_PCOD9132723
_publ_section_title
;
Structure prediction by ZEFSAII (Michael W. Deem and Ramdas Pophale) SiO2 
 PCOD9132723
Probable space group: C M
;
_chemical_formula_sum "Si O2"
_cell_formula_units_Z 26
_cell_length_a 15.329011
_cell_length_b 7.416004
_cell_length_c 18.999990
_cell_angle_alpha 90.000000
_cell_angle_beta 30.719895
_cell_angle_gamma 90.000000
_cell_volume 1103.376165
_symmetry_space_group_name_H-M "C M"
_symmetry_group_IT_number 8
_symmetry_cell_setting 'monoclinic'
loop_
_space_group_symop_operation_xyz
x,y,z
x,-y,z
1/2+x,1/2+y,z
1/2+x,1/2-y,z
loop_
_atom_site_type_symbol
_atom_site_label
_atom_site_fract_x
_atom_site_fract_y
_atom_site_fract_z
Si Si1 0.897340 0.717798 0.699350
Si Si2 0.602401 0.292278 0.695628
Si Si3 0.514016 0.281644 0.005865
Si Si4 0.951651 0.703509 0.209030
Si Si5 0.812600 0.780255 0.009779
Si Si6 0.411625 0.500000 0.481096
Si Si7 0.583430 0.796444 0.432769
O O1 0.911585 0.500000 0.690336
O O2 0.015263 0.790660 0.679396
O O3 0.956308 0.776099 0.581422
O O4 0.702441 0.766295 0.848406
O O5 0.647376 0.500000 0.683576
O O6 0.454292 0.229722 0.853037
O O7 0.762240 0.159156 0.582993
O O8 0.505331 0.500000 0.018854
O O9 0.488343 0.203113 0.100359
O O10 0.380857 0.227421 0.038575
O O11 0.929859 0.500000 0.250804
O O12 0.768921 0.796132 0.340882
O O13 0.121470 0.784433 0.125955
O O14 0.805585 0.000000 0.011329
O O15 0.560441 0.657840 0.386221
O O16 0.545780 0.000000 0.437965
#
# Coordination Sequence:
#
# PCOD9132723 Si02
#       7
#     4   4   4   4   4   2   4
#     4  10  21  41  67 101 137 179 231 282 338 410
#     4  11  22  40  68 102 140 177 224 287 345 399
#     4  10  20  39  68  96 131 177 227 283 342 398
#     4  11  22  43  65  96 138 180 228 278 336 417
#     4   9  20  40  65  97 135 179 225 279 340 406
#     4  12  24  44  66 100 134 174 232 284 338 410
#     4  11  25  46  69  95 139 186 226 280 346 406
#
# _framework density 23.564041
#
# number of rings (size 3 to 8) (size 9 to 14) (size 15 to 20)
#    0.000    1.538    3.077    1.846    1.077    2.462 
#    8.308    0.000    0.000    0.000    0.000    0.000 
#    0.000    0.000    0.000    0.000    0.000    0.000 
#
# Total GULP energy -72492.974298 kJ/mol
# GULP energy per Si atom -5576.382638 kJ/mol
# Density = 2.351041 g / cm^3
# Si number density = 23.564041 Si / 1000 Ang^3
#
#
#
# Elastic Constant Matrix: (Units=GPa)
#
#
# Indices 1 2 3 4 5 6 
#
# 1 100.3241 11.2305 21.0693 0.0000 -36.8145 0.0000
# 2 11.2305 127.0854 9.5202 0.0000 -19.1831 0.0000
# 3 21.0693 9.5202 44.5885 0.0000 -22.2167 0.0000
# 4 0.0000 0.0000 0.0000 20.5177 0.0000 -4.1807
# 5 -36.8145 -19.1831 -22.2167 0.0000 45.7010 0.0000
# 6 0.0000 0.0000 0.0000 -4.1807 0.0000 13.6297
#
#
#
# Elastic Compliance Matrix: (Units=1/GPa)
#
#
# Indices 1 2 3 4 5 6 
#
# 1 0.014241 0.000507 -0.001340 0.000000 0.011033 0.000000
# 2 0.000507 0.008419 -0.000096 0.000000 0.003896 0.000000
# 3 -0.001340 -0.000096 0.029722 0.000000 0.013329 0.000000
# 4 0.000000 0.000000 0.000000 0.051987 0.000000 0.015946
# 5 0.011033 0.003896 0.013329 0.000000 0.038884 0.000000
# 6 0.000000 0.000000 0.000000 0.015946 0.000000 0.078260
#
#
# Mechanical properties :
#
#
# Convention : Reuss Voigt Hill
#
# Bulk Modulus (GPa) = 19.79219 39.51535 29.65377
# Shear Modulus (GPa) = 20.81474 31.31489 26.06481
#
# Velocity S-wave (km/s) = 2.97531 3.64940 3.32946
# Velocity P-wave (km/s) = 4.49676 5.87905 5.23374
#
# Compressibility (1/GPa) = 0.05052498
#
# Stress axis : x y z
#
# Youngs Moduli (GPa) = 70.21915 118.77650 33.64458
#
# Poissons Ratio (x) = -0.06026 0.04509
# Poissons Ratio (y) = -0.03563 0.00323
# Poissons Ratio (z) = 0.09410 0.01142
#
# Static dielectric constant tensor:
#      x y z
#    x 1.874340 0.000000 0.011880 
#    y 0.000000 1.880330 0.000000 
#    z 0.011880 0.000000 1.900370 
# 
# From -- ./inp_files/30685.got.cif
#   From: 2010.05.17/outbox.cif.g08.bks.cpg/sg8_16_cif.got.tgz:30685.got - 2010.06.03 19:46:02.
