data_PCOD9132429
_publ_section_title
;
Structure prediction by ZEFSAII (Michael W. Deem and Ramdas Pophale) SiO2 
 PCOD9132429
Probable space group: C M
;
_chemical_formula_sum "Si O2"
_cell_formula_units_Z 26
_cell_length_a 21.105226
_cell_length_b 7.257341
_cell_length_c 15.214369
_cell_angle_alpha 90.000000
_cell_angle_beta 26.057897
_cell_angle_gamma 90.000000
_cell_volume 1023.674937
_symmetry_space_group_name_H-M "C M"
_symmetry_group_IT_number 8
_symmetry_cell_setting 'monoclinic'
loop_
_space_group_symop_operation_xyz
x,y,z
x,-y,z
1/2+x,1/2+y,z
1/2+x,1/2-y,z
loop_
_atom_site_type_symbol
_atom_site_label
_atom_site_fract_x
_atom_site_fract_y
_atom_site_fract_z
Si Si1 0.299760 0.280776 0.227580
Si Si2 0.063754 0.500000 0.934942
Si Si3 0.165571 0.783792 0.569589
Si Si4 0.957250 0.292564 0.282054
Si Si5 0.353072 0.276687 0.974834
Si Si6 0.366478 0.297822 0.582394
Si Si7 0.775480 0.227349 0.876383
O O1 0.329865 0.500000 0.192795
O O2 0.175359 0.238820 0.452929
O O3 0.437965 0.161527 0.083805
O O4 0.261909 0.229774 0.174201
O O5 0.196894 0.342559 0.774570
O O6 0.312397 0.703671 0.425675
O O7 0.015974 0.710132 0.791680
O O8 0.167488 0.000000 0.589696
O O9 0.966510 0.500000 0.231531
O O10 0.936538 0.302117 0.412570
O O11 0.110614 0.210954 0.068558
O O12 0.354363 0.500000 0.967537
O O13 0.315307 0.213834 0.924627
O O14 0.437798 0.500000 0.495385
O O15 0.369777 0.214648 0.675621
O O16 0.776420 0.000000 0.873122
#
# Coordination Sequence:
#
# PCOD9132429 Si02
#       7
#     4   2   4   4   4   4   4
#     4  11  22  38  62  92 122 164 206 254 307 369
#     4  10  20  38  62  88 130 156 202 254 320 350
#     4  10  20  36  58  87 122 158 202 255 307 363
#     4  10  20  35  61  89 119 157 205 254 310 363
#     4   9  20  37  59  87 122 165 203 244 311 372
#     4   9  20  35  58  84 116 160 200 252 304 359
#     4   9  18  36  60  83 119 167 202 245 309 376
#
# _framework density 25.398686999999999
#
# number of rings (size 3 to 8) (size 9 to 14) (size 15 to 20)
#    0.462    1.846    0.769    1.846    2.154    3.692 
#    1.385    0.769    3.385    0.000    0.000    0.000 
#    0.000    0.000    0.000    0.000    0.000    0.000 
#
# Total GULP energy -72389.584415 kJ/mol
# GULP energy per Si atom -5568.429570 kJ/mol
# Density = 2.534088 g / cm^3
# Si number density = 25.398687 Si / 1000 Ang^3
#
#
#
# Elastic Constant Matrix: (Units=GPa)
#
#
# Indices 1 2 3 4 5 6 
#
# 1 88.4594 -11.6664 20.9419 -0.0018 27.5347 0.0010
# 2 -11.6664 127.4009 -17.7446 -0.0046 -11.5740 0.0036
# 3 20.9419 -17.7446 61.7700 -0.0062 17.7973 0.0041
# 4 -0.0018 -0.0046 -0.0062 133.7838 0.0002 -102.7450
# 5 27.5347 -11.5740 17.7973 0.0002 35.2277 0.0003
# 6 0.0010 0.0036 0.0041 -102.7450 0.0003 117.0135
#
#
#
# Elastic Compliance Matrix: (Units=1/GPa)
#
#
# Indices 1 2 3 4 5 6 
#
# 1 0.015153 0.000130 -0.001989 0.000000 -0.010796 0.000000
# 2 0.000130 0.008271 0.001847 0.000000 0.001683 0.000000
# 3 -0.001989 0.001847 0.019628 0.000001 -0.007754 0.000000
# 4 0.000000 0.000000 0.000001 0.022953 -0.000001 0.020154
# 5 -0.010796 0.001683 -0.007754 -0.000001 0.041296 -0.000001
# 6 0.000000 0.000000 0.000000 0.020154 -0.000001 0.026243
#
#
# Mechanical properties :
#
#
# Convention : Reuss Voigt Hill
#
# Bulk Modulus (GPa) = 23.24071 28.96579 26.10325
# Shear Modulus (GPa) = 33.80382 76.27830 55.04106
#
# Velocity S-wave (km/s) = 3.65215 5.48613 4.66024
# Velocity P-wave (km/s) = 5.19177 7.18048 6.26553
#
# Compressibility (1/GPa) = 0.04302795
#
# Stress axis : x y z
#
# Youngs Moduli (GPa) = 65.99224 120.90013 50.94639
#
# Poissons Ratio (x) = -0.01568 0.10136
# Poissons Ratio (y) = -0.00856 -0.09411
# Poissons Ratio (z) = 0.13129 -0.22333
#
# Static dielectric constant tensor:
#      x y z
#    x 2.084550 0.000000 0.039390 
#    y 0.000000 1.807750 0.000000 
#    z 0.039390 0.000000 1.944370 
# 
# From -- ./inp_files/23810.got.cif
#   From: 2010.05.17/outbox.cif.g08.bks.cpg/sg8_12_cif.got.tgz:23810.got - 2010.06.03 19:46:02.
