data_PCOD9132872
_publ_section_title
;
Structure prediction by ZEFSAII (Michael W. Deem and Ramdas Pophale) SiO2 
 PCOD9132872
Probable space group: C M
;
_chemical_formula_sum "Si O2"
_cell_formula_units_Z 20
_cell_length_a 5.032278
_cell_length_b 28.470691
_cell_length_c 7.471830
_cell_angle_alpha 90.000000
_cell_angle_beta 117.269090
_cell_angle_gamma 90.000000
_cell_volume 951.535935
_symmetry_space_group_name_H-M "C M"
_symmetry_group_IT_number 8
_symmetry_cell_setting 'monoclinic'
loop_
_space_group_symop_operation_xyz
x,y,z
x,-y,z
1/2+x,1/2+y,z
1/2+x,1/2-y,z
loop_
_atom_site_type_symbol
_atom_site_label
_atom_site_fract_x
_atom_site_fract_y
_atom_site_fract_z
Si Si1 0.589660 0.500000 0.937371
Si Si2 0.379309 0.862841 0.554423
Si Si3 0.293391 0.500000 0.237592
Si Si4 0.900280 0.074815 0.581142
Si Si5 0.306541 0.721158 0.788956
Si Si6 0.653295 0.720110 0.267730
O O1 0.483269 0.543715 0.780680
O O2 0.454861 0.500000 0.095399
O O3 0.944218 0.500000 0.078774
O O4 0.579382 0.901251 0.514364
O O5 0.623063 0.825933 0.701817
O O6 0.174816 0.830146 0.366118
O O7 0.164131 0.887713 0.629934
O O8 0.377590 0.543658 0.393339
O O9 0.567099 0.736452 0.734633
O O10 0.470471 0.716045 0.028989
O O11 0.479757 0.759763 0.325695
#
# Coordination Sequence:
#
# PCOD9132872 Si02
#       6
#     2   4   2   4   4   4
#     4  11  24  47  70  88 126 167 196 251 322 378
#     4  12  22  38  62  91 128 157 202 266 304 348
#     4  11  24  47  70  88 126 167 196 251 322 378
#     4  11  26  41  64 101 122 155 214 253 306 387
#     4  10  21  37  57  84 122 168 209 245 298 360
#     4  10  21  37  57  84 122 168 209 245 298 360
#
# _framework density 21.018647999999999
#
# number of rings (size 3 to 8) (size 9 to 14) (size 15 to 20)
#    0.000    1.200    0.000    6.000    0.000    8.000 
#    0.000    0.000    0.000    0.000    0.000    0.000 
#    0.000    0.000    0.000    0.000    0.000    0.000 
#
# Total GULP energy -55909.116311 kJ/mol
# GULP energy per Si atom -5590.911631 kJ/mol
# Density = 2.097081 g / cm^3
# Si number density = 21.018648 Si / 1000 Ang^3
#
#
#
# Elastic Constant Matrix: (Units=GPa)
#
#
# Indices 1 2 3 4 5 6 
#
# 1 95.7525 3.7678 13.1254 0.0000 0.7679 0.0000
# 2 3.7678 63.0342 19.6008 0.0000 1.1226 0.0000
# 3 13.1254 19.6008 118.4716 0.0000 -4.3883 0.0000
# 4 0.0000 0.0000 0.0000 -0.8207 0.0000 -2.1819
# 5 0.7679 1.1226 -4.3883 0.0000 36.8952 0.0000
# 6 0.0000 0.0000 0.0000 -2.1819 0.0000 33.6090
#
#
#
# Elastic Compliance Matrix: (Units=1/GPa)
#
#
# Indices 1 2 3 4 5 6 
#
# 1 0.010614 -0.000273 -0.001144 0.000000 -0.000349 0.000000
# 2 -0.000273 0.016758 -0.002773 0.000000 -0.000834 0.000000
# 3 -0.001144 -0.002773 0.009070 0.000000 0.001187 0.000000
# 4 0.000000 0.000000 0.000000 -1.039151 0.000000 -0.067461
# 5 -0.000349 -0.000834 0.001187 0.000000 0.027278 0.000000
# 6 0.000000 0.000000 0.000000 -0.067461 0.000000 0.025374
#
#
# Mechanical properties :
#
#
# Convention : Reuss Voigt Hill
#
# Bulk Modulus (GPa) = 35.63404 38.91625 37.27514
# Shear Modulus (GPa) = -5.36295 29.98767 12.31236
#
# Velocity S-wave (km/s) = -1.59908 3.78129 2.42292
# Velocity P-wave (km/s) = 3.68523 6.13347 5.05967
#
# Compressibility (1/GPa) = 0.02806306
#
# Stress axis : x y z
#
# Youngs Moduli (GPa) = 94.21614 59.67333 110.24930
#
# Poissons Ratio (x) = 0.01627 0.12609
# Poissons Ratio (y) = 0.02568 0.30575
# Poissons Ratio (z) = 0.10776 0.16549
#
# Static dielectric constant tensor:
#      x y z
#    x 1.740820 0.000000 -0.010550 
#    y 0.000000 1.759340 0.000000 
#    z -0.010550 0.000000 1.751070 
# 
# From -- ./inp_files/6805.got.cif
#   From: 2010.05.17/outbox.cif.g08.bks.cpg/sg8_4_cif.got.tgz:6805.got - 2010.06.03 19:46:02.
