data_PCOD9132394
_publ_section_title
;
Structure prediction by ZEFSAII (Michael W. Deem and Ramdas Pophale) SiO2 
 PCOD9132394
Probable space group: C M
;
_chemical_formula_sum "Si O2"
_cell_formula_units_Z 28
_cell_length_a 14.153666
_cell_length_b 11.595340
_cell_length_c 10.158381
_cell_angle_alpha 90.000000
_cell_angle_beta 43.592398
_cell_angle_gamma 90.000000
_cell_volume 1149.544986
_symmetry_space_group_name_H-M "C M"
_symmetry_group_IT_number 8
_symmetry_cell_setting 'monoclinic'
loop_
_space_group_symop_operation_xyz
x,y,z
x,-y,z
1/2+x,1/2+y,z
1/2+x,1/2-y,z
loop_
_atom_site_type_symbol
_atom_site_label
_atom_site_fract_x
_atom_site_fract_y
_atom_site_fract_z
Si Si1 0.064600 0.632924 0.785210
Si Si2 0.602571 0.126822 0.311357
Si Si3 0.978587 0.319222 0.158949
Si Si4 0.183120 0.869599 0.350708
Si Si5 0.851279 0.626757 0.774700
Si Si6 0.376573 0.626154 0.701998
Si Si7 0.341989 0.626389 0.424313
O O1 0.105214 0.500000 0.766253
O O2 0.191895 0.683933 0.576536
O O3 0.930244 0.630034 0.833809
O O4 0.044685 0.678896 0.949637
O O5 0.551810 0.127234 0.211691
O O6 0.678796 0.248417 0.270599
O O7 0.467769 0.126873 0.542137
O O8 0.670157 0.000000 0.267673
O O9 0.825070 0.368890 0.288015
O O10 0.954294 0.189949 0.229138
O O11 0.037850 0.866585 0.576014
O O12 0.179889 0.000000 0.288232
O O13 0.780855 0.500000 0.835791
O O14 0.796132 0.757956 0.822931
O O15 0.323808 0.500000 0.798319
O O16 0.380300 0.625724 0.539229
O O17 0.328719 0.500000 0.383436
#
# Coordination Sequence:
#
# PCOD9132394 Si02
#       7
#     4   4   4   4   4   4   4
#     4  10  22  39  62  95 131 169 219 273 336 401
#     4  10  20  37  62  92 125 168 223 269 318 393
#     4  12  22  39  68  96 126 172 227 274 325 395
#     4  10  20  35  57  90 127 163 207 265 330 385
#     4   9  17  34  56  82 120 160 205 262 316 376
#     4   9  17  34  58  85 120 167 211 256 325 390
#     4  10  20  38  65  92 128 175 217 269 335 398
#
# _framework density 24.357465000000001
#
# number of rings (size 3 to 8) (size 9 to 14) (size 15 to 20)
#    0.000    2.000    2.857    3.000    0.000    1.714 
#    2.571    0.714    0.000    3.429    0.000    0.000 
#    0.000    0.000    0.000    0.000    0.000    0.000 
#
# Total GULP energy -78049.683687 kJ/mol
# GULP energy per Si atom -5574.977406 kJ/mol
# Density = 2.430203 g / cm^3
# Si number density = 24.357465 Si / 1000 Ang^3
#
#
#
# Elastic Constant Matrix: (Units=GPa)
#
#
# Indices 1 2 3 4 5 6 
#
# 1 84.7991 35.4250 8.9888 0.0000 14.8981 0.0000
# 2 35.4250 234.5838 45.3825 0.0000 7.7583 0.0000
# 3 8.9888 45.3825 75.2599 0.0000 20.2044 0.0000
# 4 0.0000 0.0000 0.0000 10.6457 0.0000 -3.5018
# 5 14.8981 7.7583 20.2044 0.0000 28.2913 0.0000
# 6 0.0000 0.0000 0.0000 -3.5018 0.0000 16.0069
#
#
#
# Elastic Compliance Matrix: (Units=1/GPa)
#
#
# Indices 1 2 3 4 5 6 
#
# 1 0.013925 -0.002188 0.001811 0.000000 -0.008026 0.000000
# 2 -0.002188 0.005190 -0.003458 0.000000 0.002199 0.000000
# 3 0.001811 -0.003458 0.018753 0.000000 -0.013398 0.000000
# 4 0.000000 0.000000 0.000000 0.101218 0.000000 0.022143
# 5 -0.008026 0.002199 -0.013398 0.000000 0.048538 0.000000
# 6 0.000000 0.000000 0.000000 0.022143 0.000000 0.067317
#
#
# Mechanical properties :
#
#
# Convention : Reuss Voigt Hill
#
# Bulk Modulus (GPa) = 33.11605 63.80391 48.45998
# Shear Modulus (GPa) = 18.33668 31.31188 24.82428
#
# Velocity S-wave (km/s) = 2.74673 3.58930 3.19590
# Velocity P-wave (km/s) = 4.86669 6.59007 5.79283
#
# Compressibility (1/GPa) = 0.03019684
#
# Stress axis : x y z
#
# Youngs Moduli (GPa) = 71.81556 192.69465 53.32409
#
# Poissons Ratio (x) = 0.42155 -0.09655
# Poissons Ratio (y) = 0.15711 0.18441
# Poissons Ratio (z) = -0.13004 0.66640
#
# Static dielectric constant tensor:
#      x y z
#    x 2.003280 0.000000 -0.047250 
#    y 0.000000 2.053760 0.000000 
#    z -0.047250 0.000000 1.924370 
# 
# From -- ./inp_files/12719.got.cif
#   From: 2010.05.17/outbox.cif.g08.bks.cpg/sg8_7_cif.got.tgz:12719.got - 2010.06.03 19:46:02.
