data_PCOD9132124
_publ_section_title
;
Structure prediction by ZEFSAII (Michael W. Deem and Ramdas Pophale) SiO2 
 PCOD9132124
Probable space group: C M
;
_chemical_formula_sum "Si O2"
_cell_formula_units_Z 30
_cell_length_a 8.256798
_cell_length_b 14.590882
_cell_length_c 11.684140
_cell_angle_alpha 90.000000
_cell_angle_beta 108.351638
_cell_angle_gamma 90.000000
_cell_volume 1336.045341
_symmetry_space_group_name_H-M "C M"
_symmetry_group_IT_number 8
_symmetry_cell_setting 'monoclinic'
loop_
_space_group_symop_operation_xyz
x,y,z
x,-y,z
1/2+x,1/2+y,z
1/2+x,1/2-y,z
loop_
_atom_site_type_symbol
_atom_site_label
_atom_site_fract_x
_atom_site_fract_y
_atom_site_fract_z
Si Si1 0.593170 0.602730 0.812690
Si Si2 0.982353 0.337207 0.458085
Si Si3 0.885290 0.500000 0.596852
Si Si4 0.167683 0.611909 0.038862
Si Si5 0.422719 0.835424 0.789983
Si Si6 0.524881 0.390170 0.047327
Si Si7 0.410610 0.888047 0.185788
Si Si8 0.874239 0.179524 0.592067
O O1 0.658815 0.500000 0.850343
O O2 0.758063 0.664120 0.834325
O O3 0.495644 0.601111 0.668998
O O4 0.489568 0.626087 0.904382
O O5 0.180147 0.350949 0.538236
O O6 0.877485 0.417782 0.496884
O O7 0.963866 0.347251 0.319217
O O8 0.929819 0.236851 0.493549
O O9 0.909217 0.420895 0.701441
O O10 0.162727 0.500000 0.028459
O O11 0.365139 0.642353 0.086795
O O12 0.047220 0.636992 0.118375
O O13 0.084679 0.652877 0.906077
O O14 0.406238 0.749670 0.703325
O O15 0.529141 0.500000 0.064843
O O16 0.716407 0.358075 0.115338
O O17 0.412502 0.000000 0.193468
#
# Coordination Sequence:
#
# PCOD9132124 Si02
#       8
#     4   4   2   4   4   4   4   4
#     4  11  21  38  65  99 133 166 215 270 335 398
#     4  11  24  45  64  91 131 177 222 267 327 390
#     4  10  22  36  68  96 120 178 220 254 328 402
#     4  10  19  35  66 102 129 166 217 273 328 389
#     4  11  20  39  64  98 136 169 208 272 341 387
#     4   9  20  34  63 103 128 160 214 276 323 384
#     4  10  20  41  66  93 131 172 223 271 319 383
#     4  11  26  41  62  94 136 169 215 277 329 387
#
# _framework density 22.454328
#
# number of rings (size 3 to 8) (size 9 to 14) (size 15 to 20)
#    0.000    1.600    4.667    0.000    4.667    0.000 
#    2.400    1.333    2.933    0.000    0.000    0.000 
#    0.000    0.000    0.000    0.000    0.000    0.000 
#
# Total GULP energy -83553.477570 kJ/mol
# GULP energy per Si atom -5570.231838 kJ/mol
# Density = 2.240322 g / cm^3
# Si number density = 22.454328 Si / 1000 Ang^3
#
#
#
# Elastic Constant Matrix: (Units=GPa)
#
#
# Indices 1 2 3 4 5 6 
#
# 1 132.2234 15.7892 46.5789 0.0000 -8.8106 0.0000
# 2 15.7892 66.1608 23.4043 0.0000 -5.0525 0.0000
# 3 46.5789 23.4043 117.7245 0.0000 -21.5876 0.0000
# 4 0.0000 0.0000 0.0000 29.8563 0.0000 -1.8237
# 5 -8.8106 -5.0525 -21.5876 0.0000 27.4129 0.0000
# 6 0.0000 0.0000 0.0000 -1.8237 0.0000 9.4951
#
#
#
# Elastic Compliance Matrix: (Units=1/GPa)
#
#
# Indices 1 2 3 4 5 6 
#
# 1 0.008842 -0.000938 -0.003299 0.000000 0.000071 0.000000
# 2 -0.000938 0.016364 -0.002787 0.000000 0.000520 0.000000
# 3 -0.003299 -0.002787 0.011764 0.000000 0.007690 0.000000
# 4 0.000000 0.000000 0.000000 0.033891 0.000000 0.006509
# 5 0.000071 0.000520 0.007690 0.000000 0.042654 0.000000
# 6 0.000000 0.000000 0.000000 0.006509 0.000000 0.106568
#
#
# Mechanical properties :
#
#
# Convention : Reuss Voigt Hill
#
# Bulk Modulus (GPa) = 43.62479 54.18372 48.90425
# Shear Modulus (GPa) = 20.68076 28.70861 24.69468
#
# Velocity S-wave (km/s) = 3.03811 3.57954 3.31988
# Velocity P-wave (km/s) = 5.63713 6.42395 6.04336
#
# Compressibility (1/GPa) = 0.02292275
#
# Stress axis : x y z
#
# Youngs Moduli (GPa) = 113.09940 61.10954 85.00605
#
# Poissons Ratio (x) = 0.05730 0.28043
# Poissons Ratio (y) = 0.10605 0.23690
# Poissons Ratio (z) = 0.37310 0.17031
#
# Static dielectric constant tensor:
#      x y z
#    x 1.876330 0.000000 0.000410 
#    y 0.000000 1.952580 0.000000 
#    z 0.000410 0.000000 1.786750 
# 
# From -- ./inp_files/18899.got.cif
#   From: 2010.05.17/outbox.cif.g08.bks.cpg/sg8_10_cif.got.tgz:18899.got - 2010.06.03 19:46:02.
