data_PCOD9132205
_publ_section_title
;
Structure prediction by ZEFSAII (Michael W. Deem and Ramdas Pophale) SiO2 
 PCOD9132205
Probable space group: C M
;
_chemical_formula_sum "Si O2"
_cell_formula_units_Z 28
_cell_length_a 13.070102
_cell_length_b 13.658813
_cell_length_c 9.223093
_cell_angle_alpha 90.000000
_cell_angle_beta 128.348961
_cell_angle_gamma 90.000000
_cell_volume 1291.281988
_symmetry_space_group_name_H-M "C M"
_symmetry_group_IT_number 8
_symmetry_cell_setting 'monoclinic'
loop_
_space_group_symop_operation_xyz
x,y,z
x,-y,z
1/2+x,1/2+y,z
1/2+x,1/2-y,z
loop_
_atom_site_type_symbol
_atom_site_label
_atom_site_fract_x
_atom_site_fract_y
_atom_site_fract_z
Si Si1 0.003200 0.739319 0.561210
Si Si2 0.011671 0.795009 0.230706
Si Si3 0.356354 0.892659 0.838262
Si Si4 0.264514 0.105413 0.442475
Si Si5 0.737990 0.115104 0.916491
Si Si6 0.636082 0.613925 0.879650
Si Si7 0.111316 0.708633 0.061292
O O1 0.125449 0.669055 0.720510
O O2 0.028004 0.836416 0.679888
O O3 0.001843 0.767099 0.390207
O O4 0.866633 0.685596 0.475377
O O5 0.112062 0.881603 0.284504
O O6 0.875624 0.827575 0.038497
O O7 0.091006 0.708895 0.215475
O O8 0.266961 0.893999 0.619277
O O9 0.269969 0.879482 0.904453
O O10 0.462716 0.813954 0.888899
O O11 0.420963 0.000000 0.906118
O O12 0.312309 0.000000 0.431161
O O13 0.694060 0.130155 0.046085
O O14 0.748037 0.000000 0.890760
O O15 0.611848 0.500000 0.890939
O O16 0.649498 0.686429 0.027646
#
# Coordination Sequence:
#
# PCOD9132205 Si02
#       7
#     4   4   4   4   4   4   4
#     4  11  23  43  68  99 134 177 227 277 334 402
#     4  12  26  41  65 101 138 176 220 280 338 397
#     4  10  19  37  67  94 121 169 218 262 323 392
#     4  11  22  40  67  96 128 171 220 269 331 401
#     4  11  24  45  71  98 133 178 227 279 336 397
#     4  10  21  37  63  95 129 171 220 272 325 392
#     4  11  22  41  64  95 133 172 219 273 332 395
#
# _framework density 21.683876999999999
#
# number of rings (size 3 to 8) (size 9 to 14) (size 15 to 20)
#    0.000    1.143    4.286    3.857    0.000    1.714 
#    0.000    4.286    0.000    1.714    0.000    0.000 
#    0.000    0.000    0.000    0.000    0.000    0.000 
#
# Total GULP energy -77993.955236 kJ/mol
# GULP energy per Si atom -5570.996803 kJ/mol
# Density = 2.163452 g / cm^3
# Si number density = 21.683877 Si / 1000 Ang^3
#
#
#
# Elastic Constant Matrix: (Units=GPa)
#
#
# Indices 1 2 3 4 5 6 
#
# 1 115.5293 35.6079 32.7664 0.0000 7.1387 0.0000
# 2 35.6079 111.4378 16.0322 0.0000 7.4867 0.0000
# 3 32.7664 16.0322 61.2591 0.0000 3.2032 0.0000
# 4 0.0000 0.0000 0.0000 9.0680 0.0000 -2.8764
# 5 7.1387 7.4867 3.2032 0.0000 47.1461 0.0000
# 6 0.0000 0.0000 0.0000 -2.8764 0.0000 27.4140
#
#
#
# Elastic Compliance Matrix: (Units=1/GPa)
#
#
# Indices 1 2 3 4 5 6 
#
# 1 0.011003 -0.002719 -0.005127 0.000000 -0.000886 0.000000
# 2 -0.002719 0.010079 -0.001126 0.000000 -0.001112 0.000000
# 3 -0.005127 -0.001126 0.019380 0.000000 -0.000362 0.000000
# 4 0.000000 0.000000 0.000000 0.114075 0.000000 0.011969
# 5 -0.000886 -0.001112 -0.000362 0.000000 0.021546 0.000000
# 6 0.000000 0.000000 0.000000 0.011969 0.000000 0.037734
#
#
# Mechanical properties :
#
#
# Convention : Reuss Voigt Hill
#
# Bulk Modulus (GPa) = 44.40706 50.78212 47.59459
# Shear Modulus (GPa) = 20.89732 30.31360 25.60546
#
# Velocity S-wave (km/s) = 3.10776 3.74301 3.44008
# Velocity P-wave (km/s) = 5.77939 6.49233 6.14620
#
# Compressibility (1/GPa) = 0.02251894
#
# Stress axis : x y z
#
# Youngs Moduli (GPa) = 90.88708 99.21689 51.59935
#
# Poissons Ratio (x) = 0.26972 0.26457
# Poissons Ratio (y) = 0.24708 0.05808
# Poissons Ratio (z) = 0.46601 0.11167
#
# Static dielectric constant tensor:
#      x y z
#    x 1.783170 0.000000 -0.010270 
#    y 0.000000 1.872700 0.000000 
#    z -0.010270 0.000000 1.888730 
# 
# From -- ./inp_files/10793.got.cif
#   From: 2010.05.17/outbox.cif.g08.bks.cpg/sg8_6_cif.got.tgz:10793.got - 2010.06.03 19:46:02.
