data_PCOD9132349
_publ_section_title
;
Structure prediction by ZEFSAII (Michael W. Deem and Ramdas Pophale) SiO2 
 PCOD9132349
Probable space group: C M
;
_chemical_formula_sum "Si O2"
_cell_formula_units_Z 32
_cell_length_a 26.324800
_cell_length_b 7.752059
_cell_length_c 17.392954
_cell_angle_alpha 90.000000
_cell_angle_beta 154.669286
_cell_angle_gamma 90.000000
_cell_volume 1518.585908
_symmetry_space_group_name_H-M "C M"
_symmetry_group_IT_number 8
_symmetry_cell_setting 'monoclinic'
loop_
_space_group_symop_operation_xyz
x,y,z
x,-y,z
1/2+x,1/2+y,z
1/2+x,1/2-y,z
loop_
_atom_site_type_symbol
_atom_site_label
_atom_site_fract_x
_atom_site_fract_y
_atom_site_fract_z
Si Si1 0.187080 0.296776 0.264850
Si Si2 0.658476 0.793862 0.053301
Si Si3 0.577266 0.207519 0.421802
Si Si4 0.454260 0.201423 0.658051
Si Si5 0.629484 0.291971 0.769487
Si Si6 0.520003 0.212180 0.172714
Si Si7 0.750429 0.706060 0.783858
Si Si8 0.339201 0.792982 0.174703
O O1 0.160391 0.500000 0.222855
O O2 0.324077 0.280405 0.476930
O O3 0.101448 0.226464 0.214045
O O4 0.165870 0.224123 0.150037
O O5 0.549433 0.726596 0.850831
O O6 0.642978 0.000000 0.035741
O O7 0.781032 0.764843 0.174789
O O8 0.566458 0.267955 0.319652
O O9 0.697621 0.255144 0.628831
O O10 0.466780 0.273695 0.322203
O O11 0.567839 0.000000 0.407230
O O12 0.516634 0.221261 0.660254
O O13 0.438893 0.000000 0.653326
O O14 0.617431 0.500000 0.752375
O O15 0.660516 0.228124 0.726824
O O16 0.743731 0.247094 0.978134
O O17 0.521045 0.000000 0.173835
O O18 0.383905 0.269236 0.977661
O O19 0.755151 0.500000 0.800856
O O20 0.344956 0.000000 0.185143
#
# Coordination Sequence:
#
# PCOD9132349 Si02
#       8
#     4   4   4   4   4   4   4   4
#     4  10  21  38  60  80 104 148 193 224 261 322
#     4   9  20  36  53  78 110 142 179 223 270 319
#     4  10  20  35  55  82 111 142 180 225 276 324
#     4  10  21  36  54  81 115 144 175 226 282 321
#     4   9  17  33  56  80 110 146 184 220 262 328
#     4   9  19  39  60  77 107 149 189 223 264 324
#     4  10  20  35  57  83 108 143 185 225 269 324
#     4   9  17  32  55  79 109 144 177 218 270 324
#
# _framework density 21.072236
#
# number of rings (size 3 to 8) (size 9 to 14) (size 15 to 20)
#    0.000    2.500    1.250    0.375    1.750    3.000 
#    0.000    3.125    0.000    0.000    0.000    0.000 
#    0.000    0.000    0.000    0.000    0.000    0.000 
#
# Total GULP energy -89311.844020 kJ/mol
# GULP energy per Si atom -5581.990251 kJ/mol
# Density = 2.102427 g / cm^3
# Si number density = 21.072236 Si / 1000 Ang^3
#
#
#
# Elastic Constant Matrix: (Units=GPa)
#
#
# Indices 1 2 3 4 5 6 
#
# 1 160.5808 3.9111 63.6918 0.0000 -20.6827 0.0000
# 2 3.9111 23.5956 -5.4197 0.0000 -2.2865 0.0000
# 3 63.6918 -5.4197 70.1656 0.0000 -24.4600 0.0000
# 4 0.0000 0.0000 0.0000 13.4166 0.0000 -6.1380
# 5 -20.6827 -2.2865 -24.4600 0.0000 25.1402 0.0000
# 6 0.0000 0.0000 0.0000 -6.1380 0.0000 9.8388
#
#
#
# Elastic Compliance Matrix: (Units=1/GPa)
#
#
# Indices 1 2 3 4 5 6 
#
# 1 0.010122 -0.004215 -0.010206 0.000000 -0.001986 0.000000
# 2 -0.004215 0.046948 0.011700 0.000000 0.012186 0.000000
# 3 -0.010206 0.011700 0.033086 0.000000 0.024858 0.000000
# 4 0.000000 0.000000 0.000000 0.104304 0.000000 0.065070
# 5 -0.001986 0.012186 0.024858 0.000000 0.063437 0.000000
# 6 0.000000 0.000000 0.000000 0.065070 0.000000 0.142232
#
#
# Mechanical properties :
#
#
# Convention : Reuss Voigt Hill
#
# Bulk Modulus (GPa) = 11.80431 42.07873 26.94152
# Shear Modulus (GPa) = 11.52581 22.48971 17.00776
#
# Velocity S-wave (km/s) = 2.34127 3.27045 2.84406
# Velocity P-wave (km/s) = 3.59482 5.85434 4.85778
#
# Compressibility (1/GPa) = 0.08471484
#
# Stress axis : x y z
#
# Youngs Moduli (GPa) = 98.79050 21.30032 30.22420
#
# Poissons Ratio (x) = 0.08977 0.30848
# Poissons Ratio (y) = 0.41636 -0.35363
# Poissons Ratio (z) = 1.00828 -0.24922
#
# Static dielectric constant tensor:
#      x y z
#    x 1.753290 0.000000 -0.018470 
#    y 0.000000 1.792670 0.000000 
#    z -0.018470 0.000000 1.747080 
# 
# From -- ./inp_files/24401.got.cif
#   From: 2010.05.17/outbox.cif.g08.bks.cpg/sg8_13_cif.got.tgz:24401.got - 2010.06.03 19:46:02.
