data_PCOD9132621
_publ_section_title
;
Structure prediction by ZEFSAII (Michael W. Deem and Ramdas Pophale) SiO2 
 PCOD9132621
Probable space group: C M
;
_chemical_formula_sum "Si O2"
_cell_formula_units_Z 20
_cell_length_a 14.639465
_cell_length_b 11.792316
_cell_length_c 5.308348
_cell_angle_alpha 90.000000
_cell_angle_beta 88.495040
_cell_angle_gamma 90.000000
_cell_volume 916.080981
_symmetry_space_group_name_H-M "C M"
_symmetry_group_IT_number 8
_symmetry_cell_setting 'monoclinic'
loop_
_space_group_symop_operation_xyz
x,y,z
x,-y,z
1/2+x,1/2+y,z
1/2+x,1/2-y,z
loop_
_atom_site_type_symbol
_atom_site_label
_atom_site_fract_x
_atom_site_fract_y
_atom_site_fract_z
Si Si1 0.437450 0.169542 0.870650
Si Si2 0.625704 0.231859 0.992847
Si Si3 0.844275 0.336749 0.376225
Si Si4 0.327835 0.634283 0.066988
Si Si5 0.134697 0.126450 0.488870
O O1 0.541654 0.150529 0.934416
O O2 0.411360 0.132658 0.595313
O O3 0.375303 0.121719 0.100047
O O4 0.405617 0.302626 0.895738
O O5 0.621493 0.322395 0.766379
O O6 0.725758 0.174335 0.989376
O O7 0.604771 0.291040 0.263196
O O8 0.839914 0.199897 0.333043
O O9 0.743975 0.377370 0.446525
O O10 0.335042 0.500000 0.074459
O O11 0.096291 0.000000 0.465838
#
# Coordination Sequence:
#
# PCOD9132621 Si02
#       5
#     4   4   4   4   4
#     4  10  20  38  59  79 122 148 191 239 292 336
#     4  11  22  39  58  88 121 151 195 247 289 349
#     4   9  19  39  56  82 113 153 190 241 283 345
#     4   9  21  38  60  85 117 154 192 238 295 347
#     4  11  21  38  60  84 115 156 193 239 296 349
#
# _framework density 21.832129999999999
#
# number of rings (size 3 to 8) (size 9 to 14) (size 15 to 20)
#    1.200    0.800    2.000    1.800    0.000    2.400 
#    0.000    2.000    0.000    0.000    0.000    0.000 
#    0.000    0.000    0.000    0.000    0.000    0.000 
#
# Total GULP energy -55737.867689 kJ/mol
# GULP energy per Si atom -5573.786769 kJ/mol
# Density = 2.178244 g / cm^3
# Si number density = 21.832130 Si / 1000 Ang^3
#
#
#
# Elastic Constant Matrix: (Units=GPa)
#
#
# Indices 1 2 3 4 5 6 
#
# 1 77.1249 -10.0170 6.3764 0.0000 15.3907 0.0000
# 2 -10.0170 129.6355 15.7402 0.0000 0.3566 0.0000
# 3 6.3764 15.7402 122.8463 0.0000 24.8333 0.0000
# 4 0.0000 0.0000 0.0000 -38.6542 0.0000 16.6318
# 5 15.3907 0.3566 24.8333 0.0000 33.2976 0.0000
# 6 0.0000 0.0000 0.0000 16.6318 0.0000 -14.5330
#
#
#
# Elastic Compliance Matrix: (Units=1/GPa)
#
#
# Indices 1 2 3 4 5 6 
#
# 1 0.014479 0.001072 0.000549 0.000000 -0.007114 0.000000
# 2 0.001072 0.007933 -0.001124 0.000000 0.000258 0.000000
# 3 0.000549 -0.001124 0.009779 0.000000 -0.007535 0.000000
# 4 0.000000 0.000000 0.000000 -0.050967 0.000000 -0.058328
# 5 -0.007114 0.000258 -0.007535 0.000000 0.038937 0.000000
# 6 0.000000 0.000000 0.000000 -0.058328 0.000000 -0.135560
#
#
# Mechanical properties :
#
#
# Convention : Reuss Voigt Hill
#
# Bulk Modulus (GPa) = 30.13486 39.31176 34.72331
# Shear Modulus (GPa) = -47.46917 17.18923 -15.13997
#
# Velocity S-wave (km/s) = -4.66798 2.80900 -2.63624
# Velocity P-wave (km/s) = 3.90133 5.34472 2.58318
#
# Compressibility (1/GPa) = 0.03318416
#
# Stress axis : x y z
#
# Youngs Moduli (GPa) = 69.06388 126.06308 102.26037
#
# Poissons Ratio (x) = -0.13510 -0.05615
# Poissons Ratio (y) = -0.07402 0.11496
# Poissons Ratio (z) = -0.03793 0.14172
#
# Static dielectric constant tensor:
#      x y z
#    x 1.786960 0.000000 -0.007880 
#    y 0.000000 1.940570 0.000000 
#    z -0.007880 0.000000 1.792890 
# 
# From -- ./inp_files/3696.got.cif
#   From: 2010.05.17/outbox.cif.g08.bks.cpg/sg8_2_cif.got.tgz:3696.got - 2010.06.03 19:46:02.
