data_PCOD9132436
_publ_section_title
;
Structure prediction by ZEFSAII (Michael W. Deem and Ramdas Pophale) SiO2 
 PCOD9132436
Probable space group: C M
;
_chemical_formula_sum "Si O2"
_cell_formula_units_Z 32
_cell_length_a 7.769954
_cell_length_b 23.874443
_cell_length_c 12.236725
_cell_angle_alpha 90.000000
_cell_angle_beta 36.635641
_cell_angle_gamma 90.000000
_cell_volume 1354.535881
_symmetry_space_group_name_H-M "C M"
_symmetry_group_IT_number 8
_symmetry_cell_setting 'monoclinic'
loop_
_space_group_symop_operation_xyz
x,y,z
x,-y,z
1/2+x,1/2+y,z
1/2+x,1/2-y,z
loop_
_atom_site_type_symbol
_atom_site_label
_atom_site_fract_x
_atom_site_fract_y
_atom_site_fract_z
Si Si1 0.698430 0.396123 0.469600
Si Si2 0.440689 0.059892 0.956966
Si Si3 0.523152 0.595304 0.331437
Si Si4 0.127659 0.313722 0.310474
Si Si5 0.700779 0.294650 0.139154
Si Si6 0.636221 0.826713 0.757219
Si Si7 0.508084 0.437459 0.797741
Si Si8 0.423789 0.154116 0.642365
O O1 0.615433 0.427560 0.401540
O O2 0.472670 0.342764 0.588071
O O3 0.647510 0.430912 0.605217
O O4 0.013859 0.369717 0.311810
O O5 0.494883 0.111777 0.851489
O O6 0.670391 0.066408 0.939682
O O7 0.494655 0.000000 0.876527
O O8 0.132817 0.062019 0.171572
O O9 0.688964 0.655334 0.232814
O O10 0.186951 0.609217 0.499659
O O11 0.461794 0.313167 0.172883
O O12 0.091475 0.261236 0.250715
O O13 0.951756 0.311366 0.515367
O O14 0.005078 0.290277 0.922095
O O15 0.514571 0.809998 0.701276
O O16 0.567619 0.500000 0.811789
O O17 0.636463 0.383482 0.794423
#
# Coordination Sequence:
#
# PCOD9132436 Si02
#       8
#     4   4   4   4   4   4   4   4
#     4   9  18  35  57  77 105 141 178 224 270 316
#     4   9  18  32  52  79 110 144 180 219 267 321
#     4   9  18  33  54  76 104 140 177 221 269 317
#     4  10  20  36  56  77 105 139 177 224 272 321
#     4  10  20  36  54  76 105 138 178 221 274 324
#     4   9  19  37  57  79 108 142 180 223 270 320
#     4   9  18  32  51  78 109 141 178 219 265 318
#     4   9  19  35  55  78 106 141 180 225 271 317
#
# _framework density 23.624328999999999
#
# number of rings (size 3 to 8) (size 9 to 14) (size 15 to 20)
#    0.000    2.750    0.000    0.750    0.000    2.500 
#    0.000   13.750    0.000    0.000    0.000    0.000 
#    0.000    0.000    0.000    0.000    0.000    0.000 
#
# Total GULP energy -89287.641519 kJ/mol
# GULP energy per Si atom -5580.477595 kJ/mol
# Density = 2.357056 g / cm^3
# Si number density = 23.624329 Si / 1000 Ang^3
#
#
#
# Elastic Constant Matrix: (Units=GPa)
#
#
# Indices 1 2 3 4 5 6 
#
# 1 66.2675 0.8807 4.5409 0.0000 -1.2226 0.0000
# 2 0.8807 54.7713 8.4960 0.0000 -4.8845 0.0000
# 3 4.5409 8.4960 62.0911 0.0000 -4.5535 0.0000
# 4 0.0000 0.0000 0.0000 10.9095 0.0000 -2.3903
# 5 -1.2226 -4.8845 -4.5535 0.0000 20.4836 0.0000
# 6 0.0000 0.0000 0.0000 -2.3903 0.0000 10.4478
#
#
#
# Elastic Compliance Matrix: (Units=1/GPa)
#
#
# Indices 1 2 3 4 5 6 
#
# 1 0.015175 -0.000020 -0.001058 0.000000 0.000666 0.000000
# 2 -0.000020 0.018973 -0.002300 0.000000 0.004012 0.000000
# 3 -0.001058 -0.002300 0.016725 0.000000 0.003106 0.000000
# 4 0.000000 0.000000 0.000000 0.096501 0.000000 0.022078
# 5 0.000666 0.004012 0.003106 0.000000 0.050506 0.000000
# 6 0.000000 0.000000 0.000000 0.022078 0.000000 0.100765
#
#
# Mechanical properties :
#
#
# Convention : Reuss Voigt Hill
#
# Bulk Modulus (GPa) = 22.66788 23.44056 23.05422
# Shear Modulus (GPa) = 15.61969 19.64900 17.63435
#
# Velocity S-wave (km/s) = 2.57411 2.88710 2.73509
# Velocity P-wave (km/s) = 4.29543 4.58885 4.44456
#
# Compressibility (1/GPa) = 0.04411529
#
# Stress axis : x y z
#
# Youngs Moduli (GPa) = 65.89601 52.70743 59.78958
#
# Poissons Ratio (x) = 0.00108 0.06327
# Poissons Ratio (y) = 0.00135 0.13754
# Poissons Ratio (z) = 0.06973 0.12125
#
# Static dielectric constant tensor:
#      x y z
#    x 1.904420 0.000000 0.012030 
#    y 0.000000 1.924270 0.000000 
#    z 0.012030 0.000000 1.914980 
# 
# From -- ./inp_files/25690.got.cif
#   From: 2010.05.17/outbox.cif.g08.bks.cpg/sg8_13_cif.got.tgz:25690.got - 2010.06.03 19:46:02.
