data_PCOD9132725
_publ_section_title
;
Structure prediction by ZEFSAII (Michael W. Deem and Ramdas Pophale) SiO2 
 PCOD9132725
Probable space group: C M
;
_chemical_formula_sum "Si O2"
_cell_formula_units_Z 22
_cell_length_a 7.528934
_cell_length_b 13.828453
_cell_length_c 15.541651
_cell_angle_alpha 90.000000
_cell_angle_beta 142.990423
_cell_angle_gamma 90.000000
_cell_volume 974.010372
_symmetry_space_group_name_H-M "C M"
_symmetry_group_IT_number 8
_symmetry_cell_setting 'monoclinic'
loop_
_space_group_symop_operation_xyz
x,y,z
x,-y,z
1/2+x,1/2+y,z
1/2+x,1/2-y,z
loop_
_atom_site_type_symbol
_atom_site_label
_atom_site_fract_x
_atom_site_fract_y
_atom_site_fract_z
Si Si1 0.051930 0.500000 0.808050
Si Si2 0.221202 0.364071 0.577425
Si Si3 0.693786 0.834771 0.241117
Si Si4 0.613982 0.355265 0.562565
Si Si5 0.248452 0.000000 0.061886
Si Si6 0.666944 0.500000 0.831819
Si Si7 0.113584 0.890089 0.257591
O O1 0.908767 0.412484 0.698679
O O2 0.908286 0.500000 0.848462
O O3 0.401346 0.500000 0.946301
O O4 0.381803 0.378176 0.547888
O O5 0.195457 0.255405 0.596135
O O6 0.438883 0.413074 0.728275
O O7 0.888797 0.396279 0.430460
O O8 0.663047 0.716654 0.231080
O O9 0.940974 0.866436 0.406527
O O10 0.819872 0.869284 0.198583
O O11 0.410891 0.901012 0.154490
O O12 0.281431 0.000000 0.971426
O O13 0.100958 0.000000 0.212826
#
# Coordination Sequence:
#
# PCOD9132725 Si02
#       7
#     2   4   4   4   2   2   4
#     4  10  25  45  67 105 133 192 242 298 354 424
#     4  10  20  39  71 105 132 175 233 306 358 412
#     4  11  24  46  67 111 140 190 241 291 374 430
#     4  10  21  40  70 102 136 173 238 303 350 424
#     4  12  27  48  69 100 153 203 234 294 362 454
#     4  10  24  45  66 103 140 183 236 288 368 430
#     4  11  22  43  73 104 140 181 238 307 357 423
#
# _framework density 22.587026999999999
#
# number of rings (size 3 to 8) (size 9 to 14) (size 15 to 20)
#    0.000    1.455    1.818    4.909    5.091    0.000 
#   14.727    0.000    0.000    0.000    0.000    0.000 
#    0.000    0.000    0.000    0.000    0.000    0.000 
#
# Total GULP energy -61383.415430 kJ/mol
# GULP energy per Si atom -5580.310494 kJ/mol
# Density = 2.253562 g / cm^3
# Si number density = 22.587027 Si / 1000 Ang^3
#
#
#
# Elastic Constant Matrix: (Units=GPa)
#
#
# Indices 1 2 3 4 5 6 
#
# 1 69.3531 29.8968 43.7506 -0.0005 22.4296 0.0001
# 2 29.8968 184.3739 73.9177 0.0003 17.3018 -0.0001
# 3 43.7506 73.9177 119.6253 0.0053 23.8795 0.0014
# 4 -0.0005 0.0003 0.0053 -0.3903 0.0011 35.8189
# 5 22.4296 17.3018 23.8795 0.0011 47.7718 0.0003
# 6 0.0001 -0.0001 0.0014 35.8189 0.0003 31.5366
#
#
#
# Elastic Compliance Matrix: (Units=1/GPa)
#
#
# Indices 1 2 3 4 5 6 
#
# 1 0.020425 -0.000302 -0.005988 -0.000001 -0.006487 0.000001
# 2 -0.000302 0.007222 -0.004286 0.000000 -0.000331 0.000001
# 3 -0.005988 -0.004286 0.013693 0.000001 -0.002481 -0.000002
# 4 -0.000001 0.000000 0.000001 -0.024347 0.000000 0.027653
# 5 -0.006487 -0.000331 -0.002481 0.000000 0.025339 0.000000
# 6 0.000001 0.000001 -0.000002 0.027653 0.000000 0.000301
#
#
# Mechanical properties :
#
#
# Convention : Reuss Voigt Hill
#
# Bulk Modulus (GPa) = 49.53688 74.27584 61.90636
# Shear Modulus (GPa) = 70.90666 30.83611 50.87138
#
# Velocity S-wave (km/s) = 5.60899 3.69889 4.75092
# Velocity P-wave (km/s) = 7.99543 7.15528 7.58699
#
# Compressibility (1/GPa) = 0.02018698
#
# Stress axis : x y z
#
# Youngs Moduli (GPa) = 48.95989 138.46264 73.02990
#
# Poissons Ratio (x) = 0.04188 0.43731
# Poissons Ratio (y) = 0.01481 0.31300
# Poissons Ratio (z) = 0.29318 0.59344
#
# Static dielectric constant tensor:
#      x y z
#    x 1.883440 0.000000 -0.008700 
#    y 0.000000 1.873820 0.000000 
#    z -0.008700 0.000000 1.777990 
# 
# From -- ./inp_files/28599.got.cif
#   From: 2010.05.17/outbox.cif.g08.bks.cpg/sg8_15_cif.got.tgz:28599.got - 2010.06.03 19:46:02.
