data_PCOD9132343
_publ_section_title
;
Structure prediction by ZEFSAII (Michael W. Deem and Ramdas Pophale) SiO2 
 PCOD9132343
Probable space group: C M
;
_chemical_formula_sum "Si O2"
_cell_formula_units_Z 32
_cell_length_a 23.017653
_cell_length_b 7.878113
_cell_length_c 28.268805
_cell_angle_alpha 90.000000
_cell_angle_beta 162.119303
_cell_angle_gamma 90.000000
_cell_volume 1573.910398
_symmetry_space_group_name_H-M "C M"
_symmetry_group_IT_number 8
_symmetry_cell_setting 'monoclinic'
loop_
_space_group_symop_operation_xyz
x,y,z
x,-y,z
1/2+x,1/2+y,z
1/2+x,1/2-y,z
loop_
_atom_site_type_symbol
_atom_site_label
_atom_site_fract_x
_atom_site_fract_y
_atom_site_fract_z
Si Si1 0.125000 0.801745 0.916020
Si Si2 0.260730 0.796673 0.817561
Si Si3 0.365290 0.794592 0.282732
Si Si4 0.572241 0.705495 0.134058
Si Si5 0.356374 0.299530 0.534403
Si Si6 0.544987 0.697461 0.219626
Si Si7 0.051559 0.702025 0.964804
Si Si8 0.786059 0.791677 0.586220
O O1 0.063297 0.782699 0.922508
O O2 0.959299 0.736668 0.753410
O O3 0.154358 0.000000 0.928030
O O4 0.325617 0.714042 0.063090
O O5 0.380325 0.731582 0.865265
O O6 0.049514 0.728826 0.661271
O O7 0.252073 0.000000 0.804735
O O8 0.386099 0.761073 0.961186
O O9 0.251042 0.738526 0.240910
O O10 0.581036 0.736539 0.446224
O O11 0.364523 0.000000 0.281883
O O12 0.241910 0.736477 0.142240
O O13 0.571039 0.500000 0.134081
O O14 0.574335 0.767984 0.189412
O O15 0.390033 0.500000 0.566943
O O16 0.179163 0.279218 0.362660
O O17 0.315305 0.232265 0.555055
O O18 0.597073 0.500000 0.259005
O O19 0.031855 0.500000 0.943521
O O20 0.784014 0.000000 0.585156
#
# Coordination Sequence:
#
# PCOD9132343 Si02
#       8
#     4   4   4   4   4   4   4   4
#     4  11  22  37  57  79 103 140 183 224 270 325
#     4   9  19  35  56  80 110 145 182 221 263 312
#     4   9  17  34  57  80 106 141 182 222 263 316
#     4   9  19  34  54  79 109 142 178 220 269 318
#     4  10  20  36  56  79 106 141 183 225 266 317
#     4  11  23  37  53  79 111 142 177 225 275 319
#     4  10  20  35  54  81 113 143 176 221 270 317
#     4   9  19  34  55  79 102 132 179 228 264 306
#
# _framework density 20.331527000000001
#
# number of rings (size 3 to 8) (size 9 to 14) (size 15 to 20)
#    0.000    2.250    0.000    2.625    0.000    5.000 
#    0.000    3.750    0.000    0.000    0.000    0.000 
#    0.000    0.000    0.000    0.000    0.000    0.000 
#
# Total GULP energy -89350.842664 kJ/mol
# GULP energy per Si atom -5584.427666 kJ/mol
# Density = 2.028525 g / cm^3
# Si number density = 20.331527 Si / 1000 Ang^3
#
#
#
# Elastic Constant Matrix: (Units=GPa)
#
#
# Indices 1 2 3 4 5 6 
#
# 1 140.7624 -10.2038 77.6893 0.0034 -12.8365 -0.0037
# 2 -10.2038 18.0568 -11.4442 0.0059 4.8920 -0.0126
# 3 77.6893 -11.4442 153.7339 0.0266 14.0875 -0.0193
# 4 0.0034 0.0059 0.0266 15.2453 0.0040 -9.8361
# 5 -12.8365 4.8920 14.0875 0.0040 24.6559 -0.0054
# 6 -0.0037 -0.0126 -0.0193 -9.8361 -0.0054 -10.7516
#
#
#
# Elastic Compliance Matrix: (Units=1/GPa)
#
#
# Indices 1 2 3 4 5 6 
#
# 1 0.011844 -0.000493 -0.006961 0.000006 0.010241 -0.000002
# 2 -0.000493 0.063738 0.006518 -0.000051 -0.016627 -0.000031
# 3 -0.006961 0.006518 0.011563 -0.000020 -0.011524 -0.000002
# 4 0.000006 -0.000051 -0.000020 0.041247 0.000010 -0.037735
# 5 0.010241 -0.016627 -0.011524 0.000010 0.055774 0.000000
# 6 -0.000002 -0.000031 -0.000002 -0.037735 0.000000 -0.058487
#
#
# Mechanical properties :
#
#
# Convention : Reuss Voigt Hill
#
# Bulk Modulus (GPa) = 11.72707 47.18175 29.45441
# Shear Modulus (GPa) = 32.05640 22.93070 27.49355
#
# Velocity S-wave (km/s) = 3.97506 3.36198 3.68130
# Velocity P-wave (km/s) = 5.18156 6.19089 5.70857
#
# Compressibility (1/GPa) = 0.08527276
#
# Stress axis : x y z
#
# Youngs Moduli (GPa) = 84.43115 15.68934 86.47961
#
# Poissons Ratio (x) = 0.00774 0.60194
# Poissons Ratio (y) = 0.04163 -0.56363
# Poissons Ratio (z) = 0.58768 -0.10226
#
# Static dielectric constant tensor:
#      x y z
#    x 1.715980 0.000000 0.025460 
#    y 0.000000 1.731410 0.000000 
#    z 0.025460 0.000000 1.683700 
# 
# From -- ./inp_files/16874.got.cif
#   From: 2010.05.17/outbox.cif.g08.bks.cpg/sg8_9_cif.got.tgz:16874.got - 2010.06.03 19:46:02.
