data_PCOD9132361
_publ_section_title
;
Structure prediction by ZEFSAII (Michael W. Deem and Ramdas Pophale) SiO2 
 PCOD9132361
Probable space group: C M
;
_chemical_formula_sum "Si O2"
_cell_formula_units_Z 32
_cell_length_a 12.384301
_cell_length_b 12.851988
_cell_length_c 12.723878
_cell_angle_alpha 90.000000
_cell_angle_beta 130.069496
_cell_angle_gamma 90.000000
_cell_volume 1549.789505
_symmetry_space_group_name_H-M "C M"
_symmetry_group_IT_number 8
_symmetry_cell_setting 'monoclinic'
loop_
_space_group_symop_operation_xyz
x,y,z
x,-y,z
1/2+x,1/2+y,z
1/2+x,1/2-y,z
loop_
_atom_site_type_symbol
_atom_site_label
_atom_site_fract_x
_atom_site_fract_y
_atom_site_fract_z
Si Si1 0.075670 0.779798 0.545890
Si Si2 0.564374 0.884417 0.357704
Si Si3 0.765854 0.809668 0.311483
Si Si4 0.601487 0.384308 0.202161
Si Si5 0.333541 0.275074 0.964586
Si Si6 0.070323 0.617236 0.727881
Si Si7 0.747792 0.314026 0.108877
Si Si8 0.364393 0.879589 0.796971
O O1 0.108143 0.704162 0.467803
O O2 0.044289 0.704221 0.624412
O O3 0.208170 0.851500 0.655958
O O4 0.927972 0.836610 0.430057
O O5 0.658768 0.876571 0.312004
O O6 0.401233 0.863084 0.227820
O O7 0.578372 0.000000 0.411682
O O8 0.726245 0.689953 0.322819
O O9 0.738822 0.794371 0.170146
O O10 0.598166 0.500000 0.242995
O O11 0.634746 0.384446 0.097766
O O12 0.455905 0.321736 0.115041
O O13 0.234767 0.366110 0.859964
O O14 0.390782 0.202057 0.907727
O O15 0.236012 0.204867 0.979222
O O16 0.044504 0.500000 0.673590
O O17 0.974765 0.633205 0.771168
O O18 0.370281 0.000000 0.835885
#
# Coordination Sequence:
#
# PCOD9132361 Si02
#       8
#     4   4   4   4   4   4   4   4
#     4  10  21  38  62  80 115 149 195 240 285 346
#     4  11  20  35  58  84 112 148 190 233 283 340
#     4   9  21  36  56  84 116 146 182 237 290 333
#     4  10  20  35  56  83 116 151 187 227 279 342
#     4  11  20  38  58  86 117 151 192 239 283 340
#     4  10  21  37  58  83 112 152 194 241 293 340
#     4   9  19  35  55  80 117 153 183 231 277 342
#     4  10  23  40  60  84 115 156 196 240 293 341
#
# _framework density 20.647964999999999
#
# number of rings (size 3 to 8) (size 9 to 14) (size 15 to 20)
#    0.750    1.250    1.250    2.625    0.000    2.000 
#    0.000    1.875    0.000    4.500    0.000    0.000 
#    0.000    0.000    0.000    0.000    0.000    0.000 
#
# Total GULP energy -89162.836092 kJ/mol
# GULP energy per Si atom -5572.677256 kJ/mol
# Density = 2.060097 g / cm^3
# Si number density = 20.647965 Si / 1000 Ang^3
#
#
#
# Elastic Constant Matrix: (Units=GPa)
#
#
# Indices 1 2 3 4 5 6 
#
# 1 97.8694 22.7036 0.5235 0.0000 -4.0790 0.0000
# 2 22.7036 68.1835 -4.5949 0.0000 2.7693 0.0000
# 3 0.5235 -4.5949 30.7576 0.0000 11.9436 0.0000
# 4 0.0000 0.0000 0.0000 12.1219 0.0000 0.6846
# 5 -4.0790 2.7693 11.9436 0.0000 33.0372 0.0000
# 6 0.0000 0.0000 0.0000 0.6846 0.0000 13.1694
#
#
#
# Elastic Compliance Matrix: (Units=1/GPa)
#
#
# Indices 1 2 3 4 5 6 
#
# 1 0.011240 -0.003951 -0.001686 0.000000 0.002328 0.000000
# 2 -0.003951 0.016366 0.003763 0.000000 -0.003220 0.000000
# 3 -0.001686 0.003763 0.038746 0.000000 -0.014531 0.000000
# 4 0.000000 0.000000 0.000000 0.082738 0.000000 -0.004301
# 5 0.002328 -0.003220 -0.014531 0.000000 0.036080 0.000000
# 6 0.000000 0.000000 0.000000 -0.004301 0.000000 0.076157
#
#
# Mechanical properties :
#
#
# Convention : Reuss Voigt Hill
#
# Bulk Modulus (GPa) = 15.97343 26.00832 20.99087
# Shear Modulus (GPa) = 17.48602 23.54426 20.51514
#
# Velocity S-wave (km/s) = 2.91325 3.38045 3.15551
# Velocity P-wave (km/s) = 4.36680 5.27826 4.84401
#
# Compressibility (1/GPa) = 0.06260397
#
# Stress axis : x y z
#
# Youngs Moduli (GPa) = 88.96562 61.10145 25.80938
#
# Poissons Ratio (x) = 0.24141 0.04351
# Poissons Ratio (y) = 0.35150 -0.09711
# Poissons Ratio (z) = 0.14997 -0.22990
#
# Static dielectric constant tensor:
#      x y z
#    x 1.752750 0.000000 -0.003870 
#    y 0.000000 1.752970 0.000000 
#    z -0.003870 0.000000 1.746200 
# 
# From -- ./inp_files/26003.got.cif
#   From: 2010.05.17/outbox.cif.g08.bks.cpg/sg8_14_cif.got.tgz:26003.got - 2010.06.03 19:46:02.
