data_PCOD9132833
_publ_section_title
;
Structure prediction by ZEFSAII (Michael W. Deem and Ramdas Pophale) SiO2 
 PCOD9132833
Probable space group: C M
;
_chemical_formula_sum "Si O2"
_cell_formula_units_Z 32
_cell_length_a 9.863557
_cell_length_b 7.540360
_cell_length_c 16.884661
_cell_angle_alpha 90.000000
_cell_angle_beta 88.259711
_cell_angle_gamma 90.000000
_cell_volume 1255.213558
_symmetry_space_group_name_H-M "C M"
_symmetry_group_IT_number 8
_symmetry_cell_setting 'monoclinic'
loop_
_space_group_symop_operation_xyz
x,y,z
x,-y,z
1/2+x,1/2+y,z
1/2+x,1/2-y,z
loop_
_atom_site_type_symbol
_atom_site_label
_atom_site_fract_x
_atom_site_fract_y
_atom_site_fract_z
Si Si1 0.832150 0.706491 0.329160
Si Si2 0.221888 0.795081 0.578871
Si Si3 0.247914 0.206359 0.079585
Si Si4 0.992592 0.715763 0.174255
Si Si5 0.582666 0.294723 0.936150
Si Si6 0.578492 0.284306 0.423532
Si Si7 0.467279 0.788386 0.671456
Si Si8 0.836807 0.788170 0.843022
O O1 0.811646 0.500000 0.311351
O O2 0.919284 0.781672 0.255141
O O3 0.685316 0.779180 0.354512
O O4 0.929286 0.721002 0.404067
O O5 0.142012 0.719726 0.504982
O O6 0.362626 0.716226 0.606837
O O7 0.115408 0.787278 0.652979
O O8 0.249171 0.000000 0.559107
O O9 0.392805 0.276834 0.104778
O O10 0.143529 0.219189 0.154944
O O11 0.270111 0.000000 0.060866
O O12 0.165452 0.288659 0.007805
O O13 0.996853 0.500000 0.175197
O O14 0.556675 0.500000 0.956448
O O15 0.688630 0.287529 0.861665
O O16 0.441021 0.218215 0.908486
O O17 0.574825 0.500000 0.424068
O O18 0.402328 0.751242 0.757461
O O19 0.478104 0.000000 0.663340
O O20 0.826443 0.000000 0.850308
#
# Coordination Sequence:
#
# PCOD9132833 Si02
#       8
#     4   4   4   4   4   4   4   4
#     4  10  21  37  56  82 115 147 184 230 277 329
#     4  10  22  39  58  83 113 144 184 232 277 327
#     4  10  21  38  59  82 111 148 188 230 277 329
#     4  10  21  36  56  83 113 146 186 231 277 328
#     4  10  22  39  58  83 114 147 186 231 277 328
#     4  10  21  38  59  82 111 147 185 228 278 330
#     4  11  23  39  60  84 112 148 186 227 277 330
#     4  11  23  38  58  85 115 147 185 229 276 329
#
# _framework density 25.493670000000002
#
# number of rings (size 3 to 8) (size 9 to 14) (size 15 to 20)
#    0.000    1.750    0.000    3.750    0.000    9.500 
#    0.000    0.000    0.000    0.000    0.000    0.000 
#    0.000    0.000    0.000    0.000    0.000    0.000 
#
# Total GULP energy -89560.751669 kJ/mol
# GULP energy per Si atom -5597.546979 kJ/mol
# Density = 2.543564 g / cm^3
# Si number density = 25.493670 Si / 1000 Ang^3
#
#
#
# Elastic Constant Matrix: (Units=GPa)
#
#
# Indices 1 2 3 4 5 6 
#
# 1 119.3486 -5.4651 -8.8830 0.0000 1.6145 0.0000
# 2 -5.4651 85.6321 -0.9975 0.0000 3.3192 0.0000
# 3 -8.8830 -0.9975 72.1975 0.0000 -0.3834 0.0000
# 4 0.0000 0.0000 0.0000 19.8110 0.0000 -4.1195
# 5 1.6145 3.3192 -0.3834 0.0000 48.0821 0.0000
# 6 0.0000 0.0000 0.0000 -4.1195 0.0000 13.5580
#
#
#
# Elastic Compliance Matrix: (Units=1/GPa)
#
#
# Indices 1 2 3 4 5 6 
#
# 1 0.008487 0.000566 0.001050 0.000000 -0.000316 0.000000
# 2 0.000566 0.011749 0.000228 0.000000 -0.000828 0.000000
# 3 0.001050 0.000228 0.013984 0.000000 0.000061 0.000000
# 4 0.000000 0.000000 0.000000 0.053881 0.000000 0.016372
# 5 -0.000316 -0.000828 0.000061 0.000000 0.020866 0.000000
# 6 0.000000 0.000000 0.000000 0.016372 0.000000 0.078732
#
#
# Mechanical properties :
#
#
# Convention : Reuss Voigt Hill
#
# Bulk Modulus (GPa) = 26.37984 27.38745 26.88364
# Shear Modulus (GPa) = 25.42635 35.79181 30.60908
#
# Velocity S-wave (km/s) = 3.16153 3.75100 3.46880
# Velocity P-wave (km/s) = 4.86796 5.43379 5.15864
#
# Compressibility (1/GPa) = 0.03790773
#
# Stress axis : x y z
#
# Youngs Moduli (GPa) = 117.82460 85.11543 71.51235
#
# Poissons Ratio (x) = -0.04819 -0.07512
# Poissons Ratio (y) = -0.06670 -0.01627
# Poissons Ratio (z) = -0.12376 -0.01937
#
# Static dielectric constant tensor:
#      x y z
#    x 1.938170 0.000000 0.012190 
#    y 0.000000 1.958570 0.000000 
#    z 0.012190 0.000000 2.089750 
# 
# From -- ./inp_files/25253.got.cif
#   From: 2010.05.17/outbox.cif.g08.bks.cpg/sg8_13_cif.got.tgz:25253.got - 2010.06.03 19:46:02.
