data_PCOD9132036
_publ_section_title
;
Structure prediction by ZEFSAII (Michael W. Deem and Ramdas Pophale) SiO2 
 PCOD9132036
Probable space group: C M
;
_chemical_formula_sum "Si O2"
_cell_formula_units_Z 24
_cell_length_a 21.015503
_cell_length_b 7.490958
_cell_length_c 19.527353
_cell_angle_alpha 90.000000
_cell_angle_beta 158.257213
_cell_angle_gamma 90.000000
_cell_volume 1138.777814
_symmetry_space_group_name_H-M "C M"
_symmetry_group_IT_number 8
_symmetry_cell_setting 'monoclinic'
loop_
_space_group_symop_operation_xyz
x,y,z
x,-y,z
1/2+x,1/2+y,z
1/2+x,1/2-y,z
loop_
_atom_site_type_symbol
_atom_site_label
_atom_site_fract_x
_atom_site_fract_y
_atom_site_fract_z
Si Si1 0.259700 0.206316 0.535810
Si Si2 0.965367 0.293036 0.136450
Si Si3 0.987446 0.217302 0.520201
Si Si4 0.086451 0.783950 0.773773
Si Si5 0.788407 0.281490 0.718851
Si Si6 0.099222 0.281413 0.123560
O O1 0.445753 0.217889 0.686573
O O2 0.266729 0.281079 0.619492
O O3 0.117405 0.286590 0.343218
O O4 0.210105 0.000000 0.491969
O O5 0.928197 0.500000 0.083965
O O6 0.029957 0.218380 0.128402
O O7 0.782704 0.221621 0.980146
O O8 0.032875 0.269688 0.643200
O O9 0.132014 0.275210 0.611308
O O10 0.795310 0.275974 0.310044
O O11 0.989408 0.000000 0.521744
O O12 0.077385 0.000000 0.768671
O O13 0.789453 0.500000 0.719004
O O14 0.966500 0.226618 0.932340
O O15 0.101689 0.500000 0.127199
#
# Coordination Sequence:
#
# PCOD9132036 Si02
#       6
#     4   4   4   4   4   4
#     4  11  23  35  51  81 122 149 166 212 281 341
#     4  10  19  34  59  84 104 137 188 233 263 306
#     4   9  15  27  52  80 100 126 177 234 266 294
#     4  10  19  34  59  84 104 137 188 233 263 306
#     4   9  18  31  47  77 110 135 172 224 275 311
#     4   9  15  27  52  80 100 126 177 234 266 294
#
# _framework density 21.075226000000001
#
# number of rings (size 3 to 8) (size 9 to 14) (size 15 to 20)
#    0.000    2.333    3.333    0.500    0.000    2.000 
#    0.000    3.333    0.000    4.000    0.000    0.000 
#    0.000    0.000    0.000    0.000    0.000    0.000 
#
# Total GULP energy -67012.935761 kJ/mol
# GULP energy per Si atom -5584.411313 kJ/mol
# Density = 2.102726 g / cm^3
# Si number density = 21.075226 Si / 1000 Ang^3
#
#
#
# Elastic Constant Matrix: (Units=GPa)
#
#
# Indices 1 2 3 4 5 6 
#
# 1 117.0218 -10.6693 33.0892 0.0000 -2.5230 0.0000
# 2 -10.6693 52.7472 -11.3949 0.0002 -1.1553 0.0000
# 3 33.0892 -11.3949 128.3206 0.0003 10.5253 0.0000
# 4 0.0000 0.0002 0.0003 -3.5704 0.0001 3.0991
# 5 -2.5230 -1.1553 10.5253 0.0001 35.5878 0.0000
# 6 0.0000 0.0000 0.0000 3.0991 0.0000 11.4976
#
#
#
# Elastic Compliance Matrix: (Units=1/GPa)
#
#
# Indices 1 2 3 4 5 6 
#
# 1 0.009387 0.001409 -0.002412 0.000000 0.001425 0.000000
# 2 0.001409 0.019541 0.001344 0.000001 0.000337 0.000000
# 3 -0.002412 0.001344 0.008757 0.000000 -0.002717 0.000000
# 4 0.000000 0.000001 0.000000 -0.226976 0.000000 0.061180
# 5 0.001425 0.000337 -0.002717 0.000000 0.029015 0.000000
# 6 0.000000 0.000000 0.000000 0.061180 0.000000 0.070484
#
#
# Mechanical properties :
#
#
# Convention : Reuss Voigt Hill
#
# Bulk Modulus (GPa) = 26.06415 35.57105 30.81760
# Shear Modulus (GPa) = -64.36232 27.84065 -18.26083
#
# Velocity S-wave (km/s) = -5.53223 3.63852 -2.94676
# Velocity P-wave (km/s) = 5.33043 5.87933 1.75401
#
# Compressibility (1/GPa) = 0.03836687
#
# Stress axis : x y z
#
# Youngs Moduli (GPa) = 106.53420 51.17414 114.19078
#
# Poissons Ratio (x) = -0.07209 0.27545
# Poissons Ratio (y) = -0.15008 -0.15352
# Poissons Ratio (z) = 0.25698 -0.06880
#
# Static dielectric constant tensor:
#      x y z
#    x 1.713400 0.000000 0.006200 
#    y 0.000000 1.823450 0.000000 
#    z 0.006200 0.000000 1.727400 
# 
# From -- ./inp_files/14292.got.cif
#   From: 2010.05.17/outbox.cif.g08.bks.cpg/sg8_8_cif.got.tgz:14292.got - 2010.06.03 19:46:02.
