data_PCOD9132282
_publ_section_title
;
Structure prediction by ZEFSAII (Michael W. Deem and Ramdas Pophale) SiO2 
 PCOD9132282
Probable space group: C M
;
_chemical_formula_sum "Si O2"
_cell_formula_units_Z 24
_cell_length_a 19.261460
_cell_length_b 8.452469
_cell_length_c 20.461982
_cell_angle_alpha 90.000000
_cell_angle_beta 22.430350
_cell_angle_gamma 90.000000
_cell_volume 1271.110770
_symmetry_space_group_name_H-M "C M"
_symmetry_group_IT_number 8
_symmetry_cell_setting 'monoclinic'
loop_
_space_group_symop_operation_xyz
x,y,z
x,-y,z
1/2+x,1/2+y,z
1/2+x,1/2-y,z
loop_
_atom_site_type_symbol
_atom_site_label
_atom_site_fract_x
_atom_site_fract_y
_atom_site_fract_z
Si Si1 0.433640 0.310548 0.991760
Si Si2 0.638943 0.188041 0.685111
Si Si3 0.436084 0.807705 0.246338
Si Si4 0.531404 0.808536 0.309544
Si Si5 0.643440 0.191665 0.936040
Si Si6 0.539522 0.308798 0.629552
O O1 0.433090 0.500000 0.992223
O O2 0.534030 0.253360 0.839026
O O3 0.539529 0.250004 0.962832
O O4 0.222700 0.257183 0.173512
O O5 0.552255 0.253537 0.693421
O O6 0.850142 0.241319 0.500405
O O7 0.629915 0.000000 0.692599
O O8 0.524155 0.761592 0.239087
O O9 0.225418 0.756372 0.432599
O O10 0.438353 0.000000 0.242933
O O11 0.542429 0.753138 0.090022
O O12 0.519878 0.000000 0.321988
O O13 0.853479 0.243887 0.757712
O O14 0.641783 0.000000 0.937060
O O15 0.540483 0.500000 0.629600
#
# Coordination Sequence:
#
# PCOD9132282 Si02
#       6
#     4   4   4   4   4   4
#     4  11  23  38  56  80 114 153 188 226 276 332
#     4  11  22  36  58  86 113 143 184 235 281 324
#     4   8  15  31  55  77  98 132 180 225 265 317
#     4   9  19  38  61  81 105 145 191 230 275 331
#     4  10  20  34  53  79 111 146 183 223 270 326
#     4   9  18  35  57  79 107 145 184 221 269 330
#
# _framework density 18.881125000000001
#
# number of rings (size 3 to 8) (size 9 to 14) (size 15 to 20)
#    0.000    2.333    0.000    4.000    0.000    6.000 
#    0.000    5.000    0.000    0.000    0.000    0.000 
#    0.000    0.000    0.000    0.000    0.000    0.000 
#
# Total GULP energy -66990.580910 kJ/mol
# GULP energy per Si atom -5582.548409 kJ/mol
# Density = 1.883815 g / cm^3
# Si number density = 18.881125 Si / 1000 Ang^3
#
#
#
# Elastic Constant Matrix: (Units=GPa)
#
#
# Indices 1 2 3 4 5 6 
#
# 1 75.7286 8.9165 43.8847 0.0000 -48.3665 0.0000
# 2 8.9165 15.2841 10.9124 -0.0001 -10.8271 0.0000
# 3 43.8847 10.9124 63.5644 -0.0002 -38.0218 0.0001
# 4 0.0000 -0.0001 -0.0002 12.5924 0.0000 -0.1075
# 5 -48.3665 -10.8271 -38.0218 0.0000 30.9155 0.0000
# 6 0.0000 0.0000 0.0001 -0.1075 0.0000 31.7444
#
#
#
# Elastic Compliance Matrix: (Units=1/GPa)
#
#
# Indices 1 2 3 4 5 6 
#
# 1 -0.041923 -0.038559 -0.044437 -0.000001 -0.133744 0.000000
# 2 -0.038559 0.054235 -0.028040 0.000000 -0.075816 0.000000
# 3 -0.044437 -0.028040 0.014248 0.000000 -0.061818 0.000000
# 4 -0.000001 0.000000 0.000000 0.079415 -0.000002 0.000269
# 5 -0.133744 -0.075816 -0.061818 -0.000002 -0.279473 0.000000
# 6 0.000000 0.000000 0.000000 0.000269 0.000000 0.031502
#
#
# Mechanical properties :
#
#
# Convention : Reuss Voigt Hill
#
# Bulk Modulus (GPa) = -5.11476 31.33380 13.10952
# Shear Modulus (GPa) = 335.45127 21.10802 178.27965
#
# Velocity S-wave (km/s) = 13.34356 3.34719 9.72765
# Velocity P-wave (km/s) = 15.31946 5.61868 11.53810
#
# Compressibility (1/GPa) = -0.19551267
#
# Stress axis : x y z
#
# Youngs Moduli (GPa) = -23.85304 18.43840 70.18568
#
# Poissons Ratio (x) = 0.71096 3.11886
# Poissons Ratio (y) = -0.91974 1.96801
# Poissons Ratio (z) = -1.05996 0.51701
#
# Static dielectric constant tensor:
#      x y z
#    x 1.623510 0.000000 -0.019610 
#    y 0.000000 1.650540 0.000000 
#    z -0.019610 0.000000 1.654760 
# 
# From -- ./inp_files/12112.got.cif
#   From: 2010.05.17/outbox.cif.g08.bks.cpg/sg8_7_cif.got.tgz:12112.got - 2010.06.03 19:46:02.
