data_PCOD9132944
_publ_section_title
;
Structure prediction by ZEFSAII (Michael W. Deem and Ramdas Pophale) SiO2 
 PCOD9132944
Probable space group: C M
;
_chemical_formula_sum "Si O2"
_cell_formula_units_Z 32
_cell_length_a 5.393262
_cell_length_b 32.169047
_cell_length_c 7.123863
_cell_angle_alpha 90.000000
_cell_angle_beta 76.729998
_cell_angle_gamma 90.000000
_cell_volume 1202.961234
_symmetry_space_group_name_H-M "C M"
_symmetry_group_IT_number 8
_symmetry_cell_setting 'monoclinic'
loop_
_space_group_symop_operation_xyz
x,y,z
x,-y,z
1/2+x,1/2+y,z
1/2+x,1/2-y,z
loop_
_atom_site_type_symbol
_atom_site_label
_atom_site_fract_x
_atom_site_fract_y
_atom_site_fract_z
Si Si1 0.729980 0.271020 0.449420
Si Si2 0.924975 0.542923 0.496096
Si Si3 0.559746 0.548856 0.055124
Si Si4 0.183933 0.608467 0.261587
Si Si5 0.989632 0.145499 0.471559
Si Si6 0.870760 0.062993 0.703751
Si Si7 0.345860 0.774298 0.977158
Si Si8 0.844403 0.367007 0.036654
O O1 0.496160 0.238605 0.501994
O O2 0.599748 0.313403 0.537748
O O3 0.787920 0.273383 0.213946
O O4 0.995640 0.500000 0.385672
O O5 0.941283 0.581367 0.356315
O O6 0.122859 0.549409 0.631433
O O7 0.636127 0.540897 0.608511
O O8 0.634341 0.500000 0.070228
O O9 0.394978 0.571560 0.246473
O O10 0.757902 0.587299 0.974102
O O11 0.353475 0.550996 0.923445
O O12 0.219538 0.644016 0.408743
O O13 0.129150 0.628353 0.071875
O O14 0.941259 0.110165 0.634294
O O15 0.159843 0.140562 0.249337
O O16 0.620738 0.751897 0.917376
O O17 0.338363 0.823632 0.926573
#
# Coordination Sequence:
#
# PCOD9132944 Si02
#       8
#     4   4   4   4   4   4   4   4
#     4   9  18  28  52  88 120 148 188 247 305 361
#     4  11  22  40  62  85 115 157 207 256 304 359
#     4  11  25  41  59  89 127 170 215 261 314 373
#     4  10  22  38  59  88 122 165 204 259 309 369
#     4   9  20  37  59  86 121 157 204 250 306 366
#     4  11  24  42  62  87 118 163 206 260 302 365
#     4   9  19  32  57  90 122 155 198 252 308 366
#     4  10  21  38  62  89 127 161 206 259 313 373
#
# _framework density 26.601023999999999
#
# number of rings (size 3 to 8) (size 9 to 14) (size 15 to 20)
#    0.000    2.000    1.250    1.500   12.250    1.000 
#    0.000    0.000    0.000    1.500    0.000    0.000 
#    0.000    0.000    0.000    0.000    0.000    0.000 
#
# Total GULP energy -89186.482515 kJ/mol
# GULP energy per Si atom -5574.155157 kJ/mol
# Density = 2.654048 g / cm^3
# Si number density = 26.601024 Si / 1000 Ang^3
#
#
#
# Elastic Constant Matrix: (Units=GPa)
#
#
# Indices 1 2 3 4 5 6 
#
# 1 88.4323 47.5693 13.5741 0.0000 17.0004 0.0000
# 2 47.5693 163.3905 19.4200 0.0000 14.2751 0.0000
# 3 13.5741 19.4200 61.1105 0.0000 14.6224 0.0000
# 4 0.0000 0.0000 0.0000 11.0196 0.0000 -3.5173
# 5 17.0004 14.2751 14.6224 0.0000 40.4313 0.0000
# 6 0.0000 0.0000 0.0000 -3.5173 0.0000 39.0241
#
#
#
# Elastic Compliance Matrix: (Units=1/GPa)
#
#
# Indices 1 2 3 4 5 6 
#
# 1 0.014260 -0.003657 -0.000963 0.000000 -0.004357 0.000000
# 2 -0.003657 0.007401 -0.001404 0.000000 -0.000568 0.000000
# 3 -0.000963 -0.001404 0.018401 0.000000 -0.005754 0.000000
# 4 0.000000 0.000000 0.000000 0.093435 0.000000 0.008421
# 5 -0.004357 -0.000568 -0.005754 0.000000 0.028847 0.000000
# 6 0.000000 0.000000 0.000000 0.008421 0.000000 0.026384
#
#
# Mechanical properties :
#
#
# Convention : Reuss Voigt Hill
#
# Bulk Modulus (GPa) = 35.69481 52.67333 44.18407
# Shear Modulus (GPa) = 23.79654 33.58633 28.69143
#
# Velocity S-wave (km/s) = 2.99418 3.55716 3.28774
# Velocity P-wave (km/s) = 5.03996 6.05932 5.57300
#
# Compressibility (1/GPa) = 0.02801528
#
# Stress axis : x y z
#
# Youngs Moduli (GPa) = 70.12392 135.10985 54.34567
#
# Poissons Ratio (x) = 0.49405 0.05234
# Poissons Ratio (y) = 0.25642 0.07630
# Poissons Ratio (z) = 0.06753 0.18968
#
# Static dielectric constant tensor:
#      x y z
#    x 2.265650 0.000000 -0.036030 
#    y 0.000000 2.121280 0.000000 
#    z -0.036030 0.000000 2.153700 
# 
# From -- ./inp_files/7202.got.cif
#   From: 2010.05.17/outbox.cif.g08.bks.cpg/sg8_4_cif.got.tgz:7202.got - 2010.06.03 19:46:02.
