data_PCOD9132143
_publ_section_title
;
Structure prediction by ZEFSAII (Michael W. Deem and Ramdas Pophale) SiO2 
 PCOD9132143
Probable space group: C M
;
_chemical_formula_sum "Si O2"
_cell_formula_units_Z 32
_cell_length_a 25.804803
_cell_length_b 8.483992
_cell_length_c 17.060055
_cell_angle_alpha 90.000000
_cell_angle_beta 153.879895
_cell_angle_gamma 90.000000
_cell_volume 1644.314140
_symmetry_space_group_name_H-M "C M"
_symmetry_group_IT_number 8
_symmetry_cell_setting 'monoclinic'
loop_
_space_group_symop_operation_xyz
x,y,z
x,-y,z
1/2+x,1/2+y,z
1/2+x,1/2-y,z
loop_
_atom_site_type_symbol
_atom_site_label
_atom_site_fract_x
_atom_site_fract_y
_atom_site_fract_z
Si Si1 0.221280 0.188914 0.359690
Si Si2 0.023728 0.312145 0.974336
Si Si3 0.191330 0.186634 0.073449
Si Si4 0.617656 0.187914 0.700473
Si Si5 0.256536 0.190255 0.586455
Si Si6 0.068761 0.309876 0.456173
Si Si7 0.301429 0.190749 0.060170
Si Si8 0.884539 0.185660 0.452052
O O1 0.105164 0.237917 0.152956
O O2 0.222706 0.239902 0.452079
O O3 0.331571 0.263682 0.463406
O O4 0.231727 0.000000 0.370419
O O5 0.026017 0.500000 0.988032
O O6 0.086373 0.271384 0.976814
O O7 0.888839 0.256804 0.788363
O O8 0.223692 0.239360 0.030091
O O9 0.307143 0.220512 0.282996
O O10 0.168218 0.000000 0.041378
O O11 0.599850 0.240007 0.586747
O O12 0.518840 0.270427 0.619580
O O13 0.601355 0.000000 0.682397
O O14 0.743479 0.236252 0.904931
O O15 0.161968 0.248262 0.520402
O O16 0.257938 0.000000 0.588605
O O17 0.070707 0.500000 0.457568
O O18 0.935861 0.259716 0.255713
O O19 0.298189 0.000000 0.051916
O O20 0.865673 0.000000 0.415560
#
# Coordination Sequence:
#
# PCOD9132143 Si02
#       8
#     4   4   4   4   4   4   4   4
#     4  10  21  39  60  87 121 159 197 246 301 355
#     4  10  21  38  58  88 122 156 199 247 298 354
#     4  10  19  36  60  87 125 160 195 245 302 359
#     4  11  23  40  61  89 121 159 201 247 302 359
#     4  10  24  42  62  87 119 158 204 249 295 355
#     4  10  23  44  64  84 120 161 201 248 299 356
#     4  10  22  40  60  89 122 156 200 249 301 357
#     4  11  21  35  59  91 124 159 199 245 300 359
#
# _framework density 19.461003000000002
#
# number of rings (size 3 to 8) (size 9 to 14) (size 15 to 20)
#    0.000    1.750    1.250    4.125    1.750    5.500 
#    0.000    5.000    0.000    0.000    0.000    0.000 
#    0.000    0.000    0.000    0.000    0.000    0.000 
#
# Total GULP energy -89402.261616 kJ/mol
# GULP energy per Si atom -5587.641351 kJ/mol
# Density = 1.941671 g / cm^3
# Si number density = 19.461003 Si / 1000 Ang^3
#
#
#
# Elastic Constant Matrix: (Units=GPa)
#
#
# Indices 1 2 3 4 5 6 
#
# 1 138.6971 19.8703 94.0847 0.0000 2.4374 0.0000
# 2 19.8703 14.6813 10.2916 0.0000 -9.0974 0.0000
# 3 94.0847 10.2916 129.9240 0.0000 -7.6233 0.0000
# 4 0.0000 0.0000 0.0000 27.7434 0.0000 4.2507
# 5 2.4374 -9.0974 -7.6233 0.0000 13.5394 0.0000
# 6 0.0000 0.0000 0.0000 4.2507 0.0000 30.7198
#
#
#
# Elastic Compliance Matrix: (Units=1/GPa)
#
#
# Indices 1 2 3 4 5 6 
#
# 1 0.034794 -0.073205 -0.023425 0.000000 -0.068641 0.000000
# 2 -0.073205 0.273694 0.044360 0.000000 0.222057 0.000000
# 3 -0.023425 0.044360 0.023933 0.000000 0.047499 0.000000
# 4 0.000000 0.000000 0.000000 0.036825 0.000000 -0.005096
# 5 -0.068641 0.222057 0.047499 0.000000 0.262165 0.000000
# 6 0.000000 0.000000 0.000000 -0.005096 0.000000 0.033257
#
#
# Mechanical properties :
#
#
# Convention : Reuss Voigt Hill
#
# Bulk Modulus (GPa) = 4.38822 59.08841 31.73831
# Shear Modulus (GPa) = 5.91598 25.00422 15.46010
#
# Velocity S-wave (km/s) = 1.74543 3.58835 2.82159
# Velocity P-wave (km/s) = 2.51432 6.89904 5.19223
#
# Compressibility (1/GPa) = 0.22788291
#
# Stress axis : x y z
#
# Youngs Moduli (GPa) = 28.74056 3.65372 41.78302
#
# Poissons Ratio (x) = 0.26747 0.97877
# Poissons Ratio (y) = 2.10394 -1.85351
# Poissons Ratio (z) = 0.67325 -0.16208
#
# Static dielectric constant tensor:
#      x y z
#    x 1.657150 0.000000 -0.007550 
#    y 0.000000 1.663430 0.000000 
#    z -0.007550 0.000000 1.690940 
# 
# From -- ./inp_files/28218.got.cif
#   From: 2010.05.17/outbox.cif.g08.bks.cpg/sg8_15_cif.got.tgz:28218.got - 2010.06.03 19:46:02.
