data_PCOD9132513
_publ_section_title
;
Structure prediction by ZEFSAII (Michael W. Deem and Ramdas Pophale) SiO2 
 PCOD9132513
Probable space group: C M
;
_chemical_formula_sum "Si O2"
_cell_formula_units_Z 32
_cell_length_a 32.101196
_cell_length_b 8.734304
_cell_length_c 12.403387
_cell_angle_alpha 90.000000
_cell_angle_beta 153.164842
_cell_angle_gamma 90.000000
_cell_volume 1569.912974
_symmetry_space_group_name_H-M "C M"
_symmetry_group_IT_number 8
_symmetry_cell_setting 'monoclinic'
loop_
_space_group_symop_operation_xyz
x,y,z
x,-y,z
1/2+x,1/2+y,z
1/2+x,1/2-y,z
loop_
_atom_site_type_symbol
_atom_site_label
_atom_site_fract_x
_atom_site_fract_y
_atom_site_fract_z
Si Si1 0.667670 0.320063 0.530520
Si Si2 0.224235 0.183497 0.113351
Si Si3 0.153609 0.321675 0.733448
Si Si4 0.976996 0.320234 0.035808
Si Si5 0.857631 0.822105 0.944537
Si Si6 0.519538 0.681370 0.723247
Si Si7 0.397457 0.682182 0.641000
Si Si8 0.944322 0.324921 0.341607
O O1 0.684588 0.500000 0.559485
O O2 0.660188 0.272755 0.638882
O O3 0.572287 0.272665 0.254961
O O4 0.753150 0.225925 0.680819
O O5 0.307248 0.258783 0.370516
O O6 0.235192 0.000000 0.133146
O O7 0.214110 0.252096 0.969870
O O8 0.126456 0.217471 0.947001
O O9 0.176793 0.500000 0.767332
O O10 0.047569 0.315681 0.529821
O O11 0.996364 0.500000 0.078112
O O12 0.924514 0.277358 0.024393
O O13 0.914479 0.268792 0.791561
O O14 0.874089 0.000000 0.961959
O O15 0.880337 0.781186 0.120835
O O16 0.507761 0.500000 0.674997
O O17 0.483682 0.712274 0.760037
O O18 0.457004 0.771293 0.493066
O O19 0.391035 0.500000 0.644471
O O20 0.912045 0.500000 0.260773
#
# Coordination Sequence:
#
# PCOD9132513 Si02
#       8
#     4   4   4   4   4   4   4   4
#     4  12  25  42  66  96 129 170 216 266 326 388
#     4  10  21  39  62  92 127 167 214 266 322 378
#     4  10  20  37  62  93 132 171 210 263 323 384
#     4  12  26  47  68  93 130 170 219 273 326 386
#     4  12  25  42  66  95 129 170 216 266 326 387
#     4   9  21  40  62  89 126 168 212 259 316 381
#     4  11  24  43  66  92 125 170 219 266 323 385
#     4  10  20  36  62  94 132 168 210 263 320 381
#
# _framework density 20.383296000000001
#
# number of rings (size 3 to 8) (size 9 to 14) (size 15 to 20)
#    0.000    1.250    1.250    4.875    1.750    3.500 
#    0.000    3.750    0.000    0.000    0.000    0.000 
#    0.000    0.000    0.000    0.000    0.000    0.000 
#
# Total GULP energy -89537.325563 kJ/mol
# GULP energy per Si atom -5596.082848 kJ/mol
# Density = 2.033690 g / cm^3
# Si number density = 20.383296 Si / 1000 Ang^3
#
#
#
# Elastic Constant Matrix: (Units=GPa)
#
#
# Indices 1 2 3 4 5 6 
#
# 1 25.1229 7.8540 -0.9929 0.0000 -9.3795 0.0000
# 2 7.8540 62.6734 3.2365 0.0000 -9.7263 0.0000
# 3 -0.9929 3.2365 78.7123 0.0000 -10.6929 0.0000
# 4 0.0000 0.0000 0.0000 35.5250 0.0000 -2.2488
# 5 -9.3795 -9.7263 -10.6929 0.0000 27.5405 0.0000
# 6 0.0000 0.0000 0.0000 -2.2488 0.0000 28.5795
#
#
#
# Elastic Compliance Matrix: (Units=1/GPa)
#
#
# Indices 1 2 3 4 5 6 
#
# 1 0.046954 -0.003573 0.002893 0.000000 0.015852 0.000000
# 2 -0.003573 0.017154 -0.000098 0.000000 0.004803 0.000000
# 3 0.002893 -0.000098 0.013591 0.000000 0.006227 0.000000
# 4 0.000000 0.000000 0.000000 0.028290 0.000000 0.002226
# 5 0.015852 0.004803 0.006227 0.000000 0.045823 0.000000
# 6 0.000000 0.000000 0.000000 0.002226 0.000000 0.035165
#
#
# Mechanical properties :
#
#
# Convention : Reuss Voigt Hill
#
# Bulk Modulus (GPa) = 13.13334 20.74486 16.93910
# Shear Modulus (GPa) = 23.37370 28.75640 26.06505
#
# Velocity S-wave (km/s) = 3.38998 3.76011 3.57983
# Velocity P-wave (km/s) = 4.66688 5.38987 5.04136
#
# Compressibility (1/GPa) = 0.07614209
#
# Stress axis : x y z
#
# Youngs Moduli (GPa) = 21.29733 58.29552 73.57806
#
# Poissons Ratio (x) = 0.20831 -0.21284
# Poissons Ratio (y) = 0.07610 0.00720
# Poissons Ratio (z) = -0.06161 0.00571
#
# Static dielectric constant tensor:
#      x y z
#    x 1.716940 0.000000 0.027530 
#    y 0.000000 1.679000 0.000000 
#    z 0.027530 0.000000 1.701600 
# 
# From -- ./inp_files/24823.got.cif
#   From: 2010.05.17/outbox.cif.g08.bks.cpg/sg8_13_cif.got.tgz:24823.got - 2010.06.03 19:46:02.
