data_PCOD9132519
_publ_section_title
;
Structure prediction by ZEFSAII (Michael W. Deem and Ramdas Pophale) SiO2 
 PCOD9132519
Probable space group: C M
;
_chemical_formula_sum "Si O2"
_cell_formula_units_Z 20
_cell_length_a 8.846368
_cell_length_b 13.361979
_cell_length_c 12.572468
_cell_angle_alpha 90.000000
_cell_angle_beta 139.365268
_cell_angle_gamma 90.000000
_cell_volume 967.817857
_symmetry_space_group_name_H-M "C M"
_symmetry_group_IT_number 8
_symmetry_cell_setting 'monoclinic'
loop_
_space_group_symop_operation_xyz
x,y,z
x,-y,z
1/2+x,1/2+y,z
1/2+x,1/2-y,z
loop_
_atom_site_type_symbol
_atom_site_label
_atom_site_fract_x
_atom_site_fract_y
_atom_site_fract_z
Si Si1 0.293420 0.730587 0.894500
Si Si2 0.785675 0.187691 0.659302
Si Si3 0.864787 0.799729 0.347001
Si Si4 0.208095 0.384013 0.062971
Si Si5 0.514564 0.110425 0.331351
O O1 0.291258 0.664128 0.786539
O O2 0.042218 0.782005 0.764838
O O3 0.305654 0.666549 0.008540
O O4 0.485441 0.817200 0.979854
O O5 0.603545 0.279723 0.538766
O O6 0.684813 0.107288 0.524146
O O7 0.826381 0.690827 0.270702
O O8 0.883116 0.872917 0.256275
O O9 0.664601 0.839342 0.317318
O O10 0.150188 0.500000 0.015582
O O11 0.432116 0.000000 0.258668
#
# Coordination Sequence:
#
# PCOD9132519 Si02
#       5
#     4   4   4   4   4
#     4  10  21  40  61  91 129 157 202 260 304 365
#     4   9  18  38  62  88 123 161 197 261 300 349
#     4  10  20  39  61  89 125 157 206 258 294 357
#     4  11  24  41  64  91 124 170 203 245 316 372
#     4  10  20  36  63  89 115 157 203 250 305 351
#
# _framework density 20.665044000000002
#
# number of rings (size 3 to 8) (size 9 to 14) (size 15 to 20)
#    1.200    0.800    2.000    1.800    0.000    1.600 
#    0.000    9.000    0.000    0.000    0.000    0.000 
#    0.000    0.000    0.000    0.000    0.000    0.000 
#
# Total GULP energy -55681.310217 kJ/mol
# GULP energy per Si atom -5568.131022 kJ/mol
# Density = 2.061801 g / cm^3
# Si number density = 20.665044 Si / 1000 Ang^3
#
#
#
# Elastic Constant Matrix: (Units=GPa)
#
#
# Indices 1 2 3 4 5 6 
#
# 1 129.9531 63.9203 49.0703 0.0000 -27.0409 0.0000
# 2 63.9203 143.6835 28.6652 0.0000 -10.7883 0.0000
# 3 49.0703 28.6652 79.4601 0.0001 -20.1637 0.0000
# 4 0.0000 0.0000 0.0001 14.8281 0.0000 4.2411
# 5 -27.0409 -10.7883 -20.1637 0.0000 42.2777 0.0000
# 6 0.0000 0.0000 0.0000 4.2411 0.0000 15.5253
#
#
#
# Elastic Compliance Matrix: (Units=1/GPa)
#
#
# Indices 1 2 3 4 5 6 
#
# 1 0.012689 -0.004278 -0.005132 0.000000 0.004577 0.000000
# 2 -0.004278 0.008960 -0.000802 0.000000 -0.000832 0.000000
# 3 -0.005132 -0.000802 0.017246 0.000000 0.004738 0.000000
# 4 0.000000 0.000000 0.000000 0.073155 0.000000 -0.019984
# 5 0.004577 -0.000832 0.004738 0.000000 0.028628 0.000000
# 6 0.000000 0.000000 0.000000 -0.019984 0.000000 0.069870
#
#
# Mechanical properties :
#
#
# Convention : Reuss Voigt Hill
#
# Bulk Modulus (GPa) = 54.13342 70.71201 62.42272
# Shear Modulus (GPa) = 21.08564 28.62228 24.85396
#
# Velocity S-wave (km/s) = 3.19776 3.72567 3.47177
# Velocity P-wave (km/s) = 6.31560 7.26636 6.80760
#
# Compressibility (1/GPa) = 0.01847288
#
# Stress axis : x y z
#
# Youngs Moduli (GPa) = 78.80716 111.60432 57.98600
#
# Poissons Ratio (x) = 0.47740 0.29756
# Poissons Ratio (y) = 0.33711 0.04650
# Poissons Ratio (z) = 0.40440 0.08950
#
# Static dielectric constant tensor:
#      x y z
#    x 1.731980 0.000000 -0.021160 
#    y 0.000000 1.709150 0.000000 
#    z -0.021160 0.000000 1.784290 
# 
# From -- ./inp_files/7543.got.cif
#   From: 2010.05.17/outbox.cif.g08.bks.cpg/sg8_4_cif.got.tgz:7543.got - 2010.06.03 19:46:02.
