data_PCOD9132576
_publ_section_title
;
Structure prediction by ZEFSAII (Michael W. Deem and Ramdas Pophale) SiO2 
 PCOD9132576
Probable space group: C M
;
_chemical_formula_sum "Si O2"
_cell_formula_units_Z 24
_cell_length_a 14.334653
_cell_length_b 20.240168
_cell_length_c 6.489176
_cell_angle_alpha 90.000000
_cell_angle_beta 42.298841
_cell_angle_gamma 90.000000
_cell_volume 1267.080873
_symmetry_space_group_name_H-M "C M"
_symmetry_group_IT_number 8
_symmetry_cell_setting 'monoclinic'
loop_
_space_group_symop_operation_xyz
x,y,z
x,-y,z
1/2+x,1/2+y,z
1/2+x,1/2-y,z
loop_
_atom_site_type_symbol
_atom_site_label
_atom_site_fract_x
_atom_site_fract_y
_atom_site_fract_z
Si Si1 0.401560 0.136207 0.934880
Si Si2 0.222747 0.705857 0.849462
Si Si3 0.018970 0.237526 0.514189
Si Si4 0.059863 0.425748 0.032369
Si Si5 0.270965 0.924790 0.758769
Si Si6 0.673530 0.682815 0.616946
O O1 0.475534 0.192416 0.682245
O O2 0.300400 0.097430 0.944300
O O3 0.506965 0.089426 0.886479
O O4 0.312344 0.171259 0.258402
O O5 0.387438 0.710991 0.604068
O O6 0.179531 0.746972 0.719191
O O7 0.162531 0.632410 0.932913
O O8 0.149799 0.745588 0.156510
O O9 0.054562 0.187515 0.640677
O O10 0.116264 0.500000 0.954928
O O11 0.921977 0.422593 0.400592
O O12 0.175057 0.874000 0.788096
O O13 0.220477 0.000000 0.830709
#
# Coordination Sequence:
#
# PCOD9132576 Si02
#       6
#     4   4   4   4   4   4
#     4  11  19  37  61  91 119 153 201 250 296 347
#     4  12  23  39  60  90 126 157 201 252 301 358
#     4  12  22  36  60  92 118 158 203 250 299 352
#     4  10  21  36  59  90 122 160 200 247 301 356
#     4  10  20  37  61  90 124 157 200 250 299 355
#     4  11  22  37  59  91 120 155 203 243 303 352
#
# _framework density 18.941175000000001
#
# number of rings (size 3 to 8) (size 9 to 14) (size 15 to 20)
#    0.000    1.000    6.667    1.500    0.000    0.667 
#    0.000    0.833    0.000    1.000    0.000    0.000 
#    0.000    0.000    0.000    0.000    0.000    0.000 
#
# Total GULP energy -66990.066803 kJ/mol
# GULP energy per Si atom -5582.505567 kJ/mol
# Density = 1.889806 g / cm^3
# Si number density = 18.941175 Si / 1000 Ang^3
#
#
#
# Elastic Constant Matrix: (Units=GPa)
#
#
# Indices 1 2 3 4 5 6 
#
# 1 75.9702 26.5081 -6.9616 0.0000 9.0443 0.0000
# 2 26.5081 124.7004 9.6324 0.0000 4.1488 0.0000
# 3 -6.9616 9.6324 24.6493 0.0000 10.3773 0.0000
# 4 0.0000 0.0000 0.0000 14.6560 0.0000 -2.7993
# 5 9.0443 4.1488 10.3773 0.0000 25.3345 0.0000
# 6 0.0000 0.0000 0.0000 -2.7993 0.0000 35.2590
#
#
#
# Elastic Compliance Matrix: (Units=1/GPa)
#
#
# Indices 1 2 3 4 5 6 
#
# 1 0.016632 -0.004012 0.010257 0.000000 -0.009482 0.000000
# 2 -0.004012 0.009237 -0.005690 0.000000 0.002251 0.000000
# 3 0.010257 -0.005690 0.056599 0.000000 -0.025913 0.000000
# 4 0.000000 0.000000 0.000000 0.069282 0.000000 0.005500
# 5 -0.009482 0.002251 -0.025913 0.000000 0.053103 0.000000
# 6 0.000000 0.000000 0.000000 0.005500 0.000000 0.028798
#
#
# Mechanical properties :
#
#
# Convention : Reuss Voigt Hill
#
# Bulk Modulus (GPa) = 11.96509 31.51975 21.74242
# Shear Modulus (GPa) = 19.20120 28.12596 23.66358
#
# Velocity S-wave (km/s) = 3.18736 3.85763 3.53841
# Velocity P-wave (km/s) = 4.45830 6.04308 5.31014
#
# Compressibility (1/GPa) = 0.08357648
#
# Stress axis : x y z
#
# Youngs Moduli (GPa) = 60.12583 108.26266 17.66817
#
# Poissons Ratio (x) = 0.43438 -0.18122
# Poissons Ratio (y) = 0.24124 0.10054
# Poissons Ratio (z) = -0.61671 0.61604
#
# Static dielectric constant tensor:
#      x y z
#    x 1.668790 0.000000 0.021310 
#    y 0.000000 1.653060 0.000000 
#    z 0.021310 0.000000 1.656730 
# 
# From -- ./inp_files/2717.got.cif
#   From: 2010.05.17/outbox.cif.g08.bks.cpg/sg8_2_cif.got.tgz:2717.got - 2010.06.03 19:46:02.
