data_PCOD9132607
_publ_section_title
;
Structure prediction by ZEFSAII (Michael W. Deem and Ramdas Pophale) SiO2 
 PCOD9132607
Probable space group: C M
;
_chemical_formula_sum "Si O2"
_cell_formula_units_Z 28
_cell_length_a 14.720311
_cell_length_b 13.542127
_cell_length_c 8.751999
_cell_angle_alpha 90.000000
_cell_angle_beta 52.864819
_cell_angle_gamma 90.000000
_cell_volume 1390.867355
_symmetry_space_group_name_H-M "C M"
_symmetry_group_IT_number 8
_symmetry_cell_setting 'monoclinic'
loop_
_space_group_symop_operation_xyz
x,y,z
x,-y,z
1/2+x,1/2+y,z
1/2+x,1/2-y,z
loop_
_atom_site_type_symbol
_atom_site_label
_atom_site_fract_x
_atom_site_fract_y
_atom_site_fract_z
Si Si1 0.505840 0.612486 0.426210
Si Si2 0.692297 0.286563 0.034705
Si Si3 0.765907 0.391745 0.661347
Si Si4 0.384011 0.240929 0.090296
Si Si5 0.025616 0.888191 0.750889
Si Si6 0.294198 0.306929 0.501667
Si Si7 0.104515 0.618300 0.907063
O O1 0.550931 0.500000 0.386234
O O2 0.584257 0.679172 0.240828
O O3 0.503600 0.649920 0.602750
O O4 0.381870 0.613338 0.476965
O O5 0.797925 0.284651 0.042207
O O6 0.716001 0.366434 0.878058
O O7 0.666733 0.181906 0.977624
O O8 0.819902 0.500000 0.602443
O O9 0.659657 0.390831 0.651664
O O10 0.833726 0.294820 0.545070
O O11 0.313260 0.282930 0.305493
O O12 0.465808 0.325636 0.941601
O O13 0.472289 0.152911 0.040838
O O14 0.981585 0.000000 0.801130
O O15 0.170079 0.340674 0.688008
O O16 0.115239 0.500000 0.908921
#
# Coordination Sequence:
#
# PCOD9132607 Si02
#       7
#     4   4   4   4   4   4   4
#     4  11  22  39  66  97 128 172 224 273 333 404
#     4  11  23  41  68  94 133 175 224 278 334 405
#     4  10  20  38  62  91 127 164 210 269 330 390
#     4  12  24  42  69  95 134 175 228 278 338 402
#     4  10  20  37  64  94 124 162 215 272 328 390
#     4  11  22  42  65  96 130 178 217 277 335 401
#     4  11  25  47  68  99 140 180 224 285 348 402
#
# _framework density 20.131322999999998
#
# number of rings (size 3 to 8) (size 9 to 14) (size 15 to 20)
#    0.000    1.143    4.286    3.429    0.000    5.714 
#    0.000    0.000    0.000    0.000    0.000    0.000 
#    0.000    0.000    0.000    0.000    0.000    0.000 
#
# Total GULP energy -78143.143413 kJ/mol
# GULP energy per Si atom -5581.653101 kJ/mol
# Density = 2.008550 g / cm^3
# Si number density = 20.131323 Si / 1000 Ang^3
#
#
#
# Elastic Constant Matrix: (Units=GPa)
#
#
# Indices 1 2 3 4 5 6 
#
# 1 92.4716 2.0208 5.8810 0.0000 6.3225 0.0000
# 2 2.0208 122.6604 32.3621 0.0000 11.7102 0.0000
# 3 5.8810 32.3621 83.7073 0.0000 11.5704 0.0000
# 4 0.0000 0.0000 0.0000 11.2235 0.0000 0.5734
# 5 6.3225 11.7102 11.5704 0.0000 28.4804 0.0000
# 6 0.0000 0.0000 0.0000 0.5734 0.0000 22.0412
#
#
#
# Elastic Compliance Matrix: (Units=1/GPa)
#
#
# Indices 1 2 3 4 5 6 
#
# 1 0.011001 0.000177 -0.000523 0.000000 -0.002302 0.000000
# 2 0.000177 0.009245 -0.003238 0.000000 -0.002525 0.000000
# 3 -0.000523 -0.003238 0.013810 0.000000 -0.004163 0.000000
# 4 0.000000 0.000000 0.000000 0.089218 0.000000 -0.002321
# 5 -0.002302 -0.002525 -0.004163 0.000000 0.038353 0.000000
# 6 0.000000 0.000000 0.000000 -0.002321 0.000000 0.045430
#
#
# Mechanical properties :
#
#
# Convention : Reuss Voigt Hill
#
# Bulk Modulus (GPa) = 37.19093 42.15190 39.67141
# Shear Modulus (GPa) = 22.40274 29.58737 25.99506
#
# Velocity S-wave (km/s) = 3.33953 3.83785 3.59733
# Velocity P-wave (km/s) = 5.77791 6.37359 6.08305
#
# Compressibility (1/GPa) = 0.02688828
#
# Stress axis : x y z
#
# Youngs Moduli (GPa) = 90.90125 108.16740 72.40985
#
# Poissons Ratio (x) = -0.01909 0.03786
# Poissons Ratio (y) = -0.01605 0.23443
# Poissons Ratio (z) = 0.04753 0.35020
#
# Static dielectric constant tensor:
#      x y z
#    x 1.744370 0.000000 -0.010390 
#    y 0.000000 1.736660 0.000000 
#    z -0.010390 0.000000 1.719790 
# 
# From -- ./inp_files/12803.got.cif
#   From: 2010.05.17/outbox.cif.g08.bks.cpg/sg8_7_cif.got.tgz:12803.got - 2010.06.03 19:46:02.
