data_PCOD9132691
_publ_section_title
;
Structure prediction by ZEFSAII (Michael W. Deem and Ramdas Pophale) SiO2 
 PCOD9132691
Probable space group: C M
;
_chemical_formula_sum "Si O2"
_cell_formula_units_Z 24
_cell_length_a 15.280973
_cell_length_b 16.778510
_cell_length_c 10.108685
_cell_angle_alpha 90.000000
_cell_angle_beta 27.532767
_cell_angle_gamma 90.000000
_cell_volume 1198.067931
_symmetry_space_group_name_H-M "C M"
_symmetry_group_IT_number 8
_symmetry_cell_setting 'monoclinic'
loop_
_space_group_symop_operation_xyz
x,y,z
x,-y,z
1/2+x,1/2+y,z
1/2+x,1/2-y,z
loop_
_atom_site_type_symbol
_atom_site_label
_atom_site_fract_x
_atom_site_fract_y
_atom_site_fract_z
Si Si1 0.676750 0.871591 0.380990
Si Si2 0.120936 0.590364 0.759176
Si Si3 0.314446 0.207603 0.295434
Si Si4 0.961678 0.195685 0.353710
Si Si5 0.316681 0.164974 0.726856
Si Si6 0.602490 0.589822 0.762360
O O1 0.624263 0.902831 0.596443
O O2 0.718195 0.776483 0.338433
O O3 0.502361 0.884298 0.517184
O O4 0.876676 0.908336 0.074093
O O5 0.077482 0.500000 0.858078
O O6 0.328787 0.618052 0.529315
O O7 0.972944 0.655688 0.010225
O O8 0.409392 0.254665 0.290764
O O9 0.166520 0.147609 0.559304
O O10 0.894543 0.251833 0.562864
O O11 0.181965 0.176762 0.035354
O O12 0.192518 0.123747 0.777988
O O13 0.670123 0.500000 0.651108
#
# Coordination Sequence:
#
# PCOD9132691 Si02
#       6
#     4   4   4   4   4   4
#     4  11  23  38  65  88 117 155 203 244 288 352
#     4  11  21  38  62  90 123 156 191 245 305 350
#     4  10  20  40  61  87 117 158 200 239 289 352
#     4  10  20  39  61  90 114 156 202 245 283 348
#     4  11  23  38  66  87 118 156 206 240 292 347
#     4  11  23  41  61  88 123 155 194 247 297 349
#
# _framework density 20.032253999999998
#
# number of rings (size 3 to 8) (size 9 to 14) (size 15 to 20)
#    0.000    1.333    5.000    3.000    4.667    1.333 
#    0.000    0.000    0.000    0.000    0.000    0.000 
#    0.000    0.000    0.000    0.000    0.000    0.000 
#
# Total GULP energy -67026.300332 kJ/mol
# GULP energy per Si atom -5585.525028 kJ/mol
# Density = 1.998666 g / cm^3
# Si number density = 20.032254 Si / 1000 Ang^3
#
#
#
# Elastic Constant Matrix: (Units=GPa)
#
#
# Indices 1 2 3 4 5 6 
#
# 1 28.0970 -1.0277 21.8068 -0.0041 -20.5727 0.0025
# 2 -1.0277 106.7600 15.0301 -0.0021 1.9214 0.0038
# 3 21.8068 15.0301 106.5773 -0.0070 -8.2608 0.0056
# 4 -0.0041 -0.0021 -0.0070 -2.7334 0.0048 -5.4357
# 5 -20.5727 1.9214 -8.2608 0.0048 29.9922 -0.0014
# 6 0.0025 0.0038 0.0056 -5.4357 -0.0014 4.1285
#
#
#
# Elastic Compliance Matrix: (Units=1/GPa)
#
#
# Indices 1 2 3 4 5 6 
#
# 1 0.087376 0.001774 -0.013786 0.000009 0.056024 -0.000005
# 2 0.001774 0.009622 -0.001710 0.000003 0.000129 -0.000004
# 3 -0.013786 -0.001710 0.011976 -0.000001 -0.006048 -0.000009
# 4 0.000009 0.000003 -0.000001 -0.101110 0.000016 -0.133125
# 5 0.056024 0.000129 -0.006048 0.000016 0.070097 0.000019
# 6 -0.000005 -0.000004 -0.000009 -0.133125 0.000019 0.066944
#
#
# Mechanical properties :
#
#
# Convention : Reuss Voigt Hill
#
# Bulk Modulus (GPa) = 12.26537 34.78364 23.52451
# Shear Modulus (GPa) = 25.05941 19.98578 22.52259
#
# Velocity S-wave (km/s) = 3.54072 3.16203 3.35672
# Velocity P-wave (km/s) = 4.78034 5.54372 5.17612
#
# Compressibility (1/GPa) = 0.08153033
#
# Stress axis : x y z
#
# Youngs Moduli (GPa) = 11.44476 103.92552 83.50080
#
# Poissons Ratio (x) = -0.18433 1.15113
# Poissons Ratio (y) = -0.02030 0.14278
# Poissons Ratio (z) = 0.15778 0.17770
#
# Static dielectric constant tensor:
#      x y z
#    x 1.709090 0.000000 -0.011790 
#    y 0.000000 1.706540 0.000000 
#    z -0.011790 0.000000 1.725230 
# 
# From -- ./inp_files/8122.got.cif
#   From: 2010.05.17/outbox.cif.g08.bks.cpg/sg8_5_cif.got.tgz:8122.got - 2010.06.03 19:46:02.
