data_PCOD9132738
_publ_section_title
;
Structure prediction by ZEFSAII (Michael W. Deem and Ramdas Pophale) SiO2 
 PCOD9132738
Probable space group: C M
;
_chemical_formula_sum "Si O2"
_cell_formula_units_Z 28
_cell_length_a 17.458715
_cell_length_b 20.125961
_cell_length_c 11.626363
_cell_angle_alpha 90.000000
_cell_angle_beta 159.223617
_cell_angle_gamma 90.000000
_cell_volume 1449.106880
_symmetry_space_group_name_H-M "C M"
_symmetry_group_IT_number 8
_symmetry_cell_setting 'monoclinic'
loop_
_space_group_symop_operation_xyz
x,y,z
x,-y,z
1/2+x,1/2+y,z
1/2+x,1/2-y,z
loop_
_atom_site_type_symbol
_atom_site_label
_atom_site_fract_x
_atom_site_fract_y
_atom_site_fract_z
Si Si1 0.681260 0.579640 0.475670
Si Si2 0.642412 0.194750 0.492664
Si Si3 0.091063 0.814499 0.995264
Si Si4 0.243511 0.169461 0.764308
Si Si5 0.381309 0.922710 0.514140
Si Si6 0.488258 0.721649 0.593767
Si Si7 0.213184 0.643818 0.832529
O O1 0.647355 0.500000 0.428743
O O2 0.775949 0.606387 0.728582
O O3 0.832429 0.596632 0.578006
O O4 0.455817 0.619952 0.149003
O O5 0.673070 0.269214 0.584122
O O6 0.604668 0.149535 0.553208
O O7 0.873038 0.181200 0.760578
O O8 0.457114 0.185459 0.138142
O O9 0.033650 0.806308 0.782214
O O10 0.225360 0.879424 0.215503
O O11 0.250343 0.753150 0.250932
O O12 0.047777 0.167453 0.581200
O O13 0.612830 0.905974 0.785034
O O14 0.336151 0.000000 0.441335
O O15 0.654245 0.783559 0.802613
#
# Coordination Sequence:
#
# PCOD9132738 Si02
#       7
#     4   4   4   4   4   4   4
#     4  11  23  41  62  86 121 164 206 247 295 362
#     4  11  22  37  64  91 123 156 197 255 308 355
#     4  11  21  38  59  93 119 157 199 247 304 355
#     4  11  22  39  58  90 125 156 199 249 303 362
#     4  10  22  39  62  88 119 159 207 246 291 361
#     4  10  21  36  62  89 124 151 199 250 305 360
#     4  10  20  40  65  91 116 157 201 252 302 357
#
# _framework density 19.322247000000001
#
# number of rings (size 3 to 8) (size 9 to 14) (size 15 to 20)
#    0.000    1.429    1.429    6.429    4.000    0.000 
#    2.571    4.286    0.000    0.000    0.000    0.000 
#    0.000    0.000    0.000    0.000    0.000    0.000 
#
# Total GULP energy -78109.988816 kJ/mol
# GULP energy per Si atom -5579.284915 kJ/mol
# Density = 1.927827 g / cm^3
# Si number density = 19.322247 Si / 1000 Ang^3
#
#
#
# Elastic Constant Matrix: (Units=GPa)
#
#
# Indices 1 2 3 4 5 6 
#
# 1 151.1794 48.9832 37.9770 0.0000 -3.5962 0.0000
# 2 48.9832 39.2133 9.5275 0.0000 -7.8239 0.0000
# 3 37.9770 9.5275 77.0887 -0.0001 2.1459 -0.0001
# 4 0.0000 0.0000 -0.0001 8.7817 0.0000 1.0803
# 5 -3.5962 -7.8239 2.1459 0.0000 29.0170 0.0000
# 6 0.0000 0.0000 -0.0001 1.0803 0.0000 34.5392
#
#
#
# Elastic Compliance Matrix: (Units=1/GPa)
#
#
# Indices 1 2 3 4 5 6 
#
# 1 0.012490 -0.015008 -0.004237 0.000000 -0.002185 0.000000
# 2 -0.015008 0.045986 0.001420 0.000000 0.010434 0.000000
# 3 -0.004237 0.001420 0.014919 0.000000 -0.001246 0.000000
# 4 0.000000 0.000000 0.000000 0.114313 0.000000 -0.003575
# 5 -0.002185 0.010434 -0.001246 0.000000 0.037097 0.000000
# 6 0.000000 0.000000 0.000000 -0.003575 0.000000 0.029064
#
#
# Mechanical properties :
#
#
# Convention : Reuss Voigt Hill
#
# Bulk Modulus (GPa) = 26.49502 51.16188 38.82845
# Shear Modulus (GPa) = 16.55071 25.86716 21.20894
#
# Velocity S-wave (km/s) = 2.92988 3.66283 3.31666
# Velocity P-wave (km/s) = 5.01872 6.66514 5.89965
#
# Compressibility (1/GPa) = 0.03774295
#
# Stress axis : x y z
#
# Youngs Moduli (GPa) = 80.06505 21.74586 67.02982
#
# Poissons Ratio (x) = 0.32637 0.28403
# Poissons Ratio (y) = 1.20163 -0.09517
# Poissons Ratio (z) = 0.33926 -0.03087
#
# Static dielectric constant tensor:
#      x y z
#    x 1.714590 0.000000 0.026150 
#    y 0.000000 1.672740 0.000000 
#    z 0.026150 0.000000 1.718550 
# 
# From -- ./inp_files/8559.got.cif
#   From: 2010.05.17/outbox.cif.g08.bks.cpg/sg8_5_cif.got.tgz:8559.got - 2010.06.03 19:46:02.
