data_PCOD9132312
_publ_section_title
;
Structure prediction by ZEFSAII (Michael W. Deem and Ramdas Pophale) SiO2 
 PCOD9132312
Probable space group: C M
;
_chemical_formula_sum "Si O2"
_cell_formula_units_Z 32
_cell_length_a 25.590890
_cell_length_b 7.477850
_cell_length_c 16.939769
_cell_angle_alpha 90.000000
_cell_angle_beta 153.174035
_cell_angle_gamma 90.000000
_cell_volume 1462.910060
_symmetry_space_group_name_H-M "C M"
_symmetry_group_IT_number 8
_symmetry_cell_setting 'monoclinic'
loop_
_space_group_symop_operation_xyz
x,y,z
x,-y,z
1/2+x,1/2+y,z
1/2+x,1/2-y,z
loop_
_atom_site_type_symbol
_atom_site_label
_atom_site_fract_x
_atom_site_fract_y
_atom_site_fract_z
Si Si1 0.304930 0.285408 0.354940
Si Si2 0.199903 0.788010 0.586575
Si Si3 0.496857 0.295639 0.220398
Si Si4 0.935950 0.716794 0.839323
Si Si5 0.129860 0.281219 0.982419
Si Si6 0.576719 0.212986 0.736396
Si Si7 0.614866 0.784302 0.219043
Si Si8 0.248615 0.283228 0.833650
O O1 0.294603 0.500000 0.340678
O O2 0.439704 0.242002 0.541455
O O3 0.232721 0.223907 0.334807
O O4 0.235454 0.224243 0.182383
O O5 0.306976 0.714890 0.679569
O O6 0.226548 0.768733 0.714106
O O7 0.075711 0.712045 0.394594
O O8 0.194878 0.000000 0.562908
O O9 0.469834 0.500000 0.206965
O O10 0.579498 0.293511 0.255018
O O11 0.374057 0.215477 0.031127
O O12 0.931528 0.500000 0.830164
O O13 0.010444 0.774562 0.864604
O O14 0.012948 0.761180 0.019774
O O15 0.132121 0.500000 0.985023
O O16 0.124727 0.219100 0.885301
O O17 0.649996 0.280490 0.760850
O O18 0.594110 0.000000 0.761839
O O19 0.617828 0.000000 0.231228
O O20 0.250132 0.500000 0.835771
#
# Coordination Sequence:
#
# PCOD9132312 Si02
#       8
#     4   4   4   4   4   4   4   4
#     4   9  19  35  55  81 109 139 177 221 265 316
#     4  10  20  34  56  82 104 138 184 223 259 315
#     4  10  21  34  53  81 109 138 180 226 263 310
#     4   8  14  28  51  78 106 134 171 211 254 317
#     4   8  16  32  54  78 106 141 173 212 266 319
#     4  10  21  36  57  78 104 146 185 218 263 318
#     4   9  17  32  54  79 112 143 170 213 272 325
#     4  10  22  39  52  75 114 145 176 222 272 314
#
# _framework density 21.874210000000001
#
# number of rings (size 3 to 8) (size 9 to 14) (size 15 to 20)
#    0.000    2.750    1.250    1.500    1.750    2.500 
#    0.000    3.125    0.000    0.750    0.000    0.000 
#    0.000    0.000    0.000    0.000    0.000    0.000 
#
# Total GULP energy -89302.683538 kJ/mol
# GULP energy per Si atom -5581.417721 kJ/mol
# Density = 2.182442 g / cm^3
# Si number density = 21.874210 Si / 1000 Ang^3
#
#
#
# Elastic Constant Matrix: (Units=GPa)
#
#
# Indices 1 2 3 4 5 6 
#
# 1 64.9076 -11.1186 40.1156 0.0000 20.8972 0.0000
# 2 -11.1186 61.4821 -4.9848 0.0000 -0.1165 0.0000
# 3 40.1156 -4.9848 125.6492 0.0000 22.2794 0.0000
# 4 0.0000 0.0000 0.0000 11.0570 0.0000 -0.2498
# 5 20.8972 -0.1165 22.2794 0.0000 19.7390 0.0000
# 6 0.0000 0.0000 0.0000 -0.2498 0.0000 15.6061
#
#
#
# Elastic Compliance Matrix: (Units=1/GPa)
#
#
# Indices 1 2 3 4 5 6 
#
# 1 0.026063 0.004339 -0.004077 0.000000 -0.022965 0.000000
# 2 0.004339 0.017050 0.000110 0.000000 -0.004617 0.000000
# 3 -0.004077 0.000110 0.010626 0.000000 -0.007677 0.000000
# 4 0.000000 0.000000 0.000000 0.090473 0.000000 0.001448
# 5 -0.022965 -0.004617 -0.007677 0.000000 0.083611 0.000000
# 6 0.000000 0.000000 0.000000 0.001448 0.000000 0.064101
#
#
# Mechanical properties :
#
#
# Convention : Reuss Voigt Hill
#
# Bulk Modulus (GPa) = 18.35431 33.34036 25.84733
# Shear Modulus (GPa) = 16.16339 24.48220 20.32280
#
# Velocity S-wave (km/s) = 2.72127 3.34911 3.05138
# Velocity P-wave (km/s) = 4.27584 5.49822 4.92510
#
# Compressibility (1/GPa) = 0.05448313
#
# Stress axis : x y z
#
# Youngs Moduli (GPa) = 38.36803 58.65183 94.11048
#
# Poissons Ratio (x) = -0.25451 0.38368
# Poissons Ratio (y) = -0.16649 -0.01032
# Poissons Ratio (z) = 0.15642 -0.00643
#
# Static dielectric constant tensor:
#      x y z
#    x 1.771790 0.000000 0.006430 
#    y 0.000000 1.898380 0.000000 
#    z 0.006430 0.000000 1.806630 
# 
# From -- ./inp_files/21853.got.cif
#   From: 2010.05.17/outbox.cif.g08.bks.cpg/sg8_11_cif.got.tgz:21853.got - 2010.06.03 19:46:02.
