data_PCOD9132081
_publ_section_title
;
Structure prediction by ZEFSAII (Michael W. Deem and Ramdas Pophale) SiO2 
 PCOD9132081
Probable space group: C M
;
_chemical_formula_sum "Si O2"
_cell_formula_units_Z 32
_cell_length_a 20.816311
_cell_length_b 8.644831
_cell_length_c 25.609206
_cell_angle_alpha 90.000000
_cell_angle_beta 22.741408
_cell_angle_gamma 90.000000
_cell_volume 1781.506989
_symmetry_space_group_name_H-M "C M"
_symmetry_group_IT_number 8
_symmetry_cell_setting 'monoclinic'
loop_
_space_group_symop_operation_xyz
x,y,z
x,-y,z
1/2+x,1/2+y,z
1/2+x,1/2-y,z
loop_
_atom_site_type_symbol
_atom_site_label
_atom_site_fract_x
_atom_site_fract_y
_atom_site_fract_z
Si Si1 0.419140 0.313866 0.065990
Si Si2 0.096239 0.684712 0.236141
Si Si3 0.017434 0.814085 0.794282
Si Si4 0.847907 0.184586 0.503188
Si Si5 0.670852 0.312623 0.790838
Si Si6 0.509544 0.186256 0.488017
Si Si7 0.371805 0.816561 0.216487
Si Si8 0.159432 0.184057 0.073520
O O1 0.428543 0.500000 0.067421
O O2 0.405227 0.231134 0.131547
O O3 0.255767 0.284789 0.153457
O O4 0.576323 0.261153 0.913486
O O5 0.077736 0.500000 0.245966
O O6 0.937537 0.757296 0.383816
O O7 0.128725 0.753520 0.154933
O O8 0.159444 0.743425 0.651016
O O9 0.069878 0.767517 0.814285
O O10 0.023648 0.000000 0.786743
O O11 0.832803 0.754632 0.923118
O O12 0.948755 0.257312 0.476573
O O13 0.854357 0.000000 0.501809
O O14 0.667071 0.500000 0.794628
O O15 0.861392 0.266996 0.638525
O O16 0.686720 0.257433 0.368126
O O17 0.521058 0.000000 0.478102
O O18 0.508112 0.737210 0.150748
O O19 0.380629 0.000000 0.215877
O O20 0.171842 0.000000 0.064963
#
# Coordination Sequence:
#
# PCOD9132081 Si02
#       8
#     4   4   4   4   4   4   4   4
#     4  10  19  36  61  88 117 152 195 242 296 353
#     4  11  21  37  62  89 120 157 199 248 299 351
#     4  10  19  37  60  86 119 157 197 240 299 358
#     4  11  21  34  56  90 123 154 197 248 297 347
#     4   8  16  32  58  87 114 146 187 236 289 347
#     4  10  19  35  58  85 117 155 196 243 301 353
#     4  12  25  40  58  84 120 160 201 244 296 359
#     4  12  25  41  61  87 120 157 200 249 303 362
#
# _framework density 17.962322
#
# number of rings (size 3 to 8) (size 9 to 14) (size 15 to 20)
#    0.000    1.500    2.500    5.250    0.000    0.500 
#    0.000    2.500    0.000    1.500    0.000    0.000 
#    0.000    0.000    0.000    0.000    0.000    0.000 
#
# Total GULP energy -89389.059982 kJ/mol
# GULP energy per Si atom -5586.816249 kJ/mol
# Density = 1.792144 g / cm^3
# Si number density = 17.962322 Si / 1000 Ang^3
#
#
#
# Elastic Constant Matrix: (Units=GPa)
#
#
# Indices 1 2 3 4 5 6 
#
# 1 54.1620 26.8280 37.9287 -0.0007 -2.7302 -0.0004
# 2 26.8280 78.3963 32.7420 -0.0003 6.8862 -0.0008
# 3 37.9287 32.7420 149.8540 -0.0009 3.0877 -0.0008
# 4 -0.0007 -0.0003 -0.0009 28.1678 -0.0013 -2.3252
# 5 -2.7302 6.8862 3.0877 -0.0013 25.1879 -0.0002
# 6 -0.0004 -0.0008 -0.0008 -2.3252 -0.0002 25.3632
#
#
#
# Elastic Compliance Matrix: (Units=1/GPa)
#
#
# Indices 1 2 3 4 5 6 
#
# 1 0.025862 -0.007201 -0.005084 0.000001 0.005395 0.000000
# 2 -0.007201 0.016351 -0.001646 0.000000 -0.005049 0.000000
# 3 -0.005084 -0.001646 0.008343 0.000000 -0.001124 0.000000
# 4 0.000001 0.000000 0.000000 0.035772 0.000002 0.003280
# 5 0.005395 -0.005049 -0.001124 0.000002 0.041805 0.000000
# 6 0.000000 0.000000 0.000000 0.003280 0.000000 0.039728
#
#
# Mechanical properties :
#
#
# Convention : Reuss Voigt Hill
#
# Bulk Modulus (GPa) = 44.06362 53.04552 48.55457
# Shear Modulus (GPa) = 24.59590 28.07132 26.33361
#
# Velocity S-wave (km/s) = 3.70443 3.95750 3.83305
# Velocity P-wave (km/s) = 6.54839 7.10479 6.83226
#
# Compressibility (1/GPa) = 0.02269446
#
# Stress axis : x y z
#
# Youngs Moduli (GPa) = 38.66693 61.15882 119.86660
#
# Poissons Ratio (x) = 0.44040 0.60935
# Poissons Ratio (y) = 0.27844 0.19729
# Poissons Ratio (z) = 0.19657 0.10066
#
# Static dielectric constant tensor:
#      x y z
#    x 1.581280 0.000000 0.009590 
#    y 0.000000 1.597540 0.000000 
#    z 0.009590 0.000000 1.626920 
# 
# From -- ./inp_files/33042.got.cif
#   From: 2010.05.17/outbox.cif.g08.bks.cpg/sg8_17_cif.got.tgz:33042.got - 2010.06.03 19:46:02.
