data_PCOD9132289
_publ_section_title
;
Structure prediction by ZEFSAII (Michael W. Deem and Ramdas Pophale) SiO2 
 PCOD9132289
Probable space group: C M
;
_chemical_formula_sum "Si O2"
_cell_formula_units_Z 32
_cell_length_a 15.015120
_cell_length_b 14.204820
_cell_length_c 8.499260
_cell_angle_alpha 90.000000
_cell_angle_beta 55.564372
_cell_angle_gamma 90.000000
_cell_volume 1495.114023
_symmetry_space_group_name_H-M "C M"
_symmetry_group_IT_number 8
_symmetry_cell_setting 'monoclinic'
loop_
_space_group_symop_operation_xyz
x,y,z
x,-y,z
1/2+x,1/2+y,z
1/2+x,1/2-y,z
loop_
_atom_site_type_symbol
_atom_site_label
_atom_site_fract_x
_atom_site_fract_y
_atom_site_fract_z
Si Si1 0.711820 0.890293 0.981560
Si Si2 0.933733 0.111098 0.883629
Si Si3 0.219454 0.888501 0.784022
Si Si4 0.997680 0.201777 0.126682
Si Si5 0.089088 0.751935 0.335210
Si Si6 0.017565 0.604587 0.978244
Si Si7 0.953558 0.609453 0.680564
Si Si8 0.167564 0.888913 0.497928
O O1 0.836500 0.862643 0.865146
O O2 0.646397 0.887794 0.883102
O O3 0.703122 0.000000 0.042462
O O4 0.652931 0.819915 0.158897
O O5 0.924173 0.151397 0.069646
O O6 0.047858 0.131672 0.688824
O O7 0.932206 0.000000 0.904263
O O8 0.118232 0.828665 0.946464
O O9 0.326925 0.874113 0.776467
O O10 0.240848 0.869016 0.577557
O O11 0.189128 0.000000 0.822766
O O12 0.971129 0.311366 0.127013
O O13 0.008295 0.187940 0.302756
O O14 0.022179 0.684624 0.516471
O O15 0.170520 0.820882 0.346024
O O16 0.983112 0.500000 0.062833
O O17 0.984985 0.618253 0.831604
O O18 0.975304 0.500000 0.611643
O O19 0.176424 0.000000 0.448652
#
# Coordination Sequence:
#
# PCOD9132289 Si02
#       8
#     4   4   4   4   4   4   4   4
#     4   9  19  37  57  78 105 138 176 217 262 309
#     4   9  18  36  60  78 100 139 181 217 255 308
#     4   9  19  37  59  78 101 139 181 217 256 308
#     4  10  20  34  54  80 108 138 174 217 261 312
#     4  11  22  32  51  80 113 142 166 213 269 314
#     4   9  19  34  52  74 102 139 180 214 247 302
#     4  10  20  36  57  79 105 138 176 218 262 310
#     4   9  19  36  56  79 106 137 176 219 260 307
#
# _framework density 21.40305
#
# number of rings (size 3 to 8) (size 9 to 14) (size 15 to 20)
#    0.000    2.500    0.000    3.000    0.000    6.500 
#    0.000    2.500    0.000   12.750    0.000    0.000 
#    0.000    0.000    0.000    0.000    0.000    0.000 
#
# Total GULP energy -89207.541707 kJ/mol
# GULP energy per Si atom -5575.471357 kJ/mol
# Density = 2.135434 g / cm^3
# Si number density = 21.403050 Si / 1000 Ang^3
#
#
#
# Elastic Constant Matrix: (Units=GPa)
#
#
# Indices 1 2 3 4 5 6 
#
# 1 142.2702 26.6841 23.3081 0.0000 25.5322 0.0000
# 2 26.6841 79.0177 28.6442 0.0000 16.5717 0.0000
# 3 23.3081 28.6442 25.9177 0.0000 16.6057 0.0000
# 4 0.0000 0.0000 0.0000 19.9300 0.0000 17.5114
# 5 25.5322 16.5717 16.6057 0.0000 27.2535 0.0000
# 6 0.0000 0.0000 0.0000 17.5114 0.0000 27.1788
#
#
#
# Elastic Compliance Matrix: (Units=1/GPa)
#
#
# Indices 1 2 3 4 5 6 
#
# 1 0.008737 -0.000382 -0.003838 0.000000 -0.005614 0.000000
# 2 -0.000382 0.021217 -0.024719 0.000000 0.002518 0.000000
# 3 -0.003838 -0.024719 0.094192 0.000000 -0.038765 0.000000
# 4 0.000000 0.000000 0.000000 0.115643 0.000000 -0.074509
# 5 -0.005614 0.002518 -0.038765 0.000000 0.064041 0.000000
# 6 0.000000 0.000000 0.000000 -0.074509 0.000000 0.084800
#
#
# Mechanical properties :
#
#
# Convention : Reuss Voigt Hill
#
# Bulk Modulus (GPa) = 15.09019 44.94204 30.01612
# Shear Modulus (GPa) = 10.67016 26.11041 18.39029
#
# Velocity S-wave (km/s) = 2.23521 3.49655 2.93445
# Velocity P-wave (km/s) = 3.70504 6.11103 5.05332
#
# Compressibility (1/GPa) = 0.06626821
#
# Stress axis : x y z
#
# Youngs Moduli (GPa) = 114.45794 47.13227 10.61665
#
# Poissons Ratio (x) = 0.01798 0.04075
# Poissons Ratio (y) = 0.04367 0.26243
# Poissons Ratio (z) = 0.43932 1.16505
#
# Static dielectric constant tensor:
#      x y z
#    x 1.857100 0.000000 0.013470 
#    y 0.000000 1.801690 0.000000 
#    z 0.013470 0.000000 1.769880 
# 
# From -- ./inp_files/13282.got.cif
#   From: 2010.05.17/outbox.cif.g08.bks.cpg/sg8_7_cif.got.tgz:13282.got - 2010.06.03 19:46:02.
