data_PCOD9132524
_publ_section_title
;
Structure prediction by ZEFSAII (Michael W. Deem and Ramdas Pophale) SiO2 
 PCOD9132524
Probable space group: C M
;
_chemical_formula_sum "Si O2"
_cell_formula_units_Z 22
_cell_length_a 8.557861
_cell_length_b 11.817566
_cell_length_c 10.288051
_cell_angle_alpha 90.000000
_cell_angle_beta 80.534966
_cell_angle_gamma 90.000000
_cell_volume 1026.297652
_symmetry_space_group_name_H-M "C M"
_symmetry_group_IT_number 8
_symmetry_cell_setting 'monoclinic'
loop_
_space_group_symop_operation_xyz
x,y,z
x,-y,z
1/2+x,1/2+y,z
1/2+x,1/2-y,z
loop_
_atom_site_type_symbol
_atom_site_label
_atom_site_fract_x
_atom_site_fract_y
_atom_site_fract_z
Si Si1 0.911040 0.283555 0.762630
Si Si2 0.262628 0.631097 0.370793
Si Si3 0.150205 0.630963 0.934255
Si Si4 0.745128 0.500000 0.340323
Si Si5 0.187892 0.179871 0.573914
Si Si6 0.475574 0.187333 0.220642
O O1 0.793253 0.209813 0.867197
O O2 0.814903 0.351719 0.666446
O O3 0.020413 0.360035 0.838030
O O4 0.024126 0.197726 0.669155
O O5 0.298216 0.500000 0.383916
O O6 0.240530 0.699013 0.507046
O O7 0.401565 0.692282 0.270211
O O8 0.096805 0.645244 0.316012
O O9 0.194908 0.500000 0.951080
O O10 0.071592 0.681646 0.074656
O O11 0.685946 0.597536 0.452607
O O12 0.830312 0.599542 0.240033
#
# Coordination Sequence:
#
# PCOD9132524 Si02
#       6
#     4   4   4   2   4   4
#     4  10  24  41  60  98 126 173 221 257 314 396
#     4  11  23  42  67  95 134 172 211 276 330 382
#     4  11  23  43  68  91 133 175 217 265 320 385
#     4  10  20  36  64  90 128 162 204 276 322 366
#     4  10  22  40  63  96 131 167 219 267 328 385
#     4  11  22  43  66  99 127 174 219 265 332 383
#
# _framework density 21.436275999999999
#
# number of rings (size 3 to 8) (size 9 to 14) (size 15 to 20)
#    0.000    1.455    1.818    3.273    2.545    2.909 
#   13.091    0.909    0.000    0.000    0.000    0.000 
#    0.000    0.000    0.000    0.000    0.000    0.000 
#
# Total GULP energy -61265.630907 kJ/mol
# GULP energy per Si atom -5569.602810 kJ/mol
# Density = 2.138749 g / cm^3
# Si number density = 21.436276 Si / 1000 Ang^3
#
#
#
# Elastic Constant Matrix: (Units=GPa)
#
#
# Indices 1 2 3 4 5 6 
#
# 1 25.5659 -6.6334 -4.0093 0.0000 -2.8762 0.0000
# 2 -6.6334 143.7039 22.6324 0.0000 -22.7124 0.0000
# 3 -4.0093 22.6324 102.2240 0.0000 -38.7259 0.0000
# 4 0.0000 0.0000 0.0000 8.9726 0.0000 -9.9475
# 5 -2.8762 -22.7124 -38.7259 0.0000 41.1855 0.0000
# 6 0.0000 0.0000 0.0000 -9.9475 0.0000 16.9328
#
#
#
# Elastic Compliance Matrix: (Units=1/GPa)
#
#
# Indices 1 2 3 4 5 6 
#
# 1 0.041354 0.002551 0.004169 0.000000 0.008215 0.000000
# 2 0.002551 0.007782 0.000109 0.000000 0.004572 0.000000
# 3 0.004169 0.000109 0.015618 0.000000 0.015037 0.000000
# 4 0.000000 0.000000 0.000000 0.319623 0.000000 0.187769
# 5 0.008215 0.004572 0.015037 0.000000 0.041514 0.000000
# 6 0.000000 0.000000 0.000000 0.187769 0.000000 0.169366
#
#
# Mechanical properties :
#
#
# Convention : Reuss Voigt Hill
#
# Bulk Modulus (GPa) = 12.75296 32.83034 22.79165
# Shear Modulus (GPa) = 8.22725 30.71845 19.47285
#
# Velocity S-wave (km/s) = 1.96121 3.78962 3.01725
# Velocity P-wave (km/s) = 3.33026 5.87340 4.77428
#
# Compressibility (1/GPa) = 0.07841319
#
# Stress axis : x y z
#
# Youngs Moduli (GPa) = 24.18118 128.50254 64.02756
#
# Poissons Ratio (x) = -0.32777 -0.26695
# Poissons Ratio (y) = -0.06168 -0.00700
# Poissons Ratio (z) = -0.10082 -0.01404
#
# Static dielectric constant tensor:
#      x y z
#    x 1.856400 0.000000 0.021500 
#    y 0.000000 1.761150 0.000000 
#    z 0.021500 0.000000 1.736130 
# 
# From -- ./inp_files/18486.got.cif
#   From: 2010.05.17/outbox.cif.g08.bks.cpg/sg8_10_cif.got.tgz:18486.got - 2010.06.03 19:46:02.
