data_PCOD9132003
_publ_section_title
;
Structure prediction by ZEFSAII (Michael W. Deem and Ramdas Pophale) SiO2 
 PCOD9132003
Probable space group: C M
;
_chemical_formula_sum "Si O2"
_cell_formula_units_Z 32
_cell_length_a 28.269695
_cell_length_b 9.056018
_cell_length_c 21.359118
_cell_angle_alpha 90.000000
_cell_angle_beta 19.312263
_cell_angle_gamma 90.000000
_cell_volume 1808.412204
_symmetry_space_group_name_H-M "C M"
_symmetry_group_IT_number 8
_symmetry_cell_setting 'monoclinic'
loop_
_space_group_symop_operation_xyz
x,y,z
x,-y,z
1/2+x,1/2+y,z
1/2+x,1/2-y,z
loop_
_atom_site_type_symbol
_atom_site_label
_atom_site_fract_x
_atom_site_fract_y
_atom_site_fract_z
Si Si1 0.941900 0.175584 0.988050
Si Si2 0.381586 0.325022 0.386476
Si Si3 0.966115 0.823238 0.718804
Si Si4 0.635289 0.176429 0.129663
Si Si5 0.484307 0.175321 0.451404
Si Si6 0.224038 0.825056 0.699139
Si Si7 0.135388 0.824844 0.379348
Si Si8 0.602308 0.177286 0.669608
O O1 0.055007 0.199561 0.903663
O O2 0.013177 0.247950 0.837400
O O3 0.928586 0.000000 0.994856
O O4 0.788573 0.246022 0.190906
O O5 0.400609 0.500000 0.363172
O O6 0.534480 0.248327 0.203015
O O7 0.295720 0.271898 0.555385
O O8 0.270587 0.285940 0.469919
O O9 0.046728 0.795964 0.553156
O O10 0.042289 0.738615 0.679970
O O11 0.969273 0.000000 0.727567
O O12 0.800062 0.778091 0.921271
O O13 0.570262 0.210784 0.279762
O O14 0.627435 0.000000 0.132450
O O15 0.316887 0.204715 0.645028
O O16 0.548190 0.264498 0.428869
O O17 0.501688 0.000000 0.441171
O O18 0.248756 0.000000 0.653839
O O19 0.156330 0.000000 0.346987
O O20 0.587793 0.000000 0.691855
#
# Coordination Sequence:
#
# PCOD9132003 Si02
#       8
#     4   4   4   4   4   4   4   4
#     4  10  19  34  57  80 104 137 173 210 257 309
#     4   9  17  29  49  80 109 128 156 206 261 306
#     4  10  22  38  53  72 103 142 180 216 255 303
#     4   9  18  34  55  76  99 132 174 212 250 305
#     4   9  17  32  55  79 100 128 169 214 260 310
#     4   8  16  31  52  77 101 129 168 209 251 305
#     4  11  23  36  50  74 107 140 177 218 257 301
#     4  10  20  34  55  82 107 132 169 215 259 307
#
# _framework density 17.695080999999998
#
# number of rings (size 3 to 8) (size 9 to 14) (size 15 to 20)
#    0.000    2.500    0.000    3.000    0.000    6.500 
#    0.000    1.250    0.000    6.000    0.000    0.000 
#    0.000    0.000    0.000    0.000    0.000    0.000 
#
# Total GULP energy -89192.827156 kJ/mol
# GULP energy per Si atom -5574.551697 kJ/mol
# Density = 1.765481 g / cm^3
# Si number density = 17.695081 Si / 1000 Ang^3
#
#
#
# Elastic Constant Matrix: (Units=GPa)
#
#
# Indices 1 2 3 4 5 6 
#
# 1 98.2320 63.2469 113.7025 0.0000 -42.0904 0.0000
# 2 63.2469 57.3482 66.9479 0.0000 -18.6848 0.0000
# 3 113.7025 66.9479 98.8641 0.0000 -37.8460 0.0000
# 4 0.0000 0.0000 0.0000 22.9382 0.0000 -5.8559
# 5 -42.0904 -18.6848 -37.8460 0.0000 29.2058 0.0000
# 6 0.0000 0.0000 0.0000 -5.8559 0.0000 28.1022
#
#
#
# Elastic Compliance Matrix: (Units=1/GPa)
#
#
# Indices 1 2 3 4 5 6 
#
# 1 -0.017700 -0.029225 0.046087 0.000000 0.015514 0.000000
# 2 -0.029225 0.066195 -0.022077 0.000000 -0.028377 0.000000
# 3 0.046087 -0.022077 -0.015717 0.000000 0.031928 0.000000
# 4 0.000000 0.000000 0.000000 0.046045 0.000000 0.009595
# 5 0.015514 -0.028377 0.031928 0.000000 0.079818 0.000000
# 6 0.000000 0.000000 0.000000 0.009595 0.000000 0.037584
#
#
# Mechanical properties :
#
#
# Convention : Reuss Voigt Hill
#
# Bulk Modulus (GPa) = 44.74835 82.47099 63.60967
# Shear Modulus (GPa) = 23.35302 16.75237 20.05270
#
# Velocity S-wave (km/s) = 3.63677 3.08023 3.37001
# Velocity P-wave (km/s) = 6.55578 7.70443 7.15320
#
# Compressibility (1/GPa) = 0.02234719
#
# Stress axis : x y z
#
# Youngs Moduli (GPa) = -56.49580 15.10678 -63.62671
#
# Poissons Ratio (x) = 0.44150 2.93234
# Poissons Ratio (y) = -1.65111 -1.40468
# Poissons Ratio (z) = 2.60370 0.33351
#
# Static dielectric constant tensor:
#      x y z
#    x 1.592840 0.000000 -0.037440 
#    y 0.000000 1.589850 0.000000 
#    z -0.037440 0.000000 1.606850 
# 
# From -- ./inp_files/31059.got.cif
#   From: 2010.05.17/outbox.cif.g08.bks.cpg/sg8_16_cif.got.tgz:31059.got - 2010.06.03 19:46:02.
