data_PCOD9132096
_publ_section_title
;
Structure prediction by ZEFSAII (Michael W. Deem and Ramdas Pophale) SiO2 
 PCOD9132096
Probable space group: C M
;
_chemical_formula_sum "Si O2"
_cell_formula_units_Z 32
_cell_length_a 15.161500
_cell_length_b 8.261021
_cell_length_c 11.520449
_cell_angle_alpha 90.000000
_cell_angle_beta 99.939106
_cell_angle_gamma 90.000000
_cell_volume 1421.274274
_symmetry_space_group_name_H-M "C M"
_symmetry_group_IT_number 8
_symmetry_cell_setting 'monoclinic'
loop_
_space_group_symop_operation_xyz
x,y,z
x,-y,z
1/2+x,1/2+y,z
1/2+x,1/2-y,z
loop_
_atom_site_type_symbol
_atom_site_label
_atom_site_fract_x
_atom_site_fract_y
_atom_site_fract_z
Si Si1 0.742150 0.694760 0.989870
Si Si2 0.949395 0.697725 0.046558
Si Si3 0.149174 0.808379 0.731225
Si Si4 0.310871 0.692341 0.639176
Si Si5 0.979011 0.690636 0.801064
Si Si6 0.390742 0.305423 0.411936
Si Si7 0.224072 0.304859 0.235924
Si Si8 0.046741 0.305251 0.304937
O O1 0.741265 0.500000 0.986283
O O2 0.845719 0.748836 0.018269
O O3 0.692849 0.753083 0.862774
O O4 0.700100 0.750591 0.101411
O O5 0.951277 0.500000 0.046270
O O6 0.994260 0.752054 0.935899
O O7 0.996589 0.751005 0.175433
O O8 0.207789 0.730920 0.642657
O O9 0.044586 0.771214 0.722548
O O10 0.161207 0.000000 0.725825
O O11 0.323368 0.500000 0.649908
O O12 0.375694 0.776607 0.747129
O O13 0.348708 0.748556 0.523872
O O14 0.995823 0.500000 0.801813
O O15 0.389209 0.500000 0.411648
O O16 0.321516 0.245280 0.297395
O O17 0.490010 0.252459 0.401389
O O18 0.225447 0.500000 0.236261
O O19 0.148998 0.252598 0.311244
O O20 0.045425 0.500000 0.305970
#
# Coordination Sequence:
#
# PCOD9132096 Si02
#       8
#     4   4   4   4   4   4   4   4
#     4  10  19  35  59  87 120 154 190 236 289 350
#     4   9  17  33  57  86 119 151 187 236 293 353
#     4  11  23  40  61  90 124 158 198 244 296 359
#     4  11  24  42  61  84 118 161 206 252 298 350
#     4  11  22  40  64  90 121 156 196 248 303 357
#     4  10  23  41  58  82 117 151 194 248 294 339
#     4  10  21  37  58  87 118 151 192 239 289 347
#     4  10  20  36  60  86 115 152 193 233 286 351
#
# _framework density 22.515008999999999
#
# number of rings (size 3 to 8) (size 9 to 14) (size 15 to 20)
#    0.000    1.750    2.500    1.875    0.000    4.500 
#    0.000    2.500    0.000    0.000    0.000    0.000 
#    0.000    0.000    0.000    0.000    0.000    0.000 
#
# Total GULP energy -89427.302244 kJ/mol
# GULP energy per Si atom -5589.206390 kJ/mol
# Density = 2.246376 g / cm^3
# Si number density = 22.515009 Si / 1000 Ang^3
#
#
#
# Elastic Constant Matrix: (Units=GPa)
#
#
# Indices 1 2 3 4 5 6 
#
# 1 95.1700 1.5761 5.3402 0.0000 -37.0614 0.0000
# 2 1.5761 16.6250 5.7609 0.0000 -5.4718 0.0000
# 3 5.3402 5.7609 66.3423 0.0000 -34.6504 0.0000
# 4 0.0000 0.0000 0.0000 21.9740 0.0000 -7.0030
# 5 -37.0614 -5.4718 -34.6504 0.0000 43.0954 0.0000
# 6 0.0000 0.0000 0.0000 -7.0030 0.0000 24.9746
#
#
#
# Elastic Compliance Matrix: (Units=1/GPa)
#
#
# Indices 1 2 3 4 5 6 
#
# 1 0.021084 0.003006 0.013294 0.000000 0.029203 0.000000
# 2 0.003006 0.063393 -0.000332 0.000000 0.010367 0.000000
# 3 0.013294 -0.000332 0.034448 0.000000 0.039088 0.000000
# 4 0.000000 0.000000 0.000000 0.049974 0.000000 0.014013
# 5 0.029203 0.010367 0.039088 0.000000 0.081063 0.000000
# 6 0.000000 0.000000 0.000000 0.014013 0.000000 0.043970
#
#
# Mechanical properties :
#
#
# Convention : Reuss Voigt Hill
#
# Bulk Modulus (GPa) = 6.62864 22.61018 14.61941
# Shear Modulus (GPa) = 16.01119 29.03948 22.52533
#
# Velocity S-wave (km/s) = 2.66960 3.59525 3.16643
# Velocity P-wave (km/s) = 3.52886 5.22480 4.45822
#
# Compressibility (1/GPa) = 0.15086051
#
# Stress axis : x y z
#
# Youngs Moduli (GPa) = 47.42928 15.77474 29.02959
#
# Poissons Ratio (x) = -0.04742 -0.38593
# Poissons Ratio (y) = -0.14257 0.00964
# Poissons Ratio (z) = -0.63054 0.00524
#
# Static dielectric constant tensor:
#      x y z
#    x 1.836750 0.000000 -0.001250 
#    y 0.000000 1.767200 0.000000 
#    z -0.001250 0.000000 1.856660 
# 
# From -- ./inp_files/21532.got.cif
#   From: 2010.05.17/outbox.cif.g08.bks.cpg/sg8_11_cif.got.tgz:21532.got - 2010.06.03 19:46:02.
