data_PCOD9132680
_publ_section_title
;
Structure prediction by ZEFSAII (Michael W. Deem and Ramdas Pophale) SiO2 
 PCOD9132680
Probable space group: C M
;
_chemical_formula_sum "Si O2"
_cell_formula_units_Z 28
_cell_length_a 15.311588
_cell_length_b 12.223130
_cell_length_c 15.660643
_cell_angle_alpha 90.000000
_cell_angle_beta 155.962005
_cell_angle_gamma 90.000000
_cell_volume 1193.910661
_symmetry_space_group_name_H-M "C M"
_symmetry_group_IT_number 8
_symmetry_cell_setting 'monoclinic'
loop_
_space_group_symop_operation_xyz
x,y,z
x,-y,z
1/2+x,1/2+y,z
1/2+x,1/2-y,z
loop_
_atom_site_type_symbol
_atom_site_label
_atom_site_fract_x
_atom_site_fract_y
_atom_site_fract_z
Si Si1 0.030470 0.118739 0.729440
Si Si2 0.124201 0.500000 0.929778
Si Si3 0.092719 0.759134 0.546986
Si Si4 0.816713 0.200096 0.003693
Si Si5 0.966088 0.880177 0.875549
Si Si6 0.051268 0.627760 0.331915
Si Si7 0.077410 0.000000 0.463849
Si Si8 0.230449 0.880236 0.274765
O O1 0.026987 0.124211 0.830680
O O2 0.779843 0.124445 0.487422
O O3 0.116997 0.000000 0.780960
O O4 0.168617 0.217522 0.818144
O O5 0.852889 0.500000 0.696330
O O6 0.171573 0.609368 0.919076
O O7 0.352019 0.500000 0.198661
O O8 0.331585 0.724300 0.785611
O O9 0.084955 0.683187 0.454010
O O10 0.055740 0.884894 0.492665
O O11 0.909082 0.710698 0.442489
O O12 0.917383 0.283414 0.161503
O O13 0.011957 0.143528 0.129606
O O14 0.164895 0.882406 0.116633
O O15 0.855009 0.000000 0.788559
O O16 0.981634 0.500000 0.273967
O O17 0.311972 0.000000 0.373105
#
# Coordination Sequence:
#
# PCOD9132680 Si02
#       8
#     4   2   4   4   4   4   2   4
#     4   9  19  37  64  94 121 163 231 292 349 400
#     4  12  26  48  70 110 140 187 234 290 357 428
#     4  11  22  42  67  96 128 176 227 295 345 413
#     4  12  23  39  63  95 141 181 228 284 355 429
#     4   9  19  38  65  94 121 165 227 294 343 402
#     4  10  20  38  68  97 123 167 230 296 343 407
#     4  12  28  46  78 102 142 185 242 296 351 420
#     4  11  24  41  61  96 135 181 229 288 356 425
#
# _framework density 23.452342000000002
#
# number of rings (size 3 to 8) (size 9 to 14) (size 15 to 20)
#    0.000    1.429    2.143    5.143    2.000    2.286 
#    2.571    0.000    0.000    0.000    0.000    0.000 
#    0.000    0.000    0.000    0.000    0.000    0.000 
#
# Total GULP energy -77986.205260 kJ/mol
# GULP energy per Si atom -5570.443233 kJ/mol
# Density = 2.339896 g / cm^3
# Si number density = 23.452342 Si / 1000 Ang^3
#
#
#
# Elastic Constant Matrix: (Units=GPa)
#
#
# Indices 1 2 3 4 5 6 
#
# 1 31.8773 19.1876 14.2378 0.0003 8.1329 -0.0001
# 2 19.1876 179.7820 35.1709 0.0006 20.2785 -0.0009
# 3 14.2378 35.1709 87.4024 0.0016 19.4583 0.0002
# 4 0.0003 0.0006 0.0016 40.2414 0.0004 17.2275
# 5 8.1329 20.2785 19.4583 0.0004 36.0045 -0.0003
# 6 -0.0001 -0.0009 0.0002 17.2275 -0.0003 19.0379
#
#
#
# Elastic Compliance Matrix: (Units=1/GPa)
#
#
# Indices 1 2 3 4 5 6 
#
# 1 0.035770 -0.002561 -0.003773 0.000000 -0.004599 0.000000
# 2 -0.002561 0.006405 -0.001689 0.000000 -0.002116 0.000000
# 3 -0.003773 -0.001689 0.014021 -0.000001 -0.005774 0.000000
# 4 0.000000 0.000000 -0.000001 0.040564 0.000000 -0.036707
# 5 -0.004599 -0.002116 -0.005774 0.000000 0.033125 0.000001
# 6 0.000000 0.000000 0.000000 -0.036707 0.000001 0.085743
#
#
# Mechanical properties :
#
#
# Convention : Reuss Voigt Hill
#
# Bulk Modulus (GPa) = 24.90614 48.47269 36.68942
# Shear Modulus (GPa) = 20.40340 34.42114 27.41227
#
# Velocity S-wave (km/s) = 2.95277 3.83522 3.42255
# Velocity P-wave (km/s) = 4.71890 6.35022 5.59435
#
# Compressibility (1/GPa) = 0.04015074
#
# Stress axis : x y z
#
# Youngs Moduli (GPa) = 27.95633 156.13527 71.32146
#
# Poissons Ratio (x) = 0.39984 0.26907
# Poissons Ratio (y) = 0.07159 0.12046
# Poissons Ratio (z) = 0.10547 0.26372
#
# Static dielectric constant tensor:
#      x y z
#    x 1.929940 0.000000 -0.039330 
#    y 0.000000 1.852730 0.000000 
#    z -0.039330 0.000000 2.162340 
# 
# From -- ./inp_files/31144.got.cif
#   From: 2010.05.17/outbox.cif.g08.bks.cpg/sg8_16_cif.got.tgz:31144.got - 2010.06.03 19:46:02.
