data_PCOD9132611
_publ_section_title
;
Structure prediction by ZEFSAII (Michael W. Deem and Ramdas Pophale) SiO2 
 PCOD9132611
Probable space group: C M
;
_chemical_formula_sum "Si O2"
_cell_formula_units_Z 20
_cell_length_a 12.381142
_cell_length_b 13.838268
_cell_length_c 4.881251
_cell_angle_alpha 90.000000
_cell_angle_beta 115.500185
_cell_angle_gamma 90.000000
_cell_volume 754.850873
_symmetry_space_group_name_H-M "C M"
_symmetry_group_IT_number 8
_symmetry_cell_setting 'monoclinic'
loop_
_space_group_symop_operation_xyz
x,y,z
x,-y,z
1/2+x,1/2+y,z
1/2+x,1/2-y,z
loop_
_atom_site_type_symbol
_atom_site_label
_atom_site_fract_x
_atom_site_fract_y
_atom_site_fract_z
Si Si1 0.679120 0.389823 0.494220
Si Si2 0.177627 0.615422 0.570365
Si Si3 0.548252 0.309642 0.837011
Si Si4 0.825242 0.884115 0.245837
Si Si5 0.457502 0.889203 0.706579
O O1 0.662559 0.500000 0.577576
O O2 0.654367 0.319026 0.723682
O O3 0.814801 0.383847 0.528450
O O4 0.589999 0.370435 0.144480
O O5 0.189887 0.500000 0.562648
O O6 0.217377 0.653138 0.321195
O O7 0.042599 0.625386 0.533113
O O8 0.281904 0.643913 0.898417
O O9 0.442086 0.348791 0.527231
O O10 0.498084 0.208360 0.898998
O O11 0.831824 0.000000 0.247935
O O12 0.485117 0.000000 0.836776
#
# Coordination Sequence:
#
# PCOD9132611 Si02
#       5
#     4   4   4   4   4
#     4  11  26  49  73 105 144 187 236 295 358 425
#     4   9  20  38  63  92 130 174 221 277 341 402
#     4  12  26  42  77 103 143 186 243 286 359 423
#     4  10  20  37  64  99 134 170 222 288 347 403
#     4  10  26  48  72 103 147 191 237 292 354 425
#
# _framework density 26.495303
#
# number of rings (size 3 to 8) (size 9 to 14) (size 15 to 20)
#    0.000    1.600    0.000    3.000    5.600    4.800 
#    0.000    9.000    0.000    0.000    0.000    0.000 
#    0.000    0.000    0.000    0.000    0.000    0.000 
#
# Total GULP energy -55889.251675 kJ/mol
# GULP energy per Si atom -5588.925167 kJ/mol
# Density = 2.643500 g / cm^3
# Si number density = 26.495303 Si / 1000 Ang^3
#
#
#
# Elastic Constant Matrix: (Units=GPa)
#
#
# Indices 1 2 3 4 5 6 
#
# 1 85.9082 22.1711 18.1898 0.0000 20.0664 0.0000
# 2 22.1711 143.9699 42.8629 0.0000 30.0156 0.0000
# 3 18.1898 42.8629 104.0715 0.0000 9.8048 0.0000
# 4 0.0000 0.0000 0.0000 25.6835 0.0000 9.3118
# 5 20.0664 30.0156 9.8048 0.0000 41.9859 0.0000
# 6 0.0000 0.0000 0.0000 9.3118 0.0000 44.2696
#
#
#
# Elastic Compliance Matrix: (Units=1/GPa)
#
#
# Indices 1 2 3 4 5 6 
#
# 1 0.013434 -0.000375 -0.001650 0.000000 -0.005767 0.000000
# 2 -0.000375 0.009111 -0.003160 0.000000 -0.005596 0.000000
# 3 -0.001650 -0.003160 0.011157 0.000000 0.000442 0.000000
# 4 0.000000 0.000000 0.000000 0.042150 0.000000 -0.008866
# 5 -0.005767 -0.005596 0.000442 0.000000 0.030471 0.000000
# 6 0.000000 0.000000 0.000000 -0.008866 0.000000 0.024454
#
#
# Mechanical properties :
#
#
# Convention : Reuss Voigt Hill
#
# Bulk Modulus (GPa) = 42.86031 55.59967 49.22999
# Shear Modulus (GPa) = 33.57424 39.10286 36.33855
#
# Velocity S-wave (km/s) = 3.56361 3.84584 3.70741
# Velocity P-wave (km/s) = 5.75709 6.38364 6.07844
#
# Compressibility (1/GPa) = 0.02333161
#
# Stress axis : x y z
#
# Youngs Moduli (GPa) = 74.44052 109.75582 89.63073
#
# Poissons Ratio (x) = 0.04118 0.14790
# Poissons Ratio (y) = 0.02793 0.28321
# Poissons Ratio (z) = 0.12283 0.34679
#
# Static dielectric constant tensor:
#      x y z
#    x 2.144440 0.000000 -0.011040 
#    y 0.000000 2.165780 0.000000 
#    z -0.011040 0.000000 2.007610 
# 
# From -- ./inp_files/4012.got.cif
#   From: 2010.05.17/outbox.cif.g08.bks.cpg/sg8_3_cif.got.tgz:4012.got - 2010.06.03 19:46:02.
