data_PCOD9132438
_publ_section_title
;
Structure prediction by ZEFSAII (Michael W. Deem and Ramdas Pophale) SiO2 
 PCOD9132438
Probable space group: C M
;
_chemical_formula_sum "Si O2"
_cell_formula_units_Z 32
_cell_length_a 14.677256
_cell_length_b 8.931380
_cell_length_c 29.001458
_cell_angle_alpha 90.000000
_cell_angle_beta 152.129402
_cell_angle_gamma 90.000000
_cell_volume 1777.226618
_symmetry_space_group_name_H-M "C M"
_symmetry_group_IT_number 8
_symmetry_cell_setting 'monoclinic'
loop_
_space_group_symop_operation_xyz
x,y,z
x,-y,z
1/2+x,1/2+y,z
1/2+x,1/2-y,z
loop_
_atom_site_type_symbol
_atom_site_label
_atom_site_fract_x
_atom_site_fract_y
_atom_site_fract_z
Si Si1 0.740320 0.825989 0.973010
Si Si2 0.019058 0.320321 0.028516
Si Si3 0.585963 0.680207 0.398465
Si Si4 0.457715 0.318213 0.239075
Si Si5 0.373300 0.819246 0.390771
Si Si6 0.318416 0.173281 0.756878
Si Si7 0.511732 0.820279 0.554887
Si Si8 0.439856 0.322288 0.899938
O O1 0.552725 0.820736 0.854533
O O2 0.650667 0.737442 0.976137
O O3 0.776516 0.000000 0.000542
O O4 0.920606 0.747049 0.029970
O O5 0.008146 0.500000 0.023953
O O6 0.245043 0.272168 0.127328
O O7 0.908784 0.254613 0.934922
O O8 0.573010 0.500000 0.395886
O O9 0.488496 0.726067 0.306221
O O10 0.482303 0.751638 0.395884
O O11 0.814304 0.718800 0.494559
O O12 0.461662 0.500000 0.240175
O O13 0.647073 0.269704 0.294831
O O14 0.475390 0.779047 0.485216
O O15 0.375389 0.000000 0.388483
O O16 0.193905 0.243502 0.660627
O O17 0.297148 0.263125 0.795616
O O18 0.266703 0.000000 0.740666
O O19 0.533205 0.000000 0.566207
O O20 0.434817 0.500000 0.900749
#
# Coordination Sequence:
#
# PCOD9132438 Si02
#       8
#     4   4   4   4   4   4   4   4
#     4   9  20  37  53  76 108 141 179 225 266 315
#     4  11  20  34  57  82 108 145 183 222 270 319
#     4   9  18  35  55  78 106 137 174 216 261 316
#     4   8  18  35  54  76 108 142 174 213 262 317
#     4   9  18  35  55  78 106 138 174 214 261 317
#     4   9  19  36  56  78 108 140 177 225 267 312
#     4   9  18  34  55  76 105 142 175 210 264 322
#     4  10  20  36  55  76 107 143 180 223 267 316
#
# _framework density 18.005583000000001
#
# number of rings (size 3 to 8) (size 9 to 14) (size 15 to 20)
#    0.750    2.000    0.000    3.375    0.000    2.000 
#    2.250    6.875    0.000    0.000    0.000    0.000 
#    0.000    0.000    0.000    0.000    0.000    0.000 
#
# Total GULP energy -89091.500761 kJ/mol
# GULP energy per Si atom -5568.218798 kJ/mol
# Density = 1.796460 g / cm^3
# Si number density = 18.005583 Si / 1000 Ang^3
#
#
#
# Elastic Constant Matrix: (Units=GPa)
#
#
# Indices 1 2 3 4 5 6 
#
# 1 86.5098 14.1206 0.9454 0.0000 -2.1594 0.0000
# 2 14.1206 55.9761 12.6673 0.0000 2.4970 0.0000
# 3 0.9454 12.6673 43.0224 0.0002 3.4696 0.0001
# 4 0.0000 0.0000 0.0002 18.9819 0.0000 0.7782
# 5 -2.1594 2.4970 3.4696 0.0000 10.6283 0.0000
# 6 0.0000 0.0000 0.0001 0.7782 0.0000 33.5738
#
#
#
# Elastic Compliance Matrix: (Units=1/GPa)
#
#
# Indices 1 2 3 4 5 6 
#
# 1 0.012173 -0.003313 0.000458 0.000000 0.003102 0.000000
# 2 -0.003313 0.020119 -0.005562 0.000000 -0.003584 0.000000
# 3 0.000458 -0.005562 0.025428 0.000000 -0.006901 0.000000
# 4 0.000000 0.000000 0.000000 0.052732 0.000000 -0.001222
# 5 0.003102 -0.003584 -0.006901 0.000000 0.097813 0.000000
# 6 0.000000 0.000000 0.000000 -0.001222 0.000000 0.029813
#
#
# Mechanical properties :
#
#
# Convention : Reuss Voigt Hill
#
# Bulk Modulus (GPa) = 24.45843 26.77499 25.61671
# Shear Modulus (GPa) = 18.61922 23.15515 20.88719
#
# Velocity S-wave (km/s) = 3.21920 3.58997 3.40963
# Velocity P-wave (km/s) = 5.23746 5.66450 5.45516
#
# Compressibility (1/GPa) = 0.04088569
#
# Stress axis : x y z
#
# Youngs Moduli (GPa) = 82.15236 49.70441 39.32701
#
# Poissons Ratio (x) = 0.16465 -0.01800
# Poissons Ratio (y) = 0.27214 0.21873
# Poissons Ratio (z) = -0.03760 0.27645
#
# Static dielectric constant tensor:
#      x y z
#    x 1.615510 0.000000 0.006600 
#    y 0.000000 1.598720 0.000000 
#    z 0.006600 0.000000 1.629520 
# 
# From -- ./inp_files/32867.got.cif
#   From: 2010.05.17/outbox.cif.g08.bks.cpg/sg8_17_cif.got.tgz:32867.got - 2010.06.03 19:46:02.
