data_PCOD9132932
_publ_section_title
;
Structure prediction by ZEFSAII (Michael W. Deem and Ramdas Pophale) SiO2 
 PCOD9132932
Probable space group: C M
;
_chemical_formula_sum "Si O2"
_cell_formula_units_Z 28
_cell_length_a 14.129299
_cell_length_b 9.310938
_cell_length_c 12.187037
_cell_angle_alpha 90.000000
_cell_angle_beta 56.389455
_cell_angle_gamma 90.000000
_cell_volume 1335.251276
_symmetry_space_group_name_H-M "C M"
_symmetry_group_IT_number 8
_symmetry_cell_setting 'monoclinic'
loop_
_space_group_symop_operation_xyz
x,y,z
x,-y,z
1/2+x,1/2+y,z
1/2+x,1/2-y,z
loop_
_atom_site_type_symbol
_atom_site_label
_atom_site_fract_x
_atom_site_fract_y
_atom_site_fract_z
Si Si1 0.199500 0.334497 0.911380
Si Si2 0.244648 0.161419 0.434349
Si Si3 0.887788 0.849239 0.076400
Si Si4 0.631303 0.835705 0.321058
Si Si5 0.644742 0.671871 0.720248
Si Si6 0.997138 0.268005 0.204784
Si Si7 0.920113 0.329850 0.857943
O O1 0.230334 0.500000 0.869597
O O2 0.166000 0.254034 0.820403
O O3 0.304987 0.242364 0.888960
O O4 0.098516 0.337382 0.067222
O O5 0.163721 0.264706 0.415526
O O6 0.239282 0.199141 0.566337
O O7 0.374042 0.161392 0.307400
O O8 0.199554 0.000000 0.451880
O O9 0.754795 0.843907 0.184960
O O10 0.956161 0.852178 0.145820
O O11 0.911103 0.000000 0.000580
O O12 0.918707 0.708651 0.988480
O O13 0.551471 0.746623 0.289812
O O14 0.587591 0.000000 0.358454
O O15 0.638940 0.500000 0.741432
O O16 0.528862 0.740970 0.746778
O O17 0.926448 0.500000 0.834268
#
# Coordination Sequence:
#
# PCOD9132932 Si02
#       7
#     4   4   4   4   4   4   4
#     4  12  24  41  69 102 136 169 215 274 334 397
#     4  10  24  44  66  94 130 173 218 268 322 390
#     4  10  21  38  60  93 132 167 208 262 325 383
#     4  10  21  38  62  92 130 170 210 261 318 386
#     4  11  25  46  67  93 136 178 223 274 326 389
#     4  11  22  39  68 100 133 166 213 262 333 390
#     4  12  25  40  64  94 129 173 223 271 326 387
#
# _framework density 20.969836000000001
#
# number of rings (size 3 to 8) (size 9 to 14) (size 15 to 20)
#    0.000    1.143    2.857    3.429    0.000    6.286 
#    0.000    0.000    0.000    0.000    0.000    0.000 
#    0.000    0.000    0.000    0.000    0.000    0.000 
#
# Total GULP energy -78009.331777 kJ/mol
# GULP energy per Si atom -5572.095127 kJ/mol
# Density = 2.092211 g / cm^3
# Si number density = 20.969836 Si / 1000 Ang^3
#
#
#
# Elastic Constant Matrix: (Units=GPa)
#
#
# Indices 1 2 3 4 5 6 
#
# 1 129.8218 43.0024 25.0814 0.0000 19.1598 0.0000
# 2 43.0024 121.0165 35.8722 0.0000 2.6270 0.0000
# 3 25.0814 35.8722 104.4790 0.0000 10.1086 0.0000
# 4 0.0000 0.0000 0.0000 19.0575 0.0000 6.2063
# 5 19.1598 2.6270 10.1086 0.0000 24.2418 0.0000
# 6 0.0000 0.0000 0.0000 6.2063 0.0000 7.3791
#
#
#
# Elastic Compliance Matrix: (Units=1/GPa)
#
#
# Indices 1 2 3 4 5 6 
#
# 1 0.009951 -0.003205 -0.000585 0.000000 -0.007274 0.000000
# 2 -0.003205 0.010234 -0.003003 0.000000 0.002676 0.000000
# 3 -0.000585 -0.003003 0.011115 0.000000 -0.003847 0.000000
# 4 0.000000 0.000000 0.000000 0.072267 0.000000 -0.060781
# 5 -0.007274 0.002676 -0.003847 0.000000 0.048314 0.000000
# 6 0.000000 0.000000 0.000000 -0.060781 0.000000 0.186639
#
#
# Mechanical properties :
#
#
# Convention : Reuss Voigt Hill
#
# Bulk Modulus (GPa) = 56.45135 62.58102 59.51619
# Shear Modulus (GPa) = 13.96603 26.89310 20.42957
#
# Velocity S-wave (km/s) = 2.58351 3.58504 3.12466
# Velocity P-wave (km/s) = 5.98983 6.85892 6.43906
#
# Compressibility (1/GPa) = 0.01771437
#
# Stress axis : x y z
#
# Youngs Moduli (GPa) = 100.49372 97.71036 89.96748
#
# Poissons Ratio (x) = 0.31314 0.05261
# Poissons Ratio (y) = 0.32206 0.27022
# Poissons Ratio (z) = 0.05876 0.29347
#
# Static dielectric constant tensor:
#      x y z
#    x 1.778490 0.000000 0.005100 
#    y 0.000000 1.746080 0.000000 
#    z 0.005100 0.000000 1.779270 
# 
# From -- ./inp_files/21463.got.cif
#   From: 2010.05.17/outbox.cif.g08.bks.cpg/sg8_11_cif.got.tgz:21463.got - 2010.06.03 19:46:02.
