data_PCOD9132287
_publ_section_title
;
Structure prediction by ZEFSAII (Michael W. Deem and Ramdas Pophale) SiO2 
 PCOD9132287
Probable space group: C M
;
_chemical_formula_sum "Si O2"
_cell_formula_units_Z 32
_cell_length_a 21.901073
_cell_length_b 9.497714
_cell_length_c 19.299005
_cell_angle_alpha 90.000000
_cell_angle_beta 21.004522
_cell_angle_gamma 90.000000
_cell_volume 1438.923956
_symmetry_space_group_name_H-M "C M"
_symmetry_group_IT_number 8
_symmetry_cell_setting 'monoclinic'
loop_
_space_group_symop_operation_xyz
x,y,z
x,-y,z
1/2+x,1/2+y,z
1/2+x,1/2-y,z
loop_
_atom_site_type_symbol
_atom_site_label
_atom_site_fract_x
_atom_site_fract_y
_atom_site_fract_z
Si Si1 0.618340 0.162713 0.720320
Si Si2 0.517062 0.662425 0.083053
Si Si3 0.815408 0.339486 0.402134
Si Si4 0.153588 0.339761 0.141947
Si Si5 0.953469 0.162360 0.462505
Si Si6 0.425469 0.662809 0.031816
Si Si7 0.351100 0.162411 0.826405
Si Si8 0.542418 0.164686 0.493868
O O1 0.679280 0.245617 0.587655
O O2 0.781451 0.167107 0.599544
O O3 0.580776 0.000000 0.745539
O O4 0.471352 0.239896 0.918942
O O5 0.454243 0.500000 0.153319
O O6 0.383584 0.765211 0.260933
O O7 0.539916 0.695763 0.978178
O O8 0.690025 0.668269 0.943929
O O9 0.758123 0.500000 0.452474
O O10 0.985079 0.343830 0.271350
O O11 0.196779 0.500000 0.115246
O O12 0.092827 0.249551 0.271466
O O13 0.300206 0.263335 0.942877
O O14 0.938405 0.236263 0.552462
O O15 0.004100 0.000000 0.416309
O O16 0.454980 0.500000 0.980989
O O17 0.236361 0.676831 0.263216
O O18 0.507653 0.201242 0.610736
O O19 0.366589 0.000000 0.832980
O O20 0.491994 0.000000 0.539342
#
# Coordination Sequence:
#
# PCOD9132287 Si02
#       8
#     4   4   4   4   4   4   4   4
#     4  10  20  34  54  79 105 135 173 215 258 306
#     4   9  17  31  52  76 102 133 169 210 257 308
#     4   9  17  30  51  78 104 130 166 214 262 306
#     4   9  17  30  51  78 104 130 166 214 262 306
#     4  10  20  34  54  79 105 135 173 215 258 306
#     4  10  21  36  53  75 105 140 176 213 255 305
#     4   9  17  31  52  76 102 133 169 210 257 308
#     4  10  21  36  53  75 105 140 176 213 255 305
#
# _framework density 22.238838999999999
#
# number of rings (size 3 to 8) (size 9 to 14) (size 15 to 20)
#    0.000    2.500    0.000    2.250    0.000    7.000 
#    0.000    3.750    0.000    4.500    0.000    0.000 
#    0.000    0.000    0.000    0.000    0.000    0.000 
#
# Total GULP energy -89481.381114 kJ/mol
# GULP energy per Si atom -5592.586320 kJ/mol
# Density = 2.218822 g / cm^3
# Si number density = 22.238839 Si / 1000 Ang^3
#
#
#
# Elastic Constant Matrix: (Units=GPa)
#
#
# Indices 1 2 3 4 5 6 
#
# 1 68.6585 22.2738 21.0262 -0.0002 2.8616 0.0001
# 2 22.2738 136.2987 94.3157 -0.0008 25.2577 0.0005
# 3 21.0262 94.3157 138.4859 -0.0002 24.4179 0.0002
# 4 -0.0002 -0.0008 -0.0002 37.8368 0.0002 12.5274
# 5 2.8616 25.2577 24.4179 0.0002 34.3486 -0.0001
# 6 0.0001 0.0005 0.0002 12.5274 -0.0001 10.3518
#
#
#
# Elastic Compliance Matrix: (Units=1/GPa)
#
#
# Indices 1 2 3 4 5 6 
#
# 1 0.015509 -0.001827 -0.001280 0.000000 0.000961 0.000000
# 2 -0.001827 0.014586 -0.008909 0.000001 -0.004240 -0.000001
# 3 -0.001280 -0.008909 0.014073 0.000000 -0.003347 0.000000
# 4 0.000000 0.000001 0.000000 0.044098 -0.000001 -0.053366
# 5 0.000961 -0.004240 -0.003347 -0.000001 0.034530 0.000002
# 6 0.000000 -0.000001 0.000000 -0.053366 0.000002 0.161184
#
#
# Mechanical properties :
#
#
# Convention : Reuss Voigt Hill
#
# Bulk Modulus (GPa) = 49.66079 68.74163 59.20121
# Shear Modulus (GPa) = 15.88699 30.22927 23.05813
#
# Velocity S-wave (km/s) = 2.67569 3.69087 3.22349
# Velocity P-wave (km/s) = 5.65021 7.01007 6.36655
#
# Compressibility (1/GPa) = 0.02013661
#
# Stress axis : x y z
#
# Youngs Moduli (GPa) = 64.47682 68.56069 71.06056
#
# Poissons Ratio (x) = 0.12525 0.09096
# Poissons Ratio (y) = 0.11779 0.63304
# Poissons Ratio (z) = 0.08254 0.61077
#
# Static dielectric constant tensor:
#      x y z
#    x 1.859740 0.000000 -0.062050 
#    y 0.000000 1.757080 0.000000 
#    z -0.062050 0.000000 1.807540 
# 
# From -- ./inp_files/15847.got.cif
#   From: 2010.05.17/outbox.cif.g08.bks.cpg/sg8_8_cif.got.tgz:15847.got - 2010.06.03 19:46:02.
