data_PCOD9132164
_publ_section_title
;
Structure prediction by ZEFSAII (Michael W. Deem and Ramdas Pophale) SiO2 
 PCOD9132164
Probable space group: C M
;
_chemical_formula_sum "Si O2"
_cell_formula_units_Z 28
_cell_length_a 8.313134
_cell_length_b 16.909764
_cell_length_c 14.655104
_cell_angle_alpha 90.000000
_cell_angle_beta 137.555452
_cell_angle_gamma 90.000000
_cell_volume 1390.322127
_symmetry_space_group_name_H-M "C M"
_symmetry_group_IT_number 8
_symmetry_cell_setting 'monoclinic'
loop_
_space_group_symop_operation_xyz
x,y,z
x,-y,z
1/2+x,1/2+y,z
1/2+x,1/2-y,z
loop_
_atom_site_type_symbol
_atom_site_label
_atom_site_fract_x
_atom_site_fract_y
_atom_site_fract_z
Si Si1 0.712750 0.906721 0.839080
Si Si2 0.106718 0.136427 0.268351
Si Si3 0.950628 0.410650 0.262554
Si Si4 0.599200 0.096565 0.996106
Si Si5 0.714241 0.404318 0.973332
Si Si6 0.837165 0.788145 0.435599
Si Si7 0.304124 0.854168 0.537026
O O1 0.489762 0.896463 0.678864
O O2 0.952469 0.873613 0.891612
O O3 0.758146 0.000000 0.871504
O O4 0.644179 0.875766 0.911050
O O5 0.213719 0.095746 0.224071
O O6 0.197290 0.227382 0.309676
O O7 0.226849 0.102685 0.410924
O O8 0.824711 0.126746 0.148829
O O9 0.040163 0.500000 0.300940
O O10 0.144550 0.352148 0.385064
O O11 0.883058 0.389125 0.131123
O O12 0.602403 0.000000 0.999195
O O13 0.353106 0.123152 0.940967
O O14 0.694300 0.500000 0.956427
O O15 0.912901 0.729507 0.548097
O O16 0.058776 0.831025 0.483431
#
# Coordination Sequence:
#
# PCOD9132164 Si02
#       7
#     4   4   4   4   4   4   4
#     4  10  21  39  61  89 126 165 207 258 312 374
#     4  10  19  37  63  91 123 165 200 263 313 373
#     4  11  20  36  66  98 125 161 212 264 316 373
#     4  10  19  36  63  94 124 161 209 259 313 376
#     4   9  19  35  59  91 126 157 200 262 313 365
#     4  10  21  41  59  86 126 163 207 263 316 364
#     4  10  22  40  62  81 127 168 207 257 317 375
#
# _framework density 20.139216999999999
#
# number of rings (size 3 to 8) (size 9 to 14) (size 15 to 20)
#    0.857    1.143    2.857    1.286    0.000    1.714 
#    5.143    1.429    0.000    0.000    0.000    0.000 
#    0.000    0.000    0.000    0.000    0.000    0.000 
#
# Total GULP energy -78011.320709 kJ/mol
# GULP energy per Si atom -5572.237193 kJ/mol
# Density = 2.009338 g / cm^3
# Si number density = 20.139217 Si / 1000 Ang^3
#
#
#
# Elastic Constant Matrix: (Units=GPa)
#
#
# Indices 1 2 3 4 5 6 
#
# 1 156.0436 7.5779 43.6464 0.0001 4.4676 0.0001
# 2 7.5779 22.5170 0.2720 0.0000 6.0037 0.0000
# 3 43.6464 0.2720 72.0214 -0.0007 -10.0077 -0.0004
# 4 0.0001 0.0000 -0.0007 -32.0807 -0.0001 -35.8048
# 5 4.4676 6.0037 -10.0077 -0.0001 10.3257 0.0000
# 6 0.0001 0.0000 -0.0004 -35.8048 0.0000 -9.5817
#
#
#
# Elastic Compliance Matrix: (Units=1/GPa)
#
#
# Indices 1 2 3 4 5 6 
#
# 1 0.008534 -0.000135 -0.006557 0.000000 -0.009969 0.000000
# 2 -0.000135 0.054258 -0.005199 0.000000 -0.036528 0.000000
# 3 -0.006557 -0.005199 0.021601 0.000000 0.026796 0.000000
# 4 0.000000 0.000000 0.000000 0.009832 0.000000 -0.036738
# 5 -0.009969 -0.036528 0.026796 0.000000 0.148367 0.000000
# 6 0.000000 0.000000 0.000000 -0.036738 0.000000 0.032917
#
#
# Mechanical properties :
#
#
# Convention : Reuss Voigt Hill
#
# Bulk Modulus (GPa) = 16.49811 39.28608 27.89210
# Shear Modulus (GPa) = 15.64971 7.00504 11.32737
#
# Velocity S-wave (km/s) = 2.79063 1.86705 2.37418
# Velocity P-wave (km/s) = 4.31200 4.91909 4.62551
#
# Compressibility (1/GPa) = 0.06061300
#
# Stress axis : x y z
#
# Youngs Moduli (GPa) = 117.17308 18.43036 46.29362
#
# Poissons Ratio (x) = 0.00249 0.30353
# Poissons Ratio (y) = 0.01582 0.24067
# Poissons Ratio (z) = 0.76827 0.09581
#
# Static dielectric constant tensor:
#      x y z
#    x 1.768970 0.000000 -0.013840 
#    y 0.000000 1.742520 0.000000 
#    z -0.013840 0.000000 1.675130 
# 
# From -- ./inp_files/25515.got.cif
#   From: 2010.05.17/outbox.cif.g08.bks.cpg/sg8_13_cif.got.tgz:25515.got - 2010.06.03 19:46:02.
