data_PCOD9132695
_publ_section_title
;
Structure prediction by ZEFSAII (Michael W. Deem and Ramdas Pophale) SiO2 
 PCOD9132695
Probable space group: C M
;
_chemical_formula_sum "Si O2"
_cell_formula_units_Z 20
_cell_length_a 21.629385
_cell_length_b 8.145773
_cell_length_c 5.190016
_cell_angle_alpha 90.000000
_cell_angle_beta 121.909661
_cell_angle_gamma 90.000000
_cell_volume 776.234227
_symmetry_space_group_name_H-M "C M"
_symmetry_group_IT_number 8
_symmetry_cell_setting 'monoclinic'
loop_
_space_group_symop_operation_xyz
x,y,z
x,-y,z
1/2+x,1/2+y,z
1/2+x,1/2-y,z
loop_
_atom_site_type_symbol
_atom_site_label
_atom_site_fract_x
_atom_site_fract_y
_atom_site_fract_z
Si Si1 0.805470 0.801978 0.978760
Si Si2 0.583888 0.185064 0.298942
Si Si3 0.442763 0.500000 0.727421
Si Si4 0.544886 0.500000 0.461823
Si Si5 0.911409 0.323426 0.842722
Si Si6 0.213719 0.304621 0.255142
O O1 0.758223 0.773674 0.614823
O O2 0.817943 0.000000 0.022891
O O3 0.880107 0.713063 0.058341
O O4 0.756249 0.736282 0.103430
O O5 0.588701 0.331509 0.514966
O O6 0.498998 0.169752 0.041846
O O7 0.631795 0.238503 0.159651
O O8 0.608006 0.000000 0.435431
O O9 0.487403 0.500000 0.094763
O O10 0.394885 0.664179 0.633377
O O11 0.498435 0.500000 0.617616
O O12 0.884376 0.500000 0.693211
O O13 0.212003 0.500000 0.205138
#
# Coordination Sequence:
#
# PCOD9132695 Si02
#       6
#     4   4   2   2   4   4
#     4  10  20  39  62  88 124 165 204 253 308 370
#     4   9  20  41  65  93 126 162 211 260 308 369
#     4  10  22  40  60  90 126 158 201 252 307 368
#     4  10  22  38  62  92 122 160 199 252 315 358
#     4  10  21  40  66  94 126 164 208 260 312 368
#     4   9  20  38  63  88 121 167 206 250 311 366
#
# _framework density 25.765419000000001
#
# number of rings (size 3 to 8) (size 9 to 14) (size 15 to 20)
#    0.000    2.400    1.000    0.000    0.000    7.200 
#    3.600   10.000    0.000    0.000    0.000    0.000 
#    0.000    0.000    0.000    0.000    0.000    0.000 
#
# Total GULP energy -55926.447074 kJ/mol
# GULP energy per Si atom -5592.644707 kJ/mol
# Density = 2.570678 g / cm^3
# Si number density = 25.765419 Si / 1000 Ang^3
#
#
#
# Elastic Constant Matrix: (Units=GPa)
#
#
# Indices 1 2 3 4 5 6 
#
# 1 254.5517 43.1289 67.4323 0.0000 -50.6158 0.0000
# 2 43.1289 187.4300 23.2267 0.0000 -35.6650 0.0000
# 3 67.4323 23.2267 94.6966 0.0000 -33.1660 0.0000
# 4 0.0000 0.0000 0.0000 12.6461 0.0000 -8.5691
# 5 -50.6158 -35.6650 -33.1660 0.0000 54.6225 0.0000
# 6 0.0000 0.0000 0.0000 -8.5691 0.0000 31.5027
#
#
#
# Elastic Compliance Matrix: (Units=1/GPa)
#
#
# Indices 1 2 3 4 5 6 
#
# 1 0.005289 -0.000300 -0.002597 0.000000 0.003129 0.000000
# 2 -0.000300 0.006110 0.000019 0.000000 0.003723 0.000000
# 3 -0.002597 0.000019 0.014690 0.000000 0.006525 0.000000
# 4 0.000000 0.000000 0.000000 0.096944 0.000000 0.026370
# 5 0.003129 0.003723 0.006525 0.000000 0.027600 0.000000
# 6 0.000000 0.000000 0.000000 0.026370 0.000000 0.038916
#
#
# Mechanical properties :
#
#
# Convention : Reuss Voigt Hill
#
# Bulk Modulus (GPa) = 49.17994 89.36157 69.27076
# Shear Modulus (GPa) = 24.74207 46.61362 35.67784
#
# Velocity S-wave (km/s) = 3.10220 4.25803 3.72522
# Velocity P-wave (km/s) = 5.65337 7.67675 6.74140
#
# Compressibility (1/GPa) = 0.02033349
#
# Stress axis : x y z
#
# Youngs Moduli (GPa) = 189.05700 163.65303 68.07238
#
# Poissons Ratio (x) = 0.04909 0.17680
# Poissons Ratio (y) = 0.05671 -0.00128
# Poissons Ratio (z) = 0.49102 -0.00309
#
# Static dielectric constant tensor:
#      x y z
#    x 2.054460 0.000000 0.078230 
#    y 0.000000 2.132880 0.000000 
#    z 0.078230 0.000000 2.160320 
# 
# From -- ./inp_files/4495.got.cif
#   From: 2010.05.17/outbox.cif.g08.bks.cpg/sg8_3_cif.got.tgz:4495.got - 2010.06.03 19:46:02.
