data_PCOD9132130
_publ_section_title
;
Structure prediction by ZEFSAII (Michael W. Deem and Ramdas Pophale) SiO2 
 PCOD9132130
Probable space group: C M
;
_chemical_formula_sum "Si O2"
_cell_formula_units_Z 28
_cell_length_a 12.511471
_cell_length_b 13.445700
_cell_length_c 13.684332
_cell_angle_alpha 90.000000
_cell_angle_beta 34.815941
_cell_angle_gamma 90.000000
_cell_volume 1314.338989
_symmetry_space_group_name_H-M "C M"
_symmetry_group_IT_number 8
_symmetry_cell_setting 'monoclinic'
loop_
_space_group_symop_operation_xyz
x,y,z
x,-y,z
1/2+x,1/2+y,z
1/2+x,1/2-y,z
loop_
_atom_site_type_symbol
_atom_site_label
_atom_site_fract_x
_atom_site_fract_y
_atom_site_fract_z
Si Si1 0.060010 0.888590 0.049060
Si Si2 0.983508 0.185745 0.595863
Si Si3 0.258151 0.616178 0.136868
Si Si4 0.833011 0.318311 0.444381
Si Si5 0.741150 0.884698 0.598698
Si Si6 0.331125 0.110455 0.654813
Si Si7 0.366874 0.757448 0.889482
O O1 0.850882 0.863890 0.172612
O O2 0.066325 0.000000 0.084589
O O3 0.184740 0.888747 0.854494
O O4 0.167073 0.811811 0.035568
O O5 0.861764 0.126325 0.608308
O O6 0.974215 0.300537 0.567913
O O7 0.888789 0.193675 0.773802
O O8 0.195180 0.153227 0.459675
O O9 0.292506 0.500000 0.091071
O O10 0.040352 0.639105 0.287984
O O11 0.365980 0.686853 0.981986
O O12 0.829311 0.198452 0.460405
O O13 0.750119 0.362329 0.609017
O O14 0.530707 0.840688 0.770240
O O15 0.737475 0.000000 0.570848
O O16 0.413819 0.000000 0.588526
#
# Coordination Sequence:
#
# PCOD9132130 Si02
#       7
#     4   4   4   4   4   4   4
#     4   9  18  34  57  80 104 138 182 230 274 314
#     4   9  19  34  54  80 108 140 180 227 269 315
#     4  11  23  37  54  80 114 149 181 217 266 324
#     4  10  21  36  53  79 114 146 180 221 264 321
#     4  10  21  38  60  83 107 139 182 229 274 319
#     4   9  17  33  58  81 100 135 187 234 272 312
#     4  10  19  36  58  83 109 139 180 228 271 321
#
# _framework density 21.303484999999998
#
# number of rings (size 3 to 8) (size 9 to 14) (size 15 to 20)
#    0.000    2.286    0.000    4.286    0.000    7.429 
#    0.000    3.571    0.000    0.000    0.000    0.000 
#    0.000    0.000    0.000    0.000    0.000    0.000 
#
# Total GULP energy -78118.469934 kJ/mol
# GULP energy per Si atom -5579.890710 kJ/mol
# Density = 2.125500 g / cm^3
# Si number density = 21.303485 Si / 1000 Ang^3
#
#
#
# Elastic Constant Matrix: (Units=GPa)
#
#
# Indices 1 2 3 4 5 6 
#
# 1 90.1088 12.8767 -1.5857 -0.0003 -26.7213 0.0002
# 2 12.8767 100.3358 8.8899 -0.0005 -6.6362 0.0005
# 3 -1.5857 8.8899 35.9096 -0.0015 -16.1454 0.0012
# 4 -0.0003 -0.0005 -0.0015 20.1645 0.0008 -9.1378
# 5 -26.7213 -6.6362 -16.1454 0.0008 35.1901 -0.0005
# 6 0.0002 0.0005 0.0012 -9.1378 -0.0005 12.3883
#
#
#
# Elastic Compliance Matrix: (Units=1/GPa)
#
#
# Indices 1 2 3 4 5 6 
#
# 1 0.016148 -0.001761 0.008205 0.000000 0.015694 0.000000
# 2 -0.001761 0.010408 -0.002990 0.000000 -0.000747 0.000000
# 3 0.008205 -0.002990 0.039684 0.000001 0.023874 -0.000002
# 4 0.000000 0.000000 0.000001 0.074491 0.000000 0.054946
# 5 0.015694 -0.000747 0.023874 0.000000 0.051147 -0.000001
# 6 0.000000 0.000000 -0.000002 0.054946 -0.000001 0.121250
#
#
# Mechanical properties :
#
#
# Convention : Reuss Voigt Hill
#
# Bulk Modulus (GPa) = 13.67084 29.63512 21.65298
# Shear Modulus (GPa) = 15.12384 27.29347 21.20865
#
# Velocity S-wave (km/s) = 2.66733 3.58323 3.15865
# Velocity P-wave (km/s) = 3.98965 5.57320 4.84654
#
# Compressibility (1/GPa) = 0.07314837
#
# Stress axis : x y z
#
# Youngs Moduli (GPa) = 61.92778 96.07872 25.19878
#
# Poissons Ratio (x) = 0.16923 -0.20677
# Poissons Ratio (y) = 0.10908 0.07535
# Poissons Ratio (z) = -0.50814 0.28729
#
# Static dielectric constant tensor:
#      x y z
#    x 1.799380 0.000000 -0.003380 
#    y 0.000000 1.753200 0.000000 
#    z -0.003380 0.000000 1.837210 
# 
# From -- ./inp_files/26079.got.cif
#   From: 2010.05.17/outbox.cif.g08.bks.cpg/sg8_14_cif.got.tgz:26079.got - 2010.06.03 19:46:02.
