data_PCOD9132158
_publ_section_title
;
Structure prediction by ZEFSAII (Michael W. Deem and Ramdas Pophale) SiO2 
 PCOD9132158
Probable space group: C M
;
_chemical_formula_sum "Si O2"
_cell_formula_units_Z 26
_cell_length_a 7.194336
_cell_length_b 15.756967
_cell_length_c 18.358821
_cell_angle_alpha 90.000000
_cell_angle_beta 39.184892
_cell_angle_gamma 90.000000
_cell_volume 1314.936845
_symmetry_space_group_name_H-M "C M"
_symmetry_group_IT_number 8
_symmetry_cell_setting 'monoclinic'
loop_
_space_group_symop_operation_xyz
x,y,z
x,-y,z
1/2+x,1/2+y,z
1/2+x,1/2-y,z
loop_
_atom_site_type_symbol
_atom_site_label
_atom_site_fract_x
_atom_site_fract_y
_atom_site_fract_z
Si Si1 0.453490 0.145216 0.891440
Si Si2 0.202340 0.000000 0.760202
Si Si3 0.760706 0.669997 0.168120
Si Si4 0.725074 0.410437 0.322160
Si Si5 0.333266 0.346511 0.921087
Si Si6 0.342093 0.500000 0.717295
Si Si7 0.882235 0.134730 0.141996
Si Si8 0.402606 0.500000 0.538655
O O1 0.431057 0.247413 0.886384
O O2 0.631738 0.138680 0.912129
O O3 0.635578 0.084101 0.783231
O O4 0.129898 0.109022 0.008125
O O5 0.088604 0.084297 0.836780
O O6 0.050079 0.000000 0.725692
O O7 0.551297 0.000000 0.645765
O O8 0.653798 0.658024 0.282980
O O9 0.803859 0.769299 0.142927
O O10 0.545162 0.634816 0.171212
O O11 0.096881 0.636436 0.057166
O O12 0.674954 0.500000 0.296683
O O13 0.529244 0.420381 0.453722
O O14 0.066031 0.407535 0.240484
O O15 0.506206 0.500000 0.590398
#
# Coordination Sequence:
#
# PCOD9132158 Si02
#       8
#     4   2   4   4   4   2   4   2
#     4   9  20  35  59  95 121 149 192 237 309 375
#     4  10  22  41  61  81 123 158 197 252 298 338
#     4  10  19  36  62  91 125 151 184 247 307 368
#     4  10  24  39  56  87 117 154 214 240 286 353
#     4   9  20  35  59  95 121 149 192 237 309 375
#     4  10  22  41  61  81 123 158 197 252 298 338
#     4  10  19  36  62  91 125 151 184 247 307 368
#     4  10  26  42  58  82 112 160 222 244 270 348
#
# _framework density 19.772814
#
# number of rings (size 3 to 8) (size 9 to 14) (size 15 to 20)
#    0.462    1.846    1.538    0.000    6.462    1.846 
#    0.000    1.538    0.000    0.000    0.000    0.000 
#    0.000    0.000    0.000    0.000    0.000    0.000 
#
# Total GULP energy -72386.128074 kJ/mol
# GULP energy per Si atom -5568.163698 kJ/mol
# Density = 1.972781 g / cm^3
# Si number density = 19.772814 Si / 1000 Ang^3
#
#
#
# Elastic Constant Matrix: (Units=GPa)
#
#
# Indices 1 2 3 4 5 6 
#
# 1 74.2894 -6.4473 17.9567 0.0069 4.4729 -0.0048
# 2 -6.4473 53.5177 28.6540 0.0124 -2.9112 0.0023
# 3 17.9567 28.6540 102.0002 0.0838 6.5411 -0.0086
# 4 0.0069 0.0124 0.0838 44.1416 -0.0147 -5.4038
# 5 4.4729 -2.9112 6.5411 -0.0147 35.6663 0.0079
# 6 -0.0048 0.0023 -0.0086 -5.4038 0.0079 17.1502
#
#
#
# Elastic Compliance Matrix: (Units=1/GPa)
#
#
# Indices 1 2 3 4 5 6 
#
# 1 0.014686 0.003618 -0.003544 0.000004 -0.000896 0.000003
# 2 0.003618 0.023199 -0.007332 0.000007 0.002785 -0.000005
# 3 -0.003544 -0.007332 0.012646 -0.000022 -0.002473 0.000001
# 4 0.000004 0.000007 -0.000022 0.023563 0.000012 0.007424
# 5 -0.000896 0.002785 -0.002473 0.000012 0.028831 -0.000011
# 6 0.000003 -0.000005 0.000001 0.007424 -0.000011 0.060648
#
#
# Mechanical properties :
#
#
# Convention : Reuss Voigt Hill
#
# Bulk Modulus (GPa) = 27.76765 34.45933 31.11349
# Shear Modulus (GPa) = 26.30279 32.03458 29.16868
#
# Velocity S-wave (km/s) = 3.65122 4.02945 3.84499
# Velocity P-wave (km/s) = 5.64349 6.25413 5.95664
#
# Compressibility (1/GPa) = 0.03601313
#
# Stress axis : x y z
#
# Youngs Moduli (GPa) = 68.09430 43.10599 79.07442
#
# Poissons Ratio (x) = -0.15596 0.28026
# Poissons Ratio (y) = -0.24637 0.57981
# Poissons Ratio (z) = 0.24134 0.31607
#
# Static dielectric constant tensor:
#      x y z
#    x 1.726690 0.000000 0.000710 
#    y 0.000000 1.722130 -0.000010 
#    z 0.000710 -0.000010 1.696690 
# 
# From -- ./inp_files/28627.got.cif
#   From: 2010.05.17/outbox.cif.g08.bks.cpg/sg8_15_cif.got.tgz:28627.got - 2010.06.03 19:46:02.
