data_PCOD9132252
_publ_section_title
;
Structure prediction by ZEFSAII (Michael W. Deem and Ramdas Pophale) SiO2 
 PCOD9132252
Probable space group: C M
;
_chemical_formula_sum "Si O2"
_cell_formula_units_Z 32
_cell_length_a 25.613901
_cell_length_b 8.811066
_cell_length_c 19.265126
_cell_angle_alpha 90.000000
_cell_angle_beta 19.157113
_cell_angle_gamma 90.000000
_cell_volume 1426.793894
_symmetry_space_group_name_H-M "C M"
_symmetry_group_IT_number 8
_symmetry_cell_setting 'monoclinic'
loop_
_space_group_symop_operation_xyz
x,y,z
x,-y,z
1/2+x,1/2+y,z
1/2+x,1/2-y,z
loop_
_atom_site_type_symbol
_atom_site_label
_atom_site_fract_x
_atom_site_fract_y
_atom_site_fract_z
Si Si1 0.453810 0.680048 0.752600
Si Si2 0.109917 0.682709 0.185727
Si Si3 0.447290 0.319391 0.262642
Si Si4 0.793154 0.319422 0.667772
Si Si5 0.137372 0.183064 0.722456
Si Si6 0.287536 0.682353 0.330482
Si Si7 0.287125 0.682725 0.170560
Si Si8 0.451927 0.678003 0.588863
O O1 0.471207 0.500000 0.744423
O O2 0.614823 0.761230 0.572533
O O3 0.439005 0.703128 0.687682
O O4 0.282600 0.733349 0.995382
O O5 0.113780 0.500000 0.179390
O O6 0.073520 0.740157 0.153951
O O7 0.958031 0.726950 0.422041
O O8 0.472047 0.500000 0.233583
O O9 0.276126 0.274852 0.510884
O O10 0.425025 0.268484 0.210897
O O11 0.792139 0.500000 0.679390
O O12 0.660256 0.287814 0.776574
O O13 0.809030 0.245364 0.722820
O O14 0.162617 0.000000 0.681376
O O15 0.958883 0.221609 0.923251
O O16 0.289237 0.500000 0.328384
O O17 0.300960 0.731507 0.234075
O O18 0.274298 0.500000 0.183282
O O19 0.120849 0.749257 0.354282
O O20 0.458295 0.500000 0.569024
#
# Coordination Sequence:
#
# PCOD9132252 Si02
#       8
#     4   4   4   4   4   4   4   4
#     4   9  19  35  53  73  98 130 168 206 243 288
#     4   9  19  36  54  72  97 131 171 206 237 287
#     4  10  20  33  51  77 105 129 158 202 253 297
#     4   9  18  33  52  73  97 128 166 205 243 289
#     4   9  19  35  54  74  97 130 170 205 239 288
#     4   9  19  34  51  74 102 130 163 203 246 293
#     4   9  18  35  55  72  96 132 170 204 239 287
#     4  10  20  33  50  75 104 130 160 203 252 295
#
# _framework density 22.427904999999999
#
# number of rings (size 3 to 8) (size 9 to 14) (size 15 to 20)
#    0.000    2.750    0.000    1.500    0.000    6.500 
#    0.000    5.000    0.000    0.000    0.000    0.000 
#    0.000    0.000    0.000    0.000    0.000    0.000 
#
# Total GULP energy -89340.962365 kJ/mol
# GULP energy per Si atom -5583.810148 kJ/mol
# Density = 2.237686 g / cm^3
# Si number density = 22.427905 Si / 1000 Ang^3
#
#
#
# Elastic Constant Matrix: (Units=GPa)
#
#
# Indices 1 2 3 4 5 6 
#
# 1 94.2113 7.8514 -0.3157 0.0000 -21.7319 0.0000
# 2 7.8514 -21.0064 2.0010 -0.0003 1.3921 0.0000
# 3 -0.3157 2.0010 81.0559 -0.0002 -21.9427 0.0000
# 4 0.0000 -0.0003 -0.0002 14.9192 0.0000 -8.2312
# 5 -21.7319 1.3921 -21.9427 0.0000 34.4456 0.0000
# 6 0.0000 0.0000 0.0000 -8.2312 0.0000 23.0489
#
#
#
# Elastic Compliance Matrix: (Units=1/GPa)
#
#
# Indices 1 2 3 4 5 6 
#
# 1 0.012251 0.005400 0.002354 0.000000 0.009010 0.000000
# 2 0.005400 -0.044818 0.003069 -0.000001 0.007174 0.000000
# 3 0.002354 0.003069 0.015273 0.000000 0.011090 0.000000
# 4 0.000000 -0.000001 0.000000 0.083474 0.000000 0.029810
# 5 0.009010 0.007174 0.011090 0.000000 0.041490 0.000000
# 6 0.000000 0.000000 0.000000 0.029810 0.000000 0.054032
#
#
# Mechanical properties :
#
#
# Convention : Reuss Voigt Hill
#
# Bulk Modulus (GPa) = 229.82603 19.25934 124.54269
# Shear Modulus (GPa) = 35.33416 24.13100 29.73258
#
# Velocity S-wave (km/s) = 3.97351 3.28371 3.64496
# Velocity P-wave (km/s) = 11.12418 4.79404 8.56534
#
# Compressibility (1/GPa) = 0.00435112
#
# Stress axis : x y z
#
# Youngs Moduli (GPa) = 81.62828 -22.31230 65.47629
#
# Poissons Ratio (x) = 0.12049 -0.15410
# Poissons Ratio (y) = -0.44080 -0.20097
# Poissons Ratio (z) = -0.19211 0.06849
#
# Static dielectric constant tensor:
#      x y z
#    x 1.894100 0.000000 0.052360 
#    y 0.000000 1.749150 0.000000 
#    z 0.052360 0.000000 1.868030 
# 
# From -- ./inp_files/15837.got.cif
#   From: 2010.05.17/outbox.cif.g08.bks.cpg/sg8_8_cif.got.tgz:15837.got - 2010.06.03 19:46:02.
