data_PCOD9132535
_publ_section_title
;
Structure prediction by ZEFSAII (Michael W. Deem and Ramdas Pophale) SiO2 
 PCOD9132535
Probable space group: C M
;
_chemical_formula_sum "Si O2"
_cell_formula_units_Z 32
_cell_length_a 23.184816
_cell_length_b 8.489254
_cell_length_c 28.370025
_cell_angle_alpha 90.000000
_cell_angle_beta 17.729614
_cell_angle_gamma 90.000000
_cell_volume 1700.420935
_symmetry_space_group_name_H-M "C M"
_symmetry_group_IT_number 8
_symmetry_cell_setting 'monoclinic'
loop_
_space_group_symop_operation_xyz
x,y,z
x,-y,z
1/2+x,1/2+y,z
1/2+x,1/2-y,z
loop_
_atom_site_type_symbol
_atom_site_label
_atom_site_fract_x
_atom_site_fract_y
_atom_site_fract_z
Si Si1 0.225000 0.307696 0.986870
Si Si2 0.966241 0.310231 0.365975
Si Si3 0.919372 0.811440 0.553116
Si Si4 0.482426 0.186872 0.608427
Si Si5 0.241520 0.810095 0.228202
Si Si6 0.661865 0.809188 0.928236
Si Si7 0.396032 0.809143 0.314001
Si Si8 0.143121 0.809526 0.691477
O O1 0.224718 0.500000 0.987020
O O2 0.194999 0.257507 0.956323
O O3 0.429628 0.258227 0.847103
O O4 0.054203 0.256422 0.153504
O O5 0.972608 0.500000 0.360825
O O6 0.947353 0.256109 0.326975
O O7 0.782536 0.263232 0.539905
O O8 0.148240 0.249216 0.252548
O O9 0.930054 0.739606 0.596417
O O10 0.735735 0.759164 0.666540
O O11 0.100222 0.760436 0.380523
O O12 0.923961 0.000000 0.553338
O O13 0.327356 0.251168 0.765583
O O14 0.688669 0.253137 0.460929
O O15 0.486690 0.000000 0.607684
O O16 0.240841 0.000000 0.228150
O O17 0.455040 0.756493 0.071391
O O18 0.663134 0.000000 0.926972
O O19 0.394877 0.000000 0.314912
O O20 0.145942 0.000000 0.692369
#
# Coordination Sequence:
#
# PCOD9132535 Si02
#       8
#     4   4   4   4   4   4   4   4
#     4   9  18  34  59  84 109 143 184 224 266 319
#     4   9  18  32  54  81 113 150 183 216 263 319
#     4  10  20  37  59  82 109 145 182 220 268 326
#     4  12  25  38  54  80 110 142 180 229 278 322
#     4   9  19  35  58  84 111 143 182 224 267 316
#     4  10  20  37  58  80 108 146 185 223 268 323
#     4  10  20  37  59  82 108 144 184 222 267 325
#     4   9  17  32  53  81 114 147 182 222 263 312
#
# _framework density 18.818871000000001
#
# number of rings (size 3 to 8) (size 9 to 14) (size 15 to 20)
#    0.000    2.250    0.000    3.000    0.000    6.500 
#    0.000    6.875    0.000    0.000    0.000    0.000 
#    0.000    0.000    0.000    0.000    0.000    0.000 
#
# Total GULP energy -89349.023764 kJ/mol
# GULP energy per Si atom -5584.313985 kJ/mol
# Density = 1.877604 g / cm^3
# Si number density = 18.818871 Si / 1000 Ang^3
#
#
#
# Elastic Constant Matrix: (Units=GPa)
#
#
# Indices 1 2 3 4 5 6 
#
# 1 201.4148 26.2593 120.9811 -0.0071 0.6320 -0.0125
# 2 26.2593 15.1333 24.0795 0.0109 -0.2653 0.0052
# 3 120.9811 24.0795 181.4533 0.0032 -19.9580 -0.0106
# 4 -0.0071 0.0109 0.0032 13.8991 0.0071 -20.1010
# 5 0.6320 -0.2653 -19.9580 0.0071 28.6475 -0.0008
# 6 -0.0125 0.0052 -0.0106 -20.1010 -0.0008 0.8779
#
#
#
# Elastic Compliance Matrix: (Units=1/GPa)
#
#
# Indices 1 2 3 4 5 6 
#
# 1 0.009383 -0.007162 -0.005778 -0.000005 -0.004299 -0.000013
# 2 -0.007162 0.090768 -0.007754 0.000035 -0.004404 0.000073
# 3 -0.005778 -0.007754 0.011262 -0.000005 0.007901 -0.000001
# 4 -0.000005 0.000035 -0.000005 -0.002240 -0.000004 -0.051298
# 5 -0.004299 -0.004404 0.007901 -0.000004 0.040466 0.000012
# 6 -0.000013 0.000073 -0.000001 -0.051298 0.000012 -0.035470
#
#
# Mechanical properties :
#
#
# Convention : Reuss Voigt Hill
#
# Bulk Modulus (GPa) = 14.28100 82.29346 48.28723
# Shear Modulus (GPa) = 27.94877 23.79700 25.87288
#
# Velocity S-wave (km/s) = 3.85794 3.55988 3.71190
# Velocity P-wave (km/s) = 5.23928 7.79238 6.63970
#
# Compressibility (1/GPa) = 0.07002313
#
# Stress axis : x y z
#
# Youngs Moduli (GPa) = 106.57675 11.01707 88.79646
#
# Poissons Ratio (x) = 0.07891 0.51309
# Poissons Ratio (y) = 0.76334 0.68854
# Poissons Ratio (z) = 0.61583 0.08543
#
# Static dielectric constant tensor:
#      x y z
#    x 1.626560 0.000000 0.003270 
#    y 0.000000 1.644070 0.000010 
#    z 0.003270 0.000010 1.632840 
# 
# From -- ./inp_files/15816.got.cif
#   From: 2010.05.17/outbox.cif.g08.bks.cpg/sg8_8_cif.got.tgz:15816.got - 2010.06.03 19:46:02.
