data_PCOD9132012
_publ_section_title
;
Structure prediction by ZEFSAII (Michael W. Deem and Ramdas Pophale) SiO2 
 PCOD9132012
Probable space group: C M
;
_chemical_formula_sum "Si O2"
_cell_formula_units_Z 32
_cell_length_a 20.695302
_cell_length_b 8.615701
_cell_length_c 25.635481
_cell_angle_alpha 90.000000
_cell_angle_beta 156.781007
_cell_angle_gamma 90.000000
_cell_volume 1802.070527
_symmetry_space_group_name_H-M "C M"
_symmetry_group_IT_number 8
_symmetry_cell_setting 'monoclinic'
loop_
_space_group_symop_operation_xyz
x,y,z
x,-y,z
1/2+x,1/2+y,z
1/2+x,1/2-y,z
loop_
_atom_site_type_symbol
_atom_site_label
_atom_site_fract_x
_atom_site_fract_y
_atom_site_fract_z
Si Si1 0.209140 0.314232 0.051770
Si Si2 0.126192 0.312279 0.827877
Si Si3 0.417626 0.815483 0.115791
Si Si4 0.076530 0.813923 0.568115
Si Si5 0.900642 0.311732 0.751802
Si Si6 0.595127 0.686868 0.073495
Si Si7 0.712494 0.812435 0.776863
Si Si8 0.718801 0.314091 0.279559
O O1 0.216506 0.500000 0.055570
O O2 0.355189 0.246878 0.125153
O O3 0.198850 0.256379 0.103056
O O4 0.039941 0.264625 0.897034
O O5 0.137623 0.500000 0.838341
O O6 0.127680 0.267491 0.768609
O O7 0.970294 0.263790 0.747092
O O8 0.286385 0.248491 0.976177
O O9 0.594594 0.755441 0.229792
O O10 0.413407 0.000000 0.112514
O O11 0.222566 0.758740 0.637862
O O12 0.132864 0.766328 0.667816
O O13 0.903205 0.739765 0.425897
O O14 0.064266 0.000000 0.555561
O O15 0.897103 0.500000 0.749666
O O16 0.604054 0.500000 0.077820
O O17 0.657639 0.736435 0.176691
O O18 0.404474 0.730199 0.924250
O O19 0.702630 0.000000 0.764091
O O20 0.708043 0.500000 0.273882
#
# Coordination Sequence:
#
# PCOD9132012 Si02
#       8
#     4   4   4   4   4   4   4   4
#     4  10  19  34  57  84 114 149 186 232 285 341
#     4   9  17  34  57  82 111 149 191 232 280 337
#     4  11  21  34  55  85 116 147 186 239 289 337
#     4  11  22  37  55  83 116 150 191 239 284 337
#     4   8  16  31  53  79 109 143 182 226 274 327
#     4  10  20  35  57  85 114 145 192 243 282 329
#     4  10  19  34  57  84 113 148 189 235 284 337
#     4  11  23  41  59  80 113 157 195 234 286 345
#
# _framework density 17.757349999999999
#
# number of rings (size 3 to 8) (size 9 to 14) (size 15 to 20)
#    0.000    2.000    2.500    3.000    0.000    1.500 
#    0.000    1.875    0.000    4.500    0.000    0.000 
#    0.000    0.000    0.000    0.000    0.000    0.000 
#
# Total GULP energy -89303.591459 kJ/mol
# GULP energy per Si atom -5581.474466 kJ/mol
# Density = 1.771693 g / cm^3
# Si number density = 17.757350 Si / 1000 Ang^3
#
#
#
# Elastic Constant Matrix: (Units=GPa)
#
#
# Indices 1 2 3 4 5 6 
#
# 1 150.5156 34.6872 63.5029 -0.0005 24.3706 -0.0001
# 2 34.6872 35.1613 24.3007 -0.0003 3.4517 -0.0001
# 3 63.5029 24.3007 99.9548 -0.0011 16.7110 -0.0002
# 4 -0.0005 -0.0003 -0.0011 22.6282 -0.0001 0.8185
# 5 24.3706 3.4517 16.7110 -0.0001 29.7507 0.0000
# 6 -0.0001 -0.0001 -0.0002 0.8185 0.0000 25.6007
#
#
#
# Elastic Compliance Matrix: (Units=1/GPa)
#
#
# Indices 1 2 3 4 5 6 
#
# 1 0.011103 -0.007427 -0.004273 0.000000 -0.005833 0.000000
# 2 -0.007427 0.039169 -0.005586 0.000000 0.004677 0.000000
# 3 -0.004273 -0.005586 0.014771 0.000001 -0.004149 0.000000
# 4 0.000000 0.000000 0.000001 0.044244 0.000000 -0.001415
# 5 -0.005833 0.004677 -0.004149 0.000000 0.040179 0.000000
# 6 0.000000 0.000000 0.000000 -0.001415 0.000000 0.039107
#
#
# Mechanical properties :
#
#
# Convention : Reuss Voigt Hill
#
# Bulk Modulus (GPa) = 32.81894 58.95702 45.88798
# Shear Modulus (GPa) = 21.43165 26.47199 23.95182
#
# Velocity S-wave (km/s) = 3.47784 3.86523 3.67664
# Velocity P-wave (km/s) = 5.88636 7.29339 6.62732
#
# Compressibility (1/GPa) = 0.03047021
#
# Stress axis : x y z
#
# Youngs Moduli (GPa) = 90.06847 25.53048 67.70167
#
# Poissons Ratio (x) = 0.18962 0.28927
# Poissons Ratio (y) = 0.66897 0.37817
# Poissons Ratio (z) = 0.38484 0.14261
#
# Static dielectric constant tensor:
#      x y z
#    x 1.616000 0.000000 0.014770 
#    y 0.000000 1.597430 0.000000 
#    z 0.014770 0.000000 1.577730 
# 
# From -- ./inp_files/23759.got.cif
#   From: 2010.05.17/outbox.cif.g08.bks.cpg/sg8_12_cif.got.tgz:23759.got - 2010.06.03 19:46:02.
