data_PCOD9132929
_publ_section_title
;
Structure prediction by ZEFSAII (Michael W. Deem and Ramdas Pophale) SiO2 
 PCOD9132929
Probable space group: C M
;
_chemical_formula_sum "Si O2"
_cell_formula_units_Z 32
_cell_length_a 32.233012
_cell_length_b 8.719256
_cell_length_c 12.470808
_cell_angle_alpha 90.000000
_cell_angle_beta 152.908980
_cell_angle_gamma 90.000000
_cell_volume 1596.147664
_symmetry_space_group_name_H-M "C M"
_symmetry_group_IT_number 8
_symmetry_cell_setting 'monoclinic'
loop_
_space_group_symop_operation_xyz
x,y,z
x,-y,z
1/2+x,1/2+y,z
1/2+x,1/2-y,z
loop_
_atom_site_type_symbol
_atom_site_label
_atom_site_fract_x
_atom_site_fract_y
_atom_site_fract_z
Si Si1 0.441950 0.683973 0.983370
Si Si2 0.734490 0.179728 0.852503
Si Si3 0.936808 0.820818 0.218155
Si Si4 0.309155 0.182223 0.232495
Si Si5 0.004167 0.315954 0.585512
Si Si6 0.752825 0.682132 0.499368
Si Si7 0.632716 0.184036 0.409051
Si Si8 0.186354 0.683582 0.128106
O O1 0.432788 0.500000 0.959112
O O2 0.356598 0.760746 0.729333
O O3 0.441716 0.736135 0.107847
O O4 0.538272 0.738151 0.159706
O O5 0.660698 0.228922 0.594849
O O6 0.720099 0.000000 0.846797
O O7 0.832278 0.191581 0.017709
O O8 0.744223 0.276578 0.982424
O O9 0.997311 0.739062 0.447166
O O10 0.961078 0.000000 0.273192
O O11 0.410866 0.232469 0.431036
O O12 0.270319 0.268421 0.245810
O O13 0.309628 0.000000 0.251951
O O14 0.004196 0.500000 0.584171
O O15 0.094190 0.265357 0.855135
O O16 0.749363 0.500000 0.502172
O O17 0.710122 0.761242 0.505852
O O18 0.698045 0.737674 0.269444
O O19 0.626294 0.000000 0.391410
O O20 0.183801 0.500000 0.135263
#
# Coordination Sequence:
#
# PCOD9132929 Si02
#       8
#     4   4   4   4   4   4   4   4
#     4  11  23  41  63  94 128 166 211 260 318 379
#     4   9  18  36  60  88 125 166 203 248 312 374
#     4   9  18  35  60  89 125 162 200 251 308 366
#     4  10  21  38  60  91 125 159 205 258 307 369
#     4   9  21  39  60  88 122 161 202 248 307 369
#     4  12  26  45  66  91 124 167 216 268 320 376
#     4  11  23  41  64  93 128 168 211 262 316 376
#     4  11  24  43  65  88 121 167 210 257 314 379
#
# _framework density 20.048269999999999
#
# number of rings (size 3 to 8) (size 9 to 14) (size 15 to 20)
#    0.000    1.750    1.250    2.625    1.750    4.500 
#    0.000    3.750    0.000    0.000    0.000    0.000 
#    0.000    0.000    0.000    0.000    0.000    0.000 
#
# Total GULP energy -89434.094303 kJ/mol
# GULP energy per Si atom -5589.630894 kJ/mol
# Density = 2.000264 g / cm^3
# Si number density = 20.048270 Si / 1000 Ang^3
#
#
#
# Elastic Constant Matrix: (Units=GPa)
#
#
# Indices 1 2 3 4 5 6 
#
# 1 29.8128 4.5489 0.7340 0.0000 -8.3069 0.0000
# 2 4.5489 33.7029 15.2460 0.0000 -7.4772 0.0000
# 3 0.7340 15.2460 100.3117 0.0000 -9.6184 0.0000
# 4 0.0000 0.0000 0.0000 26.8307 0.0000 -2.9707
# 5 -8.3069 -7.4772 -9.6184 0.0000 27.5274 0.0000
# 6 0.0000 0.0000 0.0000 -2.9707 0.0000 31.1710
#
#
#
# Elastic Compliance Matrix: (Units=1/GPa)
#
#
# Indices 1 2 3 4 5 6 
#
# 1 0.036987 -0.003172 0.001241 0.000000 0.010733 0.000000
# 2 -0.003172 0.033577 -0.004446 0.000000 0.006610 0.000000
# 3 0.001241 -0.004446 0.010922 0.000000 0.002983 0.000000
# 4 0.000000 0.000000 0.000000 0.037668 0.000000 0.003590
# 5 0.010733 0.006610 0.002983 0.000000 0.042404 0.000000
# 6 0.000000 0.000000 0.000000 0.003590 0.000000 0.032423
#
#
# Mechanical properties :
#
#
# Convention : Reuss Voigt Hill
#
# Bulk Modulus (GPa) = 14.54971 22.76502 18.65736
# Shear Modulus (GPa) = 21.77262 26.65904 24.21583
#
# Velocity S-wave (km/s) = 3.29904 3.65052 3.47922
# Velocity P-wave (km/s) = 4.66740 5.39890 5.04642
#
# Compressibility (1/GPa) = 0.06872989
#
# Stress axis : x y z
#
# Youngs Moduli (GPa) = 27.03668 29.78237 91.56143
#
# Poissons Ratio (x) = 0.09447 -0.11359
# Poissons Ratio (y) = 0.08576 0.40710
# Poissons Ratio (z) = -0.03354 0.13242
#
# Static dielectric constant tensor:
#      x y z
#    x 1.702920 0.000000 0.019640 
#    y 0.000000 1.669810 0.000000 
#    z 0.019640 0.000000 1.712930 
# 
# From -- ./inp_files/24779.got.cif
#   From: 2010.05.17/outbox.cif.g08.bks.cpg/sg8_13_cif.got.tgz:24779.got - 2010.06.03 19:46:02.
