data_PCOD9132729
_publ_section_title
;
Structure prediction by ZEFSAII (Michael W. Deem and Ramdas Pophale) SiO2 
 PCOD9132729
Probable space group: C M
;
_chemical_formula_sum "Si O2"
_cell_formula_units_Z 28
_cell_length_a 7.114232
_cell_length_b 14.724545
_cell_length_c 17.034463
_cell_angle_alpha 90.000000
_cell_angle_beta 35.459454
_cell_angle_gamma 90.000000
_cell_volume 1035.192705
_symmetry_space_group_name_H-M "C M"
_symmetry_group_IT_number 8
_symmetry_cell_setting 'monoclinic'
loop_
_space_group_symop_operation_xyz
x,y,z
x,-y,z
1/2+x,1/2+y,z
1/2+x,1/2-y,z
loop_
_atom_site_type_symbol
_atom_site_label
_atom_site_fract_x
_atom_site_fract_y
_atom_site_fract_z
Si Si1 0.288120 0.356118 0.977450
Si Si2 0.215635 0.364944 0.312461
Si Si3 0.265032 0.635119 0.563325
Si Si4 0.016991 0.351830 0.904231
Si Si5 0.012319 0.000000 0.085761
Si Si6 0.746885 0.650972 0.601779
Si Si7 0.728446 0.649799 0.275956
Si Si8 0.367019 0.000000 0.786915
O O1 0.046492 0.371256 0.986987
O O2 0.402348 0.251536 0.932859
O O3 0.584885 0.421808 0.869301
O O4 0.082661 0.376871 0.125689
O O5 0.326189 0.422146 0.201016
O O6 0.482016 0.377127 0.290847
O O7 0.215724 0.259117 0.287503
O O8 0.884372 0.385287 0.472347
O O9 0.280815 0.739996 0.582574
O O10 0.593772 0.612998 0.403800
O O11 0.987446 0.622194 0.590223
O O12 0.150290 0.577619 0.674808
O O13 0.378931 0.367170 0.750059
O O14 0.758091 0.423291 0.960905
#
# Coordination Sequence:
#
# PCOD9132729 Si02
#       8
#     4   4   4   4   2   4   4   2
#     4  12  23  40  64  90 125 160 199 250 306 355
#     4  10  22  37  66  85 122 156 210 242 299 356
#     4  10  22  37  66  85 122 156 210 242 299 356
#     4  12  23  40  64  90 125 160 199 250 306 355
#     4  12  23  37  61  98 116 158 206 257 286 363
#     4  10  20  40  60  90 118 166 193 246 305 354
#     4  10  20  40  60  90 118 166 193 246 305 354
#     4  12  23  37  61  98 116 158 206 257 286 363
#
# _framework density 27.048105
#
# number of rings (size 3 to 8) (size 9 to 14) (size 15 to 20)
#    0.000    1.143    5.714    0.429    0.000    3.429 
#    0.000    0.714    0.000   15.429    0.000    0.000 
#    0.000    0.000    0.000    0.000    0.000    0.000 
#
# Total GULP energy -78099.980517 kJ/mol
# GULP energy per Si atom -5578.570037 kJ/mol
# Density = 2.698654 g / cm^3
# Si number density = 27.048105 Si / 1000 Ang^3
#
#
#
# Elastic Constant Matrix: (Units=GPa)
#
#
# Indices 1 2 3 4 5 6 
#
# 1 113.3265 -6.2091 -9.7237 0.0008 3.8167 -0.0013
# 2 -6.2091 119.2045 13.6551 -0.0288 -9.3059 -0.0152
# 3 -9.7237 13.6551 204.2623 0.0068 -23.9572 0.0437
# 4 0.0008 -0.0288 0.0068 40.0764 -0.0021 -29.1145
# 5 3.8167 -9.3059 -23.9572 -0.0021 30.8471 -0.0211
# 6 -0.0013 -0.0152 0.0437 -29.1145 -0.0211 -89.8869
#
#
#
# Elastic Compliance Matrix: (Units=1/GPa)
#
#
# Indices 1 2 3 4 5 6 
#
# 1 0.008896 0.000369 0.000311 0.000000 -0.000748 0.000000
# 2 0.000369 0.008623 -0.000285 0.000004 0.002334 -0.000003
# 3 0.000311 -0.000285 0.005407 0.000000 0.004075 0.000002
# 4 0.000000 0.000004 0.000000 0.020199 -0.000002 -0.006543
# 5 -0.000748 0.002334 0.004075 -0.000002 0.036380 -0.000006
# 6 0.000000 -0.000003 0.000002 -0.006543 -0.000006 -0.009006
#
#
# Mechanical properties :
#
#
# Convention : Reuss Voigt Hill
#
# Bulk Modulus (GPa) = 42.16291 48.02642 45.09466
# Shear Modulus (GPa) = 64.42062 25.47870 44.94966
#
# Velocity S-wave (km/s) = 4.88557 3.07249 4.08099
# Velocity P-wave (km/s) = 6.88818 5.51194 6.23813
#
# Compressibility (1/GPa) = 0.02371753
#
# Stress axis : x y z
#
# Youngs Moduli (GPa) = 112.40783 115.96795 184.92840
#
# Poissons Ratio (x) = -0.04284 -0.05753
# Poissons Ratio (y) = -0.04152 0.05272
# Poissons Ratio (z) = -0.03497 0.03306
#
# Static dielectric constant tensor:
#      x y z
#    x 2.243780 -0.000040 0.080110 
#    y -0.000040 2.202270 0.000040 
#    z 0.080110 0.000040 2.186700 
# 
# From -- ./inp_files/30395.got.cif
#   From: 2010.05.17/outbox.cif.g08.bks.cpg/sg8_16_cif.got.tgz:30395.got - 2010.06.03 19:46:02.
