data_PCOD9132793
_publ_section_title
;
Structure prediction by ZEFSAII (Michael W. Deem and Ramdas Pophale) SiO2 
 PCOD9132793
Probable space group: C M
;
_chemical_formula_sum "Si O2"
_cell_formula_units_Z 32
_cell_length_a 5.042367
_cell_length_b 28.750303
_cell_length_c 13.118444
_cell_angle_alpha 90.000000
_cell_angle_beta 87.487993
_cell_angle_gamma 90.000000
_cell_volume 1899.947811
_symmetry_space_group_name_H-M "C M"
_symmetry_group_IT_number 8
_symmetry_cell_setting 'monoclinic'
loop_
_space_group_symop_operation_xyz
x,y,z
x,-y,z
1/2+x,1/2+y,z
1/2+x,1/2-y,z
loop_
_atom_site_type_symbol
_atom_site_label
_atom_site_fract_x
_atom_site_fract_y
_atom_site_fract_z
Si Si1 0.789520 0.850001 0.171020
Si Si2 0.615920 0.715461 0.283319
Si Si3 0.454183 0.448752 0.209838
Si Si4 0.673901 0.216758 0.558906
Si Si5 0.540617 0.219072 0.779826
Si Si6 0.437260 0.948961 0.353029
Si Si7 0.958575 0.348732 0.390495
Si Si8 0.082235 0.716036 0.005186
O O1 0.879081 0.902743 0.148546
O O2 0.620516 0.849075 0.279927
O O3 0.627903 0.824311 0.085889
O O4 0.048267 0.818573 0.190850
O O5 0.866346 0.749890 0.285191
O O6 0.457385 0.741793 0.550232
O O7 0.687349 0.678920 0.370947
O O8 0.444668 0.500000 0.159933
O O9 0.737590 0.443314 0.260194
O O10 0.234333 0.449752 0.303372
O O11 0.621702 0.195579 0.672375
O O12 0.615850 0.179776 0.472449
O O13 0.235989 0.235698 0.778664
O O14 0.591303 0.196804 0.888995
O O15 0.407011 0.902323 0.418544
O O16 0.380521 0.000000 0.399417
O O17 0.315344 0.753882 0.017454
#
# Coordination Sequence:
#
# PCOD9132793 Si02
#       8
#     4   4   4   4   4   4   4   4
#     4  11  22  32  46  69  95 124 152 185 229 276
#     4  12  22  30  39  60  97 126 144 170 214 270
#     4   9  18  32  47  62  86 119 154 189 221 264
#     4  10  21  31  47  65  90 124 153 186 220 264
#     4   8  16  34  46  60  83 116 161 190 212 250
#     4   9  18  32  47  62  86 119 154 189 221 264
#     4  11  22  32  46  69  95 124 152 185 229 276
#     4  10  21  31  47  65  90 124 153 186 220 264
#
# _framework density 16.842566999999999
#
# number of rings (size 3 to 8) (size 9 to 14) (size 15 to 20)
#    0.000    2.000    2.500    1.500    3.500    0.000 
#    0.000    0.000    0.000    0.000    0.000    0.875 
#    0.000    0.000    0.000   40.750    0.000    0.000 
#
# Total GULP energy -89152.587805 kJ/mol
# GULP energy per Si atom -5572.036738 kJ/mol
# Density = 1.680423 g / cm^3
# Si number density = 16.842567 Si / 1000 Ang^3
#
#
#
# Elastic Constant Matrix: (Units=GPa)
#
#
# Indices 1 2 3 4 5 6 
#
# 1 82.6440 14.3563 6.5465 0.0000 7.5485 0.0000
# 2 14.3563 120.3087 35.2220 0.0000 6.8940 0.0000
# 3 6.5465 35.2220 95.7962 0.0000 10.6095 0.0000
# 4 0.0000 0.0000 0.0000 8.1057 0.0000 -1.7989
# 5 7.5485 6.8940 10.6095 0.0000 18.2577 0.0000
# 6 0.0000 0.0000 0.0000 -1.7989 0.0000 14.5062
#
#
#
# Elastic Compliance Matrix: (Units=1/GPa)
#
#
# Indices 1 2 3 4 5 6 
#
# 1 0.012757 -0.001284 0.000140 0.000000 -0.004871 0.000000
# 2 -0.001284 0.009490 -0.003274 0.000000 -0.001150 0.000000
# 3 0.000140 -0.003274 0.012294 0.000000 -0.005965 0.000000
# 4 0.000000 0.000000 0.000000 0.126861 0.000000 0.015732
# 5 -0.004871 -0.001150 -0.005965 0.000000 0.060686 0.000000
# 6 0.000000 0.000000 0.000000 0.015732 0.000000 0.070887
#
#
# Mechanical properties :
#
#
# Convention : Reuss Voigt Hill
#
# Bulk Modulus (GPa) = 38.90505 45.66651 42.28578
# Shear Modulus (GPa) = 16.10938 24.34887 20.22913
#
# Velocity S-wave (km/s) = 3.09604 3.80633 3.46941
# Velocity P-wave (km/s) = 5.99416 6.81837 6.41951
#
# Compressibility (1/GPa) = 0.02570361
#
# Stress axis : x y z
#
# Youngs Moduli (GPa) = 78.38858 105.37873 81.34238
#
# Poissons Ratio (x) = 0.13532 -0.01137
# Poissons Ratio (y) = 0.10066 0.26632
# Poissons Ratio (z) = -0.01096 0.34501
#
# Static dielectric constant tensor:
#      x y z
#    x 1.635180 0.000000 -0.037710 
#    y 0.000000 1.597220 0.000000 
#    z -0.037710 0.000000 1.613630 
# 
# From -- ./inp_files/18219.got.cif
#   From: 2010.05.17/outbox.cif.g08.bks.cpg/sg8_10_cif.got.tgz:18219.got - 2010.06.03 19:46:02.
