data_PCOD9132564
_publ_section_title
;
Structure prediction by ZEFSAII (Michael W. Deem and Ramdas Pophale) SiO2 
 PCOD9132564
Probable space group: C M
;
_chemical_formula_sum "Si O2"
_cell_formula_units_Z 32
_cell_length_a 25.779007
_cell_length_b 8.102477
_cell_length_c 14.806115
_cell_angle_alpha 90.000000
_cell_angle_beta 29.931689
_cell_angle_gamma 90.000000
_cell_volume 1543.110554
_symmetry_space_group_name_H-M "C M"
_symmetry_group_IT_number 8
_symmetry_cell_setting 'monoclinic'
loop_
_space_group_symop_operation_xyz
x,y,z
x,-y,z
1/2+x,1/2+y,z
1/2+x,1/2-y,z
loop_
_atom_site_type_symbol
_atom_site_label
_atom_site_fract_x
_atom_site_fract_y
_atom_site_fract_z
Si Si1 0.761850 0.197675 0.076840
Si Si2 0.987368 0.202544 0.790789
Si Si3 0.094746 0.807924 0.800235
Si Si4 0.210761 0.806529 0.794228
Si Si5 0.314576 0.190807 0.359526
Si Si6 0.636747 0.805853 0.092812
Si Si7 0.195308 0.799989 0.372201
Si Si8 0.408027 0.311927 0.393548
O O1 0.698933 0.261559 0.085529
O O2 0.706980 0.236485 0.254054
O O3 0.769037 0.000000 0.055069
O O4 0.879414 0.260582 0.912170
O O5 0.010700 0.263541 0.857713
O O6 0.085072 0.248941 0.581521
O O7 0.986417 0.000000 0.796458
O O8 0.126960 0.735752 0.848160
O O9 0.202612 0.807171 0.580049
O O10 0.067820 0.000000 0.856551
O O11 0.323004 0.792377 0.577213
O O12 0.188138 0.000000 0.842131
O O13 0.202425 0.719905 0.902574
O O14 0.286462 0.258897 0.303126
O O15 0.392026 0.280068 0.310749
O O16 0.347096 0.000000 0.303141
O O17 0.524834 0.724554 0.246413
O O18 0.618396 0.000000 0.134011
O O19 0.199836 0.000000 0.366119
O O20 0.381043 0.500000 0.453090
#
# Coordination Sequence:
#
# PCOD9132564 Si02
#       8
#     4   4   4   4   4   4   4   4
#     4  10  22  37  54  78 109 144 186 233 277 321
#     4   8  15  32  55  78 105 139 173 210 263 330
#     4   7  12  26  52  81 107 134 168 210 266 333
#     4  10  20  37  60  86 114 145 181 230 289 346
#     4   8  15  31  54  82 114 145 176 220 278 339
#     4  11  24  40  54  77 114 154 197 242 281 329
#     4   9  18  34  58  83 110 145 181 219 272 333
#     4  11  22  37  59  85 111 148 192 236 286 337
#
# _framework density 20.737335999999999
#
# number of rings (size 3 to 8) (size 9 to 14) (size 15 to 20)
#    0.000    2.750    0.000    4.125    0.000    3.500 
#    0.000    3.125    0.000    3.000    0.000    0.000 
#    0.000    0.000    0.000    0.000    0.000    0.000 
#
# Total GULP energy -89264.903362 kJ/mol
# GULP energy per Si atom -5579.056460 kJ/mol
# Density = 2.069014 g / cm^3
# Si number density = 20.737336 Si / 1000 Ang^3
#
#
#
# Elastic Constant Matrix: (Units=GPa)
#
#
# Indices 1 2 3 4 5 6 
#
# 1 219.3117 8.7699 63.4899 -0.0001 -2.7739 0.0001
# 2 8.7699 20.9408 -12.8002 -0.0004 -5.8450 0.0003
# 3 63.4899 -12.8002 75.3243 -0.0005 -4.0659 0.0002
# 4 -0.0001 -0.0004 -0.0005 21.0124 0.0002 8.4201
# 5 -2.7739 -5.8450 -4.0659 0.0002 32.8955 -0.0001
# 6 0.0001 0.0003 0.0002 8.4201 -0.0001 -10.4980
#
#
#
# Elastic Compliance Matrix: (Units=1/GPa)
#
#
# Indices 1 2 3 4 5 6 
#
# 1 0.006965 -0.007855 -0.007298 0.000000 -0.001710 0.000000
# 2 -0.007855 0.066138 0.018583 0.000001 0.013386 0.000003
# 3 -0.007298 0.018583 0.022883 0.000000 0.005515 0.000001
# 4 0.000000 0.000001 0.000000 0.036015 0.000000 0.028887
# 5 -0.001710 0.013386 0.005515 0.000000 0.033315 0.000000
# 6 0.000000 0.000003 0.000001 0.028887 0.000000 -0.072087
#
#
# Mechanical properties :
#
#
# Convention : Reuss Voigt Hill
#
# Bulk Modulus (GPa) = 9.72331 48.27734 29.00033
# Shear Modulus (GPa) = 41.44154 25.75645 33.59899
#
# Velocity S-wave (km/s) = 4.47520 3.52807 4.02956
# Velocity P-wave (km/s) = 5.60376 6.31881 5.97200
#
# Compressibility (1/GPa) = 0.10284564
#
# Stress axis : x y z
#
# Youngs Moduli (GPa) = 143.57753 15.11981 43.70122
#
# Poissons Ratio (x) = 0.11877 0.31892
# Poissons Ratio (y) = 1.12781 -0.81209
# Poissons Ratio (z) = 1.04780 -0.28097
#
# Static dielectric constant tensor:
#      x y z
#    x 1.760670 0.000000 -0.008300 
#    y 0.000000 1.716920 0.000000 
#    z -0.008300 0.000000 1.735670 
# 
# From -- ./inp_files/28207.got.cif
#   From: 2010.05.17/outbox.cif.g08.bks.cpg/sg8_15_cif.got.tgz:28207.got - 2010.06.03 19:46:02.
