data_PCOD9132543
_publ_section_title
;
Structure prediction by ZEFSAII (Michael W. Deem and Ramdas Pophale) SiO2 
 PCOD9132543
Probable space group: C M
;
_chemical_formula_sum "Si O2"
_cell_formula_units_Z 24
_cell_length_a 26.948893
_cell_length_b 7.945406
_cell_length_c 17.959375
_cell_angle_alpha 90.000000
_cell_angle_beta 160.457139
_cell_angle_gamma 90.000000
_cell_volume 1286.352057
_symmetry_space_group_name_H-M "C M"
_symmetry_group_IT_number 8
_symmetry_cell_setting 'monoclinic'
loop_
_space_group_symop_operation_xyz
x,y,z
x,-y,z
1/2+x,1/2+y,z
1/2+x,1/2-y,z
loop_
_atom_site_type_symbol
_atom_site_label
_atom_site_fract_x
_atom_site_fract_y
_atom_site_fract_z
Si Si1 0.694940 0.188441 0.444770
Si Si2 0.273036 0.500000 0.023630
Si Si3 0.810455 0.000000 0.826978
Si Si4 0.269101 0.814616 0.128657
Si Si5 0.525479 0.800101 0.899860
Si Si6 0.045284 0.500000 0.562844
Si Si7 0.039919 0.000000 0.290839
Si Si8 0.470310 0.190949 0.989192
O O1 0.639298 0.334272 0.420973
O O2 0.590179 0.197426 0.224373
O O3 0.862326 0.225009 0.656519
O O4 0.681994 0.000000 0.457586
O O5 0.261003 0.665118 0.058146
O O6 0.434177 0.500000 0.212369
O O7 0.147307 0.500000 0.780775
O O8 0.651164 0.000000 0.640373
O O9 0.850044 0.833487 0.836553
O O10 0.926023 0.000000 0.059782
O O11 0.239110 0.000000 0.051815
O O12 0.432264 0.841803 0.396022
O O13 0.149917 0.781160 0.024663
O O14 0.522445 0.000000 0.880929
O O15 0.547949 0.775161 0.019979
O O16 0.409789 0.000000 0.901447
#
# Coordination Sequence:
#
# PCOD9132543 Si02
#       8
#     4   2   2   4   4   2   2   4
#     4  10  20  37  58  90 124 156 198 251 308 377
#     4  11  22  47  68  88 135 173 205 278 313 360
#     4   9  18  39  61  86 127 157 198 258 300 376
#     4  10  24  44  61  94 126 163 229 262 302 392
#     4  11  21  39  60  86 125 160 202 260 313 367
#     4   9  24  45  64  96 125 169 223 254 321 376
#     4   9  20  37  61  92 123 161 204 244 314 378
#     4   9  21  36  57  89 122 157 197 244 316 375
#
# _framework density 18.657411
#
# number of rings (size 3 to 8) (size 9 to 14) (size 15 to 20)
#    0.500    1.667    1.667    0.500    2.333    3.333 
#    3.000    3.333    0.000    0.000    0.000    0.000 
#    0.000    0.000    0.000    0.000    0.000    0.000 
#
# Total GULP energy -66930.211534 kJ/mol
# GULP energy per Si atom -5577.517628 kJ/mol
# Density = 1.861495 g / cm^3
# Si number density = 18.657411 Si / 1000 Ang^3
#
#
#
# Elastic Constant Matrix: (Units=GPa)
#
#
# Indices 1 2 3 4 5 6 
#
# 1 119.0789 90.1561 59.9491 0.0000 22.1867 0.0000
# 2 90.1561 164.8171 73.2637 0.0000 17.8302 0.0000
# 3 59.9491 73.2637 131.4309 0.0000 18.9918 0.0000
# 4 0.0000 0.0000 0.0000 26.8327 0.0000 2.5052
# 5 22.1867 17.8302 18.9918 0.0000 42.5285 0.0000
# 6 0.0000 0.0000 0.0000 2.5052 0.0000 27.8449
#
#
#
# Elastic Compliance Matrix: (Units=1/GPa)
#
#
# Indices 1 2 3 4 5 6 
#
# 1 0.015843 -0.007010 -0.002725 0.000000 -0.004109 0.000000
# 2 -0.007010 0.011255 -0.003124 0.000000 0.000334 0.000000
# 3 -0.002725 -0.003124 0.010902 0.000000 -0.002137 0.000000
# 4 0.000000 0.000000 0.000000 0.037584 0.000000 -0.003381
# 5 -0.004109 0.000334 -0.002137 0.000000 0.026472 0.000000
# 6 0.000000 0.000000 0.000000 -0.003381 0.000000 0.036217
#
#
# Mechanical properties :
#
#
# Convention : Reuss Voigt Hill
#
# Bulk Modulus (GPa) = 81.43087 95.78496 88.60791
# Shear Modulus (GPa) = 29.74693 32.23845 30.99269
#
# Velocity S-wave (km/s) = 3.99730 4.16133 4.08014
# Velocity P-wave (km/s) = 8.06502 8.63361 8.35415
#
# Compressibility (1/GPa) = 0.01228036
#
# Stress axis : x y z
#
# Youngs Moduli (GPa) = 63.12016 88.85108 91.72792
#
# Poissons Ratio (x) = 0.62288 0.24993
# Poissons Ratio (y) = 0.44250 0.28659
# Poissons Ratio (z) = 0.17199 0.27761
#
# Static dielectric constant tensor:
#      x y z
#    x 1.624750 0.000000 -0.026180 
#    y 0.000000 1.656920 0.000000 
#    z -0.026180 0.000000 1.639700 
# 
# From -- ./inp_files/30091.got.cif
#   From: 2010.05.17/outbox.cif.g08.bks.cpg/sg8_16_cif.got.tgz:30091.got - 2010.06.03 19:46:02.
