data_PCOD9132965
_publ_section_title
;
Structure prediction by ZEFSAII (Michael W. Deem and Ramdas Pophale) SiO2 
 PCOD9132965
Probable space group: C M
;
_chemical_formula_sum "Si O2"
_cell_formula_units_Z 24
_cell_length_a 5.058460
_cell_length_b 27.111272
_cell_length_c 7.516014
_cell_angle_alpha 90.000000
_cell_angle_beta 93.213198
_cell_angle_gamma 90.000000
_cell_volume 1029.135345
_symmetry_space_group_name_H-M "C M"
_symmetry_group_IT_number 8
_symmetry_cell_setting 'monoclinic'
loop_
_space_group_symop_operation_xyz
x,y,z
x,-y,z
1/2+x,1/2+y,z
1/2+x,1/2-y,z
loop_
_atom_site_type_symbol
_atom_site_label
_atom_site_fract_x
_atom_site_fract_y
_atom_site_fract_z
Si Si1 0.225400 0.847504 0.027280
Si Si2 0.467383 0.717553 0.749066
Si Si3 0.211399 0.885639 0.403222
Si Si4 0.387444 0.444235 0.926506
Si Si5 0.588973 0.866135 0.728713
Si Si6 0.201099 0.554346 0.319477
O O1 0.249017 0.848167 0.239676
O O2 0.490016 0.845978 0.917708
O O3 0.038692 0.803631 0.949060
O O4 0.102608 0.901148 0.968343
O O5 0.749454 0.740217 0.708450
O O6 0.316664 0.669945 0.665250
O O7 0.340023 0.866976 0.589348
O O8 0.405219 0.930939 0.357699
O O9 0.914676 0.905963 0.393730
O O10 0.482075 0.500000 0.892412
O O11 0.201127 0.420780 0.768689
O O12 0.229706 0.446034 0.106744
O O13 0.269225 0.500000 0.388187
#
# Coordination Sequence:
#
# PCOD9132965 Si02
#       6
#     4   4   4   4   4   4
#     4  10  22  43  65  92 129 169 212 260 321 374
#     4  11  23  43  72  95 124 164 208 265 328 385
#     4  11  24  39  63  92 127 167 212 262 314 373
#     4   9  20  37  61  92 130 175 217 256 307 372
#     4  11  23  41  67  94 128 169 211 262 322 375
#     4  10  21  39  59  87 129 174 218 263 304 359
#
# _framework density 23.320547000000001
#
# number of rings (size 3 to 8) (size 9 to 14) (size 15 to 20)
#    0.000    1.667    3.333    0.500    4.667    2.667 
#    0.000    1.667    0.000    0.000    0.000    0.000 
#    0.000    0.000    0.000    0.000    0.000    0.000 
#
# Total GULP energy -66987.763373 kJ/mol
# GULP energy per Si atom -5582.313614 kJ/mol
# Density = 2.326747 g / cm^3
# Si number density = 23.320547 Si / 1000 Ang^3
#
#
#
# Elastic Constant Matrix: (Units=GPa)
#
#
# Indices 1 2 3 4 5 6 
#
# 1 72.3629 8.4617 -3.3042 0.0000 4.5283 0.0000
# 2 8.4617 82.7448 1.9196 0.0000 -2.0551 0.0000
# 3 -3.3042 1.9196 78.6628 0.0000 12.0102 0.0000
# 4 0.0000 0.0000 0.0000 21.4688 0.0000 4.7826
# 5 4.5283 -2.0551 12.0102 0.0000 30.1941 0.0000
# 6 0.0000 0.0000 0.0000 4.7826 0.0000 31.3811
#
#
#
# Elastic Compliance Matrix: (Units=1/GPa)
#
#
# Indices 1 2 3 4 5 6 
#
# 1 0.014213 -0.001543 0.001039 0.000000 -0.002650 0.000000
# 2 -0.001543 0.012288 -0.000562 0.000000 0.001291 0.000000
# 3 0.001039 -0.000562 0.013627 0.000000 -0.005615 0.000000
# 4 0.000000 0.000000 0.000000 0.048216 0.000000 -0.007348
# 5 -0.002650 0.001291 -0.005615 0.000000 0.035838 0.000000
# 6 0.000000 0.000000 0.000000 -0.007348 0.000000 0.032986
#
#
# Mechanical properties :
#
#
# Convention : Reuss Voigt Hill
#
# Bulk Modulus (GPa) = 26.31828 27.54720 26.93274
# Shear Modulus (GPa) = 29.07551 31.72168 30.39859
#
# Velocity S-wave (km/s) = 3.53480 3.69215 3.61433
# Velocity P-wave (km/s) = 5.28864 5.47851 5.38441
#
# Compressibility (1/GPa) = 0.03799640
#
# Stress axis : x y z
#
# Youngs Moduli (GPa) = 70.35816 81.37826 73.38334
#
# Poissons Ratio (x) = 0.12560 -0.07627
# Poissons Ratio (y) = 0.10859 0.04123
# Poissons Ratio (z) = -0.07312 0.04572
#
# Static dielectric constant tensor:
#      x y z
#    x 1.898720 0.000000 -0.027870 
#    y 0.000000 1.916710 0.000000 
#    z -0.027870 0.000000 1.901450 
# 
# From -- ./inp_files/6931.got.cif
#   From: 2010.05.17/outbox.cif.g08.bks.cpg/sg8_4_cif.got.tgz:6931.got - 2010.06.03 19:46:02.
