data_PCOD9132525
_publ_section_title
;
Structure prediction by ZEFSAII (Michael W. Deem and Ramdas Pophale) SiO2 
 PCOD9132525
Probable space group: C M
;
_chemical_formula_sum "Si O2"
_cell_formula_units_Z 24
_cell_length_a 13.838958
_cell_length_b 11.064916
_cell_length_c 13.812179
_cell_angle_alpha 90.000000
_cell_angle_beta 148.164340
_cell_angle_gamma 90.000000
_cell_volume 1115.638619
_symmetry_space_group_name_H-M "C M"
_symmetry_group_IT_number 8
_symmetry_cell_setting 'monoclinic'
loop_
_space_group_symop_operation_xyz
x,y,z
x,-y,z
1/2+x,1/2+y,z
1/2+x,1/2-y,z
loop_
_atom_site_type_symbol
_atom_site_label
_atom_site_fract_x
_atom_site_fract_y
_atom_site_fract_z
Si Si1 0.803440 0.131399 0.555750
Si Si2 0.043317 0.271968 0.493230
Si Si3 0.412845 0.633273 0.196100
Si Si4 0.533652 0.861497 0.803156
Si Si5 0.354158 0.862418 0.861748
Si Si6 0.158137 0.758585 0.256008
O O1 0.669412 0.138792 0.536005
O O2 0.696979 0.148348 0.363845
O O3 0.924044 0.253124 0.659931
O O4 0.895837 0.000000 0.636236
O O5 0.167373 0.211729 0.682458
O O6 0.987371 0.178861 0.360736
O O7 0.845259 0.305972 0.367190
O O8 0.344058 0.500000 0.155834
O O9 0.569821 0.641467 0.250311
O O10 0.235214 0.692338 0.996672
O O11 0.436642 0.873105 0.824209
O O12 0.536742 0.000000 0.762578
O O13 0.324599 0.000000 0.872846
O O14 0.505677 0.789060 0.051380
#
# Coordination Sequence:
#
# PCOD9132525 Si02
#       6
#     4   4   4   4   4   4
#     4  10  23  41  62  93 131 165 205 260 317 370
#     4  10  22  41  63  87 126 164 206 254 316 370
#     4  10  21  40  64  90 122 163 212 258 306 370
#     4   9  19  40  67  91 123 167 213 257 306 372
#     4  10  20  36  64  92 118 161 212 258 304 365
#     4  11  23  38  62  93 126 160 208 257 315 371
#
# _framework density 21.512342
#
# number of rings (size 3 to 8) (size 9 to 14) (size 15 to 20)
#    0.000    2.000    1.667    1.000    2.333    6.667 
#    0.000    6.667    0.000    0.000    0.000    0.000 
#    0.000    0.000    0.000    0.000    0.000    0.000 
#
# Total GULP energy -66842.203855 kJ/mol
# GULP energy per Si atom -5570.183655 kJ/mol
# Density = 2.146338 g / cm^3
# Si number density = 21.512342 Si / 1000 Ang^3
#
#
#
# Elastic Constant Matrix: (Units=GPa)
#
#
# Indices 1 2 3 4 5 6 
#
# 1 81.0740 -6.0861 24.0150 0.0002 10.7650 0.0001
# 2 -6.0861 76.8862 38.1837 0.0002 -8.6777 0.0001
# 3 24.0150 38.1837 147.4410 0.0001 4.8424 0.0002
# 4 0.0002 0.0002 0.0001 -13.3995 0.0003 -10.2707
# 5 10.7650 -8.6777 4.8424 0.0003 35.2391 0.0003
# 6 0.0001 0.0001 0.0002 -10.2707 0.0003 -18.9590
#
#
#
# Elastic Compliance Matrix: (Units=1/GPa)
#
#
# Indices 1 2 3 4 5 6 
#
# 1 0.013713 0.002026 -0.002649 0.000000 -0.003326 0.000000
# 2 0.002026 0.015879 -0.004571 0.000000 0.003920 0.000000
# 3 -0.002649 -0.004571 0.008446 0.000000 -0.001477 0.000000
# 4 0.000000 0.000000 0.000000 -0.127624 0.000001 0.069138
# 5 -0.003326 0.003920 -0.001477 0.000001 0.030562 0.000000
# 6 0.000000 0.000000 0.000000 0.069138 0.000000 -0.090200
#
#
# Mechanical properties :
#
#
# Convention : Reuss Voigt Hill
#
# Bulk Modulus (GPa) = 36.16722 46.40293 41.28508
# Shear Modulus (GPa) = -38.57461 17.19535 -10.68963
#
# Velocity S-wave (km/s) = -4.23914 2.83030 -2.23156
# Velocity P-wave (km/s) = 2.66676 5.68313 3.54869
#
# Compressibility (1/GPa) = 0.02764934
#
# Stress axis : x y z
#
# Youngs Moduli (GPa) = 72.92494 62.97629 118.39803
#
# Poissons Ratio (x) = -0.12756 0.31362
# Poissons Ratio (y) = -0.14771 0.54119
# Poissons Ratio (z) = 0.19317 0.28786
#
# Static dielectric constant tensor:
#      x y z
#    x 1.798230 0.000000 0.047720 
#    y 0.000000 1.786680 0.000000 
#    z 0.047720 0.000000 1.841190 
# 
# From -- ./inp_files/26762.got.cif
#   From: 2010.05.17/outbox.cif.g08.bks.cpg/sg8_14_cif.got.tgz:26762.got - 2010.06.03 19:46:02.
