data_PCOD9132144
_publ_section_title
;
Structure prediction by ZEFSAII (Michael W. Deem and Ramdas Pophale) SiO2 
 PCOD9132144
Probable space group: C M
;
_chemical_formula_sum "Si O2"
_cell_formula_units_Z 28
_cell_length_a 20.343804
_cell_length_b 12.091800
_cell_length_c 17.440211
_cell_angle_alpha 90.000000
_cell_angle_beta 159.727898
_cell_angle_gamma 90.000000
_cell_volume 1486.454762
_symmetry_space_group_name_H-M "C M"
_symmetry_group_IT_number 8
_symmetry_cell_setting 'monoclinic'
loop_
_space_group_symop_operation_xyz
x,y,z
x,-y,z
1/2+x,1/2+y,z
1/2+x,1/2-y,z
loop_
_atom_site_type_symbol
_atom_site_label
_atom_site_fract_x
_atom_site_fract_y
_atom_site_fract_z
Si Si1 0.595670 0.129149 0.209080
Si Si2 0.636535 0.286946 0.397593
Si Si3 0.040867 0.289487 0.867021
Si Si4 0.221770 0.255910 0.758436
Si Si5 0.229976 0.373290 0.928239
Si Si6 0.788648 0.870322 0.674069
Si Si7 0.334209 0.628274 0.314302
O O1 0.658415 0.212397 0.345068
O O2 0.726015 0.143994 0.276811
O O3 0.604462 0.000000 0.241893
O O4 0.381134 0.164502 0.952840
O O5 0.454592 0.361970 0.189509
O O6 0.619307 0.197341 0.447262
O O7 0.833848 0.347550 0.633086
O O8 0.129626 0.294476 0.880259
O O9 0.186806 0.342936 0.085649
O O10 0.972462 0.172156 0.827312
O O11 0.299187 0.327571 0.772238
O O12 0.022894 0.201030 0.518681
O O13 0.194680 0.330922 0.803971
O O14 0.169243 0.500000 0.872545
O O15 0.764743 0.000000 0.643753
O O16 0.387577 0.500000 0.365981
#
# Coordination Sequence:
#
# PCOD9132144 Si02
#       7
#     4   4   4   4   4   4   4
#     4  10  19  36  60  88 121 158 198 248 301 346
#     4   9  21  38  62  87 119 153 203 248 292 357
#     4  10  22  40  59  88 124 153 204 250 287 363
#     4  11  22  40  60  90 126 155 202 247 293 365
#     4  11  23  40  63  90 122 160 196 246 304 356
#     4  10  21  41  63  84 120 161 196 246 300 349
#     4  11  22  37  61  89 122 160 199 247 299 350
#
# _framework density 18.836765
#
# number of rings (size 3 to 8) (size 9 to 14) (size 15 to 20)
#    0.857    0.857    1.429    3.429    0.000    1.143 
#    0.000    7.143    0.000    0.000    0.000    0.000 
#    0.000    0.000    0.000    0.000    0.000    0.000 
#
# Total GULP energy -78042.383623 kJ/mol
# GULP energy per Si atom -5574.455973 kJ/mol
# Density = 1.879389 g / cm^3
# Si number density = 18.836765 Si / 1000 Ang^3
#
#
#
# Elastic Constant Matrix: (Units=GPa)
#
#
# Indices 1 2 3 4 5 6 
#
# 1 95.5482 32.4391 21.8311 -0.0012 -13.2232 -0.0006
# 2 32.4391 71.9862 23.0016 0.0029 -2.3278 0.0020
# 3 21.8311 23.0016 107.3728 0.0031 -1.7305 0.0017
# 4 -0.0012 0.0029 0.0031 9.3031 0.0029 8.2635
# 5 -13.2232 -2.3278 -1.7305 0.0029 26.4169 0.0014
# 6 -0.0006 0.0020 0.0017 8.2635 0.0014 9.1916
#
#
#
# Elastic Compliance Matrix: (Units=1/GPa)
#
#
# Indices 1 2 3 4 5 6 
#
# 1 0.013497 -0.005407 -0.001486 0.000004 0.006182 -0.000002
# 2 -0.005407 0.017111 -0.002588 -0.000008 -0.001368 0.000004
# 3 -0.001486 -0.002588 0.010165 -0.000008 -0.000306 0.000005
# 4 0.000004 -0.000008 -0.000008 0.533628 -0.000032 -0.479748
# 5 0.006182 -0.001368 -0.000306 -0.000032 0.040808 0.000024
# 6 -0.000002 0.000004 0.000005 -0.479748 0.000024 0.540104
#
#
# Mechanical properties :
#
#
# Convention : Reuss Voigt Hill
#
# Bulk Modulus (GPa) = 45.85152 47.71675 46.78413
# Shear Modulus (GPa) = 4.23174 22.15801 13.19487
#
# Velocity S-wave (km/s) = 1.50047 3.43347 2.64954
# Velocity P-wave (km/s) = 5.23414 6.41132 5.85240
#
# Compressibility (1/GPa) = 0.02180953
#
# Stress axis : x y z
#
# Youngs Moduli (GPa) = 74.09132 58.44202 98.37641
#
# Poissons Ratio (x) = 0.31601 0.14621
# Poissons Ratio (y) = 0.40063 0.25462
# Poissons Ratio (z) = 0.11011 0.15126
#
# Static dielectric constant tensor:
#      x y z
#    x 1.662800 0.000000 0.001190 
#    y 0.000000 1.627810 0.000000 
#    z 0.001190 0.000000 1.660300 
# 
# From -- ./inp_files/29880.got.cif
#   From: 2010.05.17/outbox.cif.g08.bks.cpg/sg8_15_cif.got.tgz:29880.got - 2010.06.03 19:46:02.
