data_PCOD9132260
_publ_section_title
;
Structure prediction by ZEFSAII (Michael W. Deem and Ramdas Pophale) SiO2 
 PCOD9132260
Probable space group: C M
;
_chemical_formula_sum "Si O2"
_cell_formula_units_Z 28
_cell_length_a 14.161467
_cell_length_b 9.958539
_cell_length_c 21.030014
_cell_angle_alpha 90.000000
_cell_angle_beta 27.256317
_cell_angle_gamma 90.000000
_cell_volume 1358.258069
_symmetry_space_group_name_H-M "C M"
_symmetry_group_IT_number 8
_symmetry_cell_setting 'monoclinic'
loop_
_space_group_symop_operation_xyz
x,y,z
x,-y,z
1/2+x,1/2+y,z
1/2+x,1/2-y,z
loop_
_atom_site_type_symbol
_atom_site_label
_atom_site_fract_x
_atom_site_fract_y
_atom_site_fract_z
Si Si1 0.458390 0.154377 0.159830
Si Si2 0.732020 0.341371 0.419375
Si Si3 0.874128 0.650251 0.611014
Si Si4 0.018148 0.339400 0.985262
Si Si5 0.911008 0.246613 0.912590
Si Si6 0.902947 0.347871 0.780928
Si Si7 0.273710 0.153555 0.531056
O O1 0.347935 0.214118 0.287851
O O2 0.413013 0.203530 0.115363
O O3 0.394428 0.000000 0.197136
O O4 0.704284 0.161032 0.025009
O O5 0.689744 0.500000 0.436969
O O6 0.517880 0.262717 0.555224
O O7 0.860109 0.329268 0.408361
O O8 0.932698 0.500000 0.595306
O O9 0.631286 0.672574 0.770897
O O10 0.906916 0.660579 0.515010
O O11 0.061196 0.500000 0.963242
O O12 0.907138 0.308773 0.985245
O O13 0.222797 0.248463 0.863597
O O14 0.899954 0.347862 0.859698
O O15 0.884605 0.500000 0.769166
O O16 0.110722 0.271997 0.637884
O O17 0.182912 0.000000 0.587121
#
# Coordination Sequence:
#
# PCOD9132260 Si02
#       7
#     4   4   4   4   4   4   4
#     4   9  20  38  57  80 110 145 185 225 268 323
#     4  10  21  38  58  80 110 147 183 222 271 325
#     4  10  21  36  56  84 112 141 181 226 272 323
#     4  10  20  35  55  78 109 146 180 219 273 328
#     4  10  20  35  58  82 110 143 182 226 272 320
#     4  10  20  33  52  82 113 139 179 229 270 317
#     4   9  19  35  54  76 108 147 180 217 272 328
#
# _framework density 20.614640000000001
#
# number of rings (size 3 to 8) (size 9 to 14) (size 15 to 20)
#    0.000    2.286    0.000    2.143    0.000   11.429 
#    0.000    3.571    0.000    0.000    0.000    0.000 
#    0.000    0.000    0.000    0.000    0.000    0.000 
#
# Total GULP energy -77961.114190 kJ/mol
# GULP energy per Si atom -5568.651014 kJ/mol
# Density = 2.056772 g / cm^3
# Si number density = 20.614640 Si / 1000 Ang^3
#
#
#
# Elastic Constant Matrix: (Units=GPa)
#
#
# Indices 1 2 3 4 5 6 
#
# 1 139.0071 22.6560 33.5923 0.0004 45.0041 -0.0003
# 2 22.6560 63.7122 0.0440 0.0001 13.6555 0.0001
# 3 33.5923 0.0440 59.2014 -0.0004 25.0022 0.0006
# 4 0.0004 0.0001 -0.0004 11.0988 0.0004 -2.0014
# 5 45.0041 13.6555 25.0022 0.0004 36.2379 0.0002
# 6 -0.0003 0.0001 0.0006 -2.0014 0.0002 18.1116
#
#
#
# Elastic Compliance Matrix: (Units=1/GPa)
#
#
# Indices 1 2 3 4 5 6 
#
# 1 0.012156 -0.001349 -0.001038 0.000000 -0.013872 0.000000
# 2 -0.001349 0.017858 0.004074 0.000000 -0.007865 0.000000
# 3 -0.001038 0.004074 0.024811 0.000001 -0.017364 0.000000
# 4 0.000000 0.000000 0.000001 0.091932 -0.000002 0.010159
# 5 -0.013872 -0.007865 -0.017364 -0.000002 0.059767 -0.000001
# 6 0.000000 0.000000 0.000000 0.010159 -0.000001 0.056336
#
#
# Mechanical properties :
#
#
# Convention : Reuss Voigt Hill
#
# Bulk Modulus (GPa) = 17.18265 41.61171 29.39718
# Shear Modulus (GPa) = 17.92857 26.79821 22.36339
#
# Velocity S-wave (km/s) = 2.95227 3.60941 3.29725
# Velocity P-wave (km/s) = 4.46928 6.13186 5.36536
#
# Compressibility (1/GPa) = 0.05819824
#
# Stress axis : x y z
#
# Youngs Moduli (GPa) = 82.26711 55.99703 40.30523
#
# Poissons Ratio (x) = 0.07552 0.04184
# Poissons Ratio (y) = 0.11095 -0.16419
# Poissons Ratio (z) = 0.08539 -0.22811
#
# Static dielectric constant tensor:
#      x y z
#    x 1.777520 0.000000 0.066820 
#    y 0.000000 1.706400 0.000000 
#    z 0.066820 0.000000 1.773030 
# 
# From -- ./inp_files/21314.got.cif
#   From: 2010.05.17/outbox.cif.g08.bks.cpg/sg8_11_cif.got.tgz:21314.got - 2010.06.03 19:46:02.
