data_PCOD9132939
_publ_section_title
;
Structure prediction by ZEFSAII (Michael W. Deem and Ramdas Pophale) SiO2 
 PCOD9132939
Probable space group: C M
;
_chemical_formula_sum "Si O2"
_cell_formula_units_Z 28
_cell_length_a 5.439424
_cell_length_b 30.207334
_cell_length_c 7.835661
_cell_angle_alpha 90.000000
_cell_angle_beta 121.425356
_cell_angle_gamma 90.000000
_cell_volume 1098.633776
_symmetry_space_group_name_H-M "C M"
_symmetry_group_IT_number 8
_symmetry_cell_setting 'monoclinic'
loop_
_space_group_symop_operation_xyz
x,y,z
x,-y,z
1/2+x,1/2+y,z
1/2+x,1/2-y,z
loop_
_atom_site_type_symbol
_atom_site_label
_atom_site_fract_x
_atom_site_fract_y
_atom_site_fract_z
Si Si1 0.584370 0.404504 0.412440
Si Si2 0.082735 0.368639 0.417783
Si Si3 0.284403 0.268316 0.926337
Si Si4 0.293917 0.000000 0.556372
Si Si5 0.706855 0.131361 0.958626
Si Si6 0.505187 0.231683 0.450072
Si Si7 0.205219 0.904504 0.963969
Si Si8 0.495672 0.500000 0.820036
O O1 0.380531 0.394430 0.499204
O O2 0.673956 0.455472 0.427362
O O3 0.395076 0.387114 0.185308
O O4 0.880933 0.377878 0.506688
O O5 0.106752 0.316057 0.419097
O O6 0.894514 0.387114 0.191100
O O7 0.624355 0.264860 0.000861
O O8 0.144795 0.261344 0.688204
O O9 0.182838 0.316057 0.957313
O O10 0.144796 0.000000 0.688205
O O11 0.644795 0.000000 0.688203
O O12 0.409058 0.105571 0.877204
O O13 0.908657 0.122122 0.869721
O O14 0.665235 0.264860 0.375547
O O15 0.115632 0.955472 0.949046
#
# Coordination Sequence:
#
# PCOD9132939 Si02
#       8
#     4   4   4   2   4   4   4   2
#     4  10  23  41  62  93 126 165 209 261 320 379
#     4  10  21  40  65  93 128 168 211 260 314 375
#     4  10  21  38  61  92 131 170 209 257 311 369
#     4  12  26  44  66  94 127 164 210 264 325 387
#     4  10  21  40  65  93 128 168 211 260 314 375
#     4  10  21  38  61  92 131 170 209 257 311 369
#     4  10  23  41  62  93 126 165 209 261 320 379
#     4  12  26  44  66  94 127 164 210 264 325 387
#
# _framework density 25.486198999999999
#
# number of rings (size 3 to 8) (size 9 to 14) (size 15 to 20)
#    0.000    1.714    0.000    3.429    0.000    8.000 
#    0.000   17.143    0.000    0.000    0.000    0.000 
#    0.000    0.000    0.000    0.000    0.000    0.000 
#
# Total GULP energy -78302.187278 kJ/mol
# GULP energy per Si atom -5593.013377 kJ/mol
# Density = 2.542819 g / cm^3
# Si number density = 25.486199 Si / 1000 Ang^3
#
#
#
# Elastic Constant Matrix: (Units=GPa)
#
#
# Indices 1 2 3 4 5 6 
#
# 1 244.8182 36.5667 41.5948 0.0000 25.3049 0.0000
# 2 36.5667 124.6660 -11.1467 0.0000 0.5866 0.0000
# 3 41.5948 -11.1467 89.9481 0.0000 -5.6825 0.0000
# 4 0.0000 0.0000 0.0000 16.0804 0.0000 -17.2235
# 5 25.3049 0.5866 -5.6825 0.0000 48.2017 0.0000
# 6 0.0000 0.0000 0.0000 -17.2235 0.0000 42.9729
#
#
#
# Elastic Compliance Matrix: (Units=1/GPa)
#
#
# Indices 1 2 3 4 5 6 
#
# 1 0.005125 -0.001737 -0.002775 0.000000 -0.002997 0.000000
# 2 -0.001737 0.008700 0.001947 0.000000 0.001036 0.000000
# 3 -0.002775 0.001947 0.012828 0.000000 0.002945 0.000000
# 4 0.000000 0.000000 0.000000 0.108965 0.000000 0.043673
# 5 -0.002997 0.001036 0.002945 0.000000 0.022654 0.000000
# 6 0.000000 0.000000 0.000000 0.043673 0.000000 0.040775
#
#
# Mechanical properties :
#
#
# Convention : Reuss Voigt Hill
#
# Bulk Modulus (GPa) = 46.46101 65.94020 56.20061
# Shear Modulus (GPa) = 23.65719 47.61215 35.63467
#
# Velocity S-wave (km/s) = 3.05000 4.32690 3.74330
# Velocity P-wave (km/s) = 5.53830 7.13385 6.38610
#
# Compressibility (1/GPa) = 0.02152342
#
# Stress axis : x y z
#
# Youngs Moduli (GPa) = 195.10961 114.93934 77.95458
#
# Poissons Ratio (x) = 0.19969 0.21630
# Poissons Ratio (y) = 0.33897 -0.15178
# Poissons Ratio (z) = 0.54137 -0.22379
#
# Static dielectric constant tensor:
#      x y z
#    x 2.169080 0.000000 0.106580 
#    y 0.000000 1.937810 0.000000 
#    z 0.106580 0.000000 1.931820 
# 
# From -- ./inp_files/7236.got.cif
#   From: 2010.05.17/outbox.cif.g08.bks.cpg/sg8_4_cif.got.tgz:7236.got - 2010.06.03 19:46:02.
