data_PCOD9132613
_publ_section_title
;
Structure prediction by ZEFSAII (Michael W. Deem and Ramdas Pophale) SiO2 
 PCOD9132613
Probable space group: C M
;
_chemical_formula_sum "Si O2"
_cell_formula_units_Z 32
_cell_length_a 18.251663
_cell_length_b 16.002382
_cell_length_c 11.546446
_cell_angle_alpha 90.000000
_cell_angle_beta 26.334495
_cell_angle_gamma 90.000000
_cell_volume 1496.020535
_symmetry_space_group_name_H-M "C M"
_symmetry_group_IT_number 8
_symmetry_cell_setting 'monoclinic'
loop_
_space_group_symop_operation_xyz
x,y,z
x,-y,z
1/2+x,1/2+y,z
1/2+x,1/2-y,z
loop_
_atom_site_type_symbol
_atom_site_label
_atom_site_fract_x
_atom_site_fract_y
_atom_site_fract_z
Si Si1 0.657560 0.593946 0.719900
Si Si2 0.717101 0.901023 0.667238
Si Si3 0.026449 0.639872 0.167437
Si Si4 0.053146 0.266914 0.746989
Si Si5 0.266306 0.907880 0.824147
Si Si6 0.684886 0.255384 0.301491
Si Si7 0.534560 0.688328 0.287343
Si Si8 0.654894 0.090047 0.216728
O O1 0.590799 0.500000 0.788476
O O2 0.851424 0.593913 0.410688
O O3 0.583248 0.678029 0.769901
O O4 0.664721 0.603798 0.849278
O O5 0.671048 0.841432 0.625474
O O6 0.904600 0.882532 0.439665
O O7 0.689267 0.000000 0.689884
O O8 0.607664 0.864155 0.927704
O O9 0.988410 0.729873 0.278537
O O10 0.154398 0.601199 0.079197
O O11 0.102536 0.251372 0.543385
O O12 0.865842 0.297010 0.040166
O O13 0.458842 0.906037 0.522139
O O14 0.230355 0.000000 0.921804
O O15 0.213747 0.838404 0.988025
O O16 0.555277 0.293551 0.393110
O O17 0.727982 0.165064 0.184948
O O18 0.721257 0.000000 0.155388
#
# Coordination Sequence:
#
# PCOD9132613 Si02
#       8
#     4   4   4   4   4   4   4   4
#     4  10  20  38  66  95 129 172 223 278 339 405
#     4  12  26  43  71 103 136 176 230 289 339 400
#     4  10  20  37  65  99 130 164 221 286 341 391
#     4  12  26  46  62 101 137 185 223 275 347 421
#     4   9  18  35  63  97 123 159 219 283 340 389
#     4  11  27  42  66  92 139 182 223 271 351 410
#     4  11  23  40  68  96 131 175 227 286 331 399
#     4   9  19  37  64  93 125 167 220 278 336 403
#
# _framework density 21.390080999999999
#
# number of rings (size 3 to 8) (size 9 to 14) (size 15 to 20)
#    0.000    1.500    1.250    4.500    8.750    1.000 
#    0.000    2.500    0.000    0.000    0.000    0.000 
#    0.000    0.000    0.000    0.000    0.000    0.000 
#
# Total GULP energy -89320.479659 kJ/mol
# GULP energy per Si atom -5582.529979 kJ/mol
# Density = 2.134140 g / cm^3
# Si number density = 21.390081 Si / 1000 Ang^3
#
#
#
# Elastic Constant Matrix: (Units=GPa)
#
#
# Indices 1 2 3 4 5 6 
#
# 1 83.9263 41.4280 24.7843 0.0003 9.4827 -0.0001
# 2 41.4280 79.5816 -8.7846 -0.0007 -6.3751 0.0002
# 3 24.7843 -8.7846 53.9007 -0.0011 9.1474 0.0003
# 4 0.0003 -0.0007 -0.0011 26.8793 0.0003 -3.2044
# 5 9.4827 -6.3751 9.1474 0.0003 34.0590 0.0000
# 6 -0.0001 0.0002 0.0003 -3.2044 0.0000 1.2826
#
#
#
# Elastic Compliance Matrix: (Units=1/GPa)
#
#
# Indices 1 2 3 4 5 6 
#
# 1 0.022711 -0.013571 -0.011683 0.000000 -0.005726 0.000006
# 2 -0.013571 0.021027 0.008757 0.000000 0.005362 -0.000006
# 3 -0.011683 0.008757 0.025693 0.000001 -0.002009 -0.000007
# 4 0.000000 0.000000 0.000001 0.052983 -0.000001 0.132365
# 5 -0.005726 0.005362 -0.002009 -0.000001 0.032498 -0.000002
# 6 0.000006 -0.000006 -0.000007 0.132365 -0.000002 1.110326
#
#
# Mechanical properties :
#
#
# Convention : Reuss Voigt Hill
#
# Bulk Modulus (GPa) = 27.44508 36.91822 32.18165
# Shear Modulus (GPa) = 3.81569 23.10958 13.46264
#
# Velocity S-wave (km/s) = 1.33706 3.29049 2.51148
# Velocity P-wave (km/s) = 3.90413 5.63324 4.84642
#
# Compressibility (1/GPa) = 0.03643640
#
# Stress axis : x y z
#
# Youngs Moduli (GPa) = 44.03087 47.55854 38.92150
#
# Poissons Ratio (x) = 0.64543 0.45472
# Poissons Ratio (y) = 0.59755 -0.34084
# Poissons Ratio (z) = 0.51442 -0.41647
#
# Static dielectric constant tensor:
#      x y z
#    x 1.795830 0.000000 -0.011960 
#    y 0.000000 1.812430 0.000000 
#    z -0.011960 0.000000 1.777050 
# 
# From -- ./inp_files/23305.got.cif
#   From: 2010.05.17/outbox.cif.g08.bks.cpg/sg8_12_cif.got.tgz:23305.got - 2010.06.03 19:46:02.
