data_PCOD9132922
_publ_section_title
;
Structure prediction by ZEFSAII (Michael W. Deem and Ramdas Pophale) SiO2 
 PCOD9132922
Probable space group: C M
;
_chemical_formula_sum "Si O2"
_cell_formula_units_Z 32
_cell_length_a 24.873369
_cell_length_b 13.785997
_cell_length_c 9.867803
_cell_angle_alpha 90.000000
_cell_angle_beta 149.942150
_cell_angle_gamma 90.000000
_cell_volume 1694.813362
_symmetry_space_group_name_H-M "C M"
_symmetry_group_IT_number 8
_symmetry_cell_setting 'monoclinic'
loop_
_space_group_symop_operation_xyz
x,y,z
x,-y,z
1/2+x,1/2+y,z
1/2+x,1/2-y,z
loop_
_atom_site_type_symbol
_atom_site_label
_atom_site_fract_x
_atom_site_fract_y
_atom_site_fract_z
Si Si1 0.803090 0.789008 0.469740
Si Si2 0.997809 0.108071 0.349141
Si Si3 0.945558 0.611593 0.866502
Si Si4 0.904275 0.810418 0.412192
Si Si5 0.691612 0.894686 0.881363
Si Si6 0.575752 0.837725 0.889868
Si Si7 0.586374 0.800258 0.410055
Si Si8 0.281714 0.609568 0.701059
O O1 0.853946 0.685528 0.617546
O O2 0.869078 0.837678 0.488945
O O3 0.811873 0.860473 0.615716
O O4 0.677980 0.773624 0.159940
O O5 0.974089 0.129396 0.456125
O O6 0.063750 0.194772 0.422871
O O7 0.043965 0.000000 0.434492
O O8 0.884481 0.110131 0.022235
O O9 0.914155 0.500000 0.821170
O O10 0.031214 0.613749 0.928925
O O11 0.996273 0.660011 0.111475
O O12 0.976979 0.716835 0.601480
O O13 0.784839 0.812893 0.085265
O O14 0.632076 0.897884 0.894538
O O15 0.605731 0.870647 0.579603
O O16 0.743114 0.000000 0.967858
O O17 0.696209 0.812328 0.566321
O O18 0.235104 0.500000 0.601964
#
# Coordination Sequence:
#
# PCOD9132922 Si02
#       8
#     4   4   4   4   4   4   4   4
#     4  10  22  38  61  92 123 156 200 253 296 355
#     4  11  23  41  63  88 121 161 201 249 305 361
#     4  11  22  38  60  89 124 162 198 242 303 359
#     4  10  21  38  60  87 120 154 198 249 297 343
#     4  11  21  35  60  92 118 150 203 252 295 350
#     4  10  21  38  60  83 121 165 198 244 298 352
#     4  12  22  37  64  90 122 155 198 250 302 358
#     4  11  22  39  64  91 119 157 204 251 302 356
#
# _framework density 18.881136000000001
#
# number of rings (size 3 to 8) (size 9 to 14) (size 15 to 20)
#    0.000    1.250    5.000    1.875    0.000    2.500 
#    0.000    1.875    0.000    1.500    0.000    0.000 
#    0.000    0.000    0.000    0.000    0.000    0.000 
#
# Total GULP energy -89085.150318 kJ/mol
# GULP energy per Si atom -5567.821895 kJ/mol
# Density = 1.883816 g / cm^3
# Si number density = 18.881136 Si / 1000 Ang^3
#
#
#
# Elastic Constant Matrix: (Units=GPa)
#
#
# Indices 1 2 3 4 5 6 
#
# 1 108.6923 53.3916 18.9910 0.0000 -14.1379 0.0000
# 2 53.3916 111.0177 46.0187 0.0000 -2.9973 0.0000
# 3 18.9910 46.0187 75.5379 0.0000 -7.7031 0.0000
# 4 0.0000 0.0000 0.0000 12.0866 0.0000 7.1061
# 5 -14.1379 -2.9973 -7.7031 0.0000 31.3439 0.0000
# 6 0.0000 0.0000 0.0000 7.1061 0.0000 21.2052
#
#
#
# Elastic Compliance Matrix: (Units=1/GPa)
#
#
# Indices 1 2 3 4 5 6 
#
# 1 0.012944 -0.006637 0.001354 0.000000 0.005536 0.000000
# 2 -0.006637 0.015467 -0.008112 0.000000 -0.003508 0.000000
# 3 0.001354 -0.008112 0.018281 0.000000 0.004328 0.000000
# 4 0.000000 0.000000 0.000000 0.103038 0.000000 -0.034529
# 5 0.005536 -0.003508 0.004328 0.000000 0.035129 0.000000
# 6 0.000000 0.000000 0.000000 -0.034529 0.000000 0.058729
#
#
# Mechanical properties :
#
#
# Convention : Reuss Voigt Hill
#
# Bulk Modulus (GPa) = 50.24591 59.11671 54.68131
# Shear Modulus (GPa) = 18.04966 24.71692 21.38329
#
# Velocity S-wave (km/s) = 3.09522 3.62205 3.36895
# Velocity P-wave (km/s) = 6.28039 6.99072 6.64505
#
# Compressibility (1/GPa) = 0.01990212
#
# Stress axis : x y z
#
# Youngs Moduli (GPa) = 77.25579 64.65287 54.70048
#
# Poissons Ratio (x) = 0.42908 -0.07404
# Poissons Ratio (y) = 0.51272 0.44373
# Poissons Ratio (z) = -0.10457 0.52447
#
# Static dielectric constant tensor:
#      x y z
#    x 1.690890 0.000000 -0.013920 
#    y 0.000000 1.661470 0.000000 
#    z -0.013920 0.000000 1.665630 
# 
# From -- ./inp_files/10756.got.cif
#   From: 2010.05.17/outbox.cif.g08.bks.cpg/sg8_6_cif.got.tgz:10756.got - 2010.06.03 19:46:02.
