data_PCOD9132876
_publ_section_title
;
Structure prediction by ZEFSAII (Michael W. Deem and Ramdas Pophale) SiO2 
 PCOD9132876
Probable space group: C M
;
_chemical_formula_sum "Si O2"
_cell_formula_units_Z 28
_cell_length_a 9.358830
_cell_length_b 31.226953
_cell_length_c 5.400934
_cell_angle_alpha 90.000000
_cell_angle_beta 126.624727
_cell_angle_gamma 90.000000
_cell_volume 1266.769496
_symmetry_space_group_name_H-M "C M"
_symmetry_group_IT_number 8
_symmetry_cell_setting 'monoclinic'
loop_
_space_group_symop_operation_xyz
x,y,z
x,-y,z
1/2+x,1/2+y,z
1/2+x,1/2-y,z
loop_
_atom_site_type_symbol
_atom_site_label
_atom_site_fract_x
_atom_site_fract_y
_atom_site_fract_z
Si Si1 0.010360 0.900644 0.562350
Si Si2 0.799301 0.739603 0.179397
Si Si3 0.440007 0.100299 0.011197
Si Si4 0.512025 0.548740 0.064738
Si Si5 0.225563 0.327619 0.317390
Si Si6 0.925329 0.764915 0.808290
Si Si7 0.943469 0.450950 0.514750
O O1 0.962870 0.927878 0.268615
O O2 0.892778 0.858242 0.435874
O O3 0.225040 0.893309 0.785669
O O4 0.962633 0.925924 0.765112
O O5 0.050232 0.644083 0.139968
O O6 0.733322 0.789027 0.130530
O O7 0.618362 0.713154 0.998453
O O8 0.904016 0.735649 0.542119
O O9 0.490212 0.072753 0.307036
O O10 0.491389 0.075271 0.811909
O O11 0.446887 0.500000 0.990364
O O12 0.727744 0.547265 0.290150
O O13 0.903765 0.261875 0.034429
O O14 0.275758 0.301232 0.618071
O O15 0.007797 0.500000 0.589275
#
# Coordination Sequence:
#
# PCOD9132876 Si02
#       7
#     4   4   4   4   4   4   4
#     4  10  21  37  57  87 120 161 200 249 307 353
#     4  10  23  43  66  92 122 161 205 255 312 375
#     4  10  21  37  57  87 120 161 200 249 307 353
#     4   9  18  35  59  84 118 162 208 248 294 356
#     4  10  26  38  65  88 130 150 204 250 313 360
#     4  10  23  43  66  92 122 161 205 255 312 375
#     4   9  18  35  59  84 118 162 208 248 294 356
#
# _framework density 22.103470000000002
#
# number of rings (size 3 to 8) (size 9 to 14) (size 15 to 20)
#    0.857    1.429    0.000    1.714    4.000    4.571 
#    0.000    4.286    0.000    0.000    0.000    0.000 
#    0.000    0.000    0.000    0.000    0.000    0.000 
#
# Total GULP energy -78115.979765 kJ/mol
# GULP energy per Si atom -5579.712840 kJ/mol
# Density = 2.205316 g / cm^3
# Si number density = 22.103470 Si / 1000 Ang^3
#
#
#
# Elastic Constant Matrix: (Units=GPa)
#
#
# Indices 1 2 3 4 5 6 
#
# 1 75.7687 23.1499 65.3917 0.0000 -10.9131 0.0000
# 2 23.1499 93.7568 40.3450 0.0000 -2.9767 0.0000
# 3 65.3917 40.3450 106.8433 0.0000 -34.8407 0.0000
# 4 0.0000 0.0000 0.0000 -6.6348 0.0000 -9.8172
# 5 -10.9131 -2.9767 -34.8407 0.0000 44.4207 0.0000
# 6 0.0000 0.0000 0.0000 -9.8172 0.0000 13.7753
#
#
#
# Elastic Compliance Matrix: (Units=1/GPa)
#
#
# Indices 1 2 3 4 5 6 
#
# 1 0.031085 0.001958 -0.023153 0.000000 -0.010392 0.000000
# 2 0.001958 0.013388 -0.007799 0.000000 -0.004739 0.000000
# 3 -0.023153 -0.007799 0.032852 0.000000 0.019556 0.000000
# 4 0.000000 0.000000 0.000000 -0.073361 0.000000 -0.052282
# 5 -0.010392 -0.004739 0.019556 0.000000 0.034980 0.000000
# 6 0.000000 0.000000 0.000000 -0.052282 0.000000 0.035334
#
#
# Mechanical properties :
#
#
# Convention : Reuss Voigt Hill
#
# Bulk Modulus (GPa) = 51.71504 59.34910 55.53207
# Shear Modulus (GPa) = 36.04559 20.14440 28.09499
#
# Velocity S-wave (km/s) = 4.04266 3.02216 3.56907
# Velocity P-wave (km/s) = 6.72595 6.25195 6.49327
#
# Compressibility (1/GPa) = 0.01933673
#
# Stress axis : x y z
#
# Youngs Moduli (GPa) = 32.16944 74.69338 30.43935
#
# Poissons Ratio (x) = -0.14624 0.70477
# Poissons Ratio (y) = -0.06298 0.23740
# Poissons Ratio (z) = 0.74483 0.58254
#
# Static dielectric constant tensor:
#      x y z
#    x 1.832910 0.000000 0.025160 
#    y 0.000000 1.778960 0.000000 
#    z 0.025160 0.000000 1.806330 
# 
# From -- ./inp_files/4341.got.cif
#   From: 2010.05.17/outbox.cif.g08.bks.cpg/sg8_3_cif.got.tgz:4341.got - 2010.06.03 19:46:02.
