data_PCOD9132392
_publ_section_title
;
Structure prediction by ZEFSAII (Michael W. Deem and Ramdas Pophale) SiO2 
 PCOD9132392
Probable space group: C M
;
_chemical_formula_sum "Si O2"
_cell_formula_units_Z 32
_cell_length_a 25.794620
_cell_length_b 8.405119
_cell_length_c 24.716023
_cell_angle_alpha 90.000000
_cell_angle_beta 17.663015
_cell_angle_gamma 90.000000
_cell_volume 1625.896879
_symmetry_space_group_name_H-M "C M"
_symmetry_group_IT_number 8
_symmetry_cell_setting 'monoclinic'
loop_
_space_group_symop_operation_xyz
x,y,z
x,-y,z
1/2+x,1/2+y,z
1/2+x,1/2-y,z
loop_
_atom_site_type_symbol
_atom_site_label
_atom_site_fract_x
_atom_site_fract_y
_atom_site_fract_z
Si Si1 0.087440 0.692753 0.195740
Si Si2 0.690841 0.690325 0.579750
Si Si3 0.403314 0.190436 0.947799
Si Si4 0.112884 0.690007 0.050423
Si Si5 0.580525 0.810164 0.457890
Si Si6 0.719723 0.808136 0.829431
Si Si7 0.228233 0.690340 0.425932
Si Si8 0.402720 0.192188 0.072109
O O1 0.093350 0.500000 0.191367
O O2 0.151811 0.748535 0.072159
O O3 0.886933 0.739086 0.399522
O O4 0.217894 0.758823 0.109838
O O5 0.690817 0.500000 0.574802
O O6 0.551864 0.741532 0.761757
O O7 0.649018 0.761092 0.562200
O O8 0.414988 0.000000 0.934944
O O9 0.424165 0.245396 0.988984
O O10 0.136731 0.500000 0.028093
O O11 0.913322 0.727106 0.239753
O O12 0.209389 0.753263 0.901683
O O13 0.395195 0.744392 0.628379
O O14 0.626439 0.759055 0.473739
O O15 0.726239 0.748835 0.273283
O O16 0.577985 0.000000 0.459228
O O17 0.713365 0.000000 0.837566
O O18 0.556793 0.751980 0.957391
O O19 0.250286 0.500000 0.402596
O O20 0.404227 0.000000 0.070905
#
# Coordination Sequence:
#
# PCOD9132392 Si02
#       8
#     4   4   4   4   4   4   4   4
#     4   9  20  38  59  89 121 155 199 240 290 353
#     4  10  22  40  62  87 118 159 202 243 290 351
#     4  11  24  40  62  90 119 156 200 248 297 348
#     4   9  18  35  60  88 118 156 198 240 291 351
#     4  11  24  38  58  91 124 155 193 244 303 355
#     4  10  21  38  62  88 116 157 201 244 292 350
#     4  10  20  35  57  89 126 157 189 241 302 352
#     4  10  23  44  64  84 116 159 206 246 289 350
#
# _framework density 19.681445
#
# number of rings (size 3 to 8) (size 9 to 14) (size 15 to 20)
#    0.000    2.000    1.250    2.250    1.750    7.000 
#    0.000    3.750    0.000    0.000    0.000    0.000 
#    0.000    0.000    0.000    0.000    0.000    0.000 
#
# Total GULP energy -89350.385260 kJ/mol
# GULP energy per Si atom -5584.399079 kJ/mol
# Density = 1.963665 g / cm^3
# Si number density = 19.681445 Si / 1000 Ang^3
#
#
#
# Elastic Constant Matrix: (Units=GPa)
#
#
# Indices 1 2 3 4 5 6 
#
# 1 60.1986 -6.6360 11.8393 0.0034 23.4996 0.0005
# 2 -6.6360 -22.4227 -27.7741 0.0005 3.1262 0.0053
# 3 11.8393 -27.7741 69.3089 0.0045 23.2247 0.0035
# 4 0.0034 0.0005 0.0045 2.9208 0.0023 -14.0334
# 5 23.4996 3.1262 23.2247 0.0023 24.5903 0.0006
# 6 0.0005 0.0053 0.0035 -14.0334 0.0006 16.1644
#
#
#
# Elastic Compliance Matrix: (Units=1/GPa)
#
#
# Indices 1 2 3 4 5 6 
#
# 1 0.023967 -0.009161 -0.000703 -0.000002 -0.021076 0.000002
# 2 -0.009161 -0.019891 -0.014903 -0.000019 0.025359 -0.000008
# 3 -0.000703 -0.014903 0.011289 -0.000002 -0.008095 0.000001
# 4 -0.000002 -0.000019 -0.000002 -0.107962 0.000018 -0.093729
# 5 -0.021076 0.025359 -0.008095 0.000018 0.065229 0.000007
# 6 0.000002 -0.000008 0.000001 -0.093729 0.000007 -0.019508
#
#
# Mechanical properties :
#
#
# Convention : Reuss Voigt Hill
#
# Bulk Modulus (GPa) = -29.26621 6.88258 -11.19182
# Shear Modulus (GPa) = -572.69101 17.37881 -277.65610
#
# Velocity S-wave (km/s) = -17.07665 2.97476 -11.89039
# Velocity P-wave (km/s) = 20.09274 3.91197 13.93583
#
# Compressibility (1/GPa) = -0.03416910
#
# Stress axis : x y z
#
# Youngs Moduli (GPa) = 41.72353 -50.27506 88.58442
#
# Poissons Ratio (x) = -0.46057 0.06227
# Poissons Ratio (y) = 0.38223 1.32021
# Poissons Ratio (z) = 0.02933 -0.74927
#
# Static dielectric constant tensor:
#      x y z
#    x 1.701810 0.000000 0.003660 
#    y 0.000000 1.676220 0.000000 
#    z 0.003660 0.000000 1.671120 
# 
# From -- ./inp_files/32337.got.cif
#   From: 2010.05.17/outbox.cif.g08.bks.cpg/sg8_17_cif.got.tgz:32337.got - 2010.06.03 19:46:02.
