data_PCOD9132149
_publ_section_title
;
Structure prediction by ZEFSAII (Michael W. Deem and Ramdas Pophale) SiO2 
 PCOD9132149
Probable space group: C M
;
_chemical_formula_sum "Si O2"
_cell_formula_units_Z 32
_cell_length_a 24.409084
_cell_length_b 7.973799
_cell_length_c 19.850903
_cell_angle_alpha 90.000000
_cell_angle_beta 23.577593
_cell_angle_gamma 90.000000
_cell_volume 1545.421166
_symmetry_space_group_name_H-M "C M"
_symmetry_group_IT_number 8
_symmetry_cell_setting 'monoclinic'
loop_
_space_group_symop_operation_xyz
x,y,z
x,-y,z
1/2+x,1/2+y,z
1/2+x,1/2-y,z
loop_
_atom_site_type_symbol
_atom_site_label
_atom_site_fract_x
_atom_site_fract_y
_atom_site_fract_z
Si Si1 0.069960 0.297485 0.973440
Si Si2 0.560845 0.298976 0.517750
Si Si3 0.755031 0.796563 0.890982
Si Si4 0.121891 0.803746 0.183108
Si Si5 0.056640 0.803909 0.841965
Si Si6 0.746621 0.195899 0.183013
Si Si7 0.326459 0.795969 0.465157
Si Si8 0.792361 0.296090 0.351614
O O1 0.081167 0.500000 0.954245
O O2 0.155399 0.245497 0.942422
O O3 0.107894 0.215089 0.860626
O O4 0.913224 0.252257 0.164669
O O5 0.552719 0.500000 0.532784
O O6 0.406516 0.236266 0.700121
O O7 0.641963 0.266011 0.356982
O O8 0.652084 0.235310 0.477308
O O9 0.753302 0.000000 0.894701
O O10 0.701295 0.739945 0.024360
O O11 0.185413 0.715938 0.177153
O O12 0.962121 0.760484 0.351271
O O13 0.134309 0.000000 0.181672
O O14 0.181086 0.733917 0.657533
O O15 0.044941 0.000000 0.836619
O O16 0.902371 0.731325 0.010027
O O17 0.758733 0.000000 0.185599
O O18 0.331173 0.739887 0.382270
O O19 0.327655 0.000000 0.465704
O O20 0.787319 0.500000 0.360399
#
# Coordination Sequence:
#
# PCOD9132149 Si02
#       8
#     4   4   4   4   4   4   4   4
#     4  10  19  36  61  86 118 157 198 245 297 356
#     4  10  21  38  63  92 121 158 203 248 296 358
#     4  10  22  40  63  89 120 160 202 246 301 361
#     4  12  26  42  61  88 123 162 205 252 303 360
#     4  10  23  39  62  92 121 157 201 250 301 357
#     4  11  24  42  62  87 125 165 202 249 304 361
#     4  10  21  41  64  89 120 159 204 247 301 361
#     4   9  17  34  62  87 112 152 199 245 293 350
#
# _framework density 20.706327999999999
#
# number of rings (size 3 to 8) (size 9 to 14) (size 15 to 20)
#    0.000    1.750    2.500    1.500    3.500    2.000 
#    0.000    0.625    0.000    0.000    0.000    0.000 
#    0.000    0.000    0.000    0.000    0.000    0.000 
#
# Total GULP energy -89321.572532 kJ/mol
# GULP energy per Si atom -5582.598283 kJ/mol
# Density = 2.065920 g / cm^3
# Si number density = 20.706328 Si / 1000 Ang^3
#
#
#
# Elastic Constant Matrix: (Units=GPa)
#
#
# Indices 1 2 3 4 5 6 
#
# 1 80.8718 -17.0299 19.0462 0.0002 -11.5346 0.0002
# 2 -17.0299 17.5381 -0.7578 -0.0005 -6.2898 0.0006
# 3 19.0462 -0.7578 113.7829 -0.0002 -14.8463 0.0005
# 4 0.0002 -0.0005 -0.0002 19.3175 0.0000 8.0726
# 5 -11.5346 -6.2898 -14.8463 0.0000 33.5695 0.0000
# 6 0.0002 0.0006 0.0005 8.0726 0.0000 14.3263
#
#
#
# Elastic Compliance Matrix: (Units=1/GPa)
#
#
# Indices 1 2 3 4 5 6 
#
# 1 0.018693 0.021557 -0.001720 0.000001 0.009702 -0.000002
# 2 0.021557 0.086425 0.000049 0.000005 0.023622 -0.000007
# 3 -0.001720 0.000049 0.009552 0.000000 0.003643 -0.000001
# 4 0.000001 0.000005 0.000000 0.067711 0.000002 -0.038154
# 5 0.009702 0.023622 0.003643 0.000002 0.039159 -0.000002
# 6 -0.000002 -0.000007 -0.000001 -0.038154 -0.000002 0.091301
#
#
# Mechanical properties :
#
#
# Convention : Reuss Voigt Hill
#
# Bulk Modulus (GPa) = 6.47487 23.85664 15.16576
# Shear Modulus (GPa) = 15.40597 27.50495 21.45546
#
# Velocity S-wave (km/s) = 2.73064 3.64859 3.22247
# Velocity P-wave (km/s) = 3.61602 5.41258 4.60281
#
# Compressibility (1/GPa) = 0.15444315
#
# Stress axis : x y z
#
# Youngs Moduli (GPa) = 53.49490 11.57076 104.68820
#
# Poissons Ratio (x) = -0.24943 0.18003
# Poissons Ratio (y) = -1.15318 -0.00516
# Poissons Ratio (z) = 0.09199 -0.00057
#
# Static dielectric constant tensor:
#      x y z
#    x 1.704560 0.000000 -0.020380 
#    y 0.000000 1.749940 0.000000 
#    z -0.020380 0.000000 1.742320 
# 
# From -- ./inp_files/31625.got.cif
#   From: 2010.05.17/outbox.cif.g08.bks.cpg/sg8_16_cif.got.tgz:31625.got - 2010.06.03 19:46:02.
