data_PCOD9132523
_publ_section_title
;
Structure prediction by ZEFSAII (Michael W. Deem and Ramdas Pophale) SiO2 
 PCOD9132523
Probable space group: C M
;
_chemical_formula_sum "Si O2"
_cell_formula_units_Z 24
_cell_length_a 24.031612
_cell_length_b 10.972485
_cell_length_c 8.225470
_cell_angle_alpha 90.000000
_cell_angle_beta 34.206424
_cell_angle_gamma 90.000000
_cell_volume 1219.329288
_symmetry_space_group_name_H-M "C M"
_symmetry_group_IT_number 8
_symmetry_cell_setting 'monoclinic'
loop_
_space_group_symop_operation_xyz
x,y,z
x,-y,z
1/2+x,1/2+y,z
1/2+x,1/2-y,z
loop_
_atom_site_type_symbol
_atom_site_label
_atom_site_fract_x
_atom_site_fract_y
_atom_site_fract_z
Si Si1 0.735740 0.852485 0.127070
Si Si2 0.849572 0.000000 0.255828
Si Si3 0.549546 0.500000 0.569711
Si Si4 0.977732 0.000000 0.239987
Si Si5 0.462266 0.698015 0.550649
Si Si6 0.212014 0.269854 0.521281
Si Si7 0.184492 0.000000 0.540669
Si Si8 0.123809 0.642437 0.065084
O O1 0.673087 0.802042 0.432739
O O2 0.694267 0.823630 0.047807
O O3 0.740415 0.000000 0.128191
O O4 0.847489 0.801809 0.876425
O O5 0.879555 0.000000 0.369591
O O6 0.793116 0.875962 0.349835
O O7 0.953746 0.000000 0.915013
O O8 0.531407 0.619880 0.505559
O O9 0.647092 0.500000 0.443663
O O10 0.969423 0.881715 0.370829
O O11 0.081530 0.000000 0.893075
O O12 0.514004 0.825580 0.392224
O O13 0.238941 0.126882 0.448514
O O14 0.145714 0.288977 0.842704
O O15 0.135934 0.500000 0.003310
#
# Coordination Sequence:
#
# PCOD9132523 Si02
#       8
#     4   2   2   2   4   4   2   4
#     4  11  21  40  65  90 115 165 216 248 295 373
#     4  11  20  38  68  84 114 161 217 244 295 368
#     4  10  20  38  64  88 112 167 207 247 300 374
#     4  10  20  36  64  86 108 159 209 249 294 370
#     4  11  19  39  62  89 121 153 212 258 294 355
#     4  12  21  41  60  93 122 160 201 257 299 363
#     4  11  24  36  60  92 128 153 199 258 319 354
#     4  11  24  38  63  91 124 163 205 253 313 364
#
# _framework density 19.682950999999999
#
# number of rings (size 3 to 8) (size 9 to 14) (size 15 to 20)
#    0.000    1.000    6.667    2.000    0.000    0.000 
#    1.500    0.000    5.500    2.000    0.000    0.000 
#    0.000    0.000    0.000    0.000    0.000    0.000 
#
# Total GULP energy -66883.556224 kJ/mol
# GULP energy per Si atom -5573.629685 kJ/mol
# Density = 1.963815 g / cm^3
# Si number density = 19.682951 Si / 1000 Ang^3
#
#
#
# Elastic Constant Matrix: (Units=GPa)
#
#
# Indices 1 2 3 4 5 6 
#
# 1 103.0320 37.1594 31.1847 0.0000 19.2329 0.0000
# 2 37.1594 114.1609 25.9386 0.0000 -4.2130 0.0000
# 3 31.1847 25.9386 52.5963 0.0000 11.7268 0.0000
# 4 0.0000 0.0000 0.0000 51.1622 0.0000 27.6208
# 5 19.2329 -4.2130 11.7268 0.0000 28.5451 0.0000
# 6 0.0000 0.0000 0.0000 27.6208 0.0000 30.9109
#
#
#
# Elastic Compliance Matrix: (Units=1/GPa)
#
#
# Indices 1 2 3 4 5 6 
#
# 1 0.013983 -0.003802 -0.004612 0.000000 -0.008087 0.000000
# 2 -0.003802 0.011288 -0.004685 0.000000 0.006152 0.000000
# 3 -0.004612 -0.004685 0.025890 0.000000 -0.008220 0.000000
# 4 0.000000 0.000000 0.000000 0.037763 0.000000 -0.033743
# 5 -0.008087 0.006152 -0.008220 0.000000 0.044766 0.000000
# 6 0.000000 0.000000 0.000000 -0.033743 0.000000 0.062503
#
#
# Mechanical properties :
#
#
# Convention : Reuss Voigt Hill
#
# Bulk Modulus (GPa) = 40.05766 50.92826 45.49296
# Shear Modulus (GPa) = 21.67206 33.82407 27.74807
#
# Velocity S-wave (km/s) = 3.32182 4.14991 3.75874
# Velocity P-wave (km/s) = 5.92522 6.99234 6.48078
#
# Compressibility (1/GPa) = 0.02496401
#
# Stress axis : x y z
#
# Youngs Moduli (GPa) = 71.51772 88.58576 38.62434
#
# Poissons Ratio (x) = 0.33679 0.17815
# Poissons Ratio (y) = 0.27190 0.18094
# Poissons Ratio (z) = 0.32986 0.41499
#
# Static dielectric constant tensor:
#      x y z
#    x 1.771000 0.000000 0.045010 
#    y 0.000000 1.669410 0.000000 
#    z 0.045010 0.000000 1.702700 
# 
# From -- ./inp_files/12446.got.cif
#   From: 2010.05.17/outbox.cif.g08.bks.cpg/sg8_7_cif.got.tgz:12446.got - 2010.06.03 19:46:02.
