data_PCOD9132021
_publ_section_title
;
Structure prediction by ZEFSAII (Michael W. Deem and Ramdas Pophale) SiO2 
 PCOD9132021
Probable space group: C M
;
_chemical_formula_sum "Si O2"
_cell_formula_units_Z 32
_cell_length_a 28.334354
_cell_length_b 8.994489
_cell_length_c 21.389895
_cell_angle_alpha 90.000000
_cell_angle_beta 18.980085
_cell_angle_gamma 90.000000
_cell_volume 1772.971415
_symmetry_space_group_name_H-M "C M"
_symmetry_group_IT_number 8
_symmetry_cell_setting 'monoclinic'
loop_
_space_group_symop_operation_xyz
x,y,z
x,-y,z
1/2+x,1/2+y,z
1/2+x,1/2-y,z
loop_
_atom_site_type_symbol
_atom_site_label
_atom_site_fract_x
_atom_site_fract_y
_atom_site_fract_z
Si Si1 0.286280 0.322548 0.960230
Si Si2 0.268482 0.673699 0.217163
Si Si3 0.638957 0.178131 0.012855
Si Si4 0.856821 0.675312 0.300735
Si Si5 0.312983 0.824292 0.680722
Si Si6 0.599087 0.175084 0.561005
Si Si7 0.025605 0.175520 0.976948
Si Si8 0.125377 0.176356 0.278530
O O1 0.287404 0.500000 0.966754
O O2 0.198999 0.287849 0.005970
O O3 0.449250 0.262569 0.749738
O O4 0.209345 0.247130 0.115185
O O5 0.252894 0.500000 0.219090
O O6 0.178306 0.696224 0.394505
O O7 0.206038 0.773710 0.240861
O O8 0.436876 0.701361 0.024593
O O9 0.732091 0.264779 0.844182
O O10 0.654937 0.000000 0.981723
O O11 0.468238 0.212815 0.216995
O O12 0.825990 0.500000 0.340229
O O13 0.709217 0.765282 0.475981
O O14 0.952111 0.719393 0.120545
O O15 0.197234 0.803188 0.769142
O O16 0.462316 0.739451 0.484538
O O17 0.340769 0.000000 0.652260
O O18 0.573940 0.000000 0.600395
O O19 0.997016 0.000000 0.029151
O O20 0.123101 0.000000 0.276546
#
# Coordination Sequence:
#
# PCOD9132021 Si02
#       8
#     4   4   4   4   4   4   4   4
#     4  11  23  39  56  75 104 142 182 222 266 313
#     4   9  18  35  58  82 108 139 175 215 260 312
#     4   9  19  35  57  84 109 136 175 220 263 312
#     4   9  16  29  52  82 111 137 169 213 263 311
#     4  10  19  34  58  84 109 139 174 214 263 316
#     4  10  20  35  56  83 111 139 175 216 260 314
#     4   8  16  31  53  81 108 135 171 216 263 311
#     4  12  25  38  52  75 108 143 181 222 264 313
#
# _framework density 18.048797
#
# number of rings (size 3 to 8) (size 9 to 14) (size 15 to 20)
#    0.000    2.250    0.000    4.125    0.000    6.500 
#    0.000    1.250    0.000    3.000    0.000    0.000 
#    0.000    0.000    0.000    0.000    0.000    0.000 
#
# Total GULP energy -89250.395892 kJ/mol
# GULP energy per Si atom -5578.149743 kJ/mol
# Density = 1.800772 g / cm^3
# Si number density = 18.048797 Si / 1000 Ang^3
#
#
#
# Elastic Constant Matrix: (Units=GPa)
#
#
# Indices 1 2 3 4 5 6 
#
# 1 90.7764 69.1605 92.4542 0.0000 -34.1187 0.0000
# 2 69.1605 92.6571 59.7333 -0.0002 -17.6849 0.0000
# 3 92.4542 59.7333 59.8092 -0.0001 -25.6166 0.0000
# 4 0.0000 -0.0002 -0.0001 28.4903 0.0000 -0.9288
# 5 -34.1187 -17.6849 -25.6166 0.0000 26.4122 0.0000
# 6 0.0000 0.0000 0.0000 -0.9288 0.0000 23.7206
#
#
#
# Elastic Compliance Matrix: (Units=1/GPa)
#
#
# Indices 1 2 3 4 5 6 
#
# 1 -0.012921 -0.011592 0.036055 0.000000 0.010516 0.000000
# 2 -0.011592 0.024133 -0.009709 0.000000 -0.008232 0.000000
# 3 0.036055 -0.009709 -0.020791 0.000000 0.019910 0.000000
# 4 0.000000 0.000000 0.000000 0.035145 0.000000 0.001376
# 5 0.010516 -0.008232 0.019910 0.000000 0.065244 0.000000
# 6 0.000000 0.000000 0.000000 0.001376 0.000000 0.042211
#
#
# Mechanical properties :
#
#
# Convention : Reuss Voigt Hill
#
# Bulk Modulus (GPa) = 50.17704 76.21540 63.19622
# Shear Modulus (GPa) = 45.39047 17.18428 31.28737
#
# Velocity S-wave (km/s) = 5.02029 3.08896 4.16803
# Velocity P-wave (km/s) = 7.84000 7.41898 7.63240
#
# Compressibility (1/GPa) = 0.01992943
#
# Stress axis : x y z
#
# Youngs Moduli (GPa) = -77.39366 41.43787 -48.09871
#
# Poissons Ratio (x) = 0.48034 1.73419
# Poissons Ratio (y) = -0.89714 -0.46697
# Poissons Ratio (z) = 2.79041 0.40230
#
# Static dielectric constant tensor:
#      x y z
#    x 1.621880 0.000000 -0.035760 
#    y 0.000000 1.598970 0.000000 
#    z -0.035760 0.000000 1.611340 
# 
# From -- ./inp_files/22749.got.cif
#   From: 2010.05.17/outbox.cif.g08.bks.cpg/sg8_12_cif.got.tgz:22749.got - 2010.06.03 19:46:02.
