data_PCOD9132947
_publ_section_title
;
Structure prediction by ZEFSAII (Michael W. Deem and Ramdas Pophale) SiO2 
 PCOD9132947
Probable space group: C M
;
_chemical_formula_sum "Si O2"
_cell_formula_units_Z 32
_cell_length_a 10.435347
_cell_length_b 23.832858
_cell_length_c 5.483791
_cell_angle_alpha 90.000000
_cell_angle_beta 86.923256
_cell_angle_gamma 90.000000
_cell_volume 1361.875617
_symmetry_space_group_name_H-M "C M"
_symmetry_group_IT_number 8
_symmetry_cell_setting 'monoclinic'
loop_
_space_group_symop_operation_xyz
x,y,z
x,-y,z
1/2+x,1/2+y,z
1/2+x,1/2-y,z
loop_
_atom_site_type_symbol
_atom_site_label
_atom_site_fract_x
_atom_site_fract_y
_atom_site_fract_z
Si Si1 0.768040 0.860261 0.382760
Si Si2 0.711177 0.935288 0.776541
Si Si3 0.738432 0.236127 0.790420
Si Si4 0.607526 0.318640 0.519622
Si Si5 0.321605 0.123219 0.256892
Si Si6 0.913022 0.567298 0.758450
Si Si7 0.041231 0.710395 0.201768
Si Si8 0.913181 0.153870 0.957816
O O1 0.747515 0.921459 0.493122
O O2 0.759474 0.813665 0.595904
O O3 0.643405 0.839766 0.249646
O O4 0.908855 0.854990 0.249374
O O5 0.562083 0.917953 0.803123
O O6 0.810909 0.896112 0.910008
O O7 0.723432 0.000000 0.839627
O O8 0.733326 0.294683 0.657936
O O9 0.849782 0.216573 0.960011
O O10 0.603835 0.232476 0.945146
O O11 0.675345 0.358823 0.319084
O O12 0.554479 0.261054 0.397707
O O13 0.521389 0.345941 0.742314
O O14 0.371679 0.092322 0.499343
O O15 0.407081 0.179096 0.211280
O O16 0.336361 0.088600 0.004339
O O17 0.904994 0.500000 0.742186
#
# Coordination Sequence:
#
# PCOD9132947 Si02
#       8
#     4   4   4   4   4   4   4   4
#     4   9  17  36  58  85 122 157 200 269 320 378
#     4  10  21  38  65  93 118 158 214 280 345 384
#     4   9  20  36  58  90 123 171 212 259 323 381
#     4  11  25  38  62  91 136 185 216 260 326 413
#     4  12  25  44  70 101 139 182 228 276 342 409
#     4  11  25  47  74 101 130 171 233 299 346 392
#     4  10  21  38  62  93 131 170 215 272 322 402
#     4  10  21  39  58  88 130 164 215 265 322 391
#
# _framework density 23.497005999999999
#
# number of rings (size 3 to 8) (size 9 to 14) (size 15 to 20)
#    0.000    1.750    1.250    3.375    3.500    5.500 
#    0.000    1.250    0.000    0.000    0.000    0.000 
#    0.000    0.000    0.000    0.000    0.000    0.000 
#
# Total GULP energy -89229.968598 kJ/mol
# GULP energy per Si atom -5576.873037 kJ/mol
# Density = 2.344353 g / cm^3
# Si number density = 23.497006 Si / 1000 Ang^3
#
#
#
# Elastic Constant Matrix: (Units=GPa)
#
#
# Indices 1 2 3 4 5 6 
#
# 1 71.1000 22.7101 18.4603 0.0000 -31.5467 0.0000
# 2 22.7101 74.1642 28.2654 0.0000 0.3508 0.0000
# 3 18.4603 28.2654 147.7565 0.0000 -34.6980 0.0000
# 4 0.0000 0.0000 0.0000 38.0869 0.0000 4.7107
# 5 -31.5467 0.3508 -34.6980 0.0000 45.9141 0.0000
# 6 0.0000 0.0000 0.0000 4.7107 0.0000 30.4391
#
#
#
# Elastic Compliance Matrix: (Units=1/GPa)
#
#
# Indices 1 2 3 4 5 6 
#
# 1 0.024694 -0.008863 0.003174 0.000000 0.019433 0.000000
# 2 -0.008863 0.018004 -0.004619 0.000000 -0.009718 0.000000
# 3 0.003174 -0.004619 0.009453 0.000000 0.009360 0.000000
# 4 0.000000 0.000000 0.000000 0.026768 0.000000 -0.004143
# 5 0.019433 -0.009718 0.009360 0.000000 0.042279 0.000000
# 6 0.000000 0.000000 0.000000 -0.004143 0.000000 0.033494
#
#
# Mechanical properties :
#
#
# Convention : Reuss Voigt Hill
#
# Bulk Modulus (GPa) = 31.71134 47.98803 39.84969
# Shear Modulus (GPa) = 26.90782 37.79369 32.35075
#
# Velocity S-wave (km/s) = 3.38769 4.01490 3.71456
# Velocity P-wave (km/s) = 5.36909 6.47765 5.94925
#
# Compressibility (1/GPa) = 0.03153446
#
# Stress axis : x y z
#
# Youngs Moduli (GPa) = 40.49569 55.54354 105.78784
#
# Poissons Ratio (x) = 0.49229 -0.33575
# Poissons Ratio (y) = 0.35892 0.48861
# Poissons Ratio (z) = -0.12853 0.25654
#
# Static dielectric constant tensor:
#      x y z
#    x 2.144700 0.000000 0.220900 
#    y 0.000000 1.827260 0.000000 
#    z 0.220900 0.000000 2.207630 
# 
# From -- ./inp_files/3171.got.cif
#   From: 2010.05.17/outbox.cif.g08.bks.cpg/sg8_2_cif.got.tgz:3171.got - 2010.06.03 19:46:02.
