data_PCOD9132860
_publ_section_title
;
Structure prediction by ZEFSAII (Michael W. Deem and Ramdas Pophale) SiO2 
 PCOD9132860
Probable space group: C M
;
_chemical_formula_sum "Si O2"
_cell_formula_units_Z 24
_cell_length_a 5.346493
_cell_length_b 13.933965
_cell_length_c 15.532297
_cell_angle_alpha 90.000000
_cell_angle_beta 117.342935
_cell_angle_gamma 90.000000
_cell_volume 1027.841167
_symmetry_space_group_name_H-M "C M"
_symmetry_group_IT_number 8
_symmetry_cell_setting 'monoclinic'
loop_
_space_group_symop_operation_xyz
x,y,z
x,-y,z
1/2+x,1/2+y,z
1/2+x,1/2-y,z
loop_
_atom_site_type_symbol
_atom_site_label
_atom_site_fract_x
_atom_site_fract_y
_atom_site_fract_z
Si Si1 0.526450 0.796283 0.147110
Si Si2 0.300734 0.310229 0.647087
Si Si3 0.217184 0.500000 0.904880
Si Si4 0.072182 0.616681 0.428549
Si Si5 0.435550 0.610345 0.325037
Si Si6 0.043789 0.000000 0.776155
Si Si7 0.249713 0.281782 0.934526
O O1 0.272972 0.783142 0.173770
O O2 0.722863 0.880958 0.210763
O O3 0.377680 0.786960 0.030685
O O4 0.547394 0.234865 0.662880
O O5 0.431716 0.404915 0.711281
O O6 0.170196 0.342482 0.534864
O O7 0.411100 0.500000 0.850801
O O8 0.274847 0.395495 0.957604
O O9 0.883536 0.500000 0.832389
O O10 0.084960 0.500000 0.434108
O O11 0.749778 0.646062 0.359045
O O12 0.277917 0.649241 0.384307
O O13 0.476144 0.500000 0.350419
O O14 0.429024 0.250926 0.880934
#
# Coordination Sequence:
#
# PCOD9132860 Si02
#       7
#     4   4   2   4   4   2   4
#     4  10  21  39  57  90 131 164 217 286 326 383
#     4  12  26  44  70 104 137 189 221 280 352 405
#     4  12  26  46  78 100 131 190 217 284 366 408
#     4  10  21  40  62  91 139 178 234 277 324 403
#     4  10  21  36  61  93 128 186 228 278 329 387
#     4  12  28  48  70 108 143 166 235 290 336 430
#     4  10  23  45  68 102 135 173 225 288 340 421
#
# _framework density 23.349912
#
# number of rings (size 3 to 8) (size 9 to 14) (size 15 to 20)
#    0.000    1.333    0.833    4.000    0.000    8.000 
#   12.000    0.000    0.000    0.000    0.000    0.000 
#    0.000    0.000    0.000    0.000    0.000    0.000 
#
# Total GULP energy -67001.526632 kJ/mol
# GULP energy per Si atom -5583.460553 kJ/mol
# Density = 2.329677 g / cm^3
# Si number density = 23.349912 Si / 1000 Ang^3
#
#
#
# Elastic Constant Matrix: (Units=GPa)
#
#
# Indices 1 2 3 4 5 6 
#
# 1 146.1433 11.1629 12.1500 0.0000 11.2599 0.0000
# 2 11.1629 108.7290 0.8260 0.0000 2.8112 0.0000
# 3 12.1500 0.8260 82.8238 0.0000 8.4076 0.0000
# 4 0.0000 0.0000 0.0000 44.0735 0.0000 5.8065
# 5 11.2599 2.8112 8.4076 0.0000 23.9879 0.0000
# 6 0.0000 0.0000 0.0000 5.8065 0.0000 25.3037
#
#
#
# Elastic Compliance Matrix: (Units=1/GPa)
#
#
# Indices 1 2 3 4 5 6 
#
# 1 0.007188 -0.000654 -0.000740 0.000000 -0.003038 0.000000
# 2 -0.000654 0.009285 0.000086 0.000000 -0.000811 0.000000
# 3 -0.000740 0.000086 0.012595 0.000000 -0.004077 0.000000
# 4 0.000000 0.000000 0.000000 0.023397 0.000000 -0.005369
# 5 -0.003038 -0.000811 -0.004077 0.000000 0.044638 0.000000
# 6 0.000000 0.000000 0.000000 -0.005369 0.000000 0.040752
#
#
# Mechanical properties :
#
#
# Convention : Reuss Voigt Hill
#
# Bulk Modulus (GPa) = 37.80323 42.88598 40.34460
# Shear Modulus (GPa) = 33.49237 39.57684 36.53461
#
# Velocity S-wave (km/s) = 3.79141 4.12144 3.95987
# Velocity P-wave (km/s) = 5.94907 6.40741 6.18249
#
# Compressibility (1/GPa) = 0.02645277
#
# Stress axis : x y z
#
# Youngs Moduli (GPa) = 139.11853 107.70490 79.39423
#
# Poissons Ratio (x) = 0.07042 0.05871
# Poissons Ratio (y) = 0.09096 -0.00680
# Poissons Ratio (z) = 0.10288 -0.00923
#
# Static dielectric constant tensor:
#      x y z
#    x 1.943890 0.000000 -0.014980 
#    y 0.000000 1.867990 0.000000 
#    z -0.014980 0.000000 1.882220 
# 
# From -- ./inp_files/24908.got.cif
#   From: 2010.05.17/outbox.cif.g08.bks.cpg/sg8_13_cif.got.tgz:24908.got - 2010.06.03 19:46:02.
