data_PCOD9132234
_publ_section_title
;
Structure prediction by ZEFSAII (Michael W. Deem and Ramdas Pophale) SiO2 
 PCOD9132234
Probable space group: C M
;
_chemical_formula_sum "Si O2"
_cell_formula_units_Z 30
_cell_length_a 16.085171
_cell_length_b 12.804280
_cell_length_c 9.404275
_cell_angle_alpha 90.000000
_cell_angle_beta 42.499213
_cell_angle_gamma 90.000000
_cell_volume 1308.527942
_symmetry_space_group_name_H-M "C M"
_symmetry_group_IT_number 8
_symmetry_cell_setting 'monoclinic'
loop_
_space_group_symop_operation_xyz
x,y,z
x,-y,z
1/2+x,1/2+y,z
1/2+x,1/2-y,z
loop_
_atom_site_type_symbol
_atom_site_label
_atom_site_fract_x
_atom_site_fract_y
_atom_site_fract_z
Si Si1 0.531430 0.661647 0.222100
Si Si2 0.358522 0.618256 0.688348
Si Si3 0.219144 0.317519 0.320249
Si Si4 0.373043 0.886843 0.072989
Si Si5 0.651285 0.121408 0.713186
Si Si6 0.889972 0.000000 0.191484
Si Si7 0.508613 0.118856 0.359432
Si Si8 0.320664 0.163449 0.832779
O O1 0.483331 0.627668 0.439341
O O2 0.456536 0.591804 0.206449
O O3 0.505705 0.786216 0.251479
O O4 0.675663 0.644737 0.019270
O O5 0.342907 0.500000 0.759709
O O6 0.250654 0.642982 0.709291
O O7 0.348355 0.712343 0.810622
O O8 0.280091 0.205694 0.219817
O O9 0.168094 0.317080 0.546346
O O10 0.320230 0.407988 0.188630
O O11 0.114455 0.347804 0.338780
O O12 0.331606 0.000000 0.179735
O O13 0.513406 0.869073 0.942016
O O14 0.380826 0.890368 0.891881
O O15 0.677334 0.000000 0.636993
O O16 0.383294 0.125328 0.609010
O O17 0.527993 0.000000 0.283366
#
# Coordination Sequence:
#
# PCOD9132234 Si02
#       8
#     4   4   4   4   4   2   4   4
#     4  11  23  41  63  95 135 172 209 270 334 386
#     4  10  21  40  63  92 127 169 214 269 320 390
#     4  12  21  42  72  93 125 176 225 266 317 394
#     4  11  25  41  64  95 129 169 216 271 324 388
#     4  10  19  40  67  90 121 169 220 261 320 390
#     4  12  24  42  72  96 128 178 222 262 330 400
#     4  11  23  41  66  98 128 173 224 269 316 392
#     4  11  24  38  63  96 129 170 214 263 332 387
#
# _framework density 22.926527
#
# number of rings (size 3 to 8) (size 9 to 14) (size 15 to 20)
#    0.000    1.067    6.000    0.400    3.733    0.533 
#    1.200    0.667    1.467    0.000    0.000    0.000 
#    0.000    0.000    0.000    0.000    0.000    0.000 
#
# Total GULP energy -83697.981925 kJ/mol
# GULP energy per Si atom -5579.865462 kJ/mol
# Density = 2.287435 g / cm^3
# Si number density = 22.926527 Si / 1000 Ang^3
#
#
#
# Elastic Constant Matrix: (Units=GPa)
#
#
# Indices 1 2 3 4 5 6 
#
# 1 58.3311 58.8802 37.3796 0.0000 -6.5165 0.0000
# 2 58.8802 194.9365 42.8907 0.0000 -11.4993 0.0000
# 3 37.3796 42.8907 71.5047 0.0000 -19.1857 0.0000
# 4 0.0000 0.0000 0.0000 23.2000 0.0000 -1.6733
# 5 -6.5165 -11.4993 -19.1857 0.0000 25.9065 0.0000
# 6 0.0000 0.0000 0.0000 -1.6733 0.0000 34.9952
#
#
#
# Elastic Compliance Matrix: (Units=1/GPa)
#
#
# Indices 1 2 3 4 5 6 
#
# 1 0.032959 -0.007101 -0.014466 0.000000 -0.005574 0.000000
# 2 -0.007101 0.007440 -0.000429 0.000000 0.001199 0.000000
# 3 -0.014466 -0.000429 0.025929 0.000000 0.015374 0.000000
# 4 0.000000 0.000000 0.000000 0.043253 0.000000 0.002068
# 5 -0.005574 0.001199 0.015374 0.000000 0.049115 0.000000
# 6 0.000000 0.000000 0.000000 0.002068 0.000000 0.028674
#
#
# Mechanical properties :
#
#
# Convention : Reuss Voigt Hill
#
# Bulk Modulus (GPa) = 44.76979 67.00815 55.88897
# Shear Modulus (GPa) = 20.93745 29.19511 25.06628
#
# Velocity S-wave (km/s) = 3.02527 3.57237 3.31014
# Velocity P-wave (km/s) = 5.63674 6.80490 6.24818
#
# Compressibility (1/GPa) = 0.02233649
#
# Stress axis : x y z
#
# Youngs Moduli (GPa) = 30.34114 134.41181 38.56645
#
# Poissons Ratio (x) = 0.95448 0.55789
# Poissons Ratio (y) = 0.21546 0.01654
# Poissons Ratio (z) = 0.43890 0.05765
#
# Static dielectric constant tensor:
#      x y z
#    x 1.820010 0.000000 0.015190 
#    y 0.000000 1.869920 0.000000 
#    z 0.015190 0.000000 1.945410 
# 
# From -- ./inp_files/23168.got.cif
#   From: 2010.05.17/outbox.cif.g08.bks.cpg/sg8_12_cif.got.tgz:23168.got - 2010.06.03 19:46:02.
