data_PCOD9132671
_publ_section_title
;
Structure prediction by ZEFSAII (Michael W. Deem and Ramdas Pophale) SiO2 
 PCOD9132671
Probable space group: C M
;
_chemical_formula_sum "Si O2"
_cell_formula_units_Z 32
_cell_length_a 12.170319
_cell_length_b 13.971948
_cell_length_c 18.301550
_cell_angle_alpha 90.000000
_cell_angle_beta 28.544172
_cell_angle_gamma 90.000000
_cell_volume 1487.050743
_symmetry_space_group_name_H-M "C M"
_symmetry_group_IT_number 8
_symmetry_cell_setting 'monoclinic'
loop_
_space_group_symop_operation_xyz
x,y,z
x,-y,z
1/2+x,1/2+y,z
1/2+x,1/2-y,z
loop_
_atom_site_type_symbol
_atom_site_label
_atom_site_fract_x
_atom_site_fract_y
_atom_site_fract_z
Si Si1 0.585300 0.610838 0.435240
Si Si2 0.990897 0.605806 0.315901
Si Si3 0.599300 0.107412 0.790582
Si Si4 0.575090 0.688135 0.286788
Si Si5 0.270794 0.891745 0.604495
Si Si6 0.047967 0.615290 0.591759
Si Si7 0.025971 0.603937 0.998289
Si Si8 0.359958 0.241285 0.834792
O O1 0.579378 0.500000 0.412284
O O2 0.770073 0.613806 0.391797
O O3 0.334358 0.634079 0.612795
O O4 0.632779 0.678155 0.339250
O O5 0.096037 0.500000 0.240896
O O6 0.911036 0.608981 0.446906
O O7 0.121238 0.705521 0.229876
O O8 0.643395 0.106621 0.850502
O O9 0.400516 0.177147 0.881975
O O10 0.539547 0.000000 0.803037
O O11 0.308275 0.656872 0.436401
O O12 0.754608 0.616344 0.145228
O O13 0.425126 0.869906 0.585307
O O14 0.062587 0.819460 0.716815
O O15 0.181284 0.000000 0.666402
O O16 0.056074 0.500000 0.601449
O O17 0.907189 0.672877 0.736866
O O18 0.070136 0.500000 0.007441
O O19 0.128540 0.697649 0.975588
#
# Coordination Sequence:
#
# PCOD9132671 Si02
#       8
#     4   4   4   4   4   4   4   4
#     4  10  20  38  66  95 127 166 214 263 305 375
#     4  10  22  38  60  92 127 164 210 260 314 373
#     4  10  21  38  61  92 126 163 211 258 311 375
#     4  12  24  40  68  95 130 167 214 260 324 376
#     4  10  21  37  59  95 129 157 205 267 321 364
#     4  11  23  39  65  98 130 163 210 268 318 375
#     4  11  26  44  62  92 131 170 211 261 320 381
#     4  12  21  38  65  91 124 172 217 255 311 377
#
# _framework density 21.519105
#
# number of rings (size 3 to 8) (size 9 to 14) (size 15 to 20)
#    0.000    1.250    2.500    3.375    3.500    3.000 
#    0.000    1.250    0.000    0.750    0.000    0.000 
#    0.000    0.000    0.000    0.000    0.000    0.000 
#
# Total GULP energy -89376.935963 kJ/mol
# GULP energy per Si atom -5586.058498 kJ/mol
# Density = 2.147013 g / cm^3
# Si number density = 21.519105 Si / 1000 Ang^3
#
#
#
# Elastic Constant Matrix: (Units=GPa)
#
#
# Indices 1 2 3 4 5 6 
#
# 1 89.4616 32.6128 -3.1281 0.0043 -0.9444 0.0038
# 2 32.6128 142.6392 16.9379 0.0027 -14.7570 0.0027
# 3 -3.1281 16.9379 39.8384 0.0037 -9.3267 0.0123
# 4 0.0043 0.0027 0.0037 0.3596 0.0004 -1.3554
# 5 -0.9444 -14.7570 -9.3267 0.0004 16.0862 -0.0062
# 6 0.0038 0.0027 0.0123 -1.3554 -0.0062 41.1952
#
#
#
# Elastic Compliance Matrix: (Units=1/GPa)
#
#
# Indices 1 2 3 4 5 6 
#
# 1 0.012403 -0.003186 0.002100 -0.000173 -0.000977 -0.000007
# 2 -0.003186 0.008689 -0.002455 -0.000004 0.006360 0.000001
# 3 0.002100 -0.002455 0.029866 -0.000404 0.015187 -0.000020
# 4 -0.000173 -0.000004 -0.000404 3.174961 -0.000286 0.104466
# 5 -0.000977 0.006360 0.015187 -0.000286 0.076748 -0.000003
# 6 -0.000007 0.000001 -0.000020 0.104466 -0.000003 0.027712
#
#
# Mechanical properties :
#
#
# Convention : Reuss Voigt Hill
#
# Bulk Modulus (GPa) = 22.79285 40.53160 31.66222
# Shear Modulus (GPa) = 1.49161 26.56263 14.02712
#
# Velocity S-wave (km/s) = 0.83346 3.51718 2.55590
# Velocity P-wave (km/s) = 3.39722 5.94728 4.84310
#
# Compressibility (1/GPa) = 0.04387341
#
# Stress axis : x y z
#
# Youngs Moduli (GPa) = 80.62839 115.09161 33.48326
#
# Poissons Ratio (x) = 0.36670 -0.07030
# Poissons Ratio (y) = 0.25689 0.08221
# Poissons Ratio (z) = -0.16929 0.28259
#
# Static dielectric constant tensor:
#      x y z
#    x 1.775560 0.000000 -0.002610 
#    y 0.000000 1.879550 0.000010 
#    z -0.002610 0.000010 1.755610 
# 
# From -- ./inp_files/28882.got.cif
#   From: 2010.05.17/outbox.cif.g08.bks.cpg/sg8_15_cif.got.tgz:28882.got - 2010.06.03 19:46:02.
