data_PCOD9132457
_publ_section_title
;
Structure prediction by ZEFSAII (Michael W. Deem and Ramdas Pophale) SiO2 
 PCOD9132457
Probable space group: C M
;
_chemical_formula_sum "Si O2"
_cell_formula_units_Z 32
_cell_length_a 28.885264
_cell_length_b 8.849165
_cell_length_c 12.342444
_cell_angle_alpha 90.000000
_cell_angle_beta 30.361219
_cell_angle_gamma 90.000000
_cell_volume 1594.622443
_symmetry_space_group_name_H-M "C M"
_symmetry_group_IT_number 8
_symmetry_cell_setting 'monoclinic'
loop_
_space_group_symop_operation_xyz
x,y,z
x,-y,z
1/2+x,1/2+y,z
1/2+x,1/2-y,z
loop_
_atom_site_type_symbol
_atom_site_label
_atom_site_fract_x
_atom_site_fract_y
_atom_site_fract_z
Si Si1 0.547290 0.319098 0.610910
Si Si2 0.613963 0.819232 0.700513
Si Si3 0.191739 0.818851 0.137469
Si Si4 0.942074 0.826598 0.464757
Si Si5 0.272478 0.683670 0.524313
Si Si6 0.223254 0.673220 0.853104
Si Si7 0.399599 0.179567 0.769972
Si Si8 0.481611 0.683441 0.146571
O O1 0.546106 0.500000 0.617037
O O2 0.579939 0.255673 0.659305
O O3 0.618406 0.268476 0.373885
O O4 0.449484 0.258369 0.769149
O O5 0.716679 0.773987 0.530221
O O6 0.610056 0.000000 0.698319
O O7 0.550494 0.764401 0.927309
O O8 0.190149 0.000000 0.136408
O O9 0.177399 0.759068 0.045032
O O10 0.293717 0.772890 0.969976
O O11 0.833213 0.828655 0.655263
O O12 0.949311 0.728513 0.557775
O O13 0.990307 0.775487 0.256335
O O14 0.969077 0.000000 0.434543
O O15 0.270715 0.500000 0.535842
O O16 0.220146 0.739646 0.738411
O O17 0.378445 0.726186 0.317345
O O18 0.191172 0.500000 0.917457
O O19 0.403340 0.000000 0.774378
O O20 0.489626 0.500000 0.123897
#
# Coordination Sequence:
#
# PCOD9132457 Si02
#       8
#     4   4   4   4   4   4   4   4
#     4  11  24  41  56  74 105 145 187 224 266 324
#     4  11  23  38  55  79 108 138 182 233 273 311
#     4   9  20  37  56  80 111 141 172 219 271 316
#     4   8  15  30  54  83 113 144 177 212 258 322
#     4   8  17  35  57  80 109 143 176 214 262 319
#     4   8  14  29  55  83 109 139 175 212 257 319
#     4  10  20  36  58  84 112 140 175 223 273 315
#     4   9  18  36  59  81 109 146 182 215 260 320
#
# _framework density 20.067446
#
# number of rings (size 3 to 8) (size 9 to 14) (size 15 to 20)
#    0.000    2.750    0.000    2.625    0.000    4.000 
#    0.000    9.375    0.000    0.000    0.000    0.000 
#    0.000    0.000    0.000    0.000    0.000    0.000 
#
# Total GULP energy -89307.365215 kJ/mol
# GULP energy per Si atom -5581.710326 kJ/mol
# Density = 2.002177 g / cm^3
# Si number density = 20.067446 Si / 1000 Ang^3
#
#
#
# Elastic Constant Matrix: (Units=GPa)
#
#
# Indices 1 2 3 4 5 6 
#
# 1 117.3351 23.5939 3.3988 0.0000 -6.6229 0.0000
# 2 23.5939 27.6943 4.7106 0.0000 0.1315 0.0000
# 3 3.3988 4.7106 41.6589 0.0000 -3.5671 0.0000
# 4 0.0000 0.0000 0.0000 23.6225 0.0000 10.5685
# 5 -6.6229 0.1315 -3.5671 0.0000 19.8556 0.0000
# 6 0.0000 0.0000 0.0000 10.5685 0.0000 26.7030
#
#
#
# Elastic Compliance Matrix: (Units=1/GPa)
#
#
# Indices 1 2 3 4 5 6 
#
# 1 0.010541 -0.009079 0.000480 0.000000 0.003662 0.000000
# 2 -0.009079 0.044657 -0.004665 0.000000 -0.004162 0.000000
# 3 0.000480 -0.004665 0.024892 0.000000 0.004663 0.000000
# 4 0.000000 0.000000 0.000000 0.051441 0.000000 -0.020359
# 5 0.003662 -0.004162 0.004663 0.000000 0.052450 0.000000
# 6 0.000000 0.000000 0.000000 -0.020359 0.000000 0.045507
#
#
# Mechanical properties :
#
#
# Convention : Reuss Voigt Hill
#
# Bulk Modulus (GPa) = 18.67025 27.78835 23.22930
# Shear Modulus (GPa) = 18.25674 24.36856 21.31265
#
# Velocity S-wave (km/s) = 3.01951 3.48851 3.26245
# Velocity P-wave (km/s) = 4.63471 5.48669 5.07860
#
# Compressibility (1/GPa) = 0.05356114
#
# Stress axis : x y z
#
# Youngs Moduli (GPa) = 94.86650 22.39293 40.17339
#
# Poissons Ratio (x) = 0.20332 -0.01929
# Poissons Ratio (y) = 0.86134 0.18742
# Poissons Ratio (z) = -0.04556 0.10447
#
# Static dielectric constant tensor:
#      x y z
#    x 1.726070 0.000000 -0.030740 
#    y 0.000000 1.675540 0.000000 
#    z -0.030740 0.000000 1.724030 
# 
# From -- ./inp_files/21546.got.cif
#   From: 2010.05.17/outbox.cif.g08.bks.cpg/sg8_11_cif.got.tgz:21546.got - 2010.06.03 19:46:02.
