data_PCOD9132352
_publ_section_title
;
Structure prediction by ZEFSAII (Michael W. Deem and Ramdas Pophale) SiO2 
 PCOD9132352
Probable space group: C M
;
_chemical_formula_sum "Si O2"
_cell_formula_units_Z 24
_cell_length_a 9.572091
_cell_length_b 15.035372
_cell_length_c 8.156172
_cell_angle_alpha 90.000000
_cell_angle_beta 89.958217
_cell_angle_gamma 90.000000
_cell_volume 1173.835546
_symmetry_space_group_name_H-M "C M"
_symmetry_group_IT_number 8
_symmetry_cell_setting 'monoclinic'
loop_
_space_group_symop_operation_xyz
x,y,z
x,-y,z
1/2+x,1/2+y,z
1/2+x,1/2-y,z
loop_
_atom_site_type_symbol
_atom_site_label
_atom_site_fract_x
_atom_site_fract_y
_atom_site_fract_z
Si Si1 0.523570 0.815887 0.752020
Si Si2 0.304185 0.308222 0.597162
Si Si3 0.874030 0.500000 0.224175
Si Si4 0.085519 0.000000 0.303540
Si Si5 0.646018 0.298365 0.311538
Si Si6 0.306783 0.500000 0.453381
Si Si7 0.995014 0.500000 0.559659
Si Si8 0.420495 0.190519 0.119639
O O1 0.442283 0.745572 0.639024
O O2 0.690370 0.805384 0.743091
O O3 0.492625 0.912781 0.672979
O O4 0.464497 0.800856 0.932581
O O5 0.220006 0.260927 0.449649
O O6 0.336721 0.409618 0.552123
O O7 0.875061 0.500000 0.422821
O O8 0.949313 0.588408 0.167382
O O9 0.710728 0.500000 0.166586
O O10 0.117065 0.899643 0.370143
O O11 0.914974 0.000000 0.299545
O O12 0.507439 0.254556 0.238827
O O13 0.758102 0.297959 0.162859
O O14 0.137770 0.500000 0.449592
#
# Coordination Sequence:
#
# PCOD9132352 Si02
#       8
#     4   4   2   2   4   2   2   4
#     4  11  22  38  58  86 118 151 191 244 295 339
#     4  11  22  38  60  84 114 154 196 238 287 349
#     4  10  21  37  60  85 112 150 195 237 284 346
#     4  10  20  35  55  83 111 142 188 239 280 332
#     4  11  22  38  60  84 114 154 196 238 287 349
#     4  10  20  35  55  83 111 142 188 239 280 332
#     4  10  21  37  60  85 112 150 195 237 284 346
#     4  11  22  38  58  86 118 151 191 244 295 339
#
# _framework density 20.445792999999998
#
# number of rings (size 3 to 8) (size 9 to 14) (size 15 to 20)
#    0.000    1.333    0.000    8.500    0.000    0.000 
#    0.000    0.833    0.000    0.000    0.000    0.000 
#    0.000    0.000    0.000    0.000    0.000    0.000 
#
# Total GULP energy -66875.802916 kJ/mol
# GULP energy per Si atom -5572.983576 kJ/mol
# Density = 2.039926 g / cm^3
# Si number density = 20.445793 Si / 1000 Ang^3
#
#
#
# Elastic Constant Matrix: (Units=GPa)
#
#
# Indices 1 2 3 4 5 6 
#
# 1 103.1512 40.2456 19.2574 0.0000 -19.2037 0.0000
# 2 40.2456 163.4179 11.1700 0.0000 9.1487 0.0000
# 3 19.2574 11.1700 75.8909 0.0000 -13.7718 0.0000
# 4 0.0000 0.0000 0.0000 17.3087 0.0000 -1.2123
# 5 -19.2037 9.1487 -13.7718 0.0000 32.4266 0.0000
# 6 0.0000 0.0000 0.0000 -1.2123 0.0000 29.6134
#
#
#
# Elastic Compliance Matrix: (Units=1/GPa)
#
#
# Indices 1 2 3 4 5 6 
#
# 1 0.012798 -0.003514 -0.001273 0.000000 0.008030 0.000000
# 2 -0.003514 0.007310 -0.001014 0.000000 -0.004575 0.000000
# 3 -0.001273 -0.001014 0.014697 0.000000 0.005774 0.000000
# 4 0.000000 0.000000 0.000000 0.057940 0.000000 0.002372
# 5 0.008030 -0.004575 0.005774 0.000000 0.039338 0.000000
# 6 0.000000 0.000000 0.000000 0.002372 0.000000 0.033866
#
#
# Mechanical properties :
#
#
# Convention : Reuss Voigt Hill
#
# Bulk Modulus (GPa) = 43.09988 53.75623 48.42805
# Shear Modulus (GPa) = 26.98519 33.98889 30.48704
#
# Velocity S-wave (km/s) = 3.63690 4.08167 3.86569
# Velocity P-wave (km/s) = 6.22591 6.96868 6.60774
#
# Compressibility (1/GPa) = 0.02320192
#
# Stress axis : x y z
#
# Youngs Moduli (GPa) = 78.13469 136.79452 68.04125
#
# Poissons Ratio (x) = 0.48076 0.08662
# Poissons Ratio (y) = 0.27460 0.06901
# Poissons Ratio (z) = 0.09947 0.13875
#
# Static dielectric constant tensor:
#      x y z
#    x 1.745090 0.000000 -0.048970 
#    y 0.000000 1.721650 0.000000 
#    z -0.048970 0.000000 1.730980 
# 
# From -- ./inp_files/7848.got.cif
#   From: 2010.05.17/outbox.cif.g08.bks.cpg/sg8_4_cif.got.tgz:7848.got - 2010.06.03 19:46:02.
