data_PCOD9132988
_publ_section_title
;
Structure prediction by ZEFSAII (Michael W. Deem and Ramdas Pophale) SiO2 
 PCOD9132988
Probable space group: C M
;
_chemical_formula_sum "Si O2"
_cell_formula_units_Z 24
_cell_length_a 9.495371
_cell_length_b 16.402978
_cell_length_c 8.620761
_cell_angle_alpha 90.000000
_cell_angle_beta 73.035673
_cell_angle_gamma 90.000000
_cell_volume 1284.278280
_symmetry_space_group_name_H-M "C M"
_symmetry_group_IT_number 8
_symmetry_cell_setting 'monoclinic'
loop_
_space_group_symop_operation_xyz
x,y,z
x,-y,z
1/2+x,1/2+y,z
1/2+x,1/2-y,z
loop_
_atom_site_type_symbol
_atom_site_label
_atom_site_fract_x
_atom_site_fract_y
_atom_site_fract_z
Si Si1 0.360390 0.095414 0.556090
Si Si2 0.263036 0.740735 0.129125
Si Si3 0.531202 0.662093 0.636582
Si Si4 0.762355 0.906747 0.906255
Si Si5 0.480926 0.829269 0.831261
Si Si6 0.456891 0.751435 0.346638
O O1 0.188913 0.118689 0.586457
O O2 0.406839 0.119977 0.715965
O O3 0.450742 0.156650 0.415356
O O4 0.385119 0.000000 0.519784
O O5 0.311546 0.738689 0.292317
O O6 0.091247 0.761389 0.185460
O O7 0.282879 0.653359 0.044158
O O8 0.860036 0.696115 0.998600
O O9 0.404108 0.607083 0.751958
O O10 0.539863 0.744704 0.737143
O O11 0.477952 0.691705 0.484651
O O12 0.616853 0.876446 0.863056
O O13 0.747778 0.000000 0.956110
#
# Coordination Sequence:
#
# PCOD9132988 Si02
#       6
#     4   4   4   4   4   4
#     4  11  23  39  61  90 121 153 196 248 294 341
#     4  11  22  40  64  87 116 158 202 239 288 359
#     4  10  21  39  63  87 116 160 199 238 285 357
#     4  11  23  39  61  90 121 152 196 250 294 339
#     4  10  21  39  63  87 114 162 200 235 287 359
#     4  11  22  40  64  87 116 159 201 238 290 357
#
# _framework density 18.687539999999998
#
# number of rings (size 3 to 8) (size 9 to 14) (size 15 to 20)
#    0.000    1.333    3.333    4.000    4.667    0.667 
#    0.000    1.667    0.000    0.000    0.000    0.000 
#    0.000    0.000    0.000    0.000    0.000    0.000 
#
# Total GULP energy -67033.029048 kJ/mol
# GULP energy per Si atom -5586.085754 kJ/mol
# Density = 1.864501 g / cm^3
# Si number density = 18.687540 Si / 1000 Ang^3
#
#
#
# Elastic Constant Matrix: (Units=GPa)
#
#
# Indices 1 2 3 4 5 6 
#
# 1 59.3435 12.7180 0.8629 0.0000 4.0625 0.0000
# 2 12.7180 76.7607 15.6871 0.0000 18.6531 0.0000
# 3 0.8629 15.6871 61.1135 0.0000 11.9404 0.0000
# 4 0.0000 0.0000 0.0000 7.6690 0.0000 -1.3036
# 5 4.0625 18.6531 11.9404 0.0000 36.5229 0.0000
# 6 0.0000 0.0000 0.0000 -1.3036 0.0000 16.6734
#
#
#
# Elastic Compliance Matrix: (Units=1/GPa)
#
#
# Indices 1 2 3 4 5 6 
#
# 1 0.017502 -0.002859 0.000622 0.000000 -0.000690 0.000000
# 2 -0.002859 0.015705 -0.002655 0.000000 -0.006835 0.000000
# 3 0.000622 -0.002655 0.017930 0.000000 -0.004575 0.000000
# 4 0.000000 0.000000 0.000000 0.132152 0.000000 0.010332
# 5 -0.000690 -0.006835 -0.004575 0.000000 0.032443 0.000000
# 6 0.000000 0.000000 0.000000 0.010332 0.000000 0.060783
#
#
# Mechanical properties :
#
#
# Convention : Reuss Voigt Hill
#
# Bulk Modulus (GPa) = 24.18376 28.41708 26.30042
# Shear Modulus (GPa) = 16.66200 23.36970 20.01585
#
# Velocity S-wave (km/s) = 2.98922 3.54015 3.27629
# Velocity P-wave (km/s) = 4.98830 5.65240 5.33070
#
# Compressibility (1/GPa) = 0.04135006
#
# Stress axis : x y z
#
# Youngs Moduli (GPa) = 57.13638 63.67509 55.77348
#
# Poissons Ratio (x) = 0.18206 -0.03467
# Poissons Ratio (y) = 0.16337 0.14811
# Poissons Ratio (z) = -0.03551 0.16909
#
# Static dielectric constant tensor:
#      x y z
#    x 1.626080 0.000000 -0.010560 
#    y 0.000000 1.604370 0.000000 
#    z -0.010560 0.000000 1.647480 
# 
# From -- ./inp_files/8156.got.cif
#   From: 2010.05.17/outbox.cif.g08.bks.cpg/sg8_5_cif.got.tgz:8156.got - 2010.06.03 19:46:02.
