data_PCOD9132267
_publ_section_title
;
Structure prediction by ZEFSAII (Michael W. Deem and Ramdas Pophale) SiO2 
 PCOD9132267
Probable space group: C M
;
_chemical_formula_sum "Si O2"
_cell_formula_units_Z 32
_cell_length_a 20.774531
_cell_length_b 8.969047
_cell_length_c 12.442061
_cell_angle_alpha 90.000000
_cell_angle_beta 127.776155
_cell_angle_gamma 90.000000
_cell_volume 1832.408472
_symmetry_space_group_name_H-M "C M"
_symmetry_group_IT_number 8
_symmetry_cell_setting 'monoclinic'
loop_
_space_group_symop_operation_xyz
x,y,z
x,-y,z
1/2+x,1/2+y,z
1/2+x,1/2-y,z
loop_
_atom_site_type_symbol
_atom_site_label
_atom_site_fract_x
_atom_site_fract_y
_atom_site_fract_z
Si Si1 0.473140 0.178705 0.739450
Si Si2 0.239800 0.176529 0.312285
Si Si3 0.842089 0.177461 0.761951
Si Si4 0.945277 0.676885 0.047880
Si Si5 0.004664 0.822569 0.323956
Si Si6 0.680503 0.177694 0.472592
Si Si7 0.428593 0.177609 0.455186
Si Si8 0.098816 0.676079 0.046001
O O1 0.400324 0.261708 0.726489
O O2 0.472233 0.213958 0.612948
O O3 0.458830 0.000000 0.736316
O O4 0.555693 0.212436 0.888781
O O5 0.215252 0.264027 0.394853
O O6 0.332763 0.206964 0.375040
O O7 0.176766 0.228567 0.156775
O O8 0.231972 0.000000 0.324289
O O9 0.749540 0.207755 0.632495
O O10 0.852839 0.000000 0.782786
O O11 0.873122 0.256840 0.901465
O O12 0.935532 0.500000 0.051213
O O13 0.956196 0.755998 0.172608
O O14 0.028262 0.701041 0.063398
O O15 0.095912 0.757761 0.410203
O O16 0.964028 0.767634 0.392306
O O17 0.006347 0.000000 0.318985
O O18 0.667264 0.000000 0.452199
O O19 0.438605 0.000000 0.445771
O O20 0.118833 0.500000 0.068264
#
# Coordination Sequence:
#
# PCOD9132267 Si02
#       8
#     4   4   4   4   4   4   4   4
#     4   9  18  35  57  81 112 153 191 229 284 342
#     4  11  21  34  58  87 114 148 192 240 281 335
#     4  10  20  33  56  88 117 147 189 239 284 335
#     4  10  20  36  58  83 116 154 188 232 292 346
#     4  12  25  39  59  85 115 153 198 242 287 345
#     4  11  22  37  58  85 118 153 190 238 290 339
#     4  10  22  40  59  81 114 155 195 235 290 347
#     4   9  18  32  55  84 114 147 185 233 286 337
#
# _framework density 17.463355
#
# number of rings (size 3 to 8) (size 9 to 14) (size 15 to 20)
#    0.000    1.750    2.500    3.375    0.000    5.000 
#    0.000    1.250    0.000    4.500    0.000    0.000 
#    0.000    0.000    0.000    0.000    0.000    0.000 
#
# Total GULP energy -89359.925380 kJ/mol
# GULP energy per Si atom -5584.995336 kJ/mol
# Density = 1.742361 g / cm^3
# Si number density = 17.463355 Si / 1000 Ang^3
#
#
#
# Elastic Constant Matrix: (Units=GPa)
#
#
# Indices 1 2 3 4 5 6 
#
# 1 76.7113 59.6964 69.6578 0.0000 -11.0677 0.0000
# 2 59.6964 88.9877 83.7765 0.0000 -6.8150 0.0000
# 3 69.6578 83.7765 164.6821 0.0000 -11.3064 0.0000
# 4 0.0000 0.0000 0.0000 31.0983 0.0000 0.3538
# 5 -11.0677 -6.8150 -11.3064 0.0000 20.0829 0.0000
# 6 0.0000 0.0000 0.0000 0.3538 0.0000 28.1594
#
#
#
# Elastic Compliance Matrix: (Units=1/GPa)
#
#
# Indices 1 2 3 4 5 6 
#
# 1 0.030439 -0.015718 -0.004258 0.000000 0.009044 0.000000
# 2 -0.015718 0.029710 -0.008704 0.000000 -0.003481 0.000000
# 3 -0.004258 -0.008704 0.012418 0.000000 0.001690 0.000000
# 4 0.000000 0.000000 0.000000 0.032161 0.000000 -0.000404
# 5 0.009044 -0.003481 0.001690 0.000000 0.054548 0.000000
# 6 0.000000 0.000000 0.000000 -0.000404 0.000000 0.035517
#
#
# Mechanical properties :
#
#
# Convention : Reuss Voigt Hill
#
# Bulk Modulus (GPa) = 65.76779 84.07141 74.91960
# Shear Modulus (GPa) = 19.43834 23.68481 21.56157
#
# Velocity S-wave (km/s) = 3.33992 3.68674 3.51761
# Velocity P-wave (km/s) = 7.25367 8.14671 7.71312
#
# Compressibility (1/GPa) = 0.01520501
#
# Stress axis : x y z
#
# Youngs Moduli (GPa) = 32.85213 33.65862 80.53111
#
# Poissons Ratio (x) = 0.52906 0.34292
# Poissons Ratio (y) = 0.51639 0.70097
# Poissons Ratio (z) = 0.13989 0.29298
#
# Static dielectric constant tensor:
#      x y z
#    x 1.555930 0.000000 0.003020 
#    y 0.000000 1.580920 0.000000 
#    z 0.003020 0.000000 1.608170 
# 
# From -- ./inp_files/23830.got.cif
#   From: 2010.05.17/outbox.cif.g08.bks.cpg/sg8_12_cif.got.tgz:23830.got - 2010.06.03 19:46:02.
