data_PCOD9132960
_publ_section_title
;
Structure prediction by ZEFSAII (Michael W. Deem and Ramdas Pophale) SiO2 
 PCOD9132960
Probable space group: C M
;
_chemical_formula_sum "Si O2"
_cell_formula_units_Z 28
_cell_length_a 12.865357
_cell_length_b 20.100373
_cell_length_c 4.943262
_cell_angle_alpha 90.000000
_cell_angle_beta 105.434667
_cell_angle_gamma 90.000000
_cell_volume 1232.216828
_symmetry_space_group_name_H-M "C M"
_symmetry_group_IT_number 8
_symmetry_cell_setting 'monoclinic'
loop_
_space_group_symop_operation_xyz
x,y,z
x,-y,z
1/2+x,1/2+y,z
1/2+x,1/2-y,z
loop_
_atom_site_type_symbol
_atom_site_label
_atom_site_fract_x
_atom_site_fract_y
_atom_site_fract_z
Si Si1 0.549760 0.500000 0.809041
Si Si2 0.245804 0.823755 0.435246
Si Si3 0.409513 0.077206 0.275079
Si Si4 0.272534 0.633151 0.200026
Si Si5 0.406876 0.500000 0.201701
Si Si6 0.548051 0.078611 0.878354
Si Si7 0.104865 0.849580 0.862674
Si Si8 0.359994 0.301279 0.753336
O O1 0.511498 0.500000 0.470251
O O2 0.604787 0.429518 0.917808
O O3 0.442533 0.500000 0.916491
O O4 0.316208 0.881089 0.346728
O O5 0.165978 0.842550 0.622339
O O6 0.328260 0.770484 0.617301
O O7 0.166535 0.806076 0.131331
O O8 0.447916 0.097427 0.003664
O O9 0.378269 0.000000 0.245883
O O10 0.512094 0.084153 0.544456
O O11 0.338277 0.565286 0.208326
O O12 0.151167 0.621410 0.023073
O O13 0.282378 0.652184 0.518981
O O14 0.331468 0.686777 0.046542
O O15 0.570276 0.000000 0.949072
O O16 0.981623 0.824290 0.774848
#
# Coordination Sequence:
#
# PCOD9132960 Si02
#       8
#     2   4   4   4   2   4   4   4
#     4  12  24  42  74 109 140 179 232 302 356 408
#     4  12  28  47  70  99 137 190 228 291 352 417
#     4  10  23  42  64  96 132 175 232 286 339 411
#     4  12  22  41  69 104 140 184 226 290 348 413
#     4  12  20  40  68 107 140 181 222 300 366 396
#     4  10  21  38  65  98 132 172 221 273 340 411
#     4  12  26  46  73 105 140 183 237 290 354 417
#     4  12  27  46  67 102 143 178 242 282 341 432
#
# _framework density 22.723275999999998
#
# number of rings (size 3 to 8) (size 9 to 14) (size 15 to 20)
#    0.000    0.571    3.571    4.286    2.000    3.429 
#    0.000    0.000    0.000    0.000    0.000    0.000 
#    0.000    0.000    0.000    0.000    0.000    0.000 
#
# Total GULP energy -78343.392217 kJ/mol
# GULP energy per Si atom -5595.956587 kJ/mol
# Density = 2.267156 g / cm^3
# Si number density = 22.723276 Si / 1000 Ang^3
#
#
#
# Elastic Constant Matrix: (Units=GPa)
#
#
# Indices 1 2 3 4 5 6 
#
# 1 70.9316 31.8850 -5.7866 0.0000 2.1876 0.0000
# 2 31.8850 77.4645 11.1981 0.0000 9.6118 0.0000
# 3 -5.7866 11.1981 63.5666 0.0000 -1.1175 0.0000
# 4 0.0000 0.0000 0.0000 23.5736 0.0000 -4.9750
# 5 2.1876 9.6118 -1.1175 0.0000 41.9654 0.0000
# 6 0.0000 0.0000 0.0000 -4.9750 0.0000 18.6439
#
#
#
# Elastic Compliance Matrix: (Units=1/GPa)
#
#
# Indices 1 2 3 4 5 6 
#
# 1 0.017875 -0.007916 0.003039 0.000000 0.000962 0.000000
# 2 -0.007916 0.017167 -0.003808 0.000000 -0.003621 0.000000
# 3 0.003039 -0.003808 0.016699 0.000000 0.001159 0.000000
# 4 0.000000 0.000000 0.000000 0.044952 0.000000 0.011995
# 5 0.000962 -0.003621 0.001159 0.000000 0.024639 0.000000
# 6 0.000000 0.000000 0.000000 0.011995 0.000000 0.056838
#
#
# Mechanical properties :
#
#
# Convention : Reuss Voigt Hill
#
# Bulk Modulus (GPa) = 29.09552 31.83951 30.46751
# Shear Modulus (GPa) = 24.15479 28.48101 26.31790
#
# Velocity S-wave (km/s) = 3.26390 3.54416 3.40691
# Velocity P-wave (km/s) = 5.19963 5.54890 5.37710
#
# Compressibility (1/GPa) = 0.03436955
#
# Stress axis : x y z
#
# Youngs Moduli (GPa) = 55.94507 58.25050 59.88228
#
# Poissons Ratio (x) = 0.46111 -0.18196
# Poissons Ratio (y) = 0.44286 0.22806
# Poissons Ratio (z) = -0.16999 0.22185
#
# Static dielectric constant tensor:
#      x y z
#    x 1.803370 0.000000 0.025550 
#    y 0.000000 1.875740 0.000000 
#    z 0.025550 0.000000 1.805280 
# 
# From -- ./inp_files/2972.got.cif
#   From: 2010.05.17/outbox.cif.g08.bks.cpg/sg8_2_cif.got.tgz:2972.got - 2010.06.03 19:46:02.
