data_PCOD9132105
_publ_section_title
;
Structure prediction by ZEFSAII (Michael W. Deem and Ramdas Pophale) SiO2 
 PCOD9132105
Probable space group: C M
;
_chemical_formula_sum "Si O2"
_cell_formula_units_Z 28
_cell_length_a 15.424836
_cell_length_b 10.571736
_cell_length_c 10.346094
_cell_angle_alpha 90.000000
_cell_angle_beta 59.550570
_cell_angle_gamma 90.000000
_cell_volume 1454.417978
_symmetry_space_group_name_H-M "C M"
_symmetry_group_IT_number 8
_symmetry_cell_setting 'monoclinic'
loop_
_space_group_symop_operation_xyz
x,y,z
x,-y,z
1/2+x,1/2+y,z
1/2+x,1/2-y,z
loop_
_atom_site_type_symbol
_atom_site_label
_atom_site_fract_x
_atom_site_fract_y
_atom_site_fract_z
Si Si1 0.591990 0.642427 0.604750
Si Si2 0.573706 0.858764 0.138490
Si Si3 0.268058 0.353963 0.812367
Si Si4 0.409823 0.350130 0.206186
Si Si5 0.915407 0.150744 0.913492
Si Si6 0.524960 0.141790 0.455008
Si Si7 0.305636 0.775939 0.517254
O O1 0.561757 0.500000 0.585720
O O2 0.531268 0.668666 0.784567
O O3 0.556388 0.747909 0.529246
O O4 0.711245 0.644577 0.537260
O O5 0.504369 0.739109 0.163985
O O6 0.596530 0.853653 0.274242
O O7 0.526524 0.000000 0.154359
O O8 0.667441 0.851570 0.972573
O O9 0.294564 0.500000 0.767101
O O10 0.351569 0.294013 0.843681
O O11 0.265064 0.289306 0.677124
O O12 0.431892 0.500000 0.189236
O O13 0.332760 0.318123 0.378887
O O14 0.382131 0.309305 0.080920
O O15 0.896544 0.000000 0.927128
O O16 0.411546 0.161015 0.482537
O O17 0.531410 0.000000 0.506683
#
# Coordination Sequence:
#
# PCOD9132105 Si02
#       7
#     4   4   4   4   4   4   4
#     4  11  23  40  64  89 120 163 204 248 302 358
#     4   9  20  37  60  84 119 160 197 245 304 355
#     4  10  19  35  60  88 121 161 202 244 298 361
#     4  10  21  37  61  89 118 154 201 248 294 360
#     4   9  19  36  58  85 120 158 200 245 295 354
#     4  10  22  40  60  89 124 159 200 252 304 358
#     4  11  22  37  63  92 124 155 200 252 305 354
#
# _framework density 19.251685999999999
#
# number of rings (size 3 to 8) (size 9 to 14) (size 15 to 20)
#    0.000    2.000    1.429    1.714    2.000    4.000 
#    0.000    1.429    0.000    0.000    0.000    0.000 
#    0.000    0.000    0.000    0.000    0.000    0.000 
#
# Total GULP energy -77964.461932 kJ/mol
# GULP energy per Si atom -5568.890138 kJ/mol
# Density = 1.920787 g / cm^3
# Si number density = 19.251686 Si / 1000 Ang^3
#
#
#
# Elastic Constant Matrix: (Units=GPa)
#
#
# Indices 1 2 3 4 5 6 
#
# 1 65.9546 37.7483 30.6219 0.0000 4.7187 0.0000
# 2 37.7483 105.5882 49.9980 0.0000 8.7445 0.0000
# 3 30.6219 49.9980 126.0200 0.0000 14.0995 0.0000
# 4 0.0000 0.0000 0.0000 24.0918 0.0000 4.7103
# 5 4.7187 8.7445 14.0995 0.0000 26.4046 0.0000
# 6 0.0000 0.0000 0.0000 4.7103 0.0000 24.0099
#
#
#
# Elastic Compliance Matrix: (Units=1/GPa)
#
#
# Indices 1 2 3 4 5 6 
#
# 1 0.019659 -0.005859 -0.002421 0.000000 -0.000280 0.000000
# 2 -0.005859 0.013462 -0.003760 0.000000 -0.001403 0.000000
# 3 -0.002421 -0.003760 0.010452 0.000000 -0.003903 0.000000
# 4 0.000000 0.000000 0.000000 0.043163 0.000000 -0.008468
# 5 -0.000280 -0.001403 -0.003903 0.000000 0.040471 0.000000
# 6 0.000000 0.000000 0.000000 -0.008468 0.000000 0.043311
#
#
# Mechanical properties :
#
#
# Convention : Reuss Voigt Hill
#
# Bulk Modulus (GPa) = 51.30062 59.36657 55.33360
# Shear Modulus (GPa) = 24.86361 26.84758 25.85559
#
# Velocity S-wave (km/s) = 3.59765 3.73843 3.66871
# Velocity P-wave (km/s) = 6.63043 7.03836 6.83744
#
# Compressibility (1/GPa) = 0.01949294
#
# Stress axis : x y z
#
# Youngs Moduli (GPa) = 50.86665 74.28279 95.67301
#
# Poissons Ratio (x) = 0.43519 0.23166
# Poissons Ratio (y) = 0.29800 0.35977
# Poissons Ratio (z) = 0.12317 0.27934
#
# Static dielectric constant tensor:
#      x y z
#    x 1.717840 0.000000 -0.008720 
#    y 0.000000 1.663490 0.000000 
#    z -0.008720 0.000000 1.692650 
# 
# From -- ./inp_files/12604.got.cif
#   From: 2010.05.17/outbox.cif.g08.bks.cpg/sg8_7_cif.got.tgz:12604.got - 2010.06.03 19:46:02.
