data_PCOD9132789
_publ_section_title
;
Structure prediction by ZEFSAII (Michael W. Deem and Ramdas Pophale) SiO2 
 PCOD9132789
Probable space group: C M
;
_chemical_formula_sum "Si O2"
_cell_formula_units_Z 20
_cell_length_a 7.415149
_cell_length_b 23.695273
_cell_length_c 6.882889
_cell_angle_alpha 90.000000
_cell_angle_beta 140.798339
_cell_angle_gamma 90.000000
_cell_volume 764.372432
_symmetry_space_group_name_H-M "C M"
_symmetry_group_IT_number 8
_symmetry_cell_setting 'monoclinic'
loop_
_space_group_symop_operation_xyz
x,y,z
x,-y,z
1/2+x,1/2+y,z
1/2+x,1/2-y,z
loop_
_atom_site_type_symbol
_atom_site_label
_atom_site_fract_x
_atom_site_fract_y
_atom_site_fract_z
Si Si1 0.252150 0.936405 0.557830
Si Si2 0.652629 0.937448 0.248904
Si Si3 0.916470 0.721345 0.955447
Si Si4 0.805621 0.683047 0.426462
Si Si5 0.318741 0.329947 0.568239
O O1 0.283130 0.884051 0.437600
O O2 0.919717 0.939821 0.326864
O O3 0.350479 0.000000 0.583965
O O4 0.397813 0.921706 0.888247
O O5 0.758362 0.896591 0.508969
O O6 0.589429 0.000000 0.272144
O O7 0.371402 0.790897 0.691806
O O8 0.644107 0.691836 0.834877
O O9 0.025522 0.783644 0.116518
O O10 0.198218 0.687503 0.256484
O O11 0.076803 0.693775 0.513200
#
# Coordination Sequence:
#
# PCOD9132789 Si02
#       5
#     4   4   4   4   4
#     4  10  22  46  81 116 159 207 262 338 407 477
#     4  10  20  44  80 116 159 206 262 340 411 474
#     4  12  32  51  74 119 166 210 280 334 405 475
#     4  12  30  53  84 117 166 219 273 335 406 495
#     4  12  28  50  81 116 162 218 271 335 403 493
#
# _framework density 26.165255999999999
#
# number of rings (size 3 to 8) (size 9 to 14) (size 15 to 20)
#    0.000    0.800    4.000    0.000    5.600    7.200 
#    0.000    0.000    0.000    7.200    0.000    2.800 
#    0.000    0.000    0.000    0.000    0.000    0.000 
#
# Total GULP energy -55876.103322 kJ/mol
# GULP energy per Si atom -5587.610332 kJ/mol
# Density = 2.610570 g / cm^3
# Si number density = 26.165256 Si / 1000 Ang^3
#
#
#
# Elastic Constant Matrix: (Units=GPa)
#
#
# Indices 1 2 3 4 5 6 
#
# 1 123.5627 49.7380 39.1502 0.0000 -2.0811 0.0000
# 2 49.7380 207.5533 39.3716 0.0000 10.8627 0.0000
# 3 39.1502 39.3716 190.0345 0.0000 10.9101 0.0000
# 4 0.0000 0.0000 0.0000 47.4852 0.0000 -6.4433
# 5 -2.0811 10.8627 10.9101 0.0000 29.9879 0.0000
# 6 0.0000 0.0000 0.0000 -6.4433 0.0000 42.0402
#
#
#
# Elastic Compliance Matrix: (Units=1/GPa)
#
#
# Indices 1 2 3 4 5 6 
#
# 1 0.009478 -0.002065 -0.001640 0.000000 0.002002 0.000000
# 2 -0.002065 0.005529 -0.000610 0.000000 -0.001924 0.000000
# 3 -0.001640 -0.000610 0.005842 0.000000 -0.002018 0.000000
# 4 0.000000 0.000000 0.000000 0.021506 0.000000 0.003296
# 5 0.002002 -0.001924 -0.002018 0.000000 0.034917 0.000000
# 6 0.000000 0.000000 0.000000 0.003296 0.000000 0.024292
#
#
# Mechanical properties :
#
#
# Convention : Reuss Voigt Hill
#
# Bulk Modulus (GPa) = 81.83025 86.40778 84.11901
# Shear Modulus (GPa) = 43.75736 50.09537 46.92636
#
# Velocity S-wave (km/s) = 4.09387 4.38033 4.23952
# Velocity P-wave (km/s) = 7.32725 7.66020 7.49557
#
# Compressibility (1/GPa) = 0.01222042
#
# Stress axis : x y z
#
# Youngs Moduli (GPa) = 105.51303 180.85647 171.16871
#
# Poissons Ratio (x) = 0.37346 0.28066
# Poissons Ratio (y) = 0.21788 0.10436
# Poissons Ratio (z) = 0.17300 0.11026
#
# Static dielectric constant tensor:
#      x y z
#    x 2.048480 0.000000 -0.050540 
#    y 0.000000 2.366470 0.000000 
#    z -0.050540 0.000000 2.028150 
# 
# From -- ./inp_files/9049.got.cif
#   From: 2010.05.17/outbox.cif.g08.bks.cpg/sg8_5_cif.got.tgz:9049.got - 2010.06.03 19:46:02.
