data_PCOD9132851
_publ_section_title
;
Structure prediction by ZEFSAII (Michael W. Deem and Ramdas Pophale) SiO2 
 PCOD9132851
Probable space group: C M
;
_chemical_formula_sum "Si O2"
_cell_formula_units_Z 28
_cell_length_a 5.282862
_cell_length_b 14.091407
_cell_length_c 19.162661
_cell_angle_alpha 90.000000
_cell_angle_beta 65.374378
_cell_angle_gamma 90.000000
_cell_volume 1296.782517
_symmetry_space_group_name_H-M "C M"
_symmetry_group_IT_number 8
_symmetry_cell_setting 'monoclinic'
loop_
_space_group_symop_operation_xyz
x,y,z
x,-y,z
1/2+x,1/2+y,z
1/2+x,1/2-y,z
loop_
_atom_site_type_symbol
_atom_site_label
_atom_site_fract_x
_atom_site_fract_y
_atom_site_fract_z
Si Si1 0.117970 0.815572 0.209660
Si Si2 0.021823 0.134995 0.550493
Si Si3 0.669667 0.112843 0.871551
Si Si4 0.954072 0.306806 0.039338
Si Si5 0.854458 0.500000 0.416122
Si Si6 0.811480 0.615551 0.780056
Si Si7 0.004905 0.000000 0.316071
Si Si8 0.427601 0.846207 0.611892
O O1 0.342681 0.744125 0.219613
O O2 0.269510 0.853210 0.121600
O O3 0.048478 0.904578 0.266059
O O4 0.714634 0.098983 0.569429
O O5 0.967666 0.247676 0.565139
O O6 0.232596 0.092469 0.470177
O O7 0.154984 0.107800 0.609582
O O8 0.510801 0.145384 0.820290
O O9 0.993676 0.139008 0.835411
O O10 0.661496 0.000000 0.868822
O O11 0.516612 0.141740 0.959961
O O12 0.750770 0.220386 0.039307
O O13 0.725234 0.500000 0.353885
O O14 0.186474 0.500000 0.379067
O O15 0.832239 0.500000 0.767553
O O16 0.890589 0.664850 0.698435
#
# Coordination Sequence:
#
# PCOD9132851 Si02
#       8
#     4   4   4   4   2   4   2   4
#     4  10  23  46  72 105 142 183 233 275 331 418
#     4  10  23  41  62  87 120 161 208 270 325 409
#     4  10  21  38  57  90 125 170 215 267 332 371
#     4  10  21  40  63  93 132 173 216 268 317 391
#     4  12  26  46  68 104 135 160 221 278 352 424
#     4  10  21  36  59  87 125 165 221 281 318 373
#     4  12  26  48  74 110 137 184 217 282 360 410
#     4  10  21  42  60  87 117 170 221 256 328 390
#
# _framework density 21.591902000000001
#
# number of rings (size 3 to 8) (size 9 to 14) (size 15 to 20)
#    0.000    1.714    0.000    3.429    3.000    0.000 
#   30.857    0.000    0.000    0.000    0.000    0.000 
#    0.000    0.000    0.000    0.000    0.000    0.000 
#
# Total GULP energy -78163.472466 kJ/mol
# GULP energy per Si atom -5583.105176 kJ/mol
# Density = 2.154276 g / cm^3
# Si number density = 21.591902 Si / 1000 Ang^3
#
#
#
# Elastic Constant Matrix: (Units=GPa)
#
#
# Indices 1 2 3 4 5 6 
#
# 1 87.4321 -10.8884 -17.7456 0.0000 -1.0980 0.0000
# 2 -10.8884 99.5542 23.4129 0.0000 -5.9431 0.0000
# 3 -17.7456 23.4129 79.4207 0.0000 1.1832 0.0000
# 4 0.0000 0.0000 0.0000 83.8776 0.0000 3.1049
# 5 -1.0980 -5.9431 1.1832 0.0000 39.9454 0.0000
# 6 0.0000 0.0000 0.0000 3.1049 0.0000 -10.0479
#
#
#
# Elastic Compliance Matrix: (Units=1/GPa)
#
#
# Indices 1 2 3 4 5 6 
#
# 1 0.012036 0.000760 0.002460 0.000000 0.000371 0.000000
# 2 0.000760 0.010958 -0.003086 0.000000 0.001743 0.000000
# 3 0.002460 -0.003086 0.014063 0.000000 -0.000808 0.000000
# 4 0.000000 0.000000 0.000000 0.011787 0.000000 0.003642
# 5 0.000371 0.001743 -0.000808 0.000000 0.025328 0.000000
# 6 0.000000 0.000000 0.000000 0.003642 0.000000 -0.098398
#
#
# Mechanical properties :
#
#
# Convention : Reuss Voigt Hill
#
# Bulk Modulus (GPa) = 26.79304 28.44054 27.61679
# Shear Modulus (GPa) = -414.85712 40.86358 -186.99677
#
# Velocity S-wave (km/s) = -13.87633 4.35506 -9.31628
# Velocity P-wave (km/s) = 15.63013 6.20396 10.14426
#
# Compressibility (1/GPa) = 0.03732313
#
# Stress axis : x y z
#
# Youngs Moduli (GPa) = 83.08415 91.25921 71.11026
#
# Poissons Ratio (x) = -0.06936 -0.17491
# Poissons Ratio (y) = -0.06315 0.21948
# Poissons Ratio (z) = -0.20436 0.28167
#
# Static dielectric constant tensor:
#      x y z
#    x 1.834860 0.000000 -0.002090 
#    y 0.000000 1.654290 0.000000 
#    z -0.002090 0.000000 1.763540 
# 
# From -- ./inp_files/28437.got.cif
#   From: 2010.05.17/outbox.cif.g08.bks.cpg/sg8_15_cif.got.tgz:28437.got - 2010.06.03 19:46:02.
