data_PCOD9132305
_publ_section_title
;
Structure prediction by ZEFSAII (Michael W. Deem and Ramdas Pophale) SiO2 
 PCOD9132305
Probable space group: C M
;
_chemical_formula_sum "Si O2"
_cell_formula_units_Z 32
_cell_length_a 29.918862
_cell_length_b 9.154705
_cell_length_c 5.406952
_cell_angle_alpha 90.000000
_cell_angle_beta 100.993957
_cell_angle_gamma 90.000000
_cell_volume 1453.775738
_symmetry_space_group_name_H-M "C M"
_symmetry_group_IT_number 8
_symmetry_cell_setting 'monoclinic'
loop_
_space_group_symop_operation_xyz
x,y,z
x,-y,z
1/2+x,1/2+y,z
1/2+x,1/2-y,z
loop_
_atom_site_type_symbol
_atom_site_label
_atom_site_fract_x
_atom_site_fract_y
_atom_site_fract_z
Si Si1 0.877350 0.842475 0.465010
Si Si2 0.329650 0.840739 0.762913
Si Si3 0.970687 0.160847 0.831232
Si Si4 0.554175 0.324001 0.598502
Si Si5 0.101454 0.176845 0.151050
Si Si6 0.249058 0.323828 0.878463
Si Si7 0.425509 0.156606 0.131217
Si Si8 0.208184 0.822200 0.333009
O O1 0.839521 0.726576 0.504405
O O2 0.917490 0.855265 0.710779
O O3 0.908680 0.787775 0.279987
O O4 0.856251 0.000000 0.403059
O O5 0.301387 0.725292 0.890830
O O6 0.307181 0.000000 0.733590
O O7 0.379934 0.862118 0.921310
O O8 0.002241 0.199320 0.631743
O O9 0.986440 0.000000 0.940520
O O10 0.968993 0.291362 0.023729
O O11 0.559632 0.500000 0.591691
O O12 0.571632 0.269105 0.352826
O O13 0.583839 0.270780 0.865104
O O14 0.154277 0.208396 0.252970
O O15 0.097652 0.000000 0.139167
O O16 0.244043 0.500000 0.875960
O O17 0.225728 0.250856 0.608077
O O18 0.231182 0.250313 0.113659
O O19 0.433100 0.000000 0.267921
O O20 0.214373 0.000000 0.339754
#
# Coordination Sequence:
#
# PCOD9132305 Si02
#       8
#     4   4   4   4   4   4   4   4
#     4  10  20  34  55  83 117 155 197 248 304 360
#     4  10  22  40  59  83 115 157 205 253 306 367
#     4   9  19  33  53  83 115 152 196 248 302 351
#     4   9  17  30  54  89 124 152 195 254 308 360
#     4   9  18  33  58  91 121 153 198 256 310 362
#     4  12  26  43  66  97 131 168 210 264 323 386
#     4  10  21  36  56  79 113 158 201 246 296 359
#     4  11  23  43  69  97 128 167 214 265 321 385
#
# _framework density 22.011648999999998
#
# number of rings (size 3 to 8) (size 9 to 14) (size 15 to 20)
#    0.000    2.000    0.000    3.375    3.500    4.000 
#    0.000    0.000    0.000    4.500    0.000    0.000 
#    0.000    0.000    0.000    0.000    0.000    0.000 
#
# Total GULP energy -89163.107462 kJ/mol
# GULP energy per Si atom -5572.694216 kJ/mol
# Density = 2.196155 g / cm^3
# Si number density = 22.011649 Si / 1000 Ang^3
#
#
#
# Elastic Constant Matrix: (Units=GPa)
#
#
# Indices 1 2 3 4 5 6 
#
# 1 88.1293 23.2494 28.5742 0.0000 -14.7405 0.0000
# 2 23.2494 97.3395 26.2960 0.0000 -0.1447 0.0000
# 3 28.5742 26.2960 96.0407 0.0000 -9.7594 0.0000
# 4 0.0000 0.0000 0.0000 27.8513 0.0000 -9.4379
# 5 -14.7405 -0.1447 -9.7594 0.0000 30.9127 0.0000
# 6 0.0000 0.0000 0.0000 -9.4379 0.0000 17.1696
#
#
#
# Elastic Compliance Matrix: (Units=1/GPa)
#
#
# Indices 1 2 3 4 5 6 
#
# 1 0.013900 -0.002539 -0.002860 0.000000 0.005713 0.000000
# 2 -0.002539 0.011584 -0.002618 0.000000 -0.001983 0.000000
# 3 -0.002860 -0.002618 0.012232 0.000000 0.002486 0.000000
# 4 0.000000 0.000000 0.000000 0.044124 0.000000 0.024254
# 5 0.005713 -0.001983 0.002486 0.000000 0.035849 0.000000
# 6 0.000000 0.000000 0.000000 0.024254 0.000000 0.071575
#
#
# Mechanical properties :
#
#
# Convention : Reuss Voigt Hill
#
# Bulk Modulus (GPa) = 46.11868 48.63873 47.37870
# Shear Modulus (GPa) = 23.52673 28.74605 26.13639
#
# Velocity S-wave (km/s) = 3.27284 3.61771 3.44959
# Velocity P-wave (km/s) = 5.93965 6.29247 6.11861
#
# Compressibility (1/GPa) = 0.02168319
#
# Stress axis : x y z
#
# Youngs Moduli (GPa) = 71.94489 86.32618 81.74965
#
# Poissons Ratio (x) = 0.21917 0.23378
# Poissons Ratio (y) = 0.18266 0.21401
# Poissons Ratio (z) = 0.20574 0.22599
#
# Static dielectric constant tensor:
#      x y z
#    x 1.813610 0.000000 0.067340 
#    y 0.000000 1.877410 0.000000 
#    z 0.067340 0.000000 1.896150 
# 
# From -- ./inp_files/6411.got.cif
#   From: 2010.05.17/outbox.cif.g08.bks.cpg/sg8_4_cif.got.tgz:6411.got - 2010.06.03 19:46:02.
