data_PCOD9132322
_publ_section_title
;
Structure prediction by ZEFSAII (Michael W. Deem and Ramdas Pophale) SiO2 
 PCOD9132322
Probable space group: C M
;
_chemical_formula_sum "Si O2"
_cell_formula_units_Z 32
_cell_length_a 24.983784
_cell_length_b 7.523026
_cell_length_c 20.270751
_cell_angle_alpha 90.000000
_cell_angle_beta 22.637045
_cell_angle_gamma 90.000000
_cell_volume 1466.424380
_symmetry_space_group_name_H-M "C M"
_symmetry_group_IT_number 8
_symmetry_cell_setting 'monoclinic'
loop_
_space_group_symop_operation_xyz
x,y,z
x,-y,z
1/2+x,1/2+y,z
1/2+x,1/2-y,z
loop_
_atom_site_type_symbol
_atom_site_label
_atom_site_fract_x
_atom_site_fract_y
_atom_site_fract_z
Si Si1 0.603180 0.214804 0.605960
Si Si2 0.594204 0.715994 0.102043
Si Si3 0.622104 0.707535 0.925346
Si Si4 0.797010 0.716883 0.985929
Si Si5 0.875982 0.795982 0.548423
Si Si6 0.803803 0.290556 0.254027
Si Si7 0.303562 0.283666 0.487435
Si Si8 0.669246 0.282711 0.269910
O O1 0.698579 0.264055 0.435089
O O2 0.670462 0.276855 0.598407
O O3 0.602580 0.000000 0.606918
O O4 0.444225 0.275076 0.788766
O O5 0.601912 0.500000 0.092341
O O6 0.642754 0.779348 0.975802
O O7 0.679156 0.775775 0.068868
O O8 0.434147 0.761554 0.293375
O O9 0.658583 0.500000 0.883576
O O10 0.459315 0.720263 0.091395
O O11 0.733666 0.795168 0.750805
O O12 0.796697 0.500000 0.987071
O O13 0.760557 0.770004 0.102094
O O14 0.838157 0.714400 0.520616
O O15 0.010253 0.723950 0.434898
O O16 0.917428 0.000000 0.486657
O O17 0.823524 0.500000 0.223066
O O18 0.733639 0.220474 0.266115
O O19 0.293161 0.500000 0.503656
O O20 0.669264 0.500000 0.273448
#
# Coordination Sequence:
#
# PCOD9132322 Si02
#       8
#     4   4   4   4   4   4   4   4
#     4  10  20  34  57  85 111 142 184 231 276 324
#     4   9  16  31  54  79 105 137 182 232 273 315
#     4  11  23  38  57  83 114 146 186 232 279 332
#     4   9  17  31  55  84 108 138 185 232 272 319
#     4  10  20  36  60  86 112 144 185 232 279 327
#     4  11  23  38  56  80 115 153 186 224 276 334
#     4   9  16  31  56  81 105 139 185 231 269 317
#     4   9  19  35  55  82 114 147 185 228 272 328
#
# _framework density 21.821785999999999
#
# number of rings (size 3 to 8) (size 9 to 14) (size 15 to 20)
#    0.000    2.250    2.500    0.750    3.500    0.000 
#    0.000    1.250    0.000    0.750    0.000    0.000 
#    0.000    0.000    0.000    0.000    0.000    0.000 
#
# Total GULP energy -89295.516245 kJ/mol
# GULP energy per Si atom -5580.969765 kJ/mol
# Density = 2.177212 g / cm^3
# Si number density = 21.821786 Si / 1000 Ang^3
#
#
#
# Elastic Constant Matrix: (Units=GPa)
#
#
# Indices 1 2 3 4 5 6 
#
# 1 125.9368 -5.4344 23.2519 -0.0016 10.7986 0.0002
# 2 -5.4344 56.1297 -15.4324 0.0010 -0.0477 -0.0001
# 3 23.2519 -15.4324 85.8379 0.0005 6.4298 0.0000
# 4 -0.0016 0.0010 0.0005 15.4919 -0.0004 4.7983
# 5 10.7986 -0.0477 6.4298 -0.0004 36.1466 0.0001
# 6 0.0002 -0.0001 0.0000 4.7983 0.0001 7.1975
#
#
#
# Elastic Compliance Matrix: (Units=1/GPa)
#
#
# Indices 1 2 3 4 5 6 
#
# 1 0.008526 0.000246 -0.002103 0.000001 -0.002173 -0.000001
# 2 0.000246 0.018761 0.003355 -0.000002 -0.000645 0.000001
# 3 -0.002103 0.003355 0.012948 -0.000001 -0.001671 0.000001
# 4 0.000001 -0.000002 -0.000001 0.081346 0.000001 -0.054231
# 5 -0.002173 -0.000645 -0.001671 0.000001 0.028611 -0.000001
# 6 -0.000001 0.000001 0.000001 -0.054231 -0.000001 0.175092
#
#
# Mechanical properties :
#
#
# Convention : Reuss Voigt Hill
#
# Bulk Modulus (GPa) = 23.13184 30.29719 26.71451
# Shear Modulus (GPa) = 14.85012 29.46847 22.15930
#
# Velocity S-wave (km/s) = 2.61150 3.67879 3.19010
# Velocity P-wave (km/s) = 4.44034 5.65320 5.08308
#
# Compressibility (1/GPa) = 0.04323046
#
# Stress axis : x y z
#
# Youngs Moduli (GPa) = 117.29416 53.30065 77.23377
#
# Poissons Ratio (x) = -0.01309 0.16239
# Poissons Ratio (y) = -0.02880 -0.25911
# Poissons Ratio (z) = 0.24662 -0.17882
#
# Static dielectric constant tensor:
#      x y z
#    x 1.782870 0.000000 0.000890 
#    y 0.000000 1.855880 0.000000 
#    z 0.000890 0.000000 1.751560 
# 
# From -- ./inp_files/31643.got.cif
#   From: 2010.05.17/outbox.cif.g08.bks.cpg/sg8_16_cif.got.tgz:31643.got - 2010.06.03 19:46:02.
