data_PCOD9132688
_publ_section_title
;
Structure prediction by ZEFSAII (Michael W. Deem and Ramdas Pophale) SiO2 
 PCOD9132688
Probable space group: C M
;
_chemical_formula_sum "Si O2"
_cell_formula_units_Z 28
_cell_length_a 22.751244
_cell_length_b 11.567919
_cell_length_c 5.283315
_cell_angle_alpha 90.000000
_cell_angle_beta 60.588994
_cell_angle_gamma 90.000000
_cell_volume 1211.280222
_symmetry_space_group_name_H-M "C M"
_symmetry_group_IT_number 8
_symmetry_cell_setting 'monoclinic'
loop_
_space_group_symop_operation_xyz
x,y,z
x,-y,z
1/2+x,1/2+y,z
1/2+x,1/2-y,z
loop_
_atom_site_type_symbol
_atom_site_label
_atom_site_fract_x
_atom_site_fract_y
_atom_site_fract_z
Si Si1 0.397850 0.374616 0.322600
Si Si2 0.751704 0.130501 0.525435
Si Si3 0.612507 0.663133 0.168590
Si Si4 0.749131 0.725513 0.050394
Si Si5 0.543462 0.129913 0.533989
Si Si6 0.391979 0.132849 0.637748
Si Si7 0.543198 0.342598 0.814575
O O1 0.393829 0.500000 0.475955
O O2 0.331583 0.374879 0.290472
O O3 0.397782 0.249800 0.458404
O O4 0.467485 0.376357 0.028609
O O5 0.752308 0.182347 0.809187
O O6 0.724475 0.000000 0.576796
O O7 0.724711 0.214363 0.362996
O O8 0.591453 0.799241 0.240579
O O9 0.565961 0.617415 0.492032
O O10 0.689174 0.643981 0.080548
O O11 0.590961 0.622822 0.941234
O O12 0.820650 0.659853 0.929059
O O13 0.463992 0.133062 0.628491
O O14 0.547510 0.203569 0.780654
O O15 0.565674 0.000000 0.511002
O O16 0.386480 0.000000 0.542029
#
# Coordination Sequence:
#
# PCOD9132688 Si02
#       7
#     4   4   4   4   4   4   4
#     4  10  20  39  67  99 129 167 220 273 327 386
#     4  10  22  37  62  93 126 166 214 268 323 388
#     4  10  22  38  60  88 132 168 219 264 321 387
#     4  11  22  41  61  91 132 172 214 268 330 390
#     4   9  20  36  61  93 127 170 216 266 323 381
#     4  10  21  42  69  99 134 172 218 274 331 391
#     4  10  20  39  59  89 128 167 211 271 323 379
#
# _framework density 23.116040000000002
#
# number of rings (size 3 to 8) (size 9 to 14) (size 15 to 20)
#    0.857    1.143    1.429    2.143    0.000    2.857 
#    0.000   11.429    0.000    0.000    0.000    0.000 
#    0.000    0.000    0.000    0.000    0.000    0.000 
#
# Total GULP energy -77966.005246 kJ/mol
# GULP energy per Si atom -5569.000375 kJ/mol
# Density = 2.306343 g / cm^3
# Si number density = 23.116040 Si / 1000 Ang^3
#
#
#
# Elastic Constant Matrix: (Units=GPa)
#
#
# Indices 1 2 3 4 5 6 
#
# 1 53.1971 6.0894 1.7387 0.0000 -1.3538 0.0000
# 2 6.0894 194.4266 22.8242 0.0000 11.7776 0.0000
# 3 1.7387 22.8242 25.0448 0.0000 4.9148 0.0000
# 4 0.0000 0.0000 0.0000 22.2962 0.0000 20.7581
# 5 -1.3538 11.7776 4.9148 0.0000 45.0584 0.0000
# 6 0.0000 0.0000 0.0000 20.7581 0.0000 12.1365
#
#
#
# Elastic Compliance Matrix: (Units=1/GPa)
#
#
# Indices 1 2 3 4 5 6 
#
# 1 0.018911 -0.000525 -0.000994 0.000000 0.000814 0.000000
# 2 -0.000525 0.005814 -0.005070 0.000000 -0.000983 0.000000
# 3 -0.000994 -0.005070 0.045334 0.000000 -0.003650 0.000000
# 4 0.000000 0.000000 0.000000 -0.075711 0.000000 0.129494
# 5 0.000814 -0.000983 -0.003650 0.000000 0.022873 0.000000
# 6 0.000000 0.000000 0.000000 0.129494 0.000000 -0.139089
#
#
# Mechanical properties :
#
#
# Convention : Reuss Voigt Hill
#
# Bulk Modulus (GPa) = 17.58025 37.10811 27.34418
# Shear Modulus (GPa) = -55.72309 32.03263 -11.84523
#
# Velocity S-wave (km/s) = -4.91509 3.72658 -2.26614
# Velocity P-wave (km/s) = 4.95874 5.88255 2.23777
#
# Compressibility (1/GPa) = 0.05688202
#
# Stress axis : x y z
#
# Youngs Moduli (GPa) = 52.87838 171.98604 22.05859
#
# Poissons Ratio (x) = 0.09027 0.02193
# Poissons Ratio (y) = 0.02775 0.11183
# Poissons Ratio (z) = 0.05258 0.87190
#
# Static dielectric constant tensor:
#      x y z
#    x 1.847040 0.000000 -0.007300 
#    y 0.000000 1.891000 0.000000 
#    z -0.007300 0.000000 1.895930 
# 
# From -- ./inp_files/6446.got.cif
#   From: 2010.05.17/outbox.cif.g08.bks.cpg/sg8_4_cif.got.tgz:6446.got - 2010.06.03 19:46:02.
