data_PCOD9132373
_publ_section_title
;
Structure prediction by ZEFSAII (Michael W. Deem and Ramdas Pophale) SiO2 
 PCOD9132373
Probable space group: C M
;
_chemical_formula_sum "Si O2"
_cell_formula_units_Z 28
_cell_length_a 13.416623
_cell_length_b 12.945328
_cell_length_c 9.717060
_cell_angle_alpha 90.000000
_cell_angle_beta 121.179523
_cell_angle_gamma 90.000000
_cell_volume 1443.897027
_symmetry_space_group_name_H-M "C M"
_symmetry_group_IT_number 8
_symmetry_cell_setting 'monoclinic'
loop_
_space_group_symop_operation_xyz
x,y,z
x,-y,z
1/2+x,1/2+y,z
1/2+x,1/2-y,z
loop_
_atom_site_type_symbol
_atom_site_label
_atom_site_fract_x
_atom_site_fract_y
_atom_site_fract_z
Si Si1 0.470960 0.883934 0.768820
Si Si2 0.546932 0.829186 0.133076
Si Si3 0.587170 0.617077 0.033428
Si Si4 0.872685 0.831526 0.681299
Si Si5 0.809401 0.886465 0.336300
Si Si6 0.323400 0.780082 0.112436
Si Si7 0.721491 0.118525 0.822096
O O1 0.380725 0.792626 0.679000
O O2 0.584556 0.868469 0.754157
O O3 0.426629 0.000000 0.718532
O O4 0.516417 0.870127 0.958248
O O5 0.670300 0.875833 0.261291
O O6 0.437469 0.843731 0.153266
O O7 0.562595 0.705266 0.128348
O O8 0.584489 0.500000 0.081509
O O9 0.487128 0.631815 0.846552
O O10 0.712538 0.647492 0.061317
O O11 0.868799 0.875120 0.526216
O O12 0.763624 0.864847 0.696718
O O13 0.842071 0.794585 0.256298
O O14 0.833093 0.000000 0.293851
O O15 0.288085 0.702488 0.962816
O O16 0.750428 0.000000 0.882745
#
# Coordination Sequence:
#
# PCOD9132373 Si02
#       7
#     4   4   4   4   4   4   4
#     4  10  20  37  62  86 115 152 197 241 283 341
#     4  10  21  37  57  84 115 150 196 234 278 341
#     4  10  20  35  57  83 112 146 187 238 288 332
#     4  11  22  37  59  89 119 145 194 243 291 340
#     4  11  23  39  59  85 118 154 191 239 289 345
#     4  11  21  38  57  87 113 149 193 242 279 345
#     4  11  19  35  61  84 110 152 196 235 280 340
#
# _framework density 19.391966
#
# number of rings (size 3 to 8) (size 9 to 14) (size 15 to 20)
#    0.000    1.429    7.143    2.143    0.000    2.857 
#    0.000    2.857    0.000    0.000    0.000    0.000 
#    0.000    0.000    0.000    0.000    0.000    0.000 
#
# Total GULP energy -78168.061419 kJ/mol
# GULP energy per Si atom -5583.432958 kJ/mol
# Density = 1.934783 g / cm^3
# Si number density = 19.391966 Si / 1000 Ang^3
#
#
#
# Elastic Constant Matrix: (Units=GPa)
#
#
# Indices 1 2 3 4 5 6 
#
# 1 97.2813 -1.3147 -2.4363 0.0000 -10.3086 0.0000
# 2 -1.3147 94.0026 -2.7580 0.0000 0.3179 0.0000
# 3 -2.4363 -2.7580 37.7802 0.0000 -8.2889 0.0000
# 4 0.0000 0.0000 0.0000 8.1046 0.0000 3.0315
# 5 -10.3086 0.3179 -8.2889 0.0000 18.8764 0.0000
# 6 0.0000 0.0000 0.0000 3.0315 0.0000 15.0365
#
#
#
# Elastic Compliance Matrix: (Units=1/GPa)
#
#
# Indices 1 2 3 4 5 6 
#
# 1 0.011086 0.000198 0.002276 0.000000 0.007051 0.000000
# 2 0.000198 0.010665 0.000858 0.000000 0.000305 0.000000
# 3 0.002276 0.000858 0.029821 0.000000 0.014323 0.000000
# 4 0.000000 0.000000 0.000000 0.133450 0.000000 -0.026904
# 5 0.007051 0.000305 0.014323 0.000000 0.063111 0.000000
# 6 0.000000 0.000000 0.000000 -0.026904 0.000000 0.071929
#
#
# Mechanical properties :
#
#
# Convention : Reuss Voigt Hill
#
# Bulk Modulus (GPa) = 17.17117 24.00513 20.58815
# Shear Modulus (GPa) = 15.02361 24.10837 19.56599
#
# Velocity S-wave (km/s) = 2.78642 3.52975 3.17988
# Velocity P-wave (km/s) = 4.38477 5.38683 4.91142
#
# Compressibility (1/GPa) = 0.05823716
#
# Stress axis : x y z
#
# Youngs Moduli (GPa) = 90.20172 93.76535 33.53355
#
# Poissons Ratio (x) = -0.01856 -0.07633
# Poissons Ratio (y) = -0.01786 -0.02878
# Poissons Ratio (z) = -0.20532 -0.08048
#
# Static dielectric constant tensor:
#      x y z
#    x 1.688770 0.000000 -0.000340 
#    y 0.000000 1.701700 0.000000 
#    z -0.000340 0.000000 1.655030 
# 
# From -- ./inp_files/13178.got.cif
#   From: 2010.05.17/outbox.cif.g08.bks.cpg/sg8_7_cif.got.tgz:13178.got - 2010.06.03 19:46:02.
