data_PCOD9132850
_publ_section_title
;
Structure prediction by ZEFSAII (Michael W. Deem and Ramdas Pophale) SiO2 
 PCOD9132850
Probable space group: C M
;
_chemical_formula_sum "Si O2"
_cell_formula_units_Z 28
_cell_length_a 14.010802
_cell_length_b 9.338065
_cell_length_c 9.609009
_cell_angle_alpha 90.000000
_cell_angle_beta 74.251247
_cell_angle_gamma 90.000000
_cell_volume 1209.989757
_symmetry_space_group_name_H-M "C M"
_symmetry_group_IT_number 8
_symmetry_cell_setting 'monoclinic'
loop_
_space_group_symop_operation_xyz
x,y,z
x,-y,z
1/2+x,1/2+y,z
1/2+x,1/2-y,z
loop_
_atom_site_type_symbol
_atom_site_label
_atom_site_fract_x
_atom_site_fract_y
_atom_site_fract_z
Si Si1 0.847430 0.328408 0.925800
Si Si2 0.675413 0.161184 0.145478
Si Si3 0.467746 0.169626 0.316275
Si Si4 0.245169 0.666216 0.734906
Si Si5 0.043284 0.166473 0.857954
Si Si6 0.040732 0.850521 0.528135
Si Si7 0.247227 0.265979 0.409392
O O1 0.856613 0.500000 0.924989
O O2 0.824672 0.268067 0.779454
O O3 0.945090 0.249293 0.945901
O O4 0.753093 0.269931 0.048303
O O5 0.562645 0.219946 0.188477
O O6 0.706726 0.146705 0.294632
O O7 0.679487 0.000000 0.084117
O O8 0.492271 0.223528 0.461875
O O9 0.357460 0.218427 0.326541
O O10 0.471022 0.000000 0.308254
O O11 0.258836 0.500000 0.768066
O O12 0.140463 0.733189 0.829125
O O13 0.249794 0.672682 0.565230
O O14 0.028544 0.156430 0.696863
O O15 0.054813 0.000000 0.902794
O O16 0.158879 0.849162 0.456129
O O17 0.996897 0.000000 0.491775
#
# Coordination Sequence:
#
# PCOD9132850 Si02
#       7
#     4   4   4   4   4   4   4
#     4  12  26  43  63  90 126 170 213 257 311 370
#     4  10  23  43  62  87 123 162 207 259 310 367
#     4  10  21  36  59  87 119 160 204 251 306 363
#     4  11  23  41  66  97 129 163 206 256 309 372
#     4  10  21  39  63  91 123 162 206 257 314 370
#     4   9  19  34  56  88 124 156 194 247 306 367
#     4  10  21  38  65  94 122 157 204 253 308 367
#
# _framework density 23.140691
#
# number of rings (size 3 to 8) (size 9 to 14) (size 15 to 20)
#    0.000    1.714    0.000    3.857    0.000   13.143 
#    0.000    2.857    0.000    0.000    0.000    0.000 
#    0.000    0.000    0.000    0.000    0.000    0.000 
#
# Total GULP energy -78162.034086 kJ/mol
# GULP energy per Si atom -5583.002435 kJ/mol
# Density = 2.308802 g / cm^3
# Si number density = 23.140691 Si / 1000 Ang^3
#
#
#
# Elastic Constant Matrix: (Units=GPa)
#
#
# Indices 1 2 3 4 5 6 
#
# 1 128.8709 29.8176 29.9510 0.0000 -35.0829 0.0000
# 2 29.8176 133.2350 23.4975 0.0000 -25.0238 0.0000
# 3 29.9510 23.4975 88.8836 0.0000 -13.5022 0.0000
# 4 0.0000 0.0000 0.0000 4.4368 0.0000 7.4584
# 5 -35.0829 -25.0238 -13.5022 0.0000 53.1389 0.0000
# 6 0.0000 0.0000 0.0000 7.4584 0.0000 15.6554
#
#
#
# Elastic Compliance Matrix: (Units=1/GPa)
#
#
# Indices 1 2 3 4 5 6 
#
# 1 0.010017 -0.000770 -0.002311 0.000000 0.005663 0.000000
# 2 -0.000770 0.008533 -0.001522 0.000000 0.003123 0.000000
# 3 -0.002311 -0.001522 0.012577 0.000000 0.000953 0.000000
# 4 0.000000 0.000000 0.000000 1.131836 0.000000 -0.539223
# 5 0.005663 0.003123 0.000953 0.000000 0.024270 0.000000
# 6 0.000000 0.000000 0.000000 -0.539223 0.000000 0.320770
#
#
# Mechanical properties :
#
#
# Convention : Reuss Voigt Hill
#
# Bulk Modulus (GPa) = 45.62238 57.50241 51.56239
# Shear Modulus (GPa) = 3.27973 32.49444 17.88708
#
# Velocity S-wave (km/s) = 1.19180 3.75135 2.78325
# Velocity P-wave (km/s) = 4.65316 6.60806 5.71482
#
# Compressibility (1/GPa) = 0.02191907
#
# Stress axis : x y z
#
# Youngs Moduli (GPa) = 99.83176 117.19368 79.51275
#
# Poissons Ratio (x) = 0.09029 0.18379
# Poissons Ratio (y) = 0.07692 0.12100
# Poissons Ratio (z) = 0.23075 0.17834
#
# Static dielectric constant tensor:
#      x y z
#    x 1.890080 0.000000 -0.005960 
#    y 0.000000 1.816590 0.000000 
#    z -0.005960 0.000000 1.923390 
# 
# From -- ./inp_files/21468.got.cif
#   From: 2010.05.17/outbox.cif.g08.bks.cpg/sg8_11_cif.got.tgz:21468.got - 2010.06.03 19:46:02.
