data_PCOD9132155
_publ_section_title
;
Structure prediction by ZEFSAII (Michael W. Deem and Ramdas Pophale) SiO2 
 PCOD9132155
Probable space group: C M
;
_chemical_formula_sum "Si O2"
_cell_formula_units_Z 32
_cell_length_a 24.848047
_cell_length_b 7.798302
_cell_length_c 20.163553
_cell_angle_alpha 90.000000
_cell_angle_beta 23.083851
_cell_angle_gamma 90.000000
_cell_volume 1531.904440
_symmetry_space_group_name_H-M "C M"
_symmetry_group_IT_number 8
_symmetry_cell_setting 'monoclinic'
loop_
_space_group_symop_operation_xyz
x,y,z
x,-y,z
1/2+x,1/2+y,z
1/2+x,1/2-y,z
loop_
_atom_site_type_symbol
_atom_site_label
_atom_site_fract_x
_atom_site_fract_y
_atom_site_fract_z
Si Si1 0.071590 0.293216 0.978490
Si Si2 0.602750 0.288905 0.454315
Si Si3 0.793063 0.794859 0.827444
Si Si4 0.128479 0.203227 0.147452
Si Si5 0.039038 0.800796 0.865536
Si Si6 0.739167 0.297850 0.162621
Si Si7 0.309655 0.792056 0.488184
Si Si8 0.789917 0.292841 0.363415
O O1 0.077814 0.500000 0.963138
O O2 0.206734 0.229583 0.862336
O O3 0.037136 0.217524 0.946598
O O4 0.946836 0.254789 0.168932
O O5 0.606825 0.500000 0.448864
O O6 0.448579 0.232736 0.645640
O O7 0.661451 0.229834 0.316592
O O8 0.697922 0.230307 0.407184
O O9 0.798592 0.000000 0.814060
O O10 0.712679 0.764052 0.987314
O O11 0.188305 0.274019 0.149512
O O12 0.965505 0.238399 0.326668
O O13 0.147270 0.000000 0.126913
O O14 0.187657 0.732020 0.674420
O O15 0.033563 0.000000 0.852737
O O16 0.902257 0.720400 0.989418
O O17 0.707226 0.500000 0.197300
O O18 0.263586 0.732288 0.467289
O O19 0.313145 0.000000 0.485081
O O20 0.774891 0.500000 0.381268
#
# Coordination Sequence:
#
# PCOD9132155 Si02
#       8
#     4   4   4   4   4   4   4   4
#     4  10  19  36  62  84 111 153 198 242 286 345
#     4   9  18  34  60  86 106 145 200 242 276 334
#     4  10  21  37  62  87 112 154 201 240 285 346
#     4  11  24  39  59  87 122 157 191 243 299 345
#     4  11  24  38  59  90 120 153 193 246 300 343
#     4  10  22  41  60  83 118 157 199 240 288 354
#     4  10  22  40  60  86 117 154 200 240 289 354
#     4   9  16  33  60  83 104 143 198 243 275 329
#
# _framework density 20.889033000000001
#
# number of rings (size 3 to 8) (size 9 to 14) (size 15 to 20)
#    0.000    2.000    2.500    0.750    3.500    2.500 
#    0.000    0.625    0.000    0.000    0.000    0.000 
#    0.000    0.000    0.000    0.000    0.000    0.000 
#
# Total GULP energy -89294.619772 kJ/mol
# GULP energy per Si atom -5580.913736 kJ/mol
# Density = 2.084149 g / cm^3
# Si number density = 20.889033 Si / 1000 Ang^3
#
#
#
# Elastic Constant Matrix: (Units=GPa)
#
#
# Indices 1 2 3 4 5 6 
#
# 1 113.9898 -7.7740 18.4550 0.0003 -14.4816 0.0000
# 2 -7.7740 17.8498 -5.5343 0.0012 -1.9648 -0.0002
# 3 18.4550 -5.5343 78.0356 0.0012 -13.7636 -0.0004
# 4 0.0003 0.0012 0.0012 14.9970 -0.0002 -0.9784
# 5 -14.4816 -1.9648 -13.7636 -0.0002 34.7890 -0.0001
# 6 0.0000 -0.0002 -0.0004 -0.9784 -0.0001 17.4751
#
#
#
# Elastic Compliance Matrix: (Units=1/GPa)
#
#
# Indices 1 2 3 4 5 6 
#
# 1 0.009759 0.004250 -0.001341 0.000000 0.003772 0.000000
# 2 0.004250 0.060024 0.004474 -0.000005 0.006929 0.000001
# 3 -0.001341 0.004474 0.014400 -0.000001 0.005391 0.000000
# 4 0.000000 -0.000005 -0.000001 0.066924 0.000000 0.003747
# 5 0.003772 0.006929 0.005391 0.000000 0.032839 0.000000
# 6 0.000000 0.000001 0.000000 0.003747 0.000000 0.057434
#
#
# Mechanical properties :
#
#
# Convention : Reuss Voigt Hill
#
# Bulk Modulus (GPa) = 10.10642 24.46318 17.28480
# Shear Modulus (GPa) = 19.26053 27.10078 23.18066
#
# Velocity S-wave (km/s) = 3.03981 3.60581 3.33484
# Velocity P-wave (km/s) = 4.14357 5.39187 4.80840
#
# Compressibility (1/GPa) = 0.09894697
#
# Stress axis : x y z
#
# Youngs Moduli (GPa) = 102.47107 16.66011 69.44401
#
# Poissons Ratio (x) = -0.07080 0.09315
# Poissons Ratio (y) = -0.43545 -0.31069
# Poissons Ratio (z) = 0.13745 -0.07454
#
# Static dielectric constant tensor:
#      x y z
#    x 1.741190 0.000000 -0.002530 
#    y 0.000000 1.774600 0.000000 
#    z -0.002530 0.000000 1.724860 
# 
# From -- ./inp_files/31626.got.cif
#   From: 2010.05.17/outbox.cif.g08.bks.cpg/sg8_16_cif.got.tgz:31626.got - 2010.06.03 19:46:02.
