data_PCOD9132482
_publ_section_title
;
Structure prediction by ZEFSAII (Michael W. Deem and Ramdas Pophale) SiO2 
 PCOD9132482
Probable space group: C M
;
_chemical_formula_sum "Si O2"
_cell_formula_units_Z 28
_cell_length_a 13.068845
_cell_length_b 14.543498
_cell_length_c 7.877243
_cell_angle_alpha 90.000000
_cell_angle_beta 79.420937
_cell_angle_gamma 90.000000
_cell_volume 1471.753066
_symmetry_space_group_name_H-M "C M"
_symmetry_group_IT_number 8
_symmetry_cell_setting 'monoclinic'
loop_
_space_group_symop_operation_xyz
x,y,z
x,-y,z
1/2+x,1/2+y,z
1/2+x,1/2-y,z
loop_
_atom_site_type_symbol
_atom_site_label
_atom_site_fract_x
_atom_site_fract_y
_atom_site_fract_z
Si Si1 0.560780 0.609816 0.675010
Si Si2 0.338010 0.340647 0.877695
Si Si3 0.622517 0.099868 0.830997
Si Si4 0.661003 0.709477 0.952238
Si Si5 0.552935 0.703957 0.330577
Si Si6 0.852049 0.105668 0.266498
Si Si7 0.612029 0.895786 0.436385
O O1 0.554767 0.500000 0.665264
O O2 0.446568 0.650634 0.751426
O O3 0.632489 0.641214 0.810013
O O4 0.594335 0.655371 0.488168
O O5 0.248615 0.398278 0.808454
O O6 0.281177 0.241593 0.908945
O O7 0.351558 0.377563 0.064467
O O8 0.597388 0.194212 0.936049
O O9 0.592543 0.109184 0.643856
O O10 0.586319 0.000000 0.906650
O O11 0.623571 0.678120 0.147198
O O12 0.437033 0.669440 0.327357
O O13 0.555486 0.813138 0.359729
O O14 0.735036 0.120054 0.367021
O O15 0.881012 0.000000 0.291750
O O16 0.588460 0.000000 0.385908
#
# Coordination Sequence:
#
# PCOD9132482 Si02
#       7
#     4   4   4   4   4   4   4
#     4  12  24  40  62  92 124 158 202 253 301 357
#     4  10  20  36  59  88 122 153 194 250 301 347
#     4   9  17  34  59  87 117 152 194 246 301 349
#     4  10  23  37  60  90 124 159 197 249 303 362
#     4  12  22  37  59  93 125 159 198 248 307 357
#     4  11  21  33  58  93 123 154 199 251 298 353
#     4  10  20  37  60  89 123 159 201 251 302 357
#
# _framework density 19.024930000000001
#
# number of rings (size 3 to 8) (size 9 to 14) (size 15 to 20)
#    0.857    0.571    4.286    2.571    0.000    2.286 
#    0.000    0.000    0.000    6.000    0.000    0.000 
#    0.000    0.000    0.000    0.000    0.000    0.000 
#
# Total GULP energy -78074.987895 kJ/mol
# GULP energy per Si atom -5576.784850 kJ/mol
# Density = 1.898163 g / cm^3
# Si number density = 19.024930 Si / 1000 Ang^3
#
#
#
# Elastic Constant Matrix: (Units=GPa)
#
#
# Indices 1 2 3 4 5 6 
#
# 1 45.3054 55.6492 10.3709 0.0000 6.3618 0.0000
# 2 55.6492 100.2817 41.7326 0.0000 4.8879 0.0000
# 3 10.3709 41.7326 109.3922 0.0000 -0.7609 0.0000
# 4 0.0000 0.0000 0.0000 2.1577 0.0000 -2.3497
# 5 6.3618 4.8879 -0.7609 0.0000 21.3293 0.0000
# 6 0.0000 0.0000 0.0000 -2.3497 0.0000 28.6018
#
#
#
# Elastic Compliance Matrix: (Units=1/GPa)
#
#
# Indices 1 2 3 4 5 6 
#
# 1 0.082366 -0.049686 0.011057 0.000000 -0.012786 0.000000
# 2 -0.049686 0.042005 -0.011281 0.000000 0.004791 0.000000
# 3 0.011057 -0.011281 0.012395 0.000000 -0.000271 0.000000
# 4 0.000000 0.000000 0.000000 0.508987 0.000000 0.041814
# 5 -0.012786 0.004791 -0.000271 0.000000 0.049590 0.000000
# 6 0.000000 0.000000 0.000000 0.041814 0.000000 0.038398
#
#
# Mechanical properties :
#
#
# Convention : Reuss Voigt Hill
#
# Bulk Modulus (GPa) = 27.06556 52.27608 39.67082
# Shear Modulus (GPa) = 5.91104 20.23288 13.07196
#
# Velocity S-wave (km/s) = 1.76458 3.26466 2.62410
# Velocity P-wave (km/s) = 4.29056 6.46127 5.48438
#
# Compressibility (1/GPa) = 0.03694732
#
# Stress axis : x y z
#
# Youngs Moduli (GPa) = 12.14089 23.80672 80.67853
#
# Poissons Ratio (x) = 1.18285 -0.89207
# Poissons Ratio (y) = 0.60323 0.91013
# Poissons Ratio (z) = -0.13424 0.26856
#
# Static dielectric constant tensor:
#      x y z
#    x 1.649990 0.000000 0.002100 
#    y 0.000000 1.682220 0.000000 
#    z 0.002100 0.000000 1.680410 
# 
# From -- ./inp_files/12956.got.cif
#   From: 2010.05.17/outbox.cif.g08.bks.cpg/sg8_7_cif.got.tgz:12956.got - 2010.06.03 19:46:02.
