data_PCOD9132559
_publ_section_title
;
Structure prediction by ZEFSAII (Michael W. Deem and Ramdas Pophale) SiO2 
 PCOD9132559
Probable space group: C M
;
_chemical_formula_sum "Si O2"
_cell_formula_units_Z 32
_cell_length_a 23.049247
_cell_length_b 8.538363
_cell_length_c 11.558061
_cell_angle_alpha 90.000000
_cell_angle_beta 131.220766
_cell_angle_gamma 90.000000
_cell_volume 1710.944351
_symmetry_space_group_name_H-M "C M"
_symmetry_group_IT_number 8
_symmetry_cell_setting 'monoclinic'
loop_
_space_group_symop_operation_xyz
x,y,z
x,-y,z
1/2+x,1/2+y,z
1/2+x,1/2-y,z
loop_
_atom_site_type_symbol
_atom_site_label
_atom_site_fract_x
_atom_site_fract_y
_atom_site_fract_z
Si Si1 0.804660 0.687719 0.244300
Si Si2 0.146478 0.689559 0.929942
Si Si3 0.522121 0.810799 0.166851
Si Si4 0.610164 0.810605 0.622134
Si Si5 0.453246 0.686108 0.309395
Si Si6 0.993717 0.691171 0.867709
Si Si7 0.186903 0.311608 0.486231
Si Si8 0.833652 0.688789 0.545066
O O1 0.804688 0.500000 0.244910
O O2 0.874544 0.745992 0.256641
O O3 0.818720 0.743845 0.394461
O O4 0.723419 0.747323 0.089660
O O5 0.149103 0.500000 0.935817
O O6 0.138339 0.738615 0.785387
O O7 0.070191 0.740020 0.899379
O O8 0.470351 0.742317 0.201342
O O9 0.610983 0.768011 0.311853
O O10 0.517610 0.000000 0.167280
O O11 0.498479 0.759753 0.007718
O O12 0.525690 0.746543 0.480261
O O13 0.666772 0.764312 0.591471
O O14 0.604831 0.000000 0.613600
O O15 0.450908 0.500000 0.309686
O O16 0.993386 0.500000 0.866747
O O17 0.915621 0.744396 0.702709
O O18 0.193590 0.500000 0.491888
O O19 0.263498 0.239504 0.534342
O O20 0.836283 0.500000 0.545874
#
# Coordination Sequence:
#
# PCOD9132559 Si02
#       8
#     4   4   4   4   4   4   4   4
#     4  11  23  38  55  78 112 147 181 226 278 326
#     4  10  20  37  60  82 108 143 185 228 270 324
#     4   9  18  35  57  79 107 143 181 221 270 323
#     4   9  19  37  59  82 112 147 179 220 276 327
#     4  11  22  36  57  83 110 143 185 226 267 323
#     4   9  18  34  57  81 105 140 183 224 270 324
#     4   9  18  33  54  80 109 141 175 215 268 323
#     4  10  21  36  55  79 107 142 181 222 271 324
#
# _framework density 18.703120999999999
#
# number of rings (size 3 to 8) (size 9 to 14) (size 15 to 20)
#    0.000    2.250    0.000    3.750    0.000    7.500 
#    0.000    4.375    0.000    0.000    0.000    0.000 
#    0.000    0.000    0.000    0.000    0.000    0.000 
#
# Total GULP energy -89347.534083 kJ/mol
# GULP energy per Si atom -5584.220880 kJ/mol
# Density = 1.866055 g / cm^3
# Si number density = 18.703121 Si / 1000 Ang^3
#
#
#
# Elastic Constant Matrix: (Units=GPa)
#
#
# Indices 1 2 3 4 5 6 
#
# 1 179.7114 29.7396 131.9332 0.0000 13.5726 0.0000
# 2 29.7396 16.0957 33.9180 0.0000 -1.5977 0.0000
# 3 131.9332 33.9180 197.5622 0.0000 -12.1284 0.0000
# 4 0.0000 0.0000 0.0000 24.3594 0.0000 7.6466
# 5 13.5726 -1.5977 -12.1284 0.0000 30.6515 0.0000
# 6 0.0000 0.0000 0.0000 7.6466 0.0000 28.9283
#
#
#
# Elastic Compliance Matrix: (Units=1/GPa)
#
#
# Indices 1 2 3 4 5 6 
#
# 1 0.013990 -0.009183 -0.008379 0.000000 -0.009989 0.000000
# 2 -0.009183 0.103449 -0.011322 0.000000 0.004979 0.000000
# 3 -0.008379 -0.011322 0.013111 0.000000 0.008308 0.000000
# 4 0.000000 0.000000 0.000000 0.044766 0.000000 -0.011833
# 5 -0.009989 0.004979 0.008308 0.000000 0.040595 0.000000
# 6 0.000000 0.000000 0.000000 -0.011833 0.000000 0.037696
#
#
# Mechanical properties :
#
#
# Convention : Reuss Voigt Hill
#
# Bulk Modulus (GPa) = 13.73980 87.17235 50.45607
# Shear Modulus (GPa) = 14.89697 29.97308 22.43502
#
# Velocity S-wave (km/s) = 2.82529 4.00756 3.46719
# Velocity P-wave (km/s) = 4.24326 8.25370 6.56235
#
# Compressibility (1/GPa) = 0.07278126
#
# Stress axis : x y z
#
# Youngs Moduli (GPa) = 71.47819 9.66656 76.26971
#
# Poissons Ratio (x) = 0.08877 0.63909
# Poissons Ratio (y) = 0.65641 0.86353
# Poissons Ratio (z) = 0.59894 0.10945
#
# Static dielectric constant tensor:
#      x y z
#    x 1.618540 0.000000 -0.018770 
#    y 0.000000 1.643710 0.000000 
#    z -0.018770 0.000000 1.631060 
# 
# From -- ./inp_files/23897.got.cif
#   From: 2010.05.17/outbox.cif.g08.bks.cpg/sg8_12_cif.got.tgz:23897.got - 2010.06.03 19:46:02.
