data_PCOD9132863
_publ_section_title
;
Structure prediction by ZEFSAII (Michael W. Deem and Ramdas Pophale) SiO2 
 PCOD9132863
Probable space group: C M
;
_chemical_formula_sum "Si O2"
_cell_formula_units_Z 32
_cell_length_a 7.178421
_cell_length_b 17.395302
_cell_length_c 12.280546
_cell_angle_alpha 90.000000
_cell_angle_beta 89.002108
_cell_angle_gamma 90.000000
_cell_volume 1533.249045
_symmetry_space_group_name_H-M "C M"
_symmetry_group_IT_number 8
_symmetry_cell_setting 'monoclinic'
loop_
_space_group_symop_operation_xyz
x,y,z
x,-y,z
1/2+x,1/2+y,z
1/2+x,1/2-y,z
loop_
_atom_site_type_symbol
_atom_site_label
_atom_site_fract_x
_atom_site_fract_y
_atom_site_fract_z
Si Si1 0.823450 0.413897 0.167260
Si Si2 0.465444 0.693980 0.136288
Si Si3 0.292153 0.410958 0.613805
Si Si4 0.108109 0.347223 0.017157
Si Si5 0.013765 0.333650 0.778187
Si Si6 0.059227 0.808494 0.483828
Si Si7 0.111319 0.835302 0.721868
Si Si8 0.390725 0.807369 0.335254
O O1 0.766893 0.500000 0.190075
O O2 0.644347 0.358784 0.156870
O O3 0.953367 0.378247 0.261709
O O4 0.953107 0.406093 0.060851
O O5 0.303445 0.647556 0.077529
O O6 0.529447 0.763429 0.056034
O O7 0.388237 0.736332 0.247398
O O8 0.261115 0.500000 0.588127
O O9 0.116641 0.371600 0.674048
O O10 0.379901 0.361394 0.513004
O O11 0.460063 0.400690 0.700738
O O12 0.119193 0.353336 0.888016
O O13 0.016122 0.240875 0.770334
O O14 0.797541 0.357396 0.781899
O O15 0.164618 0.807754 0.598196
O O16 0.198845 0.836777 0.390124
O O17 0.001463 0.726403 0.435919
#
# Coordination Sequence:
#
# PCOD9132863 Si02
#       8
#     4   4   4   4   4   4   4   4
#     4  11  25  42  63  99 138 166 211 273 331 388
#     4  11  21  40  65  97 125 167 219 272 315 386
#     4  10  25  42  61  96 136 165 213 272 323 383
#     4  11  23  38  70  95 125 171 228 267 314 387
#     4  12  21  40  69  95 124 175 224 268 319 382
#     4  10  21  36  67  91 124 164 212 258 321 374
#     4  10  22  38  65  96 126 166 222 271 309 382
#     4  11  18  40  66  93 118 168 213 257 316 386
#
# _framework density 20.870714
#
# number of rings (size 3 to 8) (size 9 to 14) (size 15 to 20)
#    0.750    0.500    5.000    3.000    0.000    2.000 
#    0.000    1.250    0.000    3.750    0.000    0.000 
#    0.000    0.000    0.000    0.000    0.000    0.000 
#
# Total GULP energy -89160.173956 kJ/mol
# GULP energy per Si atom -5572.510872 kJ/mol
# Density = 2.082321 g / cm^3
# Si number density = 20.870714 Si / 1000 Ang^3
#
#
#
# Elastic Constant Matrix: (Units=GPa)
#
#
# Indices 1 2 3 4 5 6 
#
# 1 55.5139 11.6849 -5.5083 0.0000 10.9019 0.0000
# 2 11.6849 83.8672 9.6930 0.0000 -2.0715 0.0000
# 3 -5.5083 9.6930 74.0932 0.0000 0.2219 0.0000
# 4 0.0000 0.0000 0.0000 7.7381 0.0000 0.8703
# 5 10.9019 -2.0715 0.2219 0.0000 33.1940 0.0000
# 6 0.0000 0.0000 0.0000 0.8703 0.0000 16.4972
#
#
#
# Elastic Compliance Matrix: (Units=1/GPa)
#
#
# Indices 1 2 3 4 5 6 
#
# 1 0.020229 -0.003213 0.001945 0.000000 -0.006857 0.000000
# 2 -0.003213 0.012636 -0.001898 0.000000 0.001856 0.000000
# 3 0.001945 -0.001898 0.013892 0.000000 -0.000850 0.000000
# 4 0.000000 0.000000 0.000000 0.130002 0.000000 -0.006858
# 5 -0.006857 0.001856 -0.000850 0.000000 0.032500 0.000000
# 6 0.000000 0.000000 0.000000 -0.006858 0.000000 0.060978
#
#
# Mechanical properties :
#
#
# Convention : Reuss Voigt Hill
#
# Bulk Modulus (GPa) = 24.73604 27.24592 25.99098
# Shear Modulus (GPa) = 17.23875 24.65950 20.94912
#
# Velocity S-wave (km/s) = 2.87710 3.44108 3.17165
# Velocity P-wave (km/s) = 4.78693 5.37317 5.08850
#
# Compressibility (1/GPa) = 0.04042685
#
# Stress axis : x y z
#
# Youngs Moduli (GPa) = 49.43312 79.13664 71.98449
#
# Poissons Ratio (x) = 0.25424 -0.13999
# Poissons Ratio (y) = 0.15881 0.13659
# Poissons Ratio (z) = -0.09613 0.15016
#
# Static dielectric constant tensor:
#      x y z
#    x 1.800970 0.000000 0.008070 
#    y 0.000000 1.725210 0.000000 
#    z 0.008070 0.000000 1.763120 
# 
# From -- ./inp_files/19016.got.cif
#   From: 2010.05.17/outbox.cif.g08.bks.cpg/sg8_10_cif.got.tgz:19016.got - 2010.06.03 19:46:02.
