data_PCOD9132997
_publ_section_title
;
Structure prediction by ZEFSAII (Michael W. Deem and Ramdas Pophale) SiO2 
 PCOD9132997
Probable space group: C M
;
_chemical_formula_sum "Si O2"
_cell_formula_units_Z 32
_cell_length_a 11.536785
_cell_length_b 23.616619
_cell_length_c 12.257053
_cell_angle_alpha 90.000000
_cell_angle_beta 154.685303
_cell_angle_gamma 90.000000
_cell_volume 1427.959464
_symmetry_space_group_name_H-M "C M"
_symmetry_group_IT_number 8
_symmetry_cell_setting 'monoclinic'
loop_
_space_group_symop_operation_xyz
x,y,z
x,-y,z
1/2+x,1/2+y,z
1/2+x,1/2-y,z
loop_
_atom_site_type_symbol
_atom_site_label
_atom_site_fract_x
_atom_site_fract_y
_atom_site_fract_z
Si Si1 0.683980 0.250317 0.009400
Si Si2 0.006764 0.366172 0.949347
Si Si3 0.338971 0.346467 0.657547
Si Si4 0.657054 0.812135 0.297100
Si Si5 0.851023 0.708767 0.373952
Si Si6 0.950562 0.065398 0.925957
Si Si7 0.332926 0.904034 0.452832
Si Si8 0.056438 0.065180 0.441854
O O1 0.602241 0.185528 0.951643
O O2 0.649926 0.279365 0.100971
O O3 0.976749 0.266292 0.210565
O O4 0.499425 0.288475 0.776756
O O5 0.992101 0.338851 0.057085
O O6 0.256088 0.410028 0.169837
O O7 0.737486 0.395900 0.676018
O O8 0.237901 0.360622 0.451007
O O9 0.490098 0.394360 0.854381
O O10 0.093165 0.324855 0.522945
O O11 0.897085 0.772963 0.451800
O O12 0.777260 0.663663 0.403631
O O13 0.651386 0.080552 0.718748
O O14 0.950553 0.000000 0.894137
O O15 0.177055 0.075300 0.211062
O O16 0.203349 0.930729 0.449462
O O17 0.050584 0.000000 0.472801
#
# Coordination Sequence:
#
# PCOD9132997 Si02
#       8
#     4   4   4   4   4   4   4   4
#     4  10  21  39  63  99 130 166 214 272 330 402
#     4  11  27  43  70  98 131 177 225 271 339 392
#     4  10  22  38  65  93 134 167 214 269 325 392
#     4  10  23  40  64  93 136 173 213 268 335 394
#     4   9  20  37  59  95 131 163 204 261 330 397
#     4  11  22  40  64  95 130 168 213 266 327 394
#     4  11  22  40  66  96 125 167 210 267 338 393
#     4  12  26  47  67  95 133 177 230 280 322 392
#
# _framework density 22.409600000000001
#
# number of rings (size 3 to 8) (size 9 to 14) (size 15 to 20)
#    0.000    1.500    1.250    3.000    8.750    1.000 
#    0.000    1.250    0.000    0.000    0.000    0.000 
#    0.000    0.000    0.000    0.000    0.000    0.000 
#
# Total GULP energy -89309.720965 kJ/mol
# GULP energy per Si atom -5581.857560 kJ/mol
# Density = 2.235860 g / cm^3
# Si number density = 22.409600 Si / 1000 Ang^3
#
#
#
# Elastic Constant Matrix: (Units=GPa)
#
#
# Indices 1 2 3 4 5 6 
#
# 1 41.4985 9.1303 4.8324 0.0025 -19.8881 0.0014
# 2 9.1303 126.5035 18.3144 0.0003 -9.6451 0.0001
# 3 4.8324 18.3144 71.7292 0.0020 -8.0710 0.0010
# 4 0.0025 0.0003 0.0020 18.9104 0.0018 5.6754
# 5 -19.8881 -9.6451 -8.0710 0.0018 34.6601 0.0010
# 6 0.0014 0.0001 0.0010 5.6754 0.0010 19.5412
#
#
#
# Elastic Compliance Matrix: (Units=1/GPa)
#
#
# Indices 1 2 3 4 5 6 
#
# 1 0.033354 -0.000986 0.000131 -0.000006 0.018895 -0.000002
# 2 -0.000986 0.008354 -0.001919 0.000000 0.001312 0.000000
# 3 0.000131 -0.001919 0.014758 -0.000002 0.002977 0.000000
# 4 -0.000006 0.000000 -0.000002 0.057930 -0.000006 -0.016825
# 5 0.018895 0.001312 0.002977 -0.000006 0.040752 -0.000002
# 6 -0.000002 0.000000 0.000000 -0.016825 -0.000002 0.056060
#
#
# Mechanical properties :
#
#
# Convention : Reuss Voigt Hill
#
# Bulk Modulus (GPa) = 19.63944 33.80949 26.72447
# Shear Modulus (GPa) = 21.39230 28.45263 24.92247
#
# Velocity S-wave (km/s) = 3.09302 3.56710 3.33848
# Velocity P-wave (km/s) = 4.64097 5.66440 5.17803
#
# Compressibility (1/GPa) = 0.05091794
#
# Stress axis : x y z
#
# Youngs Moduli (GPa) = 29.98118 119.70425 67.76212
#
# Poissons Ratio (x) = 0.11798 -0.00885
# Poissons Ratio (y) = 0.02955 0.13003
# Poissons Ratio (z) = -0.00392 0.22970
#
# Static dielectric constant tensor:
#      x y z
#    x 1.926970 0.000000 0.038330 
#    y 0.000000 1.832140 0.000000 
#    z 0.038330 0.000000 1.895850 
# 
# From -- ./inp_files/20895.got.cif
#   From: 2010.05.17/outbox.cif.g08.bks.cpg/sg8_11_cif.got.tgz:20895.got - 2010.06.03 19:46:02.
