data_PCOD9132215
_publ_section_title
;
Structure prediction by ZEFSAII (Michael W. Deem and Ramdas Pophale) SiO2 
 PCOD9132215
Probable space group: C M
;
_chemical_formula_sum "Si O2"
_cell_formula_units_Z 32
_cell_length_a 25.055292
_cell_length_b 7.758579
_cell_length_c 20.497745
_cell_angle_alpha 90.000000
_cell_angle_beta 157.794432
_cell_angle_gamma 90.000000
_cell_volume 1505.913349
_symmetry_space_group_name_H-M "C M"
_symmetry_group_IT_number 8
_symmetry_cell_setting 'monoclinic'
loop_
_space_group_symop_operation_xyz
x,y,z
x,-y,z
1/2+x,1/2+y,z
1/2+x,1/2-y,z
loop_
_atom_site_type_symbol
_atom_site_label
_atom_site_fract_x
_atom_site_fract_y
_atom_site_fract_z
Si Si1 0.733960 0.288639 0.647040
Si Si2 0.063757 0.798415 0.327838
Si Si3 0.124774 0.795204 0.663656
Si Si4 0.726725 0.298990 0.391545
Si Si5 0.546488 0.791017 0.957356
Si Si6 0.539740 0.799195 0.801715
Si Si7 0.808147 0.702905 0.343436
Si Si8 0.263284 0.198535 0.951685
O O1 0.729687 0.500000 0.642889
O O2 0.638597 0.229339 0.477687
O O3 0.673590 0.228171 0.648334
O O4 0.896568 0.237509 0.818812
O O5 0.118378 0.721454 0.321033
O O6 0.895952 0.786232 0.136318
O O7 0.105734 0.000000 0.373624
O O8 0.958473 0.772311 0.489350
O O9 0.150535 0.000000 0.692058
O O10 0.213706 0.725302 0.826048
O O11 0.684725 0.500000 0.332803
O O12 0.754025 0.221415 0.351245
O O13 0.876494 0.294722 0.597459
O O14 0.555699 0.731861 0.892907
O O15 0.545992 0.000000 0.956156
O O16 0.682470 0.730239 0.150481
O O17 0.584015 0.000000 0.850920
O O18 0.631124 0.706957 0.850620
O O19 0.833271 0.500000 0.382225
O O20 0.303616 0.000000 0.987640
#
# Coordination Sequence:
#
# PCOD9132215 Si02
#       8
#     4   4   4   4   4   4   4   4
#     4   9  19  38  62  84 109 147 195 240 277 330
#     4  10  20  38  63  86 109 147 198 242 280 335
#     4  10  22  40  58  81 116 155 193 233 282 342
#     4   9  18  36  61  85 109 142 193 244 282 329
#     4  10  21  38  63  88 111 147 195 240 283 337
#     4  10  19  38  64  84 107 148 197 239 280 336
#     4  11  23  38  58  86 119 152 187 236 291 341
#     4  11  24  38  55  86 122 152 186 236 291 340
#
# _framework density 21.249562999999998
#
# number of rings (size 3 to 8) (size 9 to 14) (size 15 to 20)
#    0.000    2.000    2.500    0.750    3.500    1.000 
#    0.000    2.500    0.000    0.000    0.000    0.000 
#    0.000    0.000    0.000    0.000    0.000    0.000 
#
# Total GULP energy -89324.218380 kJ/mol
# GULP energy per Si atom -5582.763649 kJ/mol
# Density = 2.120120 g / cm^3
# Si number density = 21.249563 Si / 1000 Ang^3
#
#
#
# Elastic Constant Matrix: (Units=GPa)
#
#
# Indices 1 2 3 4 5 6 
#
# 1 93.0810 7.6140 4.1620 0.0000 -15.0192 0.0000
# 2 7.6140 30.3150 -6.2349 0.0000 -1.2758 0.0000
# 3 4.1620 -6.2349 64.7959 0.0000 -9.4750 0.0000
# 4 0.0000 0.0000 0.0000 11.9491 0.0000 4.1878
# 5 -15.0192 -1.2758 -9.4750 0.0000 36.8809 0.0000
# 6 0.0000 0.0000 0.0000 4.1878 0.0000 14.0195
#
#
#
# Elastic Compliance Matrix: (Units=1/GPa)
#
#
# Indices 1 2 3 4 5 6 
#
# 1 0.011731 -0.002826 -0.000354 0.000000 0.004588 0.000000
# 2 -0.002826 0.034487 0.003643 0.000000 0.000978 0.000000
# 3 -0.000354 0.003643 0.016421 0.000000 0.004200 0.000000
# 4 0.000000 0.000000 0.000000 0.093474 0.000000 -0.027922
# 5 0.004588 0.000978 0.004200 0.000000 0.030096 0.000000
# 6 0.000000 0.000000 0.000000 -0.027922 0.000000 0.079670
#
#
# Mechanical properties :
#
#
# Convention : Reuss Voigt Hill
#
# Bulk Modulus (GPa) = 15.73234 22.14157 18.93695
# Shear Modulus (GPa) = 17.47386 24.74662 21.11024
#
# Velocity S-wave (km/s) = 2.87072 3.41628 3.15531
# Velocity P-wave (km/s) = 4.29042 5.09938 4.71229
#
# Compressibility (1/GPa) = 0.06356334
#
# Stress axis : x y z
#
# Youngs Moduli (GPa) = 85.24633 28.99625 60.89915
#
# Poissons Ratio (x) = 0.08195 0.02159
# Poissons Ratio (y) = 0.24092 -0.22186
# Poissons Ratio (z) = 0.03022 -0.10563
#
# Static dielectric constant tensor:
#      x y z
#    x 1.788680 0.000000 -0.023670 
#    y 0.000000 1.811850 0.000000 
#    z -0.023670 0.000000 1.704130 
# 
# From -- ./inp_files/31664.got.cif
#   From: 2010.05.17/outbox.cif.g08.bks.cpg/sg8_16_cif.got.tgz:31664.got - 2010.06.03 19:46:02.
