data_PCOD9132549
_publ_section_title
;
Structure prediction by ZEFSAII (Michael W. Deem and Ramdas Pophale) SiO2 
 PCOD9132549
Probable space group: C M
;
_chemical_formula_sum "Si O2"
_cell_formula_units_Z 20
_cell_length_a 14.184682
_cell_length_b 9.932444
_cell_length_c 19.063775
_cell_angle_alpha 90.000000
_cell_angle_beta 156.530782
_cell_angle_gamma 90.000000
_cell_volume 1069.663835
_symmetry_space_group_name_H-M "C M"
_symmetry_group_IT_number 8
_symmetry_cell_setting 'monoclinic'
loop_
_space_group_symop_operation_xyz
x,y,z
x,-y,z
1/2+x,1/2+y,z
1/2+x,1/2-y,z
loop_
_atom_site_type_symbol
_atom_site_label
_atom_site_fract_x
_atom_site_fract_y
_atom_site_fract_z
Si Si1 0.463800 0.782327 0.395230
Si Si2 0.465611 0.269380 0.988462
Si Si3 0.639208 0.500000 0.000813
Si Si4 0.631913 0.000000 0.781232
Si Si5 0.639430 0.000000 0.402301
Si Si6 0.695740 0.500000 0.584498
Si Si7 0.140384 0.500000 0.619275
Si Si8 0.206847 0.000000 0.757450
O O1 0.580438 0.869954 0.411282
O O2 0.562791 0.635968 0.475022
O O3 0.520056 0.871364 0.501799
O O4 0.189613 0.759271 0.191493
O O5 0.277303 0.365976 0.896309
O O6 0.336809 0.132736 0.877385
O O7 0.565695 0.364012 0.993217
O O8 0.927956 0.500000 0.198028
O O9 0.426205 0.500000 0.797868
O O10 0.595614 0.000000 0.672073
O O11 0.412603 0.000000 0.680529
O O12 0.918234 0.000000 0.571944
O O13 0.751099 0.500000 0.704514
#
# Coordination Sequence:
#
# PCOD9132549 Si02
#       8
#     4   4   2   2   2   2   2   2
#     4  10  20  37  59  85 112 147 191 235 283 341
#     4   9  19  37  58  80 112 149 188 234 281 334
#     4   8  16  35  60  81 104 148 194 224 270 342
#     4  10  20  38  59  80 111 154 191 226 276 342
#     4   9  20  38  60  79 110 155 194 228 280 343
#     4  12  23  34  53  86 117 148 188 236 283 326
#     4   9  17  36  64  85 109 151 192 232 278 341
#     4  12  22  37  56  85 121 152 183 240 291 324
#
# _framework density 18.697464
#
# number of rings (size 3 to 8) (size 9 to 14) (size 15 to 20)
#    0.000    2.400    0.000    6.000    0.000    0.000 
#    0.000   14.000    0.000    0.000    0.000    0.000 
#    0.000    0.000    0.000    0.000    0.000    0.000 
#
# Total GULP energy -55669.041344 kJ/mol
# GULP energy per Si atom -5566.904134 kJ/mol
# Density = 1.865491 g / cm^3
# Si number density = 18.697464 Si / 1000 Ang^3
#
#
#
# Elastic Constant Matrix: (Units=GPa)
#
#
# Indices 1 2 3 4 5 6 
#
# 1 65.3933 39.1765 69.3191 0.0028 1.2907 -0.0023
# 2 39.1765 190.8947 103.0413 -0.0153 3.8917 0.0120
# 3 69.3191 103.0413 201.6968 -0.0110 -6.0476 0.0004
# 4 0.0028 -0.0153 -0.0110 55.0318 0.0125 12.5200
# 5 1.2907 3.8917 -6.0476 0.0125 8.6545 -0.0124
# 6 -0.0023 0.0120 0.0004 12.5200 -0.0124 1.9621
#
#
#
# Elastic Compliance Matrix: (Units=1/GPa)
#
#
# Indices 1 2 3 4 5 6 
#
# 1 0.024862 -0.000185 -0.008742 -0.000013 -0.009733 0.000053
# 2 -0.000185 0.007548 -0.003977 -0.000049 -0.006145 0.000225
# 3 -0.008742 -0.003977 0.010302 0.000041 0.010291 -0.000184
# 4 -0.000013 -0.000049 0.000041 -0.040231 0.000479 0.256706
# 5 -0.009733 -0.006145 0.010291 0.000479 0.126949 -0.002229
# 6 0.000053 0.000225 -0.000184 0.256706 -0.002229 -1.128350
#
#
# Mechanical properties :
#
#
# Convention : Reuss Voigt Hill
#
# Bulk Modulus (GPa) = 59.15408 97.89541 78.52475
# Shear Modulus (GPa) = -5.16808 29.55955 12.19573
#
# Velocity S-wave (km/s) = -1.66435 3.98042 2.55672
# Velocity P-wave (km/s) = 5.29271 8.57882 7.12773
#
# Compressibility (1/GPa) = 0.01690501
#
# Stress axis : x y z
#
# Youngs Moduli (GPa) = 40.22270 132.47836 97.06409
#
# Poissons Ratio (x) = 0.02454 0.84850
# Poissons Ratio (y) = 0.00745 0.38601
# Poissons Ratio (z) = 0.35161 0.52685
#
# Static dielectric constant tensor:
#      x y z
#    x 1.647560 0.000010 -0.018010 
#    y 0.000010 1.605350 0.000010 
#    z -0.018010 0.000010 1.701150 
# 
# From -- ./inp_files/14168.got.cif
#   From: 2010.05.17/outbox.cif.g08.bks.cpg/sg8_8_cif.got.tgz:14168.got - 2010.06.03 19:46:02.
