data_PCOD9132661
_publ_section_title
;
Structure prediction by ZEFSAII (Michael W. Deem and Ramdas Pophale) SiO2 
 PCOD9132661
Probable space group: C M
;
_chemical_formula_sum "Si O2"
_cell_formula_units_Z 32
_cell_length_a 13.508836
_cell_length_b 17.926481
_cell_length_c 12.008554
_cell_angle_alpha 90.000000
_cell_angle_beta 148.520406
_cell_angle_gamma 90.000000
_cell_volume 1518.575134
_symmetry_space_group_name_H-M "C M"
_symmetry_group_IT_number 8
_symmetry_cell_setting 'monoclinic'
loop_
_space_group_symop_operation_xyz
x,y,z
x,-y,z
1/2+x,1/2+y,z
1/2+x,1/2-y,z
loop_
_atom_site_type_symbol
_atom_site_label
_atom_site_fract_x
_atom_site_fract_y
_atom_site_fract_z
Si Si1 0.963770 0.585939 0.043750
Si Si2 0.118117 0.822612 0.828168
Si Si3 0.966007 0.295355 0.858568
Si Si4 0.688709 0.079752 0.698642
Si Si5 0.744432 0.888116 0.501176
Si Si6 0.587993 0.276077 0.387454
Si Si7 0.497810 0.675949 0.069273
Si Si8 0.434999 0.779636 0.468898
O O1 0.898369 0.500000 0.959078
O O2 0.146686 0.579826 0.298830
O O3 0.808426 0.636214 0.965761
O O4 0.020267 0.633234 0.986676
O O5 0.011010 0.783833 0.622920
O O6 0.099233 0.756831 0.905699
O O7 0.971337 0.887004 0.724444
O O8 0.779032 0.318599 0.609190
O O9 0.904357 0.235581 0.894942
O O10 0.673884 0.080314 0.550623
O O11 0.559617 0.147547 0.613716
O O12 0.629484 0.000000 0.686225
O O13 0.903092 0.099459 0.940669
O O14 0.674383 0.802587 0.431673
O O15 0.470086 0.310820 0.173750
O O16 0.467653 0.254977 0.379105
O O17 0.719797 0.692823 0.270078
#
# Coordination Sequence:
#
# PCOD9132661 Si02
#       8
#     4   4   4   4   4   4   4   4
#     4  12  25  41  67 102 140 179 217 275 350 401
#     4  11  22  42  70  97 125 176 227 271 326 396
#     4  11  21  42  64  98 132 164 223 280 323 388
#     4  11  25  42  58  92 139 168 207 270 331 391
#     4  10  21  41  62  95 132 166 215 279 326 386
#     4  10  20  38  64  96 121 163 225 277 311 381
#     4  12  21  40  66  93 124 172 219 270 328 384
#     4  11  22  38  69  95 122 168 225 268 314 387
#
# _framework density 21.072386000000002
#
# number of rings (size 3 to 8) (size 9 to 14) (size 15 to 20)
#    0.000    1.000    8.750    0.375    3.500    1.500 
#    0.000    1.250    0.000    0.000    0.000    0.000 
#    0.000    0.000    0.000    0.000    0.000    0.000 
#
# Total GULP energy -89143.757264 kJ/mol
# GULP energy per Si atom -5571.484829 kJ/mol
# Density = 2.102442 g / cm^3
# Si number density = 21.072386 Si / 1000 Ang^3
#
#
#
# Elastic Constant Matrix: (Units=GPa)
#
#
# Indices 1 2 3 4 5 6 
#
# 1 84.9153 26.6870 28.1721 0.0000 -4.6013 0.0000
# 2 26.6870 82.4321 15.1009 0.0000 -9.7393 0.0000
# 3 28.1721 15.1009 96.0157 0.0000 -15.1777 0.0000
# 4 0.0000 0.0000 0.0000 -0.2076 0.0000 14.9480
# 5 -4.6013 -9.7393 -15.1777 0.0000 37.1422 0.0000
# 6 0.0000 0.0000 0.0000 14.9480 0.0000 -3.2020
#
#
#
# Elastic Compliance Matrix: (Units=1/GPa)
#
#
# Indices 1 2 3 4 5 6 
#
# 1 0.014213 -0.004024 -0.003663 0.000000 -0.000791 0.000000
# 2 -0.004024 0.013878 -0.000540 0.000000 0.002920 0.000000
# 3 -0.003663 -0.000540 0.012273 0.000000 0.004420 0.000000
# 4 0.000000 0.000000 0.000000 0.014373 0.000000 0.067098
# 5 -0.000791 0.002920 0.004420 0.000000 0.029397 0.000000
# 6 0.000000 0.000000 0.000000 0.067098 0.000000 0.000932
#
#
# Mechanical properties :
#
#
# Convention : Reuss Voigt Hill
#
# Bulk Modulus (GPa) = 41.82251 44.80925 43.31588
# Shear Modulus (GPa) = 45.66602 19.64007 32.65305
#
# Velocity S-wave (km/s) = 4.66027 3.05623 3.94072
# Velocity P-wave (km/s) = 6.98910 5.81073 6.42698
#
# Compressibility (1/GPa) = 0.02391057
#
# Stress axis : x y z
#
# Youngs Moduli (GPa) = 70.35647 72.05695 81.47803
#
# Poissons Ratio (x) = 0.28996 0.29841
# Poissons Ratio (y) = 0.28311 0.04403
# Poissons Ratio (z) = 0.25768 0.03894
#
# Static dielectric constant tensor:
#      x y z
#    x 1.857100 0.000000 0.029960 
#    y 0.000000 1.788710 0.000000 
#    z 0.029960 0.000000 1.805040 
# 
# From -- ./inp_files/22412.got.cif
#   From: 2010.05.17/outbox.cif.g08.bks.cpg/sg8_12_cif.got.tgz:22412.got - 2010.06.03 19:46:02.
