data_PCOD9132582
_publ_section_title
;
Structure prediction by ZEFSAII (Michael W. Deem and Ramdas Pophale) SiO2 
 PCOD9132582
Probable space group: C M
;
_chemical_formula_sum "Si O2"
_cell_formula_units_Z 20
_cell_length_a 8.230592
_cell_length_b 13.203068
_cell_length_c 7.583218
_cell_angle_alpha 90.000000
_cell_angle_beta 94.546940
_cell_angle_gamma 90.000000
_cell_volume 821.467666
_symmetry_space_group_name_H-M "C M"
_symmetry_group_IT_number 8
_symmetry_cell_setting 'monoclinic'
loop_
_space_group_symop_operation_xyz
x,y,z
x,-y,z
1/2+x,1/2+y,z
1/2+x,1/2-y,z
loop_
_atom_site_type_symbol
_atom_site_label
_atom_site_fract_x
_atom_site_fract_y
_atom_site_fract_z
Si Si1 0.141590 0.673324 0.321790
Si Si2 0.387662 0.319628 0.895010
Si Si3 0.555147 0.842986 0.700723
Si Si4 0.005052 0.888195 0.266603
Si Si5 0.880679 0.608261 0.015811
O O1 0.053275 0.640796 0.494568
O O2 0.327515 0.637903 0.332167
O O3 0.125288 0.795725 0.319781
O O4 0.041061 0.625841 0.150713
O O5 0.507494 0.272241 0.757623
O O6 0.235522 0.367759 0.785090
O O7 0.313402 0.223317 0.002283
O O8 0.975577 0.883830 0.051954
O O9 0.430321 0.899616 0.815332
O O10 0.054172 0.000000 0.328900
O O11 0.807217 0.500000 0.062893
#
# Coordination Sequence:
#
# PCOD9132582 Si02
#       5
#     4   4   4   4   4
#     4  11  22  39  66  92 129 162 208 268 310 371
#     4   9  19  38  59  85 124 160 199 259 303 364
#     4  10  20  37  62  85 125 161 199 261 306 362
#     4  11  22  42  67  94 127 171 211 256 323 378
#     4   9  20  36  59  86 117 160 202 244 309 369
#
# _framework density 24.346668000000001
#
# number of rings (size 3 to 8) (size 9 to 14) (size 15 to 20)
#    1.200    0.800    2.000    1.800    0.000    1.600 
#    0.000   14.000    0.000    0.000    0.000    0.000 
#    0.000    0.000    0.000    0.000    0.000    0.000 
#
# Total GULP energy -55750.092382 kJ/mol
# GULP energy per Si atom -5575.009238 kJ/mol
# Density = 2.429125 g / cm^3
# Si number density = 24.346668 Si / 1000 Ang^3
#
#
#
# Elastic Constant Matrix: (Units=GPa)
#
#
# Indices 1 2 3 4 5 6 
#
# 1 50.9595 4.7282 2.5872 0.0000 -18.6638 0.0000
# 2 4.7282 150.6436 3.1590 0.0000 0.6211 0.0000
# 3 2.5872 3.1590 107.5101 0.0000 -29.8916 0.0000
# 4 0.0000 0.0000 0.0000 4.7727 0.0000 -2.8503
# 5 -18.6638 0.6211 -29.8916 0.0000 31.3007 0.0000
# 6 0.0000 0.0000 0.0000 -2.8503 0.0000 3.5144
#
#
#
# Elastic Compliance Matrix: (Units=1/GPa)
#
#
# Indices 1 2 3 4 5 6 
#
# 1 0.027274 -0.001055 0.005313 0.000000 0.021357 0.000000
# 2 -0.001055 0.006687 -0.000521 0.000000 -0.001260 0.000000
# 3 0.005313 -0.000521 0.013714 0.000000 0.016275 0.000000
# 4 0.000000 0.000000 0.000000 0.406338 0.000000 0.329556
# 5 0.021357 -0.001260 0.016275 0.000000 0.060250 0.000000
# 6 0.000000 0.000000 0.000000 0.329556 0.000000 0.551826
#
#
# Mechanical properties :
#
#
# Convention : Reuss Voigt Hill
#
# Bulk Modulus (GPa) = 18.13355 36.67356 27.40356
# Shear Modulus (GPa) = 4.64253 27.82683 16.23468
#
# Velocity S-wave (km/s) = 1.38238 3.38441 2.58507
# Velocity P-wave (km/s) = 3.16421 5.51072 4.49334
#
# Compressibility (1/GPa) = 0.05514639
#
# Stress axis : x y z
#
# Youngs Moduli (GPa) = 36.66554 149.53404 72.91896
#
# Poissons Ratio (x) = 0.15783 -0.38740
# Poissons Ratio (y) = 0.03870 0.03802
# Poissons Ratio (z) = -0.19479 0.07797
#
# Static dielectric constant tensor:
#      x y z
#    x 1.940500 0.000000 -0.050420 
#    y 0.000000 2.105330 0.000000 
#    z -0.050420 0.000000 1.924680 
# 
# From -- ./inp_files/7759.got.cif
#   From: 2010.05.17/outbox.cif.g08.bks.cpg/sg8_4_cif.got.tgz:7759.got - 2010.06.03 19:46:02.
