data_PCOD9132418
_publ_section_title
;
Structure prediction by ZEFSAII (Michael W. Deem and Ramdas Pophale) SiO2 
 PCOD9132418
Probable space group: C M
;
_chemical_formula_sum "Si O2"
_cell_formula_units_Z 32
_cell_length_a 15.762330
_cell_length_b 8.679427
_cell_length_c 22.913502
_cell_angle_alpha 90.000000
_cell_angle_beta 32.031164
_cell_angle_gamma 90.000000
_cell_volume 1662.610232
_symmetry_space_group_name_H-M "C M"
_symmetry_group_IT_number 8
_symmetry_cell_setting 'monoclinic'
loop_
_space_group_symop_operation_xyz
x,y,z
x,-y,z
1/2+x,1/2+y,z
1/2+x,1/2-y,z
loop_
_atom_site_type_symbol
_atom_site_label
_atom_site_fract_x
_atom_site_fract_y
_atom_site_fract_z
Si Si1 0.449520 0.317842 0.123190
Si Si2 0.617797 0.314069 0.333767
Si Si3 0.433486 0.314953 0.885082
Si Si4 0.264322 0.183273 0.869151
Si Si5 0.896245 0.818061 0.362876
Si Si6 0.117682 0.682340 0.137050
Si Si7 0.584284 0.685063 0.486790
Si Si8 0.766000 0.185127 0.739223
O O1 0.453543 0.500000 0.134573
O O2 0.270677 0.264706 0.214810
O O3 0.508081 0.221406 0.144950
O O4 0.580418 0.290221 0.996753
O O5 0.638917 0.500000 0.319831
O O6 0.458172 0.277169 0.391051
O O7 0.606227 0.261365 0.407384
O O8 0.436356 0.500000 0.879518
O O9 0.374486 0.248110 0.857298
O O10 0.603261 0.252669 0.807206
O O11 0.296011 0.273216 0.012738
O O12 0.289380 0.260422 0.792122
O O13 0.289009 0.000000 0.850339
O O14 0.736508 0.735219 0.435432
O O15 0.040015 0.772790 0.235513
O O16 0.869346 0.000000 0.375408
O O17 0.113262 0.500000 0.151621
O O18 0.580363 0.500000 0.487073
O O19 0.418964 0.737240 0.612181
O O20 0.757253 0.000000 0.742812
#
# Coordination Sequence:
#
# PCOD9132418 Si02
#       8
#     4   4   4   4   4   4   4   4
#     4  10  20  35  59  90 122 155 200 249 301 362
#     4  10  22  39  59  86 121 159 196 244 307 363
#     4  10  22  40  62  91 124 163 207 253 308 365
#     4  10  22  40  61  90 126 162 203 256 309 365
#     4  11  23  37  59  92 121 157 203 248 301 363
#     4  10  20  36  59  86 124 163 195 245 307 360
#     4  10  23  44  63  84 120 164 206 253 305 357
#     4  11  24  41  64  91 122 165 212 256 304 367
#
# _framework density 19.246842999999998
#
# number of rings (size 3 to 8) (size 9 to 14) (size 15 to 20)
#    0.000    1.750    1.250    2.250    1.750    6.000 
#    0.000    1.250    0.000    0.000    0.000    0.000 
#    0.000    0.000    0.000    0.000    0.000    0.000 
#
# Total GULP energy -89390.740931 kJ/mol
# GULP energy per Si atom -5586.921308 kJ/mol
# Density = 1.920304 g / cm^3
# Si number density = 19.246843 Si / 1000 Ang^3
#
#
#
# Elastic Constant Matrix: (Units=GPa)
#
#
# Indices 1 2 3 4 5 6 
#
# 1 64.0885 9.5034 44.7795 0.0001 -23.0180 0.0000
# 2 9.5034 21.9840 19.3612 0.0001 -2.7391 0.0000
# 3 44.7795 19.3612 101.0493 0.0000 -19.8313 0.0000
# 4 0.0001 0.0001 0.0000 25.1232 0.0000 -5.0271
# 5 -23.0180 -2.7391 -19.8313 0.0000 20.8412 0.0000
# 6 0.0000 0.0000 0.0000 -5.0271 0.0000 32.1754
#
#
#
# Elastic Compliance Matrix: (Units=1/GPa)
#
#
# Indices 1 2 3 4 5 6 
#
# 1 0.031136 -0.003102 -0.008035 0.000000 0.026335 0.000000
# 2 -0.003102 0.055230 -0.010397 0.000000 -0.006060 0.000000
# 3 -0.008035 -0.010397 0.016525 0.000000 0.005484 0.000000
# 4 0.000000 0.000000 0.000000 0.041088 0.000000 0.006420
# 5 0.026335 -0.006060 0.005484 0.000000 0.081489 0.000000
# 6 0.000000 0.000000 0.000000 0.006420 0.000000 0.032083
#
#
# Mechanical properties :
#
#
# Convention : Reuss Voigt Hill
#
# Bulk Modulus (GPa) = 16.71592 37.15664 26.93628
# Shear Modulus (GPa) = 15.59770 23.19314 19.39542
#
# Velocity S-wave (km/s) = 2.84985 3.47513 3.17790
# Velocity P-wave (km/s) = 4.41958 5.95393 5.24318
#
# Compressibility (1/GPa) = 0.05982321
#
# Stress axis : x y z
#
# Youngs Moduli (GPa) = 32.11711 18.10607 60.51386
#
# Poissons Ratio (x) = 0.05616 0.48624
# Poissons Ratio (y) = 0.09963 0.62916
# Poissons Ratio (z) = 0.25807 0.18825
#
# Static dielectric constant tensor:
#      x y z
#    x 1.662510 0.000000 0.004780 
#    y 0.000000 1.647330 0.000000 
#    z 0.004780 0.000000 1.661710 
# 
# From -- ./inp_files/24828.got.cif
#   From: 2010.05.17/outbox.cif.g08.bks.cpg/sg8_13_cif.got.tgz:24828.got - 2010.06.03 19:46:02.
