data_PCOD9132562
_publ_section_title
;
Structure prediction by ZEFSAII (Michael W. Deem and Ramdas Pophale) SiO2 
 PCOD9132562
Probable space group: C M
;
_chemical_formula_sum "Si O2"
_cell_formula_units_Z 32
_cell_length_a 24.550174
_cell_length_b 9.057206
_cell_length_c 7.195402
_cell_angle_alpha 90.000000
_cell_angle_beta 89.951641
_cell_angle_gamma 90.000000
_cell_volume 1599.940117
_symmetry_space_group_name_H-M "C M"
_symmetry_group_IT_number 8
_symmetry_cell_setting 'monoclinic'
loop_
_space_group_symop_operation_xyz
x,y,z
x,-y,z
1/2+x,1/2+y,z
1/2+x,1/2-y,z
loop_
_atom_site_type_symbol
_atom_site_label
_atom_site_fract_x
_atom_site_fract_y
_atom_site_fract_z
Si Si1 0.468970 0.676773 0.960330
Si Si2 0.061101 0.830900 0.460011
Si Si3 0.882916 0.675402 0.691277
Si Si4 0.454221 0.174580 0.356162
Si Si5 0.260002 0.176329 0.797429
Si Si6 0.171460 0.325088 0.531921
Si Si7 0.588688 0.331309 0.016790
Si Si8 0.196838 0.672525 0.095901
O O1 0.467990 0.500000 0.969953
O O2 0.425992 0.737241 0.814933
O O3 0.532350 0.717390 0.921691
O O4 0.453509 0.743685 0.160252
O O5 0.113368 0.755983 0.553175
O O6 0.005794 0.738197 0.469946
O O7 0.053194 0.000000 0.521467
O O8 0.074485 0.834466 0.237904
O O9 0.889248 0.500000 0.728564
O O10 0.900308 0.699319 0.477976
O O11 0.821301 0.716544 0.739443
O O12 0.461795 0.000000 0.327240
O O13 0.189677 0.305218 0.316292
O O14 0.244439 0.232841 0.002588
O O15 0.254271 0.000000 0.786359
O O16 0.165803 0.500000 0.565463
O O17 0.217054 0.253849 0.661148
O O18 0.602646 0.500000 0.962637
O O19 0.640394 0.226228 0.001584
O O20 0.205511 0.500000 0.060482
#
# Coordination Sequence:
#
# PCOD9132562 Si02
#       8
#     4   4   4   4   4   4   4   4
#     4  10  21  37  60  88 116 148 186 231 284 337
#     4   9  17  32  56  87 119 148 183 226 277 339
#     4  10  24  42  58  80 110 150 197 237 278 332
#     4  10  20  37  60  85 117 152 187 231 281 335
#     4  11  24  41  59  80 110 150 196 239 278 331
#     4  10  21  38  60  86 116 149 185 230 285 339
#     4   8  16  32  54  83 116 148 182 220 271 337
#     4  10  21  37  59  87 116 147 184 230 284 336
#
# _framework density 20.000748000000002
#
# number of rings (size 3 to 8) (size 9 to 14) (size 15 to 20)
#    0.000    2.250    0.000    3.000    0.000    9.000 
#    0.000    6.250    0.000    0.000    0.000    0.000 
#    0.000    0.000    0.000    0.000    0.000    0.000 
#
# Total GULP energy -89421.546618 kJ/mol
# GULP energy per Si atom -5588.846664 kJ/mol
# Density = 1.995523 g / cm^3
# Si number density = 20.000748 Si / 1000 Ang^3
#
#
#
# Elastic Constant Matrix: (Units=GPa)
#
#
# Indices 1 2 3 4 5 6 
#
# 1 80.7176 30.8473 21.8190 0.0000 -17.7826 0.0000
# 2 30.8473 59.1578 24.2782 0.0000 -9.2714 0.0000
# 3 21.8190 24.2782 58.9465 0.0000 -2.9132 0.0000
# 4 0.0000 0.0000 0.0000 28.9202 0.0000 4.2153
# 5 -17.7826 -9.2714 -2.9132 0.0000 30.8328 0.0000
# 6 0.0000 0.0000 0.0000 4.2153 0.0000 28.0895
#
#
#
# Elastic Compliance Matrix: (Units=1/GPa)
#
#
# Indices 1 2 3 4 5 6 
#
# 1 0.017525 -0.006508 -0.003419 0.000000 0.007827 0.000000
# 2 -0.006508 0.023677 -0.007210 0.000000 0.002685 0.000000
# 3 -0.003419 -0.007210 0.021094 0.000000 -0.002147 0.000000
# 4 0.000000 0.000000 0.000000 0.035351 0.000000 -0.005305
# 5 0.007827 0.002685 -0.002147 0.000000 0.037552 0.000000
# 6 0.000000 0.000000 0.000000 -0.005305 0.000000 0.036397
#
#
# Mechanical properties :
#
#
# Convention : Reuss Voigt Hill
#
# Bulk Modulus (GPa) = 35.68845 39.19008 37.43926
# Shear Modulus (GPa) = 23.23299 25.69367 24.46333
#
# Velocity S-wave (km/s) = 3.41193 3.58807 3.50111
# Velocity P-wave (km/s) = 5.77962 6.06651 5.92480
#
# Compressibility (1/GPa) = 0.02802027
#
# Stress axis : x y z
#
# Youngs Moduli (GPa) = 57.06226 42.23437 47.40722
#
# Poissons Ratio (x) = 0.27486 0.16211
# Poissons Ratio (y) = 0.37136 0.34182
# Poissons Ratio (z) = 0.19512 0.30452
#
# Static dielectric constant tensor:
#      x y z
#    x 1.679070 0.000000 -0.022270 
#    y 0.000000 1.662810 0.000000 
#    z -0.022270 0.000000 1.758790 
# 
# From -- ./inp_files/16764.got.cif
#   From: 2010.05.17/outbox.cif.g08.bks.cpg/sg8_9_cif.got.tgz:16764.got - 2010.06.03 19:46:02.
