data_PCOD9132475
_publ_section_title
;
Structure prediction by ZEFSAII (Michael W. Deem and Ramdas Pophale) SiO2 
 PCOD9132475
Probable space group: C M
;
_chemical_formula_sum "Si O2"
_cell_formula_units_Z 32
_cell_length_a 8.350733
_cell_length_b 22.840686
_cell_length_c 11.630505
_cell_angle_alpha 90.000000
_cell_angle_beta 47.554198
_cell_angle_gamma 90.000000
_cell_volume 1636.964580
_symmetry_space_group_name_H-M "C M"
_symmetry_group_IT_number 8
_symmetry_cell_setting 'monoclinic'
loop_
_space_group_symop_operation_xyz
x,y,z
x,-y,z
1/2+x,1/2+y,z
1/2+x,1/2-y,z
loop_
_atom_site_type_symbol
_atom_site_label
_atom_site_fract_x
_atom_site_fract_y
_atom_site_fract_z
Si Si1 0.487740 0.272190 0.434720
Si Si2 0.183927 0.566425 0.629335
Si Si3 0.992109 0.146520 0.624393
Si Si4 0.215268 0.934174 0.975159
Si Si5 0.091394 0.135718 0.826471
Si Si6 0.212116 0.289810 0.939233
Si Si7 0.228946 0.815977 0.098763
Si Si8 0.556076 0.823567 0.569955
O O1 0.603861 0.316112 0.469790
O O2 0.566317 0.289571 0.271306
O O3 0.539578 0.207651 0.454835
O O4 0.229918 0.286552 0.560380
O O5 0.228571 0.500000 0.574122
O O6 0.367591 0.595360 0.618911
O O7 0.142195 0.610220 0.542871
O O8 0.967256 0.567459 0.812919
O O9 0.105354 0.120922 0.683145
O O10 0.830658 0.194776 0.761167
O O11 0.093817 0.916454 0.915856
O O12 0.162992 0.000000 0.038657
O O13 0.180341 0.882129 0.082871
O O14 0.311618 0.172851 0.736038
O O15 0.870011 0.172192 0.946003
O O16 0.214608 0.226331 0.995226
O O17 0.968131 0.311369 0.038344
#
# Coordination Sequence:
#
# PCOD9132475 Si02
#       8
#     4   4   4   4   4   4   4   4
#     4  11  23  35  57  86 124 157 188 238 303 353
#     4   9  18  35  60  88 115 148 198 245 285 343
#     4   9  20  36  57  89 107 154 193 239 296 334
#     4  10  20  36  59  85 117 159 197 240 291 346
#     4   9  20  35  59  88 116 146 198 249 289 340
#     4  10  23  35  60  86 116 153 194 250 298 337
#     4  12  23  39  56  89 125 153 197 242 295 358
#     4  10  21  35  56  87 118 152 193 235 293 349
#
# _framework density 19.548376999999999
#
# number of rings (size 3 to 8) (size 9 to 14) (size 15 to 20)
#    0.750    1.250    1.250    2.250    5.250    0.500 
#    0.000    3.125    0.000    0.000    0.000    8.750 
#    0.000    0.000    0.000    0.000    0.000    0.000 
#
# Total GULP energy -89099.270519 kJ/mol
# GULP energy per Si atom -5568.704407 kJ/mol
# Density = 1.950388 g / cm^3
# Si number density = 19.548377 Si / 1000 Ang^3
#
#
#
# Elastic Constant Matrix: (Units=GPa)
#
#
# Indices 1 2 3 4 5 6 
#
# 1 110.1210 58.8863 27.1287 0.0000 7.3537 0.0000
# 2 58.8863 168.4547 34.9783 0.0000 24.0983 0.0000
# 3 27.1287 34.9783 51.4018 0.0000 14.5104 0.0000
# 4 0.0000 0.0000 0.0000 19.5280 0.0000 6.4285
# 5 7.3537 24.0983 14.5104 0.0000 18.4188 0.0000
# 6 0.0000 0.0000 0.0000 6.4285 0.0000 23.1958
#
#
#
# Elastic Compliance Matrix: (Units=1/GPa)
#
#
# Indices 1 2 3 4 5 6 
#
# 1 0.012035 -0.003755 -0.004922 0.000000 0.003985 0.000000
# 2 -0.003755 0.008833 -0.001530 0.000000 -0.008852 0.000000
# 3 -0.004922 -0.001530 0.028258 0.000000 -0.018295 0.000000
# 4 0.000000 0.000000 0.000000 0.056349 0.000000 -0.015617
# 5 0.003985 -0.008852 -0.018295 0.000000 0.078696 0.000000
# 6 0.000000 0.000000 0.000000 -0.015617 0.000000 0.047439
#
#
# Mechanical properties :
#
#
# Convention : Reuss Voigt Hill
#
# Bulk Modulus (GPa) = 34.82809 63.55157 49.18983
# Shear Modulus (GPa) = 19.11351 26.16081 22.63716
#
# Velocity S-wave (km/s) = 3.13030 3.66219 3.40664
# Velocity P-wave (km/s) = 5.56058 7.10371 6.37898
#
# Compressibility (1/GPa) = 0.02871246
#
# Stress axis : x y z
#
# Youngs Moduli (GPa) = 83.08825 113.21040 35.38864
#
# Poissons Ratio (x) = 0.42515 0.17417
# Poissons Ratio (y) = 0.31203 0.05414
# Poissons Ratio (z) = 0.40893 0.17320
#
# Static dielectric constant tensor:
#      x y z
#    x 1.737540 0.000000 -0.015650 
#    y 0.000000 1.707040 0.000000 
#    z -0.015650 0.000000 1.706760 
# 
# From -- ./inp_files/19266.got.cif
#   From: 2010.05.17/outbox.cif.g08.bks.cpg/sg8_10_cif.got.tgz:19266.got - 2010.06.03 19:46:02.
