data_PCOD9132447
_publ_section_title
;
Structure prediction by ZEFSAII (Michael W. Deem and Ramdas Pophale) SiO2 
 PCOD9132447
Probable space group: C M
;
_chemical_formula_sum "Si O2"
_cell_formula_units_Z 28
_cell_length_a 11.668982
_cell_length_b 15.594214
_cell_length_c 14.787208
_cell_angle_alpha 90.000000
_cell_angle_beta 151.255555
_cell_angle_gamma 90.000000
_cell_volume 1294.019494
_symmetry_space_group_name_H-M "C M"
_symmetry_group_IT_number 8
_symmetry_cell_setting 'monoclinic'
loop_
_space_group_symop_operation_xyz
x,y,z
x,-y,z
1/2+x,1/2+y,z
1/2+x,1/2-y,z
loop_
_atom_site_type_symbol
_atom_site_label
_atom_site_fract_x
_atom_site_fract_y
_atom_site_fract_z
Si Si1 0.717660 0.399042 0.758430
Si Si2 0.004500 0.897184 0.978341
Si Si3 0.109661 0.811970 0.232564
Si Si4 0.529238 0.400235 0.454242
Si Si5 0.686899 0.314095 0.919283
Si Si6 0.967815 0.337141 0.646602
Si Si7 0.230633 0.602465 0.089178
O O1 0.720491 0.500000 0.742730
O O2 0.532730 0.363544 0.557363
O O3 0.696907 0.386350 0.849433
O O4 0.969046 0.360344 0.900883
O O5 0.721200 0.880465 0.798778
O O6 0.077800 0.851673 0.935130
O O7 0.048328 0.000000 0.007490
O O8 0.149461 0.849481 0.159721
O O9 0.910482 0.877361 0.134629
O O10 0.323519 0.815244 0.453798
O O11 0.950156 0.725440 0.118840
O O12 0.462910 0.500000 0.412687
O O13 0.783963 0.392839 0.579925
O O14 0.344883 0.358394 0.258581
O O15 0.535235 0.242725 0.758416
O O16 0.210310 0.500000 0.081139
#
# Coordination Sequence:
#
# PCOD9132447 Si02
#       7
#     4   4   4   4   4   4   4
#     4  10  20  36  57  81 115 155 194 243 297 358
#     4  11  24  43  66  94 129 170 214 261 315 380
#     4  10  23  40  63  91 124 163 207 259 313 371
#     4   9  18  34  59  87 111 144 193 246 300 359
#     4  11  25  39  58  89 126 167 208 250 309 374
#     4  10  23  40  63  91 124 163 207 259 313 371
#     4   9  18  34  59  87 111 144 193 246 300 359
#
# _framework density 21.638003000000001
#
# number of rings (size 3 to 8) (size 9 to 14) (size 15 to 20)
#    0.000    2.000    0.000    3.000    8.000    5.143 
#    0.000    0.000    0.000    5.143    0.000    0.000 
#    0.000    0.000    0.000    0.000    0.000    0.000 
#
# Total GULP energy -78056.330525 kJ/mol
# GULP energy per Si atom -5575.452180 kJ/mol
# Density = 2.158875 g / cm^3
# Si number density = 21.638003 Si / 1000 Ang^3
#
#
#
# Elastic Constant Matrix: (Units=GPa)
#
#
# Indices 1 2 3 4 5 6 
#
# 1 109.9317 31.8534 46.9596 -0.0023 -41.2586 0.0002
# 2 31.8534 63.2357 19.7174 -0.0059 -6.8579 -0.0012
# 3 46.9596 19.7174 89.9175 -0.0104 -44.1953 -0.0043
# 4 -0.0023 -0.0059 -0.0104 12.2568 -0.0044 1.9523
# 5 -41.2586 -6.8579 -44.1953 -0.0044 40.4334 -0.0011
# 6 0.0002 -0.0012 -0.0043 1.9523 -0.0011 31.1381
#
#
#
# Elastic Compliance Matrix: (Units=1/GPa)
#
#
# Indices 1 2 3 4 5 6 
#
# 1 0.017348 -0.007211 0.001341 0.000007 0.017945 0.000000
# 2 -0.007211 0.020096 -0.005580 0.000000 -0.010048 0.000000
# 3 0.001341 -0.005580 0.025611 0.000029 0.028417 0.000003
# 4 0.000007 0.000000 0.000029 0.082410 0.000048 -0.005167
# 5 0.017945 -0.010048 0.028417 0.000048 0.072400 0.000003
# 6 0.000000 0.000000 0.000003 -0.005167 0.000003 0.032439
#
#
# Mechanical properties :
#
#
# Convention : Reuss Voigt Hill
#
# Bulk Modulus (GPa) = 24.90206 51.12729 38.01468
# Shear Modulus (GPa) = 17.44664 27.73597 22.59131
#
# Velocity S-wave (km/s) = 2.84262 3.58413 3.23469
# Velocity P-wave (km/s) = 4.72307 6.38810 5.61761
#
# Compressibility (1/GPa) = 0.04015732
#
# Stress axis : x y z
#
# Youngs Moduli (GPa) = 57.64390 49.76080 39.04527
#
# Poissons Ratio (x) = 0.35881 -0.05238
# Poissons Ratio (y) = 0.41565 0.21786
# Poissons Ratio (z) = -0.07733 0.27765
#
# Static dielectric constant tensor:
#      x y z
#    x 1.788180 0.000000 -0.020210 
#    y 0.000000 1.888260 0.000000 
#    z -0.020210 0.000000 1.822160 
# 
# From -- ./inp_files/26223.got.cif
#   From: 2010.05.17/outbox.cif.g08.bks.cpg/sg8_14_cif.got.tgz:26223.got - 2010.06.03 19:46:02.
