data_PCOD9132405
_publ_section_title
;
Structure prediction by ZEFSAII (Michael W. Deem and Ramdas Pophale) SiO2 
 PCOD9132405
Probable space group: C M
;
_chemical_formula_sum "Si O2"
_cell_formula_units_Z 32
_cell_length_a 15.518409
_cell_length_b 8.772323
_cell_length_c 23.260012
_cell_angle_alpha 90.000000
_cell_angle_beta 31.916719
_cell_angle_gamma 90.000000
_cell_volume 1674.054483
_symmetry_space_group_name_H-M "C M"
_symmetry_group_IT_number 8
_symmetry_cell_setting 'monoclinic'
loop_
_space_group_symop_operation_xyz
x,y,z
x,-y,z
1/2+x,1/2+y,z
1/2+x,1/2-y,z
loop_
_atom_site_type_symbol
_atom_site_label
_atom_site_fract_x
_atom_site_fract_y
_atom_site_fract_z
Si Si1 0.117850 0.814458 0.334940
Si Si2 0.471583 0.817982 0.177594
Si Si3 0.475335 0.318147 0.723187
Si Si4 0.303775 0.684176 0.582981
Si Si5 0.200955 0.823330 0.954203
Si Si6 0.243236 0.315951 0.748829
Si Si7 0.114480 0.818308 0.205284
Si Si8 0.459809 0.676873 0.981174
O O1 0.297238 0.763768 0.252494
O O2 0.088322 0.769517 0.285845
O O3 0.973165 0.764040 0.458662
O O4 0.120294 0.000000 0.334787
O O5 0.494793 0.764682 0.229373
O O6 0.478755 0.000000 0.169105
O O7 0.616728 0.748440 0.057323
O O8 0.488365 0.500000 0.716427
O O9 0.650900 0.244965 0.633449
O O10 0.358217 0.263469 0.841282
O O11 0.382948 0.273181 0.716261
O O12 0.300512 0.500000 0.583528
O O13 0.285855 0.730316 0.659853
O O14 0.068127 0.814719 0.977925
O O15 0.241608 0.000000 0.941301
O O16 0.227118 0.500000 0.759982
O O17 0.075284 0.242437 0.865943
O O18 0.095590 0.000000 0.211836
O O19 0.297250 0.772323 0.083349
O O20 0.418809 0.500000 0.993566
#
# Coordination Sequence:
#
# PCOD9132405 Si02
#       8
#     4   4   4   4   4   4   4   4
#     4   9  21  41  62  83 116 158 199 243 294 352
#     4  11  22  38  60  88 117 154 198 245 296 353
#     4  10  21  37  57  87 120 154 193 242 296 348
#     4  10  21  40  63  85 113 157 204 242 288 351
#     4  10  20  36  59  87 120 157 194 242 298 353
#     4   9  20  37  58  83 116 155 193 236 292 352
#     4  11  22  38  59  86 118 156 198 241 298 355
#     4  10  20  35  58  87 120 153 193 243 294 348
#
# _framework density 19.115268
#
# number of rings (size 3 to 8) (size 9 to 14) (size 15 to 20)
#    0.000    2.000    1.250    1.875    1.750    3.000 
#    0.000    3.750    0.000    0.000    0.000    0.000 
#    0.000    0.000    0.000    0.000    0.000    0.000 
#
# Total GULP energy -89389.564997 kJ/mol
# GULP energy per Si atom -5586.847812 kJ/mol
# Density = 1.907176 g / cm^3
# Si number density = 19.115268 Si / 1000 Ang^3
#
#
#
# Elastic Constant Matrix: (Units=GPa)
#
#
# Indices 1 2 3 4 5 6 
#
# 1 61.1350 6.9806 21.0619 0.0000 24.7212 0.0000
# 2 6.9806 22.7107 1.7563 0.0000 9.5528 0.0000
# 3 21.0619 1.7563 78.2517 -0.0001 24.4009 0.0000
# 4 0.0000 0.0000 -0.0001 17.8558 0.0000 -5.0632
# 5 24.7212 9.5528 24.4009 0.0000 26.4849 0.0000
# 6 0.0000 0.0000 0.0000 -5.0632 0.0000 29.3031
#
#
#
# Elastic Compliance Matrix: (Units=1/GPa)
#
#
# Indices 1 2 3 4 5 6 
#
# 1 0.026486 0.003103 0.001206 0.000000 -0.026953 0.000000
# 2 0.003103 0.054785 0.007016 0.000000 -0.029120 0.000000
# 3 0.001206 0.007016 0.018854 0.000000 -0.021026 0.000000
# 4 0.000000 0.000000 0.000000 0.058890 0.000000 0.010175
# 5 -0.026953 -0.029120 -0.021026 0.000000 0.092791 0.000000
# 6 0.000000 0.000000 0.000000 0.010175 0.000000 0.035884
#
#
# Mechanical properties :
#
#
# Convention : Reuss Voigt Hill
#
# Bulk Modulus (GPa) = 8.14507 24.63277 16.38892
# Shear Modulus (GPa) = 16.34174 23.54866 19.94520
#
# Velocity S-wave (km/s) = 2.92705 3.51369 3.23370
# Velocity P-wave (km/s) = 3.96153 5.41994 4.74708
#
# Compressibility (1/GPa) = 0.12277370
#
# Stress axis : x y z
#
# Youngs Moduli (GPa) = 37.75511 18.25330 53.03979
#
# Poissons Ratio (x) = -0.05664 -0.06397
# Poissons Ratio (y) = -0.11715 -0.37211
# Poissons Ratio (z) = -0.04553 -0.12806
#
# Static dielectric constant tensor:
#      x y z
#    x 1.678480 0.000000 -0.001870 
#    y 0.000000 1.642930 0.000000 
#    z -0.001870 0.000000 1.629700 
# 
# From -- ./inp_files/28184.got.cif
#   From: 2010.05.17/outbox.cif.g08.bks.cpg/sg8_15_cif.got.tgz:28184.got - 2010.06.03 19:46:02.
