data_PCOD9132420
_publ_section_title
;
Structure prediction by ZEFSAII (Michael W. Deem and Ramdas Pophale) SiO2 
 PCOD9132420
Probable space group: C M
;
_chemical_formula_sum "Si O2"
_cell_formula_units_Z 28
_cell_length_a 19.398171
_cell_length_b 12.955414
_cell_length_c 5.459058
_cell_angle_alpha 90.000000
_cell_angle_beta 62.883232
_cell_angle_gamma 90.000000
_cell_volume 1221.120609
_symmetry_space_group_name_H-M "C M"
_symmetry_group_IT_number 8
_symmetry_cell_setting 'monoclinic'
loop_
_space_group_symop_operation_xyz
x,y,z
x,-y,z
1/2+x,1/2+y,z
1/2+x,1/2-y,z
loop_
_atom_site_type_symbol
_atom_site_label
_atom_site_fract_x
_atom_site_fract_y
_atom_site_fract_z
Si Si1 0.431090 0.225129 0.974800
Si Si2 0.787279 0.727685 0.932785
Si Si3 0.080371 0.672188 0.937366
Si Si4 0.165720 0.384793 0.305804
Si Si5 0.370475 0.385405 0.436436
Si Si6 0.147920 0.885813 0.959714
Si Si7 0.016684 0.110167 0.544442
O O1 0.361140 0.174205 0.940738
O O2 0.486846 0.164693 0.069582
O O3 0.492925 0.282795 0.703123
O O4 0.386376 0.321172 0.169090
O O5 0.819249 0.815196 0.696802
O O6 0.735277 0.646952 0.870077
O O7 0.728643 0.792801 0.199997
O O8 0.118445 0.620827 0.636512
O O9 0.106506 0.792737 0.886628
O O10 0.114062 0.632061 0.142312
O O11 0.200460 0.500000 0.230274
O O12 0.338502 0.500000 0.452225
O O13 0.454822 0.394794 0.423757
O O14 0.141764 0.000000 0.860922
O O15 0.101318 0.887612 0.292429
O O16 0.005614 0.000000 0.700398
#
# Coordination Sequence:
#
# PCOD9132420 Si02
#       7
#     4   4   4   4   4   4   4
#     4  11  21  36  63  93 133 169 220 275 337 388
#     4  10  24  39  63  94 136 174 216 274 339 398
#     4  11  24  43  72  98 133 176 227 279 326 392
#     4  11  25  47  71 100 133 176 225 276 335 397
#     4  10  20  35  59  93 128 166 213 273 338 391
#     4  10  21  43  67  94 132 176 223 274 331 398
#     4   9  18  35  59  90 123 165 220 273 328 386
#
# _framework density 22.929758
#
# number of rings (size 3 to 8) (size 9 to 14) (size 15 to 20)
#    0.000    1.714    1.429    3.000    6.000    2.286 
#    0.000    4.286    0.000    0.000    0.000    0.000 
#    0.000    0.000    0.000    0.000    0.000    0.000 
#
# Total GULP energy -78161.738315 kJ/mol
# GULP energy per Si atom -5582.981308 kJ/mol
# Density = 2.287757 g / cm^3
# Si number density = 22.929758 Si / 1000 Ang^3
#
#
#
# Elastic Constant Matrix: (Units=GPa)
#
#
# Indices 1 2 3 4 5 6 
#
# 1 156.1749 5.3837 13.7987 0.0000 -3.0608 0.0000
# 2 5.3837 59.6176 7.2581 0.0000 -2.2263 0.0000
# 3 13.7987 7.2581 68.7597 0.0000 1.5720 0.0000
# 4 0.0000 0.0000 0.0000 13.8284 0.0000 -1.2847
# 5 -3.0608 -2.2263 1.5720 0.0000 26.5751 0.0000
# 6 0.0000 0.0000 0.0000 -1.2847 0.0000 8.2056
#
#
#
# Elastic Compliance Matrix: (Units=1/GPa)
#
#
# Indices 1 2 3 4 5 6 
#
# 1 0.006547 -0.000404 -0.001289 0.000000 0.000796 0.000000
# 2 -0.000404 0.017079 -0.001756 0.000000 0.001488 0.000000
# 3 -0.001289 -0.001756 0.015015 0.000000 -0.001184 0.000000
# 4 0.000000 0.000000 0.000000 0.073383 0.000000 0.011489
# 5 0.000796 0.001488 -0.001184 0.000000 0.037916 0.000000
# 6 0.000000 0.000000 0.000000 0.011489 0.000000 0.123666
#
#
# Mechanical properties :
#
#
# Convention : Reuss Voigt Hill
#
# Bulk Modulus (GPa) = 31.50443 37.49257 34.49850
# Shear Modulus (GPa) = 17.17714 26.92927 22.05320
#
# Velocity S-wave (km/s) = 2.73998 3.43071 3.10461
# Velocity P-wave (km/s) = 4.87640 5.66388 5.28483
#
# Compressibility (1/GPa) = 0.03174156
#
# Stress axis : x y z
#
# Youngs Moduli (GPa) = 152.75245 58.55004 66.60220
#
# Poissons Ratio (x) = 0.02368 0.08587
# Poissons Ratio (y) = 0.06178 0.11693
# Poissons Ratio (z) = 0.19694 0.10280
#
# Static dielectric constant tensor:
#      x y z
#    x 1.908160 0.000000 -0.000170 
#    y 0.000000 1.883650 0.000000 
#    z -0.000170 0.000000 1.885210 
# 
# From -- ./inp_files/4935.got.cif
#   From: 2010.05.17/outbox.cif.g08.bks.cpg/sg8_3_cif.got.tgz:4935.got - 2010.06.03 19:46:02.
