data_PCOD9132233
_publ_section_title
;
Structure prediction by ZEFSAII (Michael W. Deem and Ramdas Pophale) SiO2 
 PCOD9132233
Probable space group: C M
;
_chemical_formula_sum "Si O2"
_cell_formula_units_Z 26
_cell_length_a 15.455604
_cell_length_b 7.347811
_cell_length_c 19.582836
_cell_angle_alpha 90.000000
_cell_angle_beta 148.409553
_cell_angle_gamma 90.000000
_cell_volume 1164.987935
_symmetry_space_group_name_H-M "C M"
_symmetry_group_IT_number 8
_symmetry_cell_setting 'monoclinic'
loop_
_space_group_symop_operation_xyz
x,y,z
x,-y,z
1/2+x,1/2+y,z
1/2+x,1/2-y,z
loop_
_atom_site_type_symbol
_atom_site_label
_atom_site_fract_x
_atom_site_fract_y
_atom_site_fract_z
Si Si1 0.792280 0.219649 0.023470
Si Si2 0.917259 0.284559 0.769273
Si Si3 0.848670 0.277679 0.571639
Si Si4 0.484110 0.280337 0.289578
Si Si5 0.814445 0.290929 0.317987
Si Si6 0.014265 0.500000 0.113983
Si Si7 0.579998 0.783203 0.609620
O O1 0.899870 0.273495 0.162263
O O2 0.870521 0.338841 0.016533
O O3 0.802105 0.000000 0.020013
O O4 0.602646 0.273741 0.910425
O O5 0.930650 0.500000 0.770443
O O6 0.862204 0.212446 0.658270
O O7 0.770715 0.255910 0.724043
O O8 0.848099 0.500000 0.572352
O O9 0.674392 0.222867 0.421803
O O10 0.999055 0.216876 0.625246
O O11 0.477587 0.500000 0.288331
O O12 0.387792 0.210997 0.290927
O O13 0.770178 0.500000 0.307402
O O14 0.961427 0.225206 0.467261
O O15 0.659200 0.158906 0.216132
O O16 0.567345 0.000000 0.602035
#
# Coordination Sequence:
#
# PCOD9132233 Si02
#       7
#     4   4   4   4   4   2   4
#     4  10  24  43  64  94 133 171 215 267 325 389
#     4  10  21  41  64  90 128 168 210 263 320 390
#     4   9  18  36  65  90 121 169 215 261 323 381
#     4  10  19  40  65  93 131 171 213 268 325 379
#     4  11  23  39  64 101 133 163 219 277 321 382
#     4  12  24  42  68  92 128 178 214 266 334 390
#     4  10  21  38  62  95 128 164 211 273 323 378
#
# _framework density 22.317827999999999
#
# number of rings (size 3 to 8) (size 9 to 14) (size 15 to 20)
#    0.000    1.846    2.308    1.385    3.231    2.462 
#    2.769    0.769    0.000    0.000    0.000    0.000 
#    0.000    0.000    0.000    0.000    0.000    0.000 
#
# Total GULP energy -72399.162929 kJ/mol
# GULP energy per Si atom -5569.166379 kJ/mol
# Density = 2.226703 g / cm^3
# Si number density = 22.317828 Si / 1000 Ang^3
#
#
#
# Elastic Constant Matrix: (Units=GPa)
#
#
# Indices 1 2 3 4 5 6 
#
# 1 64.0285 7.5336 54.9087 0.0000 30.7888 0.0000
# 2 7.5336 111.3499 19.3739 0.0000 14.7934 0.0000
# 3 54.9087 19.3739 114.8404 -0.0001 43.6850 0.0000
# 4 0.0000 0.0000 -0.0001 5.3111 0.0000 15.5794
# 5 30.7888 14.7934 43.6850 0.0000 45.1223 0.0000
# 6 0.0000 0.0000 0.0000 15.5794 0.0000 24.5673
#
#
#
# Elastic Compliance Matrix: (Units=1/GPa)
#
#
# Indices 1 2 3 4 5 6 
#
# 1 0.029274 0.001188 -0.010211 0.000000 -0.010478 0.000000
# 2 0.001188 0.009469 -0.001070 0.000000 -0.002879 0.000000
# 3 -0.010211 -0.001070 0.017392 0.000000 -0.009519 0.000000
# 4 0.000000 0.000000 0.000000 -0.218884 0.000000 0.138806
# 5 -0.010478 -0.002879 -0.009519 0.000000 0.039472 0.000000
# 6 0.000000 0.000000 0.000000 0.138806 0.000000 -0.047319
#
#
# Mechanical properties :
#
#
# Convention : Reuss Voigt Hill
#
# Bulk Modulus (GPa) = 27.81837 50.42789 39.12313
# Shear Modulus (GPa) = -36.11983 28.89364 -3.61309
#
# Velocity S-wave (km/s) = -4.02734 3.60202 -1.27375
# Velocity P-wave (km/s) = 3.02228 6.32011 3.92489
#
# Compressibility (1/GPa) = 0.03594746
#
# Stress axis : x y z
#
# Youngs Moduli (GPa) = 34.16051 105.60742 57.49886
#
# Poissons Ratio (x) = -0.12548 0.58713
# Poissons Ratio (y) = -0.04059 0.06155
# Poissons Ratio (z) = 0.34882 0.11305
#
# Static dielectric constant tensor:
#      x y z
#    x 1.847820 0.000000 -0.001350 
#    y 0.000000 1.848950 0.000000 
#    z -0.001350 0.000000 1.807820 
# 
# From -- ./inp_files/27724.got.cif
#   From: 2010.05.17/outbox.cif.g08.bks.cpg/sg8_14_cif.got.tgz:27724.got - 2010.06.03 19:46:02.
