data_PCOD9132505
_publ_section_title
;
Structure prediction by ZEFSAII (Michael W. Deem and Ramdas Pophale) SiO2 
 PCOD9132505
Probable space group: C M
;
_chemical_formula_sum "Si O2"
_cell_formula_units_Z 32
_cell_length_a 15.368936
_cell_length_b 8.945720
_cell_length_c 22.977737
_cell_angle_alpha 90.000000
_cell_angle_beta 149.079959
_cell_angle_gamma 90.000000
_cell_volume 1623.287379
_symmetry_space_group_name_H-M "C M"
_symmetry_group_IT_number 8
_symmetry_cell_setting 'monoclinic'
loop_
_space_group_symop_operation_xyz
x,y,z
x,-y,z
1/2+x,1/2+y,z
1/2+x,1/2-y,z
loop_
_atom_site_type_symbol
_atom_site_label
_atom_site_fract_x
_atom_site_fract_y
_atom_site_fract_z
Si Si1 0.337160 0.176711 0.014580
Si Si2 0.325258 0.826235 0.815936
Si Si3 0.116955 0.324834 0.796492
Si Si4 0.221327 0.675363 0.061087
Si Si5 0.998810 0.323566 0.415497
Si Si6 0.166451 0.824176 0.150917
Si Si7 0.033473 0.822607 0.561437
Si Si8 0.813687 0.678282 0.537871
O O1 0.334863 0.256772 0.075468
O O2 0.500118 0.232277 0.072482
O O3 0.338367 0.000000 0.021677
O O4 0.173673 0.229332 0.884076
O O5 0.247582 0.717830 0.819896
O O6 0.220431 0.800329 0.696758
O O7 0.290799 0.000000 0.813657
O O8 0.525665 0.808927 0.928131
O O9 0.127781 0.500000 0.817202
O O10 0.934897 0.293448 0.663495
O O11 0.255671 0.500000 0.089388
O O12 0.235372 0.763924 0.129207
O O13 0.035849 0.500000 0.438426
O O14 0.132000 0.243870 0.449218
O O15 0.810952 0.303773 0.282169
O O16 0.015058 0.254809 0.488882
O O17 0.124887 0.000000 0.122698
O O18 0.903018 0.755318 0.533901
O O19 0.006472 0.000000 0.540200
O O20 0.807930 0.500000 0.525563
#
# Coordination Sequence:
#
# PCOD9132505 Si02
#       8
#     4   4   4   4   4   4   4   4
#     4  12  25  40  62  93 126 165 209 254 310 372
#     4   9  19  36  60  91 127 162 201 252 311 367
#     4  10  20  36  61  91 128 165 203 253 309 367
#     4  11  23  40  64  94 126 162 207 256 311 371
#     4  11  25  43  65  92 124 165 212 259 308 368
#     4  11  25  46  66  89 124 164 211 263 312 365
#     4  10  21  39  63  93 128 164 206 256 308 366
#     4  10  22  40  63  93 127 165 207 253 309 370
#
# _framework density 19.713083999999998
#
# number of rings (size 3 to 8) (size 9 to 14) (size 15 to 20)
#    0.000    1.500    1.250    3.375    1.750    5.500 
#    0.000    0.000    0.000    0.000    0.000    0.000 
#    0.000    0.000    0.000    0.000    0.000    0.000 
#
# Total GULP energy -89463.271847 kJ/mol
# GULP energy per Si atom -5591.454490 kJ/mol
# Density = 1.966822 g / cm^3
# Si number density = 19.713084 Si / 1000 Ang^3
#
#
#
# Elastic Constant Matrix: (Units=GPa)
#
#
# Indices 1 2 3 4 5 6 
#
# 1 42.5377 -4.2610 0.8705 0.0000 -18.5055 0.0000
# 2 -4.2610 59.8246 25.1693 -0.0001 -6.6088 0.0000
# 3 0.8705 25.1693 42.9542 0.0000 -9.3919 0.0000
# 4 0.0000 -0.0001 0.0000 27.9124 0.0000 -2.7321
# 5 -18.5055 -6.6088 -9.3919 0.0000 26.5506 0.0000
# 6 0.0000 0.0000 0.0000 -2.7321 0.0000 37.2090
#
#
#
# Elastic Compliance Matrix: (Units=1/GPa)
#
#
# Indices 1 2 3 4 5 6 
#
# 1 0.035548 0.004419 0.002545 0.000000 0.026777 0.000000
# 2 0.004419 0.022759 -0.012478 0.000000 0.004331 0.000000
# 3 0.002545 -0.012478 0.032785 0.000000 0.010265 0.000000
# 4 0.000000 0.000000 0.000000 0.036086 0.000000 0.002650
# 5 0.026777 0.004331 0.010265 0.000000 0.061036 0.000000
# 6 0.000000 0.000000 0.000000 0.002650 0.000000 0.027070
#
#
# Mechanical properties :
#
#
# Convention : Reuss Voigt Hill
#
# Bulk Modulus (GPa) = 12.49005 20.98603 16.73804
# Shear Modulus (GPa) = 19.76289 26.57024 23.16656
#
# Velocity S-wave (km/s) = 3.16970 3.67529 3.43182
# Velocity P-wave (km/s) = 4.44361 5.35529 4.92061
#
# Compressibility (1/GPa) = 0.08006374
#
# Stress axis : x y z
#
# Youngs Moduli (GPa) = 28.13088 43.93954 30.50169
#
# Poissons Ratio (x) = -0.19418 -0.07762
# Poissons Ratio (y) = -0.12432 0.38060
# Poissons Ratio (z) = -0.07159 0.54828
#
# Static dielectric constant tensor:
#      x y z
#    x 1.668600 0.000000 -0.002410 
#    y 0.000000 1.655390 0.000000 
#    z -0.002410 0.000000 1.691490 
# 
# From -- ./inp_files/31958.got.cif
#   From: 2010.05.17/outbox.cif.g08.bks.cpg/sg8_16_cif.got.tgz:31958.got - 2010.06.03 19:46:02.
