data_PCOD9132187
_publ_section_title
;
Structure prediction by ZEFSAII (Michael W. Deem and Ramdas Pophale) SiO2 
 PCOD9132187
Probable space group: C M
;
_chemical_formula_sum "Si O2"
_cell_formula_units_Z 32
_cell_length_a 18.291316
_cell_length_b 13.880746
_cell_length_c 7.626803
_cell_angle_alpha 90.000000
_cell_angle_beta 48.054961
_cell_angle_gamma 90.000000
_cell_volume 1440.285177
_symmetry_space_group_name_H-M "C M"
_symmetry_group_IT_number 8
_symmetry_cell_setting 'monoclinic'
loop_
_space_group_symop_operation_xyz
x,y,z
x,-y,z
1/2+x,1/2+y,z
1/2+x,1/2-y,z
loop_
_atom_site_type_symbol
_atom_site_label
_atom_site_fract_x
_atom_site_fract_y
_atom_site_fract_z
Si Si1 0.941810 0.233750 0.267910
Si Si2 0.532856 0.396280 0.653702
Si Si3 0.831536 0.390156 0.048388
Si Si4 0.290095 0.805025 0.748204
Si Si5 0.305590 0.394572 0.907431
Si Si6 0.257704 0.694667 0.349865
Si Si7 0.096760 0.106683 0.956105
Si Si8 0.542423 0.191780 0.755139
O O1 0.892553 0.307763 0.479637
O O2 0.849880 0.177039 0.329672
O O3 0.022058 0.158769 0.208906
O O4 0.001064 0.282415 0.014436
O O5 0.578202 0.500000 0.520748
O O6 0.421991 0.397252 0.761616
O O7 0.558568 0.282892 0.594821
O O8 0.546120 0.400276 0.845457
O O9 0.815800 0.500000 0.132876
O O10 0.789478 0.369482 0.922809
O O11 0.949288 0.370148 0.840115
O O12 0.781610 0.306992 0.250872
O O13 0.281381 0.694220 0.821522
O O14 0.198504 0.836633 0.778380
O O15 0.273998 0.500000 0.897429
O O16 0.263013 0.366481 0.164260
O O17 0.154827 0.662723 0.597248
O O18 0.118013 0.000000 0.982840
#
# Coordination Sequence:
#
# PCOD9132187 Si02
#       8
#     4   4   4   4   4   4   4   4
#     4  10  20  37  60  89 125 159 196 257 312 364
#     4   9  16  34  61  87 112 147 202 255 299 348
#     4  10  22  41  59  86 127 165 207 252 306 374
#     4  11  22  38  60  93 130 167 193 252 321 376
#     4  10  20  39  63  88 119 160 205 252 306 361
#     4  10  20  38  66  89 117 159 211 259 309 359
#     4  10  20  36  62  92 121 158 207 257 306 363
#     4  10  19  37  60  92 119 159 208 254 308 365
#
# _framework density 22.217822000000002
#
# number of rings (size 3 to 8) (size 9 to 14) (size 15 to 20)
#    0.000    2.000    5.000    1.875    0.000    3.500 
#    0.000    8.750    0.000   12.000    0.000    0.000 
#    0.000    0.000    0.000    0.000    0.000    0.000 
#
# Total GULP energy -89081.135429 kJ/mol
# GULP energy per Si atom -5567.570964 kJ/mol
# Density = 2.216725 g / cm^3
# Si number density = 22.217822 Si / 1000 Ang^3
#
#
#
# Elastic Constant Matrix: (Units=GPa)
#
#
# Indices 1 2 3 4 5 6 
#
# 1 32.5558 13.8986 18.9350 0.0000 -8.4912 0.0000
# 2 13.8986 89.1926 -4.3818 0.0000 -11.8746 0.0000
# 3 18.9350 -4.3818 79.8538 0.0000 -24.1252 0.0000
# 4 0.0000 0.0000 0.0000 -0.6671 0.0000 -0.3822
# 5 -8.4912 -11.8746 -24.1252 0.0000 33.2308 0.0000
# 6 0.0000 0.0000 0.0000 -0.3822 0.0000 13.3883
#
#
#
# Elastic Compliance Matrix: (Units=1/GPa)
#
#
# Indices 1 2 3 4 5 6 
#
# 1 0.039147 -0.006440 -0.009363 0.000000 0.000905 0.000000
# 2 -0.006440 0.013219 0.004076 0.000000 0.006038 0.000000
# 3 -0.009363 0.004076 0.018810 0.000000 0.012720 0.000000
# 4 0.000000 0.000000 0.000000 -1.474919 0.000000 -0.042109
# 5 0.000905 0.006038 0.012720 0.000000 0.041716 0.000000
# 6 0.000000 0.000000 0.000000 -0.042109 0.000000 0.073490
#
#
# Mechanical properties :
#
#
# Convention : Reuss Voigt Hill
#
# Bulk Modulus (GPa) = 20.95376 28.72286 24.83831
# Shear Modulus (GPa) = -4.00263 20.73376 8.36557
#
# Velocity S-wave (km/s) = -1.34367 3.05815 1.94253
# Velocity P-wave (km/s) = 2.65410 5.04238 4.02926
#
# Compressibility (1/GPa) = 0.04772414
#
# Stress axis : x y z
#
# Youngs Moduli (GPa) = 25.54467 75.64707 53.16452
#
# Poissons Ratio (x) = 0.48715 0.49776
# Poissons Ratio (y) = 0.16450 -0.21672
# Poissons Ratio (z) = 0.23917 -0.30837
#
# Static dielectric constant tensor:
#      x y z
#    x 1.867150 0.000000 0.006270 
#    y 0.000000 1.937610 0.000000 
#    z 0.006270 0.000000 1.855370 
# 
# From -- ./inp_files/16437.got.cif
#   From: 2010.05.17/outbox.cif.g08.bks.cpg/sg8_9_cif.got.tgz:16437.got - 2010.06.03 19:46:02.
