data_PCOD9132951
_publ_section_title
;
Structure prediction by ZEFSAII (Michael W. Deem and Ramdas Pophale) SiO2 
 PCOD9132951
Probable space group: C M
;
_chemical_formula_sum "Si O2"
_cell_formula_units_Z 32
_cell_length_a 16.778982
_cell_length_b 15.820745
_cell_length_c 13.051955
_cell_angle_alpha 90.000000
_cell_angle_beta 154.454251
_cell_angle_gamma 90.000000
_cell_volume 1494.096788
_symmetry_space_group_name_H-M "C M"
_symmetry_group_IT_number 8
_symmetry_cell_setting 'monoclinic'
loop_
_space_group_symop_operation_xyz
x,y,z
x,-y,z
1/2+x,1/2+y,z
1/2+x,1/2-y,z
loop_
_atom_site_type_symbol
_atom_site_label
_atom_site_fract_x
_atom_site_fract_y
_atom_site_fract_z
Si Si1 0.724920 0.341501 0.757790
Si Si2 0.125831 0.097608 0.425543
Si Si3 0.934417 0.903867 0.007077
Si Si4 0.681671 0.603714 0.108000
Si Si5 0.051393 0.402328 0.846751
Si Si6 0.074031 0.660556 0.645600
Si Si7 0.512904 0.402578 0.700630
Si Si8 0.131938 0.603834 0.165549
O O1 0.626334 0.358488 0.535199
O O2 0.665370 0.249274 0.724076
O O3 0.645119 0.399334 0.755669
O O4 0.941865 0.358788 0.989943
O O5 0.334962 0.098182 0.625709
O O6 0.002879 0.136665 0.192804
O O7 0.071882 0.000000 0.382235
O O8 0.026467 0.870246 0.011184
O O9 0.005149 0.000000 0.095788
O O10 0.715571 0.903405 0.755346
O O11 0.702364 0.500000 0.130935
O O12 0.871716 0.644230 0.366569
O O13 0.613610 0.633195 0.917466
O O14 0.105155 0.500000 0.888892
O O15 0.075571 0.353126 0.769518
O O16 0.149981 0.373435 0.065828
O O17 0.473294 0.500000 0.680689
O O18 0.313626 0.366162 0.436841
O O19 0.117425 0.500000 0.151226
#
# Coordination Sequence:
#
# PCOD9132951 Si02
#       8
#     4   4   4   4   4   4   4   4
#     4  11  24  39  58  98 134 165 199 258 333 395
#     4   9  18  38  67  90 118 158 214 276 311 353
#     4  10  21  38  63  91 119 165 223 271 309 359
#     4  10  22  43  64  90 129 170 219 264 307 378
#     4   9  17  36  65  94 122 159 215 274 315 360
#     4  12  24  37  59  98 133 171 200 251 335 398
#     4  10  22  42  69  92 120 171 223 263 309 377
#     4   9  20  41  69  97 123 163 223 279 317 360
#
# _framework density 21.417621
#
# number of rings (size 3 to 8) (size 9 to 14) (size 15 to 20)
#    0.000    2.000    1.250    3.000    1.750    3.000 
#    4.500    2.500    0.000    0.000    0.000    0.000 
#    0.000    0.000    0.000    0.000    0.000    0.000 
#
# Total GULP energy -89345.378524 kJ/mol
# GULP energy per Si atom -5584.086158 kJ/mol
# Density = 2.136887 g / cm^3
# Si number density = 21.417621 Si / 1000 Ang^3
#
#
#
# Elastic Constant Matrix: (Units=GPa)
#
#
# Indices 1 2 3 4 5 6 
#
# 1 170.7712 31.8132 85.4354 0.0000 -13.3795 0.0000
# 2 31.8132 49.6512 14.3935 0.0000 -8.9910 0.0000
# 3 85.4354 14.3935 115.0781 0.0000 -2.2537 0.0000
# 4 0.0000 0.0000 0.0000 12.5762 0.0000 0.9928
# 5 -13.3795 -8.9910 -2.2537 0.0000 27.7344 0.0000
# 6 0.0000 0.0000 0.0000 0.9928 0.0000 41.4465
#
#
#
# Elastic Compliance Matrix: (Units=1/GPa)
#
#
# Indices 1 2 3 4 5 6 
#
# 1 0.010455 -0.004043 -0.007195 0.000000 0.003148 0.000000
# 2 -0.004043 0.023731 0.000146 0.000000 0.005754 0.000000
# 3 -0.007195 0.000146 0.013968 0.000000 -0.002288 0.000000
# 4 0.000000 0.000000 0.000000 0.079666 0.000000 -0.001908
# 5 0.003148 0.005754 -0.002288 0.000000 0.039255 0.000000
# 6 0.000000 0.000000 0.000000 -0.001908 0.000000 0.024173
#
#
# Mechanical properties :
#
#
# Convention : Reuss Voigt Hill
#
# Bulk Modulus (GPa) = 38.50485 66.53166 52.51825
# Shear Modulus (GPa) = 22.51367 29.94198 26.22782
#
# Velocity S-wave (km/s) = 3.24570 3.74305 3.50321
# Velocity P-wave (km/s) = 5.66244 7.05776 6.39825
#
# Compressibility (1/GPa) = 0.02597075
#
# Stress axis : x y z
#
# Youngs Moduli (GPa) = 95.64754 42.13946 71.59221
#
# Poissons Ratio (x) = 0.17038 0.51508
# Poissons Ratio (y) = 0.38672 -0.01047
# Poissons Ratio (z) = 0.68815 -0.00616
#
# Static dielectric constant tensor:
#      x y z
#    x 1.750250 0.000000 -0.011690 
#    y 0.000000 1.849710 0.000000 
#    z -0.011690 0.000000 1.785750 
# 
# From -- ./inp_files/22415.got.cif
#   From: 2010.05.17/outbox.cif.g08.bks.cpg/sg8_12_cif.got.tgz:22415.got - 2010.06.03 19:46:02.
