data_PCOD9132862
_publ_section_title
;
Structure prediction by ZEFSAII (Michael W. Deem and Ramdas Pophale) SiO2 
 PCOD9132862
Probable space group: C M
;
_chemical_formula_sum "Si O2"
_cell_formula_units_Z 26
_cell_length_a 14.340018
_cell_length_b 7.724968
_cell_length_c 9.772781
_cell_angle_alpha 90.000000
_cell_angle_beta 65.987948
_cell_angle_gamma 90.000000
_cell_volume 988.903765
_symmetry_space_group_name_H-M "C M"
_symmetry_group_IT_number 8
_symmetry_cell_setting 'monoclinic'
loop_
_space_group_symop_operation_xyz
x,y,z
x,-y,z
1/2+x,1/2+y,z
1/2+x,1/2-y,z
loop_
_atom_site_type_symbol
_atom_site_label
_atom_site_fract_x
_atom_site_fract_y
_atom_site_fract_z
Si Si1 0.034790 0.191809 0.166050
Si Si2 0.780355 0.706563 0.654960
Si Si3 0.648259 0.500000 0.440232
Si Si4 0.072088 0.699735 0.853250
Si Si5 0.793550 0.805912 0.245582
Si Si6 0.845474 0.709268 0.920347
Si Si7 0.004051 0.694066 0.465414
O O1 0.052653 0.312094 0.284703
O O2 0.915549 0.207593 0.198016
O O3 0.057773 0.000000 0.208896
O O4 0.091455 0.211200 0.988546
O O5 0.764354 0.500000 0.650342
O O6 0.669095 0.782910 0.697309
O O7 0.806289 0.757859 0.795153
O O8 0.884972 0.746994 0.515603
O O9 0.734238 0.653096 0.355325
O O10 0.561347 0.345819 0.507836
O O11 0.056983 0.500000 0.896479
O O12 0.964178 0.763772 0.860944
O O13 0.761323 0.000000 0.306202
O O14 0.785615 0.782743 0.085878
O O15 0.840120 0.500000 0.932434
O O16 0.003638 0.500000 0.528278
#
# Coordination Sequence:
#
# PCOD9132862 Si02
#       7
#     4   4   2   4   4   4   4
#     4  10  21  41  65  94 131 164 210 268 313 375
#     4  10  23  42  62  87 127 168 209 261 316 378
#     4  12  24  42  66  90 130 166 212 266 322 378
#     4  10  21  36  65  95 121 167 212 257 320 379
#     4  10  22  39  65 100 126 162 211 265 322 375
#     4   9  19  40  63  91 131 163 208 263 314 377
#     4  11  25  43  63  92 130 168 214 263 316 382
#
# _framework density 26.291739
#
# number of rings (size 3 to 8) (size 9 to 14) (size 15 to 20)
#    0.000    1.846    1.538    1.385    5.385    1.231 
#    2.769    0.000    0.000    0.000    0.000    0.000 
#    0.000    0.000    0.000    0.000    0.000    0.000 
#
# Total GULP energy -72568.104266 kJ/mol
# GULP energy per Si atom -5582.161867 kJ/mol
# Density = 2.623190 g / cm^3
# Si number density = 26.291739 Si / 1000 Ang^3
#
#
#
# Elastic Constant Matrix: (Units=GPa)
#
#
# Indices 1 2 3 4 5 6 
#
# 1 71.2419 28.6524 37.3766 0.0000 -29.4358 0.0000
# 2 28.6524 137.8813 22.1473 0.0000 -9.3054 0.0000
# 3 37.3766 22.1473 109.9163 0.0000 -17.8550 0.0000
# 4 0.0000 0.0000 0.0000 28.8895 0.0000 -13.6054
# 5 -29.4358 -9.3054 -17.8550 0.0000 57.8787 0.0000
# 6 0.0000 0.0000 0.0000 -13.6054 0.0000 32.9851
#
#
#
# Elastic Compliance Matrix: (Units=1/GPa)
#
#
# Indices 1 2 3 4 5 6 
#
# 1 0.021753 -0.003062 -0.005330 0.000000 0.008926 0.000000
# 2 -0.003062 0.007960 -0.000640 0.000000 -0.000475 0.000000
# 3 -0.005330 -0.000640 0.011140 0.000000 0.000623 0.000000
# 4 0.000000 0.000000 0.000000 0.042960 0.000000 0.017720
# 5 0.008926 -0.000475 0.000623 0.000000 0.021933 0.000000
# 6 0.000000 0.000000 0.000000 0.017720 0.000000 0.037626
#
#
# Mechanical properties :
#
#
# Convention : Reuss Voigt Hill
#
# Bulk Modulus (GPa) = 43.87962 55.04358 49.46160
# Shear Modulus (GPa) = 29.58047 39.34153 34.46100
#
# Velocity S-wave (km/s) = 3.35787 3.87246 3.62431
# Velocity P-wave (km/s) = 5.63555 6.40123 6.03056
#
# Compressibility (1/GPa) = 0.02278962
#
# Stress axis : x y z
#
# Youngs Moduli (GPa) = 45.97149 125.63473 89.76336
#
# Poissons Ratio (x) = 0.38466 0.47843
# Poissons Ratio (y) = 0.14075 0.05743
# Poissons Ratio (z) = 0.24503 0.08038
#
# Static dielectric constant tensor:
#      x y z
#    x 2.132600 0.000000 0.059570 
#    y 0.000000 1.958750 0.000000 
#    z 0.059570 0.000000 2.073590 
# 
# From -- ./inp_files/21260.got.cif
#   From: 2010.05.17/outbox.cif.g08.bks.cpg/sg8_11_cif.got.tgz:21260.got - 2010.06.03 19:46:02.
