data_PCOD9132687
_publ_section_title
;
Structure prediction by ZEFSAII (Michael W. Deem and Ramdas Pophale) SiO2 
 PCOD9132687
Probable space group: C M
;
_chemical_formula_sum "Si O2"
_cell_formula_units_Z 32
_cell_length_a 14.775901
_cell_length_b 21.128741
_cell_length_c 9.426883
_cell_angle_alpha 90.000000
_cell_angle_beta 146.848512
_cell_angle_gamma 90.000000
_cell_volume 1609.413108
_symmetry_space_group_name_H-M "C M"
_symmetry_group_IT_number 8
_symmetry_cell_setting 'monoclinic'
loop_
_space_group_symop_operation_xyz
x,y,z
x,-y,z
1/2+x,1/2+y,z
1/2+x,1/2-y,z
loop_
_atom_site_type_symbol
_atom_site_label
_atom_site_fract_x
_atom_site_fract_y
_atom_site_fract_z
Si Si1 0.396790 0.841686 0.224590
Si Si2 0.596263 0.378713 0.650712
Si Si3 0.971189 0.096808 0.777673
Si Si4 0.342192 0.874510 0.727394
Si Si5 0.949959 0.248650 0.746780
Si Si6 0.589950 0.071623 0.269640
Si Si7 0.331936 0.277180 0.281186
Si Si8 0.286606 0.071386 0.342624
O O1 0.528367 0.881030 0.310057
O O2 0.436575 0.771268 0.322779
O O3 0.353901 0.881836 0.308837
O O4 0.236102 0.835690 0.911693
O O5 0.552154 0.420969 0.730285
O O6 0.691976 0.397076 0.633313
O O7 0.425224 0.343491 0.394124
O O8 0.964257 0.173319 0.795065
O O9 0.786006 0.072966 0.528145
O O10 0.090165 0.070788 0.054584
O O11 0.358537 0.798102 0.731409
O O12 0.323704 0.902240 0.546455
O O13 0.507634 0.901247 0.018775
O O14 0.854189 0.247906 0.471175
O O15 0.139275 0.274364 0.987914
O O16 0.528634 0.000000 0.212470
O O17 0.351471 0.000000 0.411294
#
# Coordination Sequence:
#
# PCOD9132687 Si02
#       8
#     4   4   4   4   4   4   4   4
#     4  10  20  39  59  85 115 159 200 238 290 355
#     4   9  21  37  59  87 120 157 191 235 301 362
#     4  10  21  42  60  85 118 159 201 238 296 353
#     4  11  22  38  61  94 119 151 196 248 303 344
#     4  11  20  36  62  88 122 149 190 244 298 360
#     4  11  24  41  61  85 117 161 210 244 284 355
#     4  11  18  38  57  88 122 154 188 236 300 356
#     4  11  21  39  61  84 119 156 197 245 294 345
#
# _framework density 19.883026000000001
#
# number of rings (size 3 to 8) (size 9 to 14) (size 15 to 20)
#    0.000    1.500    5.000    2.625    1.750    0.000 
#    4.500    1.875    0.000    0.000    0.000    0.000 
#    0.000    0.000    0.000    0.000    0.000    0.000 
#
# Total GULP energy -89155.981790 kJ/mol
# GULP energy per Si atom -5572.248862 kJ/mol
# Density = 1.983777 g / cm^3
# Si number density = 19.883026 Si / 1000 Ang^3
#
#
#
# Elastic Constant Matrix: (Units=GPa)
#
#
# Indices 1 2 3 4 5 6 
#
# 1 68.8853 -6.8250 40.4123 0.0000 -6.8352 0.0000
# 2 -6.8250 53.2846 -12.9698 0.0000 -4.6913 0.0000
# 3 40.4123 -12.9698 65.6881 0.0000 -5.7889 0.0000
# 4 0.0000 0.0000 0.0000 10.4614 0.0000 0.2232
# 5 -6.8352 -4.6913 -5.7889 0.0000 31.6897 0.0000
# 6 0.0000 0.0000 0.0000 0.2232 0.0000 -0.7745
#
#
#
# Elastic Compliance Matrix: (Units=1/GPa)
#
#
# Indices 1 2 3 4 5 6 
#
# 1 0.022897 -0.000250 -0.013928 0.000000 0.002357 0.000000
# 2 -0.000250 0.020151 0.004462 0.000000 0.003744 0.000000
# 3 -0.013928 0.004462 0.024867 0.000000 0.002199 0.000000
# 4 0.000000 0.000000 0.000000 0.095005 0.000000 0.027375
# 5 0.002357 0.003744 0.002199 0.000000 0.033021 0.000000
# 6 0.000000 0.000000 0.000000 0.027375 0.000000 -1.283307
#
#
# Mechanical properties :
#
#
# Convention : Reuss Voigt Hill
#
# Bulk Modulus (GPa) = 20.62539 25.45479 23.04009
# Shear Modulus (GPa) = -4.75388 19.42469 7.33541
#
# Velocity S-wave (km/s) = -1.54794 3.12901 1.92283
# Velocity P-wave (km/s) = 2.68348 5.08766 4.06727
#
# Compressibility (1/GPa) = 0.04848394
#
# Stress axis : x y z
#
# Youngs Moduli (GPa) = 43.67344 49.62535 40.21358
#
# Poissons Ratio (x) = 0.01240 0.56011
# Poissons Ratio (y) = 0.01091 -0.17945
# Poissons Ratio (z) = 0.60830 -0.22145
#
# Static dielectric constant tensor:
#      x y z
#    x 1.734830 0.000000 0.011860 
#    y 0.000000 1.770170 0.000000 
#    z 0.011860 0.000000 1.684040 
# 
# From -- ./inp_files/13838.got.cif
#   From: 2010.05.17/outbox.cif.g08.bks.cpg/sg8_7_cif.got.tgz:13838.got - 2010.06.03 19:46:02.
