data_PCOD9132148
_publ_section_title
;
Structure prediction by ZEFSAII (Michael W. Deem and Ramdas Pophale) SiO2 
 PCOD9132148
Probable space group: C M
;
_chemical_formula_sum "Si O2"
_cell_formula_units_Z 32
_cell_length_a 15.139391
_cell_length_b 8.192124
_cell_length_c 23.552020
_cell_angle_alpha 90.000000
_cell_angle_beta 151.180129
_cell_angle_gamma 90.000000
_cell_volume 1408.095087
_symmetry_space_group_name_H-M "C M"
_symmetry_group_IT_number 8
_symmetry_cell_setting 'monoclinic'
loop_
_space_group_symop_operation_xyz
x,y,z
x,-y,z
1/2+x,1/2+y,z
1/2+x,1/2-y,z
loop_
_atom_site_type_symbol
_atom_site_label
_atom_site_fract_x
_atom_site_fract_y
_atom_site_fract_z
Si Si1 0.884190 0.799999 0.693170
Si Si2 0.067573 0.693392 0.197866
Si Si3 0.286503 0.692662 0.123963
Si Si4 0.776792 0.698077 0.941060
Si Si5 0.867367 0.694151 0.290075
Si Si6 0.782262 0.804745 0.513430
Si Si7 0.890631 0.697806 0.876111
Si Si8 0.097804 0.692030 0.618229
O O1 0.887484 0.749388 0.629592
O O2 0.698459 0.743655 0.618679
O O3 0.066982 0.744747 0.828307
O O4 0.885032 0.000000 0.694936
O O5 0.085163 0.500000 0.201851
O O6 0.261094 0.767487 0.288275
O O7 0.972047 0.730275 0.203934
O O8 0.918501 0.758766 0.067853
O O9 0.297581 0.500000 0.121742
O O10 0.265205 0.727715 0.178680
O O11 0.101880 0.753359 0.988845
O O12 0.777267 0.500000 0.945772
O O13 0.835934 0.737150 0.910146
O O14 0.868280 0.500000 0.283013
O O15 0.075319 0.756790 0.402312
O O16 0.903402 0.761587 0.527560
O O17 0.772528 0.000000 0.510412
O O18 0.882110 0.500000 0.865676
O O19 0.747569 0.773034 0.751797
O O20 0.073513 0.500000 0.598147
#
# Coordination Sequence:
#
# PCOD9132148 Si02
#       8
#     4   4   4   4   4   4   4   4
#     4   9  18  35  59  83 113 151 189 230 287 356
#     4  11  22  39  63  92 123 158 200 250 308 367
#     4  11  23  40  62  90 123 163 205 249 305 363
#     4   9  16  32  60  86 113 154 194 232 292 360
#     4  11  24  41  62  89 118 158 211 260 307 357
#     4  10  22  42  63  81 112 160 203 242 295 358
#     4  10  19  36  61  86 117 160 198 237 297 361
#     4  11  22  35  58  93 121 150 194 246 299 352
#
# _framework density 22.725738
#
# number of rings (size 3 to 8) (size 9 to 14) (size 15 to 20)
#    0.000    1.750    2.500    2.250    0.000    4.000 
#    0.000    2.500    0.000    0.000    0.000    0.000 
#    0.000    0.000    0.000    0.000    0.000    0.000 
#
# Total GULP energy -89418.706583 kJ/mol
# GULP energy per Si atom -5588.669161 kJ/mol
# Density = 2.267401 g / cm^3
# Si number density = 22.725738 Si / 1000 Ang^3
#
#
#
# Elastic Constant Matrix: (Units=GPa)
#
#
# Indices 1 2 3 4 5 6 
#
# 1 102.9475 -2.4935 6.7009 0.0000 35.7683 0.0000
# 2 -2.4935 13.6783 6.5979 0.0001 6.1088 0.0000
# 3 6.7009 6.5979 56.5353 0.0007 36.0395 0.0001
# 4 0.0000 0.0001 0.0007 19.0548 0.0000 6.1663
# 5 35.7683 6.1088 36.0395 0.0000 42.8182 0.0000
# 6 0.0000 0.0000 0.0001 6.1663 0.0000 24.9496
#
#
#
# Elastic Compliance Matrix: (Units=1/GPa)
#
#
# Indices 1 2 3 4 5 6 
#
# 1 0.020389 0.010087 0.017652 -0.000001 -0.033328 0.000000
# 2 0.010087 0.083570 0.004365 -0.000001 -0.024023 0.000000
# 3 0.017652 0.004365 0.053691 -0.000002 -0.060560 0.000000
# 4 -0.000001 -0.000001 -0.000002 0.057043 0.000002 -0.014098
# 5 -0.033328 -0.024023 -0.060560 0.000002 0.105595 0.000000
# 6 0.000000 0.000000 0.000000 -0.014098 0.000000 0.043565
#
#
# Mechanical properties :
#
#
# Convention : Reuss Voigt Hill
#
# Bulk Modulus (GPa) = 4.50738 21.64131 13.07435
# Shear Modulus (GPa) = 13.38337 28.18822 20.78580
#
# Velocity S-wave (km/s) = 2.42938 3.52570 3.02758
# Velocity P-wave (km/s) = 3.13956 5.11054 4.24113
#
# Compressibility (1/GPa) = 0.22185835
#
# Stress axis : x y z
#
# Youngs Moduli (GPa) = 49.04695 11.96598 18.62496
#
# Poissons Ratio (x) = -0.12070 -0.32877
# Poissons Ratio (y) = -0.49472 -0.08131
# Poissons Ratio (z) = -0.86577 -0.05224
#
# Static dielectric constant tensor:
#      x y z
#    x 1.847600 0.000000 0.022860 
#    y 0.000000 1.781210 0.000000 
#    z 0.022860 0.000000 1.873020 
# 
# From -- ./inp_files/26539.got.cif
#   From: 2010.05.17/outbox.cif.g08.bks.cpg/sg8_14_cif.got.tgz:26539.got - 2010.06.03 19:46:02.
