data_PCOD9132638
_publ_section_title
;
Structure prediction by ZEFSAII (Michael W. Deem and Ramdas Pophale) SiO2 
 PCOD9132638
Probable space group: C M
;
_chemical_formula_sum "Si O2"
_cell_formula_units_Z 32
_cell_length_a 14.073932
_cell_length_b 8.000885
_cell_length_c 18.502451
_cell_angle_alpha 90.000000
_cell_angle_beta 42.226236
_cell_angle_gamma 90.000000
_cell_volume 1400.201752
_symmetry_space_group_name_H-M "C M"
_symmetry_group_IT_number 8
_symmetry_cell_setting 'monoclinic'
loop_
_space_group_symop_operation_xyz
x,y,z
x,-y,z
1/2+x,1/2+y,z
1/2+x,1/2-y,z
loop_
_atom_site_type_symbol
_atom_site_label
_atom_site_fract_x
_atom_site_fract_y
_atom_site_fract_z
Si Si1 0.652650 0.805534 0.655720
Si Si2 0.752391 0.194030 0.828765
Si Si3 0.837268 0.795547 0.425943
Si Si4 0.396030 0.298833 0.231581
Si Si5 0.934070 0.195912 0.598697
Si Si6 0.003435 0.187484 0.874694
Si Si7 0.204119 0.194093 0.015429
Si Si8 0.602161 0.701297 0.373911
O O1 0.702659 0.738933 0.549518
O O2 0.797303 0.799648 0.622134
O O3 0.540384 0.713023 0.768989
O O4 0.611817 0.000000 0.673201
O O5 0.876341 0.265809 0.706903
O O6 0.609013 0.199410 0.861598
O O7 0.782509 0.000000 0.828442
O O8 0.726709 0.289403 0.917008
O O9 0.856891 0.736332 0.333708
O O10 0.980143 0.746531 0.387597
O O11 0.830598 0.000000 0.430262
O O12 0.403706 0.500000 0.228866
O O13 0.549144 0.236326 0.121255
O O14 0.258779 0.251423 0.262850
O O15 0.056506 0.270579 0.479158
O O16 0.963955 0.000000 0.594728
O O17 0.039685 0.000000 0.875134
O O18 0.838332 0.220777 0.977203
O O19 0.208110 0.000000 0.033982
O O20 0.596122 0.500000 0.381829
#
# Coordination Sequence:
#
# PCOD9132638 Si02
#       8
#     4   4   4   4   4   4   4   4
#     4   8  14  30  56  82 109 142 180 219 267 330
#     4  10  20  38  62  85 112 146 185 230 282 334
#     4   8  16  34  58  80 106 144 182 217 266 327
#     4  10  22  38  54  77 108 141 183 232 275 318
#     4   7  13  28  52  81 109 136 169 215 271 332
#     4  11  22  37  58  85 116 147 183 228 281 337
#     4  11  24  40  55  77 112 152 196 238 275 324
#     4   9  17  33  57  81 106 138 176 217 267 328
#
# _framework density 22.853850000000001
#
# number of rings (size 3 to 8) (size 9 to 14) (size 15 to 20)
#    0.000    2.750    0.000    4.125    0.000    3.000 
#    0.000   11.250    0.000    0.000    0.000    0.000 
#    0.000    0.000    0.000    0.000    0.000    0.000 
#
# Total GULP energy -89343.183982 kJ/mol
# GULP energy per Si atom -5583.948999 kJ/mol
# Density = 2.280183 g / cm^3
# Si number density = 22.853850 Si / 1000 Ang^3
#
#
#
# Elastic Constant Matrix: (Units=GPa)
#
#
# Indices 1 2 3 4 5 6 
#
# 1 53.5052 -5.7011 27.2860 0.0000 -15.2571 0.0000
# 2 -5.7011 36.9034 5.0806 0.0000 -4.7939 0.0000
# 3 27.2860 5.0806 98.5392 0.0000 -38.8970 0.0000
# 4 0.0000 0.0000 0.0000 22.9059 0.0000 -3.5890
# 5 -15.2571 -4.7939 -38.8970 0.0000 37.3458 0.0000
# 6 0.0000 0.0000 0.0000 -3.5890 0.0000 20.5767
#
#
#
# Elastic Compliance Matrix: (Units=1/GPa)
#
#
# Indices 1 2 3 4 5 6 
#
# 1 0.023036 0.004873 -0.004531 0.000000 0.005317 0.000000
# 2 0.004873 0.028588 -0.001000 0.000000 0.004619 0.000000
# 3 -0.004531 -0.001000 0.018125 0.000000 0.016898 0.000000
# 4 0.000000 0.000000 0.000000 0.044884 0.000000 0.007829
# 5 0.005317 0.004619 0.016898 0.000000 0.047142 0.000000
# 6 0.000000 0.000000 0.000000 0.007829 0.000000 0.049964
#
#
# Mechanical properties :
#
#
# Convention : Reuss Voigt Hill
#
# Bulk Modulus (GPa) = 14.61277 26.91985 20.76631
# Shear Modulus (GPa) = 21.19849 26.98450 24.09149
#
# Velocity S-wave (km/s) = 3.04890 3.43992 3.25030
# Velocity P-wave (km/s) = 4.33616 5.25187 4.81583
#
# Compressibility (1/GPa) = 0.06843330
#
# Stress axis : x y z
#
# Youngs Moduli (GPa) = 43.41031 34.97924 55.17304
#
# Poissons Ratio (x) = -0.17047 0.25000
# Poissons Ratio (y) = -0.21155 0.05518
# Poissons Ratio (z) = 0.19670 0.03498
#
# Static dielectric constant tensor:
#      x y z
#    x 1.898730 0.000000 -0.003330 
#    y 0.000000 1.803080 0.000000 
#    z -0.003330 0.000000 1.873590 
# 
# From -- ./inp_files/30700.got.cif
#   From: 2010.05.17/outbox.cif.g08.bks.cpg/sg8_16_cif.got.tgz:30700.got - 2010.06.03 19:46:02.
