data_PCOD9132500
_publ_section_title
;
Structure prediction by ZEFSAII (Michael W. Deem and Ramdas Pophale) SiO2 
 PCOD9132500
Probable space group: C M
;
_chemical_formula_sum "Si O2"
_cell_formula_units_Z 32
_cell_length_a 18.109096
_cell_length_b 13.473839
_cell_length_c 16.955023
_cell_angle_alpha 90.000000
_cell_angle_beta 24.511694
_cell_angle_gamma 90.000000
_cell_volume 1716.358142
_symmetry_space_group_name_H-M "C M"
_symmetry_group_IT_number 8
_symmetry_cell_setting 'monoclinic'
loop_
_space_group_symop_operation_xyz
x,y,z
x,-y,z
1/2+x,1/2+y,z
1/2+x,1/2-y,z
loop_
_atom_site_type_symbol
_atom_site_label
_atom_site_fract_x
_atom_site_fract_y
_atom_site_fract_z
Si Si1 0.461010 0.737686 0.678040
Si Si2 0.078637 0.613380 0.311551
Si Si3 0.143434 0.683316 0.074868
Si Si4 0.766731 0.281830 0.702031
Si Si5 0.318052 0.117375 0.933718
Si Si6 0.844075 0.307282 0.244407
Si Si7 0.984778 0.385036 0.944863
Si Si8 0.925004 0.111818 0.082898
O O1 0.352955 0.764871 0.704042
O O2 0.463796 0.836316 0.730909
O O3 0.648753 0.693514 0.470756
O O4 0.335948 0.663234 0.849056
O O5 0.021936 0.500000 0.381019
O O6 0.116052 0.631918 0.184179
O O7 0.925005 0.685579 0.491589
O O8 0.262071 0.628218 0.180914
O O9 0.989925 0.653746 0.163629
O O10 0.157811 0.803743 0.075000
O O11 0.657399 0.184989 0.781921
O O12 0.613255 0.364782 0.859299
O O13 0.383835 0.130779 0.959943
O O14 0.285140 0.000000 0.952107
O O15 0.896995 0.193022 0.176992
O O16 0.866244 0.357944 0.137077
O O17 0.034258 0.500000 0.901096
O O18 0.919232 0.000000 0.117486
#
# Coordination Sequence:
#
# PCOD9132500 Si02
#       8
#     4   4   4   4   4   4   4   4
#     4  10  22  36  61  87 118 158 194 245 298 337
#     4  11  24  39  63  91 118 157 199 248 299 356
#     4  10  22  39  57  86 125 159 194 245 296 354
#     4  11  21  40  63  87 122 155 200 246 298 353
#     4   9  20  38  60  86 121 155 192 246 298 348
#     4  11  21  38  61  88 118 161 198 244 292 346
#     4  10  21  40  64  88 120 160 199 243 292 357
#     4  10  20  36  60  91 120 151 197 245 298 353
#
# _framework density 18.644127000000001
#
# number of rings (size 3 to 8) (size 9 to 14) (size 15 to 20)
#    0.750    1.000    3.750    1.875    1.750    3.500 
#    0.000    1.875    0.000    0.000    0.000    0.000 
#    0.000    0.000    0.000    0.000    0.000    0.000 
#
# Total GULP energy -89170.522231 kJ/mol
# GULP energy per Si atom -5573.157639 kJ/mol
# Density = 1.860169 g / cm^3
# Si number density = 18.644127 Si / 1000 Ang^3
#
#
#
# Elastic Constant Matrix: (Units=GPa)
#
#
# Indices 1 2 3 4 5 6 
#
# 1 77.2637 -14.3509 44.7229 0.0005 26.0374 -0.0004
# 2 -14.3509 178.8165 -80.8738 -0.0001 -94.3036 0.0005
# 3 44.7229 -80.8738 156.0294 0.0014 52.0695 -0.0009
# 4 0.0005 -0.0001 0.0014 7.4340 -0.0002 -3.5529
# 5 26.0374 -94.3036 52.0695 -0.0002 84.0288 -0.0003
# 6 -0.0004 0.0005 -0.0009 -3.5529 -0.0003 21.0127
#
#
#
# Elastic Compliance Matrix: (Units=1/GPa)
#
#
# Indices 1 2 3 4 5 6 
#
# 1 0.017619 -0.005127 -0.004999 0.000000 -0.008115 0.000000
# 2 -0.005127 0.016003 0.004085 0.000000 0.017017 0.000000
# 3 -0.004999 0.004085 0.009975 -0.000002 -0.000047 0.000000
# 4 0.000000 0.000000 -0.000002 0.146342 0.000002 0.024744
# 5 -0.008115 0.017017 -0.000047 0.000002 0.033542 0.000000
# 6 0.000000 0.000000 0.000000 0.024744 0.000000 0.051774
#
#
# Mechanical properties :
#
#
# Convention : Reuss Voigt Hill
#
# Bulk Modulus (GPa) = 31.73043 34.56733 33.14888
# Shear Modulus (GPa) = 16.78745 53.33587 35.06166
#
# Velocity S-wave (km/s) = 3.00395 5.35438 4.34126
# Velocity P-wave (km/s) = 5.39329 7.53703 6.55341
#
# Compressibility (1/GPa) = 0.03151548
#
# Stress axis : x y z
#
# Youngs Moduli (GPa) = 56.75670 62.48947 100.24694
#
# Poissons Ratio (x) = 0.32038 0.50117
# Poissons Ratio (y) = 0.29099 -0.40955
# Poissons Ratio (z) = 0.28375 -0.25530
#
# Static dielectric constant tensor:
#      x y z
#    x 1.588300 0.000000 0.136420 
#    y 0.000000 1.652500 0.000000 
#    z 0.136420 0.000000 1.211140 
# 
# From -- ./inp_files/29947.got.cif
#   From: 2010.05.17/outbox.cif.g08.bks.cpg/sg8_15_cif.got.tgz:29947.got - 2010.06.03 19:46:02.
