data_PCOD9132626
_publ_section_title
;
Structure prediction by ZEFSAII (Michael W. Deem and Ramdas Pophale) SiO2 
 PCOD9132626
Probable space group: C M
;
_chemical_formula_sum "Si O2"
_cell_formula_units_Z 28
_cell_length_a 14.797808
_cell_length_b 9.647574
_cell_length_c 12.029079
_cell_angle_alpha 90.000000
_cell_angle_beta 129.419988
_cell_angle_gamma 90.000000
_cell_volume 1326.640258
_symmetry_space_group_name_H-M "C M"
_symmetry_group_IT_number 8
_symmetry_cell_setting 'monoclinic'
loop_
_space_group_symop_operation_xyz
x,y,z
x,-y,z
1/2+x,1/2+y,z
1/2+x,1/2-y,z
loop_
_atom_site_type_symbol
_atom_site_label
_atom_site_fract_x
_atom_site_fract_y
_atom_site_fract_z
Si Si1 0.023830 0.344338 0.762770
Si Si2 0.941190 0.154677 0.043424
Si Si3 0.159738 0.660032 0.236187
Si Si4 0.893233 0.335659 0.426037
Si Si5 0.747180 0.345542 0.948293
Si Si6 0.318015 0.782558 0.764085
Si Si7 0.119001 0.656982 0.467276
O O1 0.074222 0.500000 0.789848
O O2 0.957292 0.309493 0.595015
O O3 0.925368 0.345507 0.780599
O O4 0.125994 0.235453 0.869670
O O5 0.055321 0.246262 0.107655
O O6 0.856372 0.243346 0.059258
O O7 0.967488 0.000000 0.103212
O O8 0.869999 0.151347 0.871753
O O9 0.159625 0.500000 0.196049
O O10 0.132649 0.658035 0.346647
O O11 0.861337 0.500000 0.399423
O O12 0.990649 0.307536 0.409363
O O13 0.782369 0.238362 0.319992
O O14 0.752246 0.500000 0.002576
O O15 0.765411 0.360629 0.829207
O O16 0.215734 0.751698 0.599025
O O17 0.140859 0.500000 0.524632
#
# Coordination Sequence:
#
# PCOD9132626 Si02
#       7
#     4   4   4   4   4   4   4
#     4  11  21  36  62  93 124 158 198 249 302 357
#     4  10  22  42  65  86 118 165 204 245 300 363
#     4  11  23  40  61  88 122 158 197 253 304 354
#     4  10  20  38  60  87 121 159 200 242 293 363
#     4  10  22  38  59  88 122 155 197 251 299 350
#     4  10  21  38  64  91 120 155 199 254 298 351
#     4  10  20  38  63  91 119 154 199 248 302 356
#
# _framework density 21.105948000000001
#
# number of rings (size 3 to 8) (size 9 to 14) (size 15 to 20)
#    0.857    0.857    2.857    2.143    0.000    1.714 
#    2.571    1.429    0.000    0.000    0.000    0.000 
#    0.000    0.000    0.000    0.000    0.000    0.000 
#
# Total GULP energy -78064.980850 kJ/mol
# GULP energy per Si atom -5576.070061 kJ/mol
# Density = 2.105791 g / cm^3
# Si number density = 21.105948 Si / 1000 Ang^3
#
#
#
# Elastic Constant Matrix: (Units=GPa)
#
#
# Indices 1 2 3 4 5 6 
#
# 1 126.7302 59.0270 1.4051 0.0000 10.1836 0.0000
# 2 59.0270 150.0944 14.1457 0.0000 29.9271 0.0000
# 3 1.4051 14.1457 32.5474 0.0000 7.6502 0.0000
# 4 0.0000 0.0000 0.0000 17.2275 0.0000 5.5505
# 5 10.1836 29.9271 7.6502 0.0000 28.3213 0.0000
# 6 0.0000 0.0000 0.0000 5.5505 0.0000 22.7685
#
#
#
# Elastic Compliance Matrix: (Units=1/GPa)
#
#
# Indices 1 2 3 4 5 6 
#
# 1 0.009716 -0.004021 0.001229 0.000000 0.000424 0.000000
# 2 -0.004021 0.010192 -0.002204 0.000000 -0.008729 0.000000
# 3 0.001229 -0.002204 0.033300 0.000000 -0.007107 0.000000
# 4 0.000000 0.000000 0.000000 0.062995 0.000000 -0.015357
# 5 0.000424 -0.008729 -0.007107 0.000000 0.046300 0.000000
# 6 0.000000 0.000000 0.000000 -0.015357 0.000000 0.047664
#
#
# Mechanical properties :
#
#
# Convention : Reuss Voigt Hill
#
# Bulk Modulus (GPa) = 23.14064 50.94751 37.04408
# Shear Modulus (GPa) = 21.31599 29.31639 25.31619
#
# Velocity S-wave (km/s) = 3.18142 3.73099 3.46711
# Velocity P-wave (km/s) = 4.94804 6.53848 5.79805
#
# Compressibility (1/GPa) = 0.04321402
#
# Stress axis : x y z
#
# Youngs Moduli (GPa) = 102.92187 98.11572 30.03001
#
# Poissons Ratio (x) = 0.39455 -0.03690
# Poissons Ratio (y) = 0.41388 0.06620
# Poissons Ratio (z) = -0.12646 0.21629
#
# Static dielectric constant tensor:
#      x y z
#    x 1.744560 0.000000 -0.013480 
#    y 0.000000 1.781680 0.000000 
#    z -0.013480 0.000000 1.771870 
# 
# From -- ./inp_files/16235.got.cif
#   From: 2010.05.17/outbox.cif.g08.bks.cpg/sg8_9_cif.got.tgz:16235.got - 2010.06.03 19:46:02.
