data_PCOD9132868
_publ_section_title
;
Structure prediction by ZEFSAII (Michael W. Deem and Ramdas Pophale) SiO2 
 PCOD9132868
Probable space group: C M
;
_chemical_formula_sum "Si O2"
_cell_formula_units_Z 30
_cell_length_a 5.204982
_cell_length_b 33.500388
_cell_length_c 8.848892
_cell_angle_alpha 90.000000
_cell_angle_beta 121.592744
_cell_angle_gamma 90.000000
_cell_volume 1314.292943
_symmetry_space_group_name_H-M "C M"
_symmetry_group_IT_number 8
_symmetry_cell_setting 'monoclinic'
loop_
_space_group_symop_operation_xyz
x,y,z
x,-y,z
1/2+x,1/2+y,z
1/2+x,1/2-y,z
loop_
_atom_site_type_symbol
_atom_site_label
_atom_site_fract_x
_atom_site_fract_y
_atom_site_fract_z
Si Si1 0.644960 0.726869 0.747200
Si Si2 0.972561 0.406077 0.317580
Si Si3 0.954271 0.429142 0.643912
Si Si4 0.893298 0.859576 0.222986
Si Si5 0.218445 0.000000 0.720930
Si Si6 0.286811 0.728162 0.318520
Si Si7 0.350641 0.136314 0.838512
Si Si8 0.098191 0.935253 0.939617
O O1 0.433145 0.745029 0.810431
O O2 0.461713 0.728507 0.532758
O O3 0.737509 0.681270 0.799308
O O4 0.734779 0.370841 0.287971
O O5 0.058896 0.424915 0.503894
O O6 0.247617 0.389025 0.304008
O O7 0.775512 0.435462 0.151189
O O8 0.242874 0.443572 0.831701
O O9 0.718370 0.464350 0.592129
O O10 0.854441 0.386621 0.680331
O O11 0.839919 0.815053 0.264786
O O12 0.684419 0.864855 0.011557
O O13 0.223810 0.034477 0.855439
O O14 0.447753 0.759862 0.257108
O O15 0.149742 0.109016 0.887007
#
# Coordination Sequence:
#
# PCOD9132868 Si02
#       8
#     4   4   4   4   2   4   4   4
#     4  10  23  37  58  93 129 170 224 274 330 392
#     4  11  25  41  69  99 130 176 224 270 327 399
#     4  11  23  43  71  96 134 178 220 274 338 396
#     4  11  23  42  62  96 130 171 229 277 329 394
#     4  10  24  44  68 104 134 174 218 280 332 406
#     4  10  21  37  56  86 128 170 217 277 334 391
#     4  10  23  40  66  93 133 174 225 279 331 394
#     4  10  23  45  65 100 136 170 224 275 333 401
#
# _framework density 22.825959000000001
#
# number of rings (size 3 to 8) (size 9 to 14) (size 15 to 20)
#    0.000    1.600    1.333    2.000    7.467    2.667 
#    0.000    1.333    0.000    0.000    0.000    0.000 
#    0.000    0.000    0.000    0.000    0.000    0.000 
#
# Total GULP energy -83647.520276 kJ/mol
# GULP energy per Si atom -5576.501352 kJ/mol
# Density = 2.277401 g / cm^3
# Si number density = 22.825959 Si / 1000 Ang^3
#
#
#
# Elastic Constant Matrix: (Units=GPa)
#
#
# Indices 1 2 3 4 5 6 
#
# 1 50.4451 -11.4907 12.0240 0.0000 2.9987 0.0000
# 2 -11.4907 93.0105 9.7032 0.0000 -1.8770 0.0000
# 3 12.0240 9.7032 44.9039 0.0000 5.9870 0.0000
# 4 0.0000 0.0000 0.0000 -41.7632 0.0000 -150.0669
# 5 2.9987 -1.8770 5.9870 0.0000 19.6657 0.0000
# 6 0.0000 0.0000 0.0000 -150.0669 0.0000 -315.8431
#
#
#
# Elastic Compliance Matrix: (Units=1/GPa)
#
#
# Indices 1 2 3 4 5 6 
#
# 1 0.022223 0.003407 -0.006544 0.000000 -0.001071 0.000000
# 2 0.003407 0.011586 -0.003642 0.000000 0.001695 0.000000
# 3 -0.006544 -0.003642 0.025768 0.000000 -0.007195 0.000000
# 4 0.000000 0.000000 0.000000 0.033854 0.000000 -0.016085
# 5 -0.001071 0.001695 -0.007195 0.000000 0.053365 0.000000
# 6 0.000000 0.000000 0.000000 -0.016085 0.000000 0.004476
#
#
# Mechanical properties :
#
#
# Convention : Reuss Voigt Hill
#
# Bulk Modulus (GPa) = 21.73009 23.20359 22.46684
# Shear Modulus (GPa) = 27.75120 -55.71325 -13.98102
#
# Velocity S-wave (km/s) = 3.49058 -4.94579 -2.47757
# Velocity P-wave (km/s) = 5.07800 4.73571 1.29598
#
# Compressibility (1/GPa) = 0.04601914
#
# Stress axis : x y z
#
# Youngs Moduli (GPa) = 44.99844 86.30756 38.80737
#
# Poissons Ratio (x) = -0.29401 0.25395
# Poissons Ratio (y) = -0.15329 0.14133
# Poissons Ratio (z) = 0.29447 0.31432
#
# Static dielectric constant tensor:
#      x y z
#    x 1.891470 0.000000 0.020230 
#    y 0.000000 1.901560 0.000000 
#    z 0.020230 0.000000 1.877090 
# 
# From -- ./inp_files/7112.got.cif
#   From: 2010.05.17/outbox.cif.g08.bks.cpg/sg8_4_cif.got.tgz:7112.got - 2010.06.03 19:46:02.
