data_PCOD9132740
_publ_section_title
;
Structure prediction by ZEFSAII (Michael W. Deem and Ramdas Pophale) SiO2 
 PCOD9132740
Probable space group: C M
;
_chemical_formula_sum "Si O2"
_cell_formula_units_Z 22
_cell_length_a 13.375872
_cell_length_b 11.632811
_cell_length_c 14.138053
_cell_angle_alpha 90.000000
_cell_angle_beta 29.941878
_cell_angle_gamma 90.000000
_cell_volume 1098.000212
_symmetry_space_group_name_H-M "C M"
_symmetry_group_IT_number 8
_symmetry_cell_setting 'monoclinic'
loop_
_space_group_symop_operation_xyz
x,y,z
x,-y,z
1/2+x,1/2+y,z
1/2+x,1/2-y,z
loop_
_atom_site_type_symbol
_atom_site_label
_atom_site_fract_x
_atom_site_fract_y
_atom_site_fract_z
Si Si1 0.383800 0.718947 0.605880
Si Si2 0.264537 0.365005 0.330671
Si Si3 0.456108 0.000000 0.109892
Si Si4 0.905907 0.000000 0.725269
Si Si5 0.830452 0.500000 0.423838
Si Si6 0.427308 0.762548 0.018691
Si Si7 0.508192 0.752399 0.298871
O O1 0.538977 0.816097 0.512184
O O2 0.409326 0.611764 0.655253
O O3 0.449331 0.690240 0.445161
O O4 0.151064 0.753862 0.797888
O O5 0.267211 0.500000 0.343150
O O6 0.367691 0.329676 0.147280
O O7 0.387413 0.300693 0.311581
O O8 0.420837 0.886637 0.076572
O O9 0.331451 0.000000 0.308072
O O10 0.688477 0.000000 0.951705
O O11 0.094768 0.000000 0.640139
O O12 0.940689 0.384833 0.365748
O O13 0.247202 0.757623 0.091083
#
# Coordination Sequence:
#
# PCOD9132740 Si02
#       7
#     4   4   2   2   2   4   4
#     4  10  23  42  62  88 121 158 199 245 294 351
#     4  11  24  41  61  87 123 162 195 239 301 357
#     4  10  20  40  66  85 112 158 204 245 292 345
#     4  10  20  40  66  85 112 158 204 245 292 345
#     4  12  20  40  62  86 116 156 198 254 294 342
#     4  10  23  42  62  88 121 158 199 245 294 351
#     4  11  24  37  64  89 120 154 204 243 300 347
#
# _framework density 20.036425000000001
#
# number of rings (size 3 to 8) (size 9 to 14) (size 15 to 20)
#    0.000    1.455    3.636    1.091    7.636    3.636 
#    0.000    0.000    0.000    0.000    0.000    0.000 
#    0.000    0.000    0.000    0.000    0.000    0.000 
#
# Total GULP energy -61478.712050 kJ/mol
# GULP energy per Si atom -5588.973823 kJ/mol
# Density = 1.999082 g / cm^3
# Si number density = 20.036425 Si / 1000 Ang^3
#
#
#
# Elastic Constant Matrix: (Units=GPa)
#
#
# Indices 1 2 3 4 5 6 
#
# 1 66.3214 0.3017 29.9266 -0.0004 -29.1970 0.0001
# 2 0.3017 80.8097 21.2694 0.0008 -15.2623 -0.0001
# 3 29.9266 21.2694 146.3637 0.0007 -46.8587 0.0004
# 4 -0.0004 0.0008 0.0007 20.7760 -0.0003 -0.1526
# 5 -29.1970 -15.2623 -46.8587 -0.0003 37.7322 0.0000
# 6 0.0001 -0.0001 0.0004 -0.1526 0.0000 15.9517
#
#
#
# Elastic Compliance Matrix: (Units=1/GPa)
#
#
# Indices 1 2 3 4 5 6 
#
# 1 0.024068 0.003660 0.001632 0.000001 0.022132 0.000000
# 2 0.003660 0.013966 -0.000104 0.000000 0.008353 0.000000
# 3 0.001632 -0.000104 0.011462 0.000000 0.015455 0.000000
# 4 0.000001 0.000000 0.000000 0.048136 0.000001 0.000460
# 5 0.022132 0.008353 0.015455 0.000001 0.066200 0.000000
# 6 0.000000 0.000000 0.000000 0.000460 0.000000 0.062694
#
#
# Mechanical properties :
#
#
# Convention : Reuss Voigt Hill
#
# Bulk Modulus (GPa) = 16.70190 44.05448 30.37819
# Shear Modulus (GPa) = 21.17708 31.02512 26.10110
#
# Velocity S-wave (km/s) = 3.25457 3.93929 3.61318
# Velocity P-wave (km/s) = 4.74098 6.53648 5.70975
#
# Compressibility (1/GPa) = 0.05987342
#
# Stress axis : x y z
#
# Youngs Moduli (GPa) = 41.54908 71.60271 87.24809
#
# Poissons Ratio (x) = -0.26210 -0.14243
# Poissons Ratio (y) = -0.15209 0.00906
# Poissons Ratio (z) = -0.06783 0.00744
#
# Static dielectric constant tensor:
#      x y z
#    x 1.696620 0.000000 -0.023640 
#    y 0.000000 1.681630 0.000000 
#    z -0.023640 0.000000 1.713490 
# 
# From -- ./inp_files/25982.got.cif
#   From: 2010.05.17/outbox.cif.g08.bks.cpg/sg8_13_cif.got.tgz:25982.got - 2010.06.03 19:46:02.
