data_PCOD9132891
_publ_section_title
;
Structure prediction by ZEFSAII (Michael W. Deem and Ramdas Pophale) SiO2 
 PCOD9132891
Probable space group: C M
;
_chemical_formula_sum "Si O2"
_cell_formula_units_Z 28
_cell_length_a 23.923163
_cell_length_b 10.085585
_cell_length_c 8.652301
_cell_angle_alpha 90.000000
_cell_angle_beta 35.926798
_cell_angle_gamma 90.000000
_cell_volume 1224.913072
_symmetry_space_group_name_H-M "C M"
_symmetry_group_IT_number 8
_symmetry_cell_setting 'monoclinic'
loop_
_space_group_symop_operation_xyz
x,y,z
x,-y,z
1/2+x,1/2+y,z
1/2+x,1/2-y,z
loop_
_atom_site_type_symbol
_atom_site_label
_atom_site_fract_x
_atom_site_fract_y
_atom_site_fract_z
Si Si1 0.511450 0.146915 0.924010
Si Si2 0.921507 0.354128 0.457558
Si Si3 0.126166 0.150729 0.472907
Si Si4 0.370057 0.641662 0.800603
Si Si5 0.157739 0.653773 0.130760
Si Si6 0.218565 0.844683 0.742913
Si Si7 0.815418 0.710050 0.207945
O O1 0.572697 0.269754 0.727834
O O2 0.557258 0.000000 0.805344
O O3 0.482126 0.168719 0.167192
O O4 0.413075 0.143570 0.045958
O O5 0.941093 0.500000 0.473091
O O6 0.928720 0.252828 0.580584
O O7 0.813303 0.355261 0.635990
O O8 0.238843 0.144286 0.263448
O O9 0.093373 0.000000 0.524515
O O10 0.112374 0.249123 0.359888
O O11 0.416192 0.500000 0.673446
O O12 0.267119 0.641611 0.946886
O O13 0.350835 0.667729 0.024344
O O14 0.125704 0.500000 0.193496
O O15 0.155705 0.738078 0.976654
O O16 0.254955 0.780903 0.501090
O O17 0.185633 0.000000 0.793809
#
# Coordination Sequence:
#
# PCOD9132891 Si02
#       7
#     4   4   4   4   4   4   4
#     4  10  21  39  60  84 114 150 190 233 281 337
#     4   8  16  31  53  78 107 145 188 230 278 335
#     4  11  22  37  59  87 115 148 189 234 282 335
#     4   9  18  31  52  82 114 147 187 233 280 329
#     4   9  18  33  52  78 113 151 186 228 281 335
#     4   9  16  30  54  81 106 141 189 235 276 329
#     4  10  21  37  60  86 115 150 189 231 282 338
#
# _framework density 22.858764999999998
#
# number of rings (size 3 to 8) (size 9 to 14) (size 15 to 20)
#    0.000    2.571    0.000    3.000    0.000    6.857 
#    0.000    4.286    0.000    3.429    0.000    0.000 
#    0.000    0.000    0.000    0.000    0.000    0.000 
#
# Total GULP energy -78072.416175 kJ/mol
# GULP energy per Si atom -5576.601155 kJ/mol
# Density = 2.280674 g / cm^3
# Si number density = 22.858765 Si / 1000 Ang^3
#
#
#
# Elastic Constant Matrix: (Units=GPa)
#
#
# Indices 1 2 3 4 5 6 
#
# 1 104.3854 32.8133 11.2928 0.0000 -10.5502 0.0000
# 2 32.8133 234.6791 108.7231 0.0000 39.7815 0.0000
# 3 11.2928 108.7231 69.2113 0.0000 19.8831 0.0000
# 4 0.0000 0.0000 0.0000 22.7520 0.0000 6.5831
# 5 -10.5502 39.7815 19.8831 0.0000 40.4708 0.0000
# 6 0.0000 0.0000 0.0000 6.5831 0.0000 -1.3252
#
#
#
# Elastic Compliance Matrix: (Units=1/GPa)
#
#
# Indices 1 2 3 4 5 6 
#
# 1 0.010923 -0.003265 0.001870 0.000000 0.005138 0.000000
# 2 -0.003265 0.017161 -0.024840 0.000000 -0.005515 0.000000
# 3 0.001870 -0.024840 0.053571 0.000000 -0.001414 0.000000
# 4 0.000000 0.000000 0.000000 0.018033 0.000000 0.089581
# 5 0.005138 -0.005515 -0.001414 0.000000 0.032165 0.000000
# 6 0.000000 0.000000 0.000000 0.089581 0.000000 -0.309607
#
#
# Mechanical properties :
#
#
# Convention : Reuss Voigt Hill
#
# Bulk Modulus (GPa) = 34.26398 79.32603 56.79500
# Shear Modulus (GPa) = -43.26888 29.40931 -6.92979
#
# Velocity S-wave (km/s) = -4.35544 3.59076 -1.74303
# Velocity P-wave (km/s) = 3.20487 7.20898 4.56608
#
# Compressibility (1/GPa) = 0.02918517
#
# Stress axis : x y z
#
# Youngs Moduli (GPa) = 91.54957 58.27260 18.66672
#
# Poissons Ratio (x) = 0.19023 -0.03491
# Poissons Ratio (y) = 0.29887 0.46369
# Poissons Ratio (z) = -0.17120 1.44752
#
# Static dielectric constant tensor:
#      x y z
#    x 1.902260 0.000000 -0.018450 
#    y 0.000000 1.841330 0.000000 
#    z -0.018450 0.000000 1.871370 
# 
# From -- ./inp_files/17403.got.cif
#   From: 2010.05.17/outbox.cif.g08.bks.cpg/sg8_9_cif.got.tgz:17403.got - 2010.06.03 19:46:02.
