data_PCOD9132463
_publ_section_title
;
Structure prediction by ZEFSAII (Michael W. Deem and Ramdas Pophale) SiO2 
 PCOD9132463
Probable space group: C M
;
_chemical_formula_sum "Si O2"
_cell_formula_units_Z 28
_cell_length_a 14.566167
_cell_length_b 13.936946
_cell_length_c 7.168521
_cell_angle_alpha 90.000000
_cell_angle_beta 53.987951
_cell_angle_gamma 90.000000
_cell_volume 1177.155236
_symmetry_space_group_name_H-M "C M"
_symmetry_group_IT_number 8
_symmetry_cell_setting 'monoclinic'
loop_
_space_group_symop_operation_xyz
x,y,z
x,-y,z
1/2+x,1/2+y,z
1/2+x,1/2-y,z
loop_
_atom_site_type_symbol
_atom_site_label
_atom_site_fract_x
_atom_site_fract_y
_atom_site_fract_z
Si Si1 0.720260 0.398746 0.819730
Si Si2 0.419768 0.394389 0.443401
Si Si3 0.461687 0.395786 0.979367
Si Si4 0.991692 0.315164 0.849526
Si Si5 0.753136 0.603855 0.222683
Si Si6 0.708452 0.811484 0.855610
Si Si7 0.596376 0.236244 0.373335
O O1 0.776463 0.500000 0.695566
O O2 0.764024 0.291988 0.730594
O O3 0.592661 0.398739 0.892943
O O4 0.718232 0.400258 0.046688
O O5 0.472697 0.500000 0.408941
O O6 0.393152 0.387062 0.254721
O O7 0.304740 0.386610 0.695516
O O8 0.503680 0.308643 0.396960
O O9 0.437655 0.500000 0.919679
O O10 0.449884 0.296376 0.885719
O O11 0.096220 0.323530 0.865587
O O12 0.036811 0.336070 0.587782
O O13 0.886363 0.374571 0.053455
O O14 0.728303 0.500000 0.337792
O O15 0.681567 0.692796 0.386237
O O16 0.667211 0.808614 0.118891
#
# Coordination Sequence:
#
# PCOD9132463 Si02
#       7
#     4   4   4   4   4   4   4
#     4   8  14  33  59  81 109 148 191 239 284 332
#     4  11  21  39  65  87 119 161 199 248 297 345
#     4   9  18  36  61  88 115 153 201 247 293 342
#     4  11  23  37  62  88 123 156 195 240 302 355
#     4  10  20  36  58  88 121 152 193 240 293 353
#     4  10  22  38  59  89 123 153 197 244 296 352
#     4  11  21  39  65  87 114 157 201 250 292 341
#
# _framework density 23.786155999999998
#
# number of rings (size 3 to 8) (size 9 to 14) (size 15 to 20)
#    0.000    2.000    4.286    2.143    2.000    1.714 
#    0.000    0.714    0.000    2.571    0.000    0.000 
#    0.000    0.000    0.000    0.000    0.000    0.000 
#
# Total GULP energy -78207.722909 kJ/mol
# GULP energy per Si atom -5586.265922 kJ/mol
# Density = 2.373202 g / cm^3
# Si number density = 23.786156 Si / 1000 Ang^3
#
#
#
# Elastic Constant Matrix: (Units=GPa)
#
#
# Indices 1 2 3 4 5 6 
#
# 1 45.9339 1.6045 28.2654 0.0000 -1.6155 0.0000
# 2 1.6045 44.7193 5.9821 0.0000 -5.9446 0.0000
# 3 28.2654 5.9821 103.0961 0.0000 -0.2630 0.0000
# 4 0.0000 0.0000 0.0000 19.6705 0.0000 -9.5158
# 5 -1.6155 -5.9446 -0.2630 0.0000 38.8077 0.0000
# 6 0.0000 0.0000 0.0000 -9.5158 0.0000 0.7793
#
#
#
# Elastic Compliance Matrix: (Units=1/GPa)
#
#
# Indices 1 2 3 4 5 6 
#
# 1 0.026232 0.000164 -0.007199 0.000000 0.001068 0.000000
# 2 0.000164 0.023007 -0.001371 0.000000 0.003522 0.000000
# 3 -0.007199 -0.001371 0.011752 0.000000 -0.000430 0.000000
# 4 0.000000 0.000000 0.000000 -0.010360 0.000000 -0.126502
# 5 0.001068 0.003522 -0.000430 0.000000 0.026349 0.000000
# 6 0.000000 0.000000 0.000000 -0.126502 0.000000 -0.261496
#
#
# Mechanical properties :
#
#
# Convention : Reuss Voigt Hill
#
# Bulk Modulus (GPa) = 22.63495 29.49482 26.06488
# Shear Modulus (GPa) = -32.68459 22.37797 -5.15331
#
# Velocity S-wave (km/s) = -3.71091 3.07057 -1.47351
# Velocity P-wave (km/s) = 2.97060 4.99981 2.84374
#
# Compressibility (1/GPa) = 0.04417947
#
# Stress axis : x y z
#
# Youngs Moduli (GPa) = 38.12143 43.46432 85.09359
#
# Poissons Ratio (x) = -0.00712 0.61256
# Poissons Ratio (y) = -0.00624 0.11665
# Poissons Ratio (z) = 0.27442 0.05958
#
# Static dielectric constant tensor:
#      x y z
#    x 1.912470 0.000000 0.029570 
#    y 0.000000 1.939090 0.000000 
#    z 0.029570 0.000000 1.903490 
# 
# From -- ./inp_files/15159.got.cif
#   From: 2010.05.17/outbox.cif.g08.bks.cpg/sg8_8_cif.got.tgz:15159.got - 2010.06.03 19:46:02.
