data_PCOD9132450
_publ_section_title
;
Structure prediction by ZEFSAII (Michael W. Deem and Ramdas Pophale) SiO2 
 PCOD9132450
Probable space group: C M
;
_chemical_formula_sum "Si O2"
_cell_formula_units_Z 32
_cell_length_a 15.473812
_cell_length_b 7.876643
_cell_length_c 23.507140
_cell_angle_alpha 90.000000
_cell_angle_beta 31.354308
_cell_angle_gamma 90.000000
_cell_volume 1490.788795
_symmetry_space_group_name_H-M "C M"
_symmetry_group_IT_number 8
_symmetry_cell_setting 'monoclinic'
loop_
_space_group_symop_operation_xyz
x,y,z
x,-y,z
1/2+x,1/2+y,z
1/2+x,1/2-y,z
loop_
_atom_site_type_symbol
_atom_site_label
_atom_site_fract_x
_atom_site_fract_y
_atom_site_fract_z
Si Si1 0.148400 0.705617 0.678090
Si Si2 0.791932 0.708483 0.027279
Si Si3 0.399274 0.192402 0.635798
Si Si4 0.771768 0.294504 0.910507
Si Si5 0.651822 0.197685 0.862671
Si Si6 0.940319 0.207853 0.436305
Si Si7 0.181027 0.194036 0.402829
Si Si8 0.515852 0.301741 0.268045
O O1 0.148528 0.500000 0.680398
O O2 0.251226 0.769629 0.674655
O O3 0.258147 0.758136 0.561931
O O4 0.959024 0.761396 0.788983
O O5 0.793379 0.500000 0.027553
O O6 0.666596 0.770307 0.146175
O O7 0.737871 0.757635 0.994242
O O8 0.980289 0.764763 0.933100
O O9 0.315503 0.218803 0.743783
O O10 0.553985 0.301179 0.527545
O O11 0.456774 0.000000 0.598315
O O12 0.765929 0.500000 0.911043
O O13 0.651760 0.222159 0.930125
O O14 0.663165 0.000000 0.841300
O O15 0.075043 0.260140 0.408424
O O16 0.983179 0.270667 0.349331
O O17 0.939758 0.000000 0.436388
O O18 0.347547 0.288638 0.326298
O O19 0.226100 0.000000 0.365179
O O20 0.554636 0.500000 0.255119
#
# Coordination Sequence:
#
# PCOD9132450 Si02
#       8
#     4   4   4   4   4   4   4   4
#     4   9  17  34  57  80 117 157 188 232 292 349
#     4   9  20  39  59  79 115 158 194 238 293 344
#     4  11  21  35  58  87 118 152 192 240 292 350
#     4  10  20  36  57  83 116 156 195 237 294 348
#     4  11  22  38  58  85 116 154 197 241 291 348
#     4   8  17  33  55  81 111 148 186 226 283 344
#     4  10  21  38  57  84 118 153 186 237 299 345
#     4  10  20  37  61  85 109 152 204 239 278 346
#
# _framework density 21.465146000000001
#
# number of rings (size 3 to 8) (size 9 to 14) (size 15 to 20)
#    0.000    2.250    1.250    2.625    1.750    1.500 
#    0.000    6.250    0.000    0.000    0.000    0.000 
#    0.000    0.000    0.000    0.000    0.000    0.000 
#
# Total GULP energy -89340.364631 kJ/mol
# GULP energy per Si atom -5583.772789 kJ/mol
# Density = 2.141629 g / cm^3
# Si number density = 21.465146 Si / 1000 Ang^3
#
#
#
# Elastic Constant Matrix: (Units=GPa)
#
#
# Indices 1 2 3 4 5 6 
#
# 1 60.2262 -3.7701 22.4492 0.0000 26.2397 0.0000
# 2 -3.7701 25.6540 0.5010 0.0000 4.4889 0.0000
# 3 22.4492 0.5010 93.2889 -0.0002 26.9935 0.0000
# 4 0.0000 0.0000 -0.0002 9.2499 0.0000 -2.3092
# 5 26.2397 4.4889 26.9935 0.0000 32.1088 0.0000
# 6 0.0000 0.0000 0.0000 -2.3092 0.0000 22.0152
#
#
#
# Elastic Compliance Matrix: (Units=1/GPa)
#
#
# Indices 1 2 3 4 5 6 
#
# 1 0.027347 0.008158 0.000227 0.000000 -0.023680 0.000000
# 2 0.008158 0.042635 0.001931 0.000000 -0.014251 0.000000
# 3 0.000227 0.001931 0.014253 0.000000 -0.012438 0.000000
# 4 0.000000 0.000000 0.000000 0.111016 0.000000 0.011645
# 5 -0.023680 -0.014251 -0.012438 0.000000 0.062945 0.000000
# 6 0.000000 0.000000 0.000000 0.011645 0.000000 0.046645
#
#
# Mechanical properties :
#
#
# Convention : Reuss Voigt Hill
#
# Bulk Modulus (GPa) = 9.53571 24.16991 16.85281
# Shear Modulus (GPa) = 15.66591 23.34071 19.50331
#
# Velocity S-wave (km/s) = 2.70447 3.30112 3.01758
# Velocity P-wave (km/s) = 3.76885 5.08078 4.47318
#
# Compressibility (1/GPa) = 0.10486896
#
# Stress axis : x y z
#
# Youngs Moduli (GPa) = 36.56705 23.45482 70.15854
#
# Poissons Ratio (x) = -0.19134 -0.01594
# Poissons Ratio (y) = -0.29831 -0.13551
# Poissons Ratio (z) = -0.00831 -0.04530
#
# Static dielectric constant tensor:
#      x y z
#    x 1.777250 0.000000 0.028370 
#    y 0.000000 1.777270 0.000000 
#    z 0.028370 0.000000 1.767060 
# 
# From -- ./inp_files/24356.got.cif
#   From: 2010.05.17/outbox.cif.g08.bks.cpg/sg8_13_cif.got.tgz:24356.got - 2010.06.03 19:46:02.
