data_PCOD9132828
_publ_section_title
;
Structure prediction by ZEFSAII (Michael W. Deem and Ramdas Pophale) SiO2 
 PCOD9132828
Probable space group: C M
;
_chemical_formula_sum "Si O2"
_cell_formula_units_Z 30
_cell_length_a 14.110128
_cell_length_b 9.808105
_cell_length_c 19.766167
_cell_angle_alpha 90.000000
_cell_angle_beta 26.638544
_cell_angle_gamma 90.000000
_cell_volume 1226.495239
_symmetry_space_group_name_H-M "C M"
_symmetry_group_IT_number 8
_symmetry_cell_setting 'monoclinic'
loop_
_space_group_symop_operation_xyz
x,y,z
x,-y,z
1/2+x,1/2+y,z
1/2+x,1/2-y,z
loop_
_atom_site_type_symbol
_atom_site_label
_atom_site_fract_x
_atom_site_fract_y
_atom_site_fract_z
Si Si1 0.393200 0.226277 0.099100
Si Si2 0.466097 0.159974 0.751141
Si Si3 0.905564 0.153931 0.531038
Si Si4 0.202463 0.646096 0.011890
Si Si5 0.237013 0.650522 0.377070
Si Si6 0.007392 0.657837 0.284321
Si Si7 0.253759 0.349853 0.780182
Si Si8 0.988058 0.000000 0.107749
O O1 0.491662 0.144668 0.099102
O O2 0.145159 0.245075 0.245067
O O3 0.472706 0.379925 0.060803
O O4 0.511977 0.166673 0.957952
O O5 0.717346 0.172359 0.598056
O O6 0.379723 0.233344 0.739668
O O7 0.407322 0.000000 0.794778
O O8 0.351283 0.237290 0.886422
O O9 0.787885 0.155331 0.679049
O O10 0.067604 0.277415 0.436765
O O11 0.998007 0.000000 0.464155
O O12 0.312656 0.500000 0.930332
O O13 0.141873 0.650351 0.128850
O O14 0.167102 0.500000 0.447078
O O15 0.300648 0.761135 0.392074
O O16 0.435709 0.614202 0.201754
O O17 0.975974 0.500000 0.327779
O O18 0.327999 0.500000 0.755656
#
# Coordination Sequence:
#
# PCOD9132828 Si02
#       8
#     4   4   4   4   4   4   4   2
#     4  11  20  38  62  89 124 154 198 242 308 358
#     4  10  21  36  61  88 118 157 200 244 306 354
#     4  10  22  45  63  85 121 163 205 248 296 357
#     4  10  21  36  55  88 125 154 195 251 297 358
#     4  10  23  42  62  83 119 158 208 247 295 348
#     4  11  22  36  59  87 116 160 203 242 303 357
#     4  10  23  40  61  94 125 157 198 248 301 360
#     4  10  22  42  58  92 118 160 200 254 292 368
#
# _framework density 24.45994
#
# number of rings (size 3 to 8) (size 9 to 14) (size 15 to 20)
#    0.400    1.333    2.000    2.800    3.733    3.200 
#    2.400    0.000    0.000    0.000    0.000    0.000 
#    0.000    0.000    0.000    0.000    0.000    0.000 
#
# Total GULP energy -83536.420164 kJ/mol
# GULP energy per Si atom -5569.094678 kJ/mol
# Density = 2.440427 g / cm^3
# Si number density = 24.459940 Si / 1000 Ang^3
#
#
#
# Elastic Constant Matrix: (Units=GPa)
#
#
# Indices 1 2 3 4 5 6 
#
# 1 64.3809 16.5803 10.9192 -0.0155 -8.0444 -0.0018
# 2 16.5803 166.8792 19.4917 -0.0159 -26.7659 -0.0059
# 3 10.9192 19.4917 39.6024 -0.0472 -0.2712 -0.0074
# 4 -0.0155 -0.0159 -0.0472 41.4718 0.0179 2.2560
# 5 -8.0444 -26.7659 -0.2712 0.0179 41.9909 0.0004
# 6 -0.0018 -0.0059 -0.0074 2.2560 0.0004 22.6922
#
#
#
# Elastic Compliance Matrix: (Units=1/GPa)
#
#
# Indices 1 2 3 4 5 6 
#
# 1 0.016782 -0.000735 -0.004247 0.000000 0.002719 0.000000
# 2 -0.000735 0.007155 -0.003289 -0.000003 0.004399 0.000001
# 3 -0.004247 -0.003289 0.028022 0.000030 -0.002729 0.000005
# 4 0.000000 -0.000003 0.000030 0.024244 -0.000012 -0.002410
# 5 0.002719 0.004399 -0.002729 -0.000012 0.027122 0.000001
# 6 0.000000 0.000001 0.000005 -0.002410 0.000001 0.044308
#
#
# Mechanical properties :
#
#
# Convention : Reuss Voigt Hill
#
# Bulk Modulus (GPa) = 28.23456 40.53833 34.38644
# Shear Modulus (GPa) = 28.41245 36.15573 32.28409
#
# Velocity S-wave (km/s) = 3.41191 3.84886 3.63695
# Velocity P-wave (km/s) = 5.20478 6.03000 5.63253
#
# Compressibility (1/GPa) = 0.03541759
#
# Stress axis : x y z
#
# Youngs Moduli (GPa) = 59.58811 139.76145 35.68637
#
# Poissons Ratio (x) = 0.10276 0.15155
# Poissons Ratio (y) = 0.04381 0.11736
# Poissons Ratio (z) = 0.25305 0.45964
#
# Static dielectric constant tensor:
#      x y z
#    x 1.943710 0.000000 -0.003530 
#    y 0.000000 1.975330 0.000010 
#    z -0.003530 0.000010 2.111900 
# 
# From -- ./inp_files/31943.got.cif
#   From: 2010.05.17/outbox.cif.g08.bks.cpg/sg8_16_cif.got.tgz:31943.got - 2010.06.03 19:46:02.
