data_PCOD9132452
_publ_section_title
;
Structure prediction by ZEFSAII (Michael W. Deem and Ramdas Pophale) SiO2 
 PCOD9132452
Probable space group: C M
;
_chemical_formula_sum "Si O2"
_cell_formula_units_Z 32
_cell_length_a 26.498911
_cell_length_b 13.331757
_cell_length_c 8.976251
_cell_angle_alpha 90.000000
_cell_angle_beta 152.267101
_cell_angle_gamma 90.000000
_cell_volume 1475.674105
_symmetry_space_group_name_H-M "C M"
_symmetry_group_IT_number 8
_symmetry_cell_setting 'monoclinic'
loop_
_space_group_symop_operation_xyz
x,y,z
x,-y,z
1/2+x,1/2+y,z
1/2+x,1/2-y,z
loop_
_atom_site_type_symbol
_atom_site_label
_atom_site_fract_x
_atom_site_fract_y
_atom_site_fract_z
Si Si1 0.304720 0.671658 0.837140
Si Si2 0.913760 0.882756 0.407593
Si Si3 0.103961 0.257672 0.786378
Si Si4 0.210252 0.383959 0.307400
Si Si5 0.310202 0.113919 0.278229
Si Si6 0.266301 0.889541 0.836889
Si Si7 0.537215 0.310363 0.318923
Si Si8 0.411771 0.270466 0.710893
O O1 0.210234 0.625249 0.487830
O O2 0.291994 0.792610 0.806121
O O3 0.313108 0.640290 0.033301
O O4 0.425236 0.641577 0.089643
O O5 0.903655 0.845928 0.550294
O O6 0.013317 0.817115 0.610063
O O7 0.935920 0.000000 0.459947
O O8 0.067694 0.275561 0.519835
O O9 0.123019 0.343819 0.958825
O O10 0.212479 0.190884 0.053341
O O11 0.233858 0.500000 0.334579
O O12 0.308365 0.306014 0.535189
O O13 0.404175 0.159599 0.624407
O O14 0.281831 0.000000 0.240459
O O15 0.336911 0.118175 0.172714
O O16 0.142782 0.880017 0.576601
O O17 0.280757 0.000000 0.807111
O O18 0.510737 0.278634 0.081948
#
# Coordination Sequence:
#
# PCOD9132452 Si02
#       8
#     4   4   4   4   4   4   4   4
#     4  10  21  39  61  91 123 156 203 254 301 362
#     4  11  21  35  58  87 117 150 197 252 299 348
#     4   9  20  37  57  86 113 150 198 250 292 356
#     4  10  21  39  59  81 117 162 195 240 308 363
#     4   9  17  35  60  83 114 153 190 238 306 358
#     4  10  20  37  65  92 118 158 202 249 304 358
#     4   9  21  38  58  82 124 158 192 248 303 352
#     4  10  20  36  57  86 116 151 196 245 292 361
#
# _framework density 21.685006000000001
#
# number of rings (size 3 to 8) (size 9 to 14) (size 15 to 20)
#    0.000    2.250    1.250    1.125    1.750    5.500 
#    0.000    9.375    0.000    1.500    0.000    0.000 
#    0.000    0.000    0.000    0.000    0.000    0.000 
#
# Total GULP energy -89083.255873 kJ/mol
# GULP energy per Si atom -5567.703492 kJ/mol
# Density = 2.163565 g / cm^3
# Si number density = 21.685006 Si / 1000 Ang^3
#
#
#
# Elastic Constant Matrix: (Units=GPa)
#
#
# Indices 1 2 3 4 5 6 
#
# 1 40.4035 12.2430 18.9810 0.0000 -15.6643 0.0000
# 2 12.2430 107.3434 29.5007 0.0000 -14.9193 0.0000
# 3 18.9810 29.5007 124.5945 0.0000 -50.9960 0.0000
# 4 0.0000 0.0000 0.0000 13.9672 0.0000 -4.4443
# 5 -15.6643 -14.9193 -50.9960 0.0000 42.0243 0.0000
# 6 0.0000 0.0000 0.0000 -4.4443 0.0000 16.4030
#
#
#
# Elastic Compliance Matrix: (Units=1/GPa)
#
#
# Indices 1 2 3 4 5 6 
#
# 1 0.029311 -0.001960 0.000369 0.000000 0.010677 0.000000
# 2 -0.001960 0.010134 -0.001842 0.000000 0.000631 0.000000
# 3 0.000369 -0.001842 0.016281 0.000000 0.019240 0.000000
# 4 0.000000 0.000000 0.000000 0.078351 0.000000 0.021229
# 5 0.010677 0.000631 0.019240 0.000000 0.051347 0.000000
# 6 0.000000 0.000000 0.000000 0.021229 0.000000 0.066716
#
#
# Mechanical properties :
#
#
# Convention : Reuss Voigt Hill
#
# Bulk Modulus (GPa) = 20.46763 43.75454 32.11109
# Shear Modulus (GPa) = 18.16244 28.58668 23.37456
#
# Velocity S-wave (km/s) = 2.89720 3.63474 3.28672
# Velocity P-wave (km/s) = 4.54431 6.15111 5.40773
#
# Compressibility (1/GPa) = 0.04885762
#
# Stress axis : x y z
#
# Youngs Moduli (GPa) = 34.11739 98.68216 61.42131
#
# Poissons Ratio (x) = 0.19346 -0.02267
# Poissons Ratio (y) = 0.06689 0.11316
# Poissons Ratio (z) = -0.01259 0.18181
#
# Static dielectric constant tensor:
#      x y z
#    x 1.912430 0.000000 -0.050450 
#    y 0.000000 1.754080 0.000000 
#    z -0.050450 0.000000 1.888140 
# 
# From -- ./inp_files/17819.got.cif
#   From: 2010.05.17/outbox.cif.g08.bks.cpg/sg8_9_cif.got.tgz:17819.got - 2010.06.03 19:46:02.
