data_PCOD9132644
_publ_section_title
;
Structure prediction by ZEFSAII (Michael W. Deem and Ramdas Pophale) SiO2 
 PCOD9132644
Probable space group: C M
;
_chemical_formula_sum "Si O2"
_cell_formula_units_Z 32
_cell_length_a 15.896112
_cell_length_b 16.639630
_cell_length_c 12.172980
_cell_angle_alpha 90.000000
_cell_angle_beta 152.439083
_cell_angle_gamma 90.000000
_cell_volume 1489.782737
_symmetry_space_group_name_H-M "C M"
_symmetry_group_IT_number 8
_symmetry_cell_setting 'monoclinic'
loop_
_space_group_symop_operation_xyz
x,y,z
x,-y,z
1/2+x,1/2+y,z
1/2+x,1/2-y,z
loop_
_atom_site_type_symbol
_atom_site_label
_atom_site_fract_x
_atom_site_fract_y
_atom_site_fract_z
Si Si1 0.693480 0.859517 0.164170
Si Si2 0.971043 0.404407 0.251238
Si Si3 0.803149 0.658986 0.458016
Si Si4 0.187917 0.409602 0.916355
Si Si5 0.830937 0.843733 0.550892
Si Si6 0.568407 0.594281 0.371421
Si Si7 0.708899 0.325369 0.113191
Si Si8 0.318070 0.902724 0.841859
O O1 0.701999 0.912611 0.065396
O O2 0.819695 0.881233 0.414767
O O3 0.724022 0.769779 0.153777
O O4 0.491413 0.865698 0.980682
O O5 0.965355 0.500000 0.264140
O O6 0.173598 0.380668 0.445901
O O7 0.885299 0.357596 0.253766
O O8 0.841557 0.384957 0.996608
O O9 0.779123 0.750769 0.467967
O O10 0.728162 0.605691 0.469812
O O11 0.701938 0.639385 0.228039
O O12 0.015650 0.643076 0.686964
O O13 0.162251 0.500000 0.842794
O O14 0.381149 0.371152 0.107694
O O15 0.027333 0.845899 0.834804
O O16 0.530788 0.500000 0.340532
O O17 0.639065 0.625749 0.570239
O O18 0.329573 0.000000 0.843258
#
# Coordination Sequence:
#
# PCOD9132644 Si02
#       8
#     4   4   4   4   4   4   4   4
#     4  10  20  38  62  93 125 161 208 259 314 366
#     4  10  24  42  62  91 125 167 212 261 318 373
#     4  11  23  41  63  91 130 168 207 257 317 377
#     4  11  22  37  62  95 127 162 208 260 312 368
#     4  10  23  42  64  91 123 166 210 260 314 372
#     4  10  21  35  60  94 124 163 208 256 310 367
#     4  11  24  42  63  93 126 167 211 253 317 385
#     4   9  17  37  64  92 126 160 206 266 318 364
#
# _framework density 21.479641999999998
#
# number of rings (size 3 to 8) (size 9 to 14) (size 15 to 20)
#    0.000    1.750    2.500    0.750    3.500    3.000 
#    0.000    3.750    0.000    0.000    0.000    0.000 
#    0.000    0.000    0.000    0.000    0.000    0.000 
#
# Total GULP energy -89335.784308 kJ/mol
# GULP energy per Si atom -5583.486519 kJ/mol
# Density = 2.143075 g / cm^3
# Si number density = 21.479642 Si / 1000 Ang^3
#
#
#
# Elastic Constant Matrix: (Units=GPa)
#
#
# Indices 1 2 3 4 5 6 
#
# 1 65.3781 12.5062 17.8693 0.0000 -6.2729 0.0000
# 2 12.5062 41.7327 1.8559 0.0000 -0.7381 0.0000
# 3 17.8693 1.8559 104.9758 0.0000 -7.9505 0.0000
# 4 0.0000 0.0000 0.0000 -3.5079 0.0000 16.8355
# 5 -6.2729 -0.7381 -7.9505 0.0000 27.4414 0.0000
# 6 0.0000 0.0000 0.0000 16.8355 0.0000 21.4070
#
#
#
# Elastic Compliance Matrix: (Units=1/GPa)
#
#
# Indices 1 2 3 4 5 6 
#
# 1 0.017261 -0.005002 -0.002619 0.000000 0.003053 0.000000
# 2 -0.005002 0.025438 0.000375 0.000000 -0.000351 0.000000
# 3 -0.002619 0.000375 0.010143 0.000000 0.002350 0.000000
# 4 0.000000 0.000000 0.000000 -0.059708 0.000000 0.046957
# 5 0.003053 -0.000351 0.002350 0.000000 0.037811 0.000000
# 6 0.000000 0.000000 0.000000 0.046957 0.000000 0.009784
#
#
# Mechanical properties :
#
#
# Convention : Reuss Voigt Hill
#
# Bulk Modulus (GPa) = 26.07487 30.72772 28.40129
# Shear Modulus (GPa) = 73.52492 21.05846 47.29169
#
# Velocity S-wave (km/s) = 5.85699 3.13452 4.69732
# Velocity P-wave (km/s) = 7.60952 5.23802 6.53229
#
# Compressibility (1/GPa) = 0.03835111
#
# Stress axis : x y z
#
# Youngs Moduli (GPa) = 57.93360 39.31100 98.58900
#
# Poissons Ratio (x) = 0.19664 0.25817
# Poissons Ratio (y) = 0.28980 -0.03699
# Poissons Ratio (z) = 0.15171 -0.01475
#
# Static dielectric constant tensor:
#      x y z
#    x 1.770280 0.000000 -0.008670 
#    y 0.000000 1.786460 0.000000 
#    z -0.008670 0.000000 1.821460 
# 
# From -- ./inp_files/22416.got.cif
#   From: 2010.05.17/outbox.cif.g08.bks.cpg/sg8_12_cif.got.tgz:22416.got - 2010.06.03 19:46:02.
