data_PCOD9132945
_publ_section_title
;
Structure prediction by ZEFSAII (Michael W. Deem and Ramdas Pophale) SiO2 
 PCOD9132945
Probable space group: C M
;
_chemical_formula_sum "Si O2"
_cell_formula_units_Z 32
_cell_length_a 24.989307
_cell_length_b 9.180267
_cell_length_c 24.188531
_cell_angle_alpha 90.000000
_cell_angle_beta 17.491269
_cell_angle_gamma 90.000000
_cell_volume 1667.826506
_symmetry_space_group_name_H-M "C M"
_symmetry_group_IT_number 8
_symmetry_cell_setting 'monoclinic'
loop_
_space_group_symop_operation_xyz
x,y,z
x,-y,z
1/2+x,1/2+y,z
1/2+x,1/2-y,z
loop_
_atom_site_type_symbol
_atom_site_label
_atom_site_fract_x
_atom_site_fract_y
_atom_site_fract_z
Si Si1 0.926470 0.327616 0.790180
Si Si2 0.532197 0.168085 0.055650
Si Si3 0.460298 0.667442 0.645466
Si Si4 0.235335 0.825930 0.545383
Si Si5 0.504097 0.673350 0.196171
Si Si6 0.224999 0.827014 0.682964
Si Si7 0.523026 0.672730 0.460647
Si Si8 0.418747 0.173128 0.044400
O O1 0.954547 0.500000 0.768304
O O2 0.993351 0.271816 0.664357
O O3 0.042890 0.239489 0.719289
O O4 0.714176 0.298871 0.001792
O O5 0.468479 0.262881 0.170088
O O6 0.472415 0.000000 0.121567
O O7 0.747181 0.168896 0.845266
O O8 0.473453 0.217756 0.052889
O O9 0.511273 0.500000 0.608599
O O10 0.545157 0.711393 0.503537
O O11 0.379175 0.751935 0.363526
O O12 0.273725 0.793128 0.571671
O O13 0.235556 0.000000 0.537421
O O14 0.475656 0.500000 0.225129
O O15 0.366840 0.758949 0.585236
O O16 0.035616 0.758925 0.885598
O O17 0.219429 0.000000 0.694823
O O18 0.480418 0.500000 0.502304
O O19 0.708549 0.695834 0.246837
O O20 0.455548 0.000000 0.003801
#
# Coordination Sequence:
#
# PCOD9132945 Si02
#       8
#     4   4   4   4   4   4   4   4
#     4  10  22  39  60  91 124 154 194 248 307 357
#     4   9  17  33  58  87 123 162 196 236 290 357
#     4   9  17  33  58  87 123 162 196 236 290 357
#     4  11  25  43  63  85 115 163 212 249 294 359
#     4  10  22  39  60  91 124 154 194 248 307 357
#     4  11  25  43  61  85 121 161 204 255 302 349
#     4  10  21  38  62  91 120 157 202 245 296 360
#     4  10  21  38  62  91 120 157 202 245 296 360
#
# _framework density 19.186648000000002
#
# number of rings (size 3 to 8) (size 9 to 14) (size 15 to 20)
#    0.000    2.000    1.250    1.500    1.750    6.000 
#    0.000    5.000    0.000    0.000    0.000    0.000 
#    0.000    0.000    0.000    0.000    0.000    0.000 
#
# Total GULP energy -89395.655580 kJ/mol
# GULP energy per Si atom -5587.228474 kJ/mol
# Density = 1.914298 g / cm^3
# Si number density = 19.186648 Si / 1000 Ang^3
#
#
#
# Elastic Constant Matrix: (Units=GPa)
#
#
# Indices 1 2 3 4 5 6 
#
# 1 47.6266 29.1950 17.2041 -0.0009 15.8701 -0.0001
# 2 29.1950 55.5238 34.0840 -0.0063 14.1708 -0.0001
# 3 17.2041 34.0840 65.1984 -0.0049 22.8907 0.0001
# 4 -0.0009 -0.0063 -0.0049 23.8447 0.0007 5.4215
# 5 15.8701 14.1708 22.8907 0.0007 26.3635 0.0000
# 6 -0.0001 -0.0001 0.0001 5.4215 0.0000 25.3311
#
#
#
# Elastic Compliance Matrix: (Units=1/GPa)
#
#
# Indices 1 2 3 4 5 6 
#
# 1 0.035520 -0.018043 0.005987 -0.000002 -0.016882 0.000000
# 2 -0.018043 0.035875 -0.015876 0.000006 0.005363 -0.000001
# 3 0.005987 -0.015876 0.029241 0.000003 -0.020459 -0.000001
# 4 -0.000002 0.000006 0.000003 0.044083 -0.000005 -0.009435
# 5 -0.016882 0.005363 -0.020459 -0.000005 0.062975 0.000001
# 6 0.000000 -0.000001 -0.000001 -0.009435 0.000001 0.041497
#
#
# Mechanical properties :
#
#
# Convention : Reuss Voigt Hill
#
# Bulk Modulus (GPa) = 22.33638 36.59056 29.46347
# Shear Modulus (GPa) = 15.62606 20.96557 18.29581
#
# Velocity S-wave (km/s) = 2.85691 3.30921 3.09134
# Velocity P-wave (km/s) = 4.74863 5.80633 5.30391
#
# Compressibility (1/GPa) = 0.04477002
#
# Stress axis : x y z
#
# Youngs Moduli (GPa) = 28.15327 27.87481 34.19887
#
# Poissons Ratio (x) = 0.50295 -0.20474
# Poissons Ratio (y) = 0.50798 0.54295
# Poissons Ratio (z) = -0.16855 0.44254
#
# Static dielectric constant tensor:
#      x y z
#    x 1.650590 0.000000 -0.009910 
#    y 0.000000 1.637630 0.000000 
#    z -0.009910 0.000000 1.683090 
# 
# From -- ./inp_files/32375.got.cif
#   From: 2010.05.17/outbox.cif.g08.bks.cpg/sg8_17_cif.got.tgz:32375.got - 2010.06.03 19:46:02.
