data_PCOD9132774
_publ_section_title
;
Structure prediction by ZEFSAII (Michael W. Deem and Ramdas Pophale) SiO2 
 PCOD9132774
Probable space group: C M
;
_chemical_formula_sum "Si O2"
_cell_formula_units_Z 28
_cell_length_a 8.087379
_cell_length_b 27.304280
_cell_length_c 7.747454
_cell_angle_alpha 90.000000
_cell_angle_beta 48.967389
_cell_angle_gamma 90.000000
_cell_volume 1290.513031
_symmetry_space_group_name_H-M "C M"
_symmetry_group_IT_number 8
_symmetry_cell_setting 'monoclinic'
loop_
_space_group_symop_operation_xyz
x,y,z
x,-y,z
1/2+x,1/2+y,z
1/2+x,1/2-y,z
loop_
_atom_site_type_symbol
_atom_site_label
_atom_site_fract_x
_atom_site_fract_y
_atom_site_fract_z
Si Si1 0.324660 0.446077 0.967930
Si Si2 0.253609 0.293202 0.550913
Si Si3 0.085445 0.352206 0.997174
Si Si4 0.226546 0.556248 0.443354
Si Si5 0.258539 0.900038 0.746298
Si Si6 0.440209 0.811505 0.441185
Si Si7 0.101280 0.867437 0.216224
O O1 0.264106 0.500000 0.942934
O O2 0.586771 0.440380 0.802254
O O3 0.239221 0.442056 0.224704
O O4 0.233360 0.399946 0.926541
O O5 0.283777 0.235289 0.543281
O O6 0.098098 0.306013 0.497324
O O7 0.489268 0.316998 0.348611
O O8 0.160482 0.319327 0.784949
O O9 0.838022 0.371039 0.138275
O O10 0.079489 0.318861 0.172660
O O11 0.252057 0.500000 0.478862
O O12 0.423169 0.590209 0.377147
O O13 0.987864 0.577178 0.652657
O O14 0.307519 0.861260 0.564113
O O15 0.145267 0.871331 0.981629
#
# Coordination Sequence:
#
# PCOD9132774 Si02
#       7
#     4   4   4   4   4   4   4
#     4  10  23  41  69 106 143 187 238 292 356 424
#     4  12  28  47  69 108 141 188 241 290 359 424
#     4  12  26  46  74 103 150 188 233 295 353 427
#     4  10  20  41  72 103 139 187 238 292 355 419
#     4  11  21  45  71 100 143 184 234 296 348 422
#     4  12  26  47  72 102 139 186 236 294 353 420
#     4  11  23  45  67 102 147 178 235 287 350 420
#
# _framework density 21.696798000000001
#
# number of rings (size 3 to 8) (size 9 to 14) (size 15 to 20)
#    0.000    0.857    4.286    2.143    6.000    2.286 
#    0.000    2.143    0.000    0.000    0.000    0.000 
#    0.000    0.000    0.000    0.000    0.000    0.000 
#
# Total GULP energy -78344.432797 kJ/mol
# GULP energy per Si atom -5596.030914 kJ/mol
# Density = 2.164742 g / cm^3
# Si number density = 21.696798 Si / 1000 Ang^3
#
#
#
# Elastic Constant Matrix: (Units=GPa)
#
#
# Indices 1 2 3 4 5 6 
#
# 1 65.4682 17.5276 37.3582 0.0000 12.0743 0.0000
# 2 17.5276 91.9836 23.5780 0.0000 10.1254 0.0000
# 3 37.3582 23.5780 103.2657 0.0000 7.4882 0.0000
# 4 0.0000 0.0000 0.0000 21.8962 0.0000 -9.2956
# 5 12.0743 10.1254 7.4882 0.0000 43.0779 0.0000
# 6 0.0000 0.0000 0.0000 -9.2956 0.0000 11.3230
#
#
#
# Elastic Compliance Matrix: (Units=1/GPa)
#
#
# Indices 1 2 3 4 5 6 
#
# 1 0.020288 -0.001707 -0.006650 0.000000 -0.004129 0.000000
# 2 -0.001707 0.011917 -0.001960 0.000000 -0.001982 0.000000
# 3 -0.006650 -0.001960 0.012526 0.000000 0.000147 0.000000
# 4 0.000000 0.000000 0.000000 0.070102 0.000000 0.057550
# 5 -0.004129 -0.001982 0.000147 0.000000 0.024811 0.000000
# 6 0.000000 0.000000 0.000000 0.057550 0.000000 0.135562
#
#
# Mechanical properties :
#
#
# Convention : Reuss Voigt Hill
#
# Bulk Modulus (GPa) = 41.49743 46.40499 43.95121
# Shear Modulus (GPa) = 16.45422 27.40968 21.93195
#
# Velocity S-wave (km/s) = 2.75684 3.55816 3.18282
# Velocity P-wave (km/s) = 5.41305 6.18991 5.81447
#
# Compressibility (1/GPa) = 0.02409788
#
# Stress axis : x y z
#
# Youngs Moduli (GPa) = 49.29010 83.91186 79.83098
#
# Poissons Ratio (x) = 0.14321 0.53091
# Poissons Ratio (y) = 0.08412 0.15646
# Poissons Ratio (z) = 0.32780 0.16445
#
# Static dielectric constant tensor:
#      x y z
#    x 1.812990 0.000000 0.006380 
#    y 0.000000 1.775640 0.000000 
#    z 0.006380 0.000000 1.793450 
# 
# From -- ./inp_files/9212.got.cif
#   From: 2010.05.17/outbox.cif.g08.bks.cpg/sg8_5_cif.got.tgz:9212.got - 2010.06.03 19:46:02.
