data_PCOD9132250
_publ_section_title
;
Structure prediction by ZEFSAII (Michael W. Deem and Ramdas Pophale) SiO2 
 PCOD9132250
Probable space group: C M
;
_chemical_formula_sum "Si O2"
_cell_formula_units_Z 32
_cell_length_a 21.408536
_cell_length_b 7.687466
_cell_length_c 25.983482
_cell_angle_alpha 90.000000
_cell_angle_beta 22.379946
_cell_angle_gamma 90.000000
_cell_volume 1628.184953
_symmetry_space_group_name_H-M "C M"
_symmetry_group_IT_number 8
_symmetry_cell_setting 'monoclinic'
loop_
_space_group_symop_operation_xyz
x,y,z
x,-y,z
1/2+x,1/2+y,z
1/2+x,1/2-y,z
loop_
_atom_site_type_symbol
_atom_site_label
_atom_site_fract_x
_atom_site_fract_y
_atom_site_fract_z
Si Si1 0.481230 0.708455 0.502790
Si Si2 0.348016 0.290907 0.221541
Si Si3 0.958114 0.795229 0.636018
Si Si4 0.184934 0.789859 0.919430
Si Si5 0.330874 0.787510 0.918094
Si Si6 0.989693 0.210513 0.223198
Si Si7 0.194863 0.296264 0.648319
Si Si8 0.736606 0.296522 0.500103
O O1 0.461271 0.500000 0.520377
O O2 0.666575 0.740612 0.343368
O O3 0.467504 0.778800 0.571530
O O4 0.339463 0.778388 0.573483
O O5 0.356247 0.500000 0.216654
O O6 0.388795 0.231492 0.248991
O O7 0.498064 0.231492 0.071196
O O8 0.780787 0.775497 0.796870
O O9 0.092011 0.720829 0.573906
O O10 0.996976 0.000000 0.602174
O O11 0.284384 0.736042 0.895116
O O12 0.186407 0.000000 0.916643
O O13 0.511217 0.722690 0.794996
O O14 0.332869 0.000000 0.916515
O O15 0.177865 0.735134 0.070317
O O16 0.901602 0.275848 0.341319
O O17 0.985813 0.000000 0.227144
O O18 0.181282 0.500000 0.671788
O O19 0.239483 0.284840 0.554149
O O20 0.703558 0.500000 0.533685
#
# Coordination Sequence:
#
# PCOD9132250 Si02
#       8
#     4   4   4   4   4   4   4   4
#     4  10  21  36  53  76 107 141 174 209 258 314
#     4   9  18  32  52  78 106 137 173 214 257 302
#     4  10  20  33  49  76 109 137 169 212 260 307
#     4   9  17  31  53  79 102 131 173 216 256 299
#     4   8  15  30  52  77 101 127 170 220 254 292
#     4   9  17  31  53  78 102 133 175 217 256 303
#     4  10  20  36  57  76 101 140 178 213 255 309
#     4  11  21  33  51  78 110 138 168 215 264 304
#
# _framework density 19.653787000000001
#
# number of rings (size 3 to 8) (size 9 to 14) (size 15 to 20)
#    0.000    2.500    2.500    1.875    0.000    2.000 
#    0.000    3.750    0.000    3.000    0.000    0.000 
#    0.000    0.000    0.000    0.000    0.000    0.000 
#
# Total GULP energy -89256.683801 kJ/mol
# GULP energy per Si atom -5578.542738 kJ/mol
# Density = 1.960905 g / cm^3
# Si number density = 19.653787 Si / 1000 Ang^3
#
#
#
# Elastic Constant Matrix: (Units=GPa)
#
#
# Indices 1 2 3 4 5 6 
#
# 1 93.1859 0.3694 69.9006 0.0006 -18.9637 0.0007
# 2 0.3694 32.3609 -8.4604 -0.0060 -6.6008 0.0009
# 3 69.9006 -8.4604 156.9659 -0.0028 -16.5703 0.0001
# 4 0.0006 -0.0060 -0.0028 24.8816 0.0012 7.2266
# 5 -18.9637 -6.6008 -16.5703 0.0012 30.1970 0.0008
# 6 0.0007 0.0009 0.0001 7.2266 0.0008 24.3345
#
#
#
# Elastic Compliance Matrix: (Units=1/GPa)
#
#
# Indices 1 2 3 4 5 6 
#
# 1 0.017452 -0.000633 -0.007073 -0.000002 0.006940 0.000000
# 2 -0.000633 0.033433 0.002986 0.000009 0.008550 -0.000004
# 3 -0.007073 0.002986 0.009852 0.000002 0.001617 -0.000001
# 4 -0.000002 0.000009 0.000002 0.043984 0.000001 -0.013062
# 5 0.006940 0.008550 0.001617 0.000001 0.040230 -0.000002
# 6 0.000000 -0.000004 -0.000001 -0.013062 -0.000002 0.044973
#
#
# Mechanical properties :
#
#
# Convention : Reuss Voigt Hill
#
# Bulk Modulus (GPa) = 19.49381 45.12577 32.30979
# Shear Modulus (GPa) = 23.09859 30.59618 26.84739
#
# Velocity S-wave (km/s) = 3.43195 3.94986 3.69998
# Velocity P-wave (km/s) = 5.06404 6.61906 5.89307
#
# Compressibility (1/GPa) = 0.05129833
#
# Stress axis : x y z
#
# Youngs Moduli (GPa) = 57.30073 29.91024 101.49860
#
# Poissons Ratio (x) = 0.01893 0.71792
# Poissons Ratio (y) = 0.03626 -0.30312
# Poissons Ratio (z) = 0.40530 -0.08932
#
# Static dielectric constant tensor:
#      x y z
#    x 1.672760 0.000000 -0.016000 
#    y 0.000000 1.729320 0.000000 
#    z -0.016000 0.000000 1.707880 
# 
# From -- ./inp_files/16221.got.cif
#   From: 2010.05.17/outbox.cif.g08.bks.cpg/sg8_9_cif.got.tgz:16221.got - 2010.06.03 19:46:02.
