data_PCOD9132030
_publ_section_title
;
Structure prediction by ZEFSAII (Michael W. Deem and Ramdas Pophale) SiO2 
 PCOD9132030
Probable space group: C M
;
_chemical_formula_sum "Si O2"
_cell_formula_units_Z 32
_cell_length_a 34.481374
_cell_length_b 8.087433
_cell_length_c 12.941278
_cell_angle_alpha 90.000000
_cell_angle_beta 26.104857
_cell_angle_gamma 90.000000
_cell_volume 1587.962338
_symmetry_space_group_name_H-M "C M"
_symmetry_group_IT_number 8
_symmetry_cell_setting 'monoclinic'
loop_
_space_group_symop_operation_xyz
x,y,z
x,-y,z
1/2+x,1/2+y,z
1/2+x,1/2-y,z
loop_
_atom_site_type_symbol
_atom_site_label
_atom_site_fract_x
_atom_site_fract_y
_atom_site_fract_z
Si Si1 0.511510 0.195333 0.342650
Si Si2 0.508430 0.303215 0.576803
Si Si3 0.204307 0.697442 0.827717
Si Si4 0.703412 0.299273 0.187837
Si Si5 0.141333 0.199621 0.555826
Si Si6 0.831650 0.699198 0.704418
Si Si7 0.256998 0.799625 0.472454
Si Si8 0.449191 0.802277 0.939751
O O1 0.484720 0.219431 0.526012
O O2 0.431386 0.263438 0.466400
O O3 0.518213 0.000000 0.305981
O O4 0.608022 0.266397 0.089962
O O5 0.503636 0.500000 0.575568
O O6 0.609839 0.257590 0.359530
O O7 0.454928 0.252816 0.806457
O O8 0.203064 0.500000 0.840314
O O9 0.276602 0.761069 0.734897
O O10 0.226884 0.743972 0.656991
O O11 0.708979 0.500000 0.177617
O O12 0.695935 0.241683 0.323955
O O13 0.779832 0.237490 0.929984
O O14 0.188903 0.257543 0.546275
O O15 0.038984 0.245368 0.782011
O O16 0.144464 0.000000 0.548006
O O17 0.835129 0.500000 0.705063
O O18 0.257592 0.000000 0.468778
O O19 0.357003 0.743279 0.208752
O O20 0.449330 0.000000 0.941632
#
# Coordination Sequence:
#
# PCOD9132030 Si02
#       8
#     4   4   4   4   4   4   4   4
#     4  10  22  37  58  87 116 151 193 242 293 340
#     4  10  19  34  58  87 120 155 190 233 287 349
#     4  11  24  41  58  84 121 152 192 251 295 331
#     4   8  15  30  56  84 112 148 187 228 272 336
#     4   9  19  37  59  87 118 152 195 235 285 347
#     4  10  20  37  61  85 114 157 197 231 284 355
#     4  10  23  41  63  84 111 159 204 234 280 356
#     4  10  21  37  59  88 118 150 192 242 290 340
#
# _framework density 20.151610999999999
#
# number of rings (size 3 to 8) (size 9 to 14) (size 15 to 20)
#    0.000    2.250    1.250    1.875    1.750    3.500 
#    0.000    3.750    0.000    0.000    0.000    0.000 
#    0.000    0.000    0.000    0.000    0.000    0.000 
#
# Total GULP energy -89305.513274 kJ/mol
# GULP energy per Si atom -5581.594580 kJ/mol
# Density = 2.010575 g / cm^3
# Si number density = 20.151611 Si / 1000 Ang^3
#
#
#
# Elastic Constant Matrix: (Units=GPa)
#
#
# Indices 1 2 3 4 5 6 
#
# 1 67.6200 -43.6747 88.3797 0.0000 -34.6581 0.0000
# 2 -43.6747 -8.2672 2.9976 0.0000 -18.1486 0.0000
# 3 88.3797 2.9976 75.3904 0.0000 -3.4169 0.0000
# 4 0.0000 0.0000 0.0000 19.8125 0.0000 2.9160
# 5 -34.6581 -18.1486 -3.4169 0.0000 17.1498 0.0000
# 6 0.0000 0.0000 0.0000 2.9160 0.0000 21.8251
#
#
#
# Elastic Compliance Matrix: (Units=1/GPa)
#
#
# Indices 1 2 3 4 5 6 
#
# 1 0.007155 -0.020747 -0.007974 0.000000 -0.009085 0.000000
# 2 -0.020747 0.023766 0.022822 0.000000 -0.012230 0.000000
# 3 -0.007974 0.022822 0.022271 0.000000 0.012473 0.000000
# 4 0.000000 0.000000 0.000000 0.051486 0.000000 -0.006879
# 5 -0.009085 -0.012230 0.012473 0.000000 0.029493 0.000000
# 6 0.000000 0.000000 0.000000 -0.006879 0.000000 0.046738
#
#
# Mechanical properties :
#
#
# Convention : Reuss Voigt Hill
#
# Bulk Modulus (GPa) = 24.15856 25.57206 24.86531
# Shear Modulus (GPa) = 24.21258 17.56020 20.88639
#
# Velocity S-wave (km/s) = 3.47006 2.95516 3.22291
# Velocity P-wave (km/s) = 5.29806 4.93572 5.12010
#
# Compressibility (1/GPa) = 0.04139319
#
# Stress axis : x y z
#
# Youngs Moduli (GPa) = 139.76460 42.07668 44.90241
#
# Poissons Ratio (x) = 0.87296 0.35807
# Poissons Ratio (y) = 2.89967 -1.02477
# Poissons Ratio (z) = 1.11454 -0.96028
#
# Static dielectric constant tensor:
#      x y z
#    x 1.695340 0.000000 -0.023730 
#    y 0.000000 1.712490 0.000000 
#    z -0.023730 0.000000 1.732920 
# 
# From -- ./inp_files/21521.got.cif
#   From: 2010.05.17/outbox.cif.g08.bks.cpg/sg8_11_cif.got.tgz:21521.got - 2010.06.03 19:46:02.
