data_PCOD9132431
_publ_section_title
;
Structure prediction by ZEFSAII (Michael W. Deem and Ramdas Pophale) SiO2 
 PCOD9132431
Probable space group: C M
;
_chemical_formula_sum "Si O2"
_cell_formula_units_Z 32
_cell_length_a 22.583460
_cell_length_b 8.510321
_cell_length_c 14.686646
_cell_angle_alpha 90.000000
_cell_angle_beta 29.916793
_cell_angle_gamma 90.000000
_cell_volume 1407.780086
_symmetry_space_group_name_H-M "C M"
_symmetry_group_IT_number 8
_symmetry_cell_setting 'monoclinic'
loop_
_space_group_symop_operation_xyz
x,y,z
x,-y,z
1/2+x,1/2+y,z
1/2+x,1/2-y,z
loop_
_atom_site_type_symbol
_atom_site_label
_atom_site_fract_x
_atom_site_fract_y
_atom_site_fract_z
Si Si1 0.663070 0.313910 0.774630
Si Si2 0.782183 0.308726 0.795632
Si Si3 0.435043 0.817148 0.979140
Si Si4 0.043799 0.312809 0.455477
Si Si5 0.901271 0.813244 0.371573
Si Si6 0.044283 0.816670 0.658532
Si Si7 0.146297 0.811593 0.145666
Si Si8 0.292935 0.682683 0.330195
O O1 0.633384 0.500000 0.810099
O O2 0.685943 0.264166 0.848623
O O3 0.560775 0.217942 0.861142
O O4 0.790749 0.282388 0.558776
O O5 0.782170 0.500000 0.796041
O O6 0.913935 0.257748 0.593478
O O7 0.749591 0.255359 0.940503
O O8 0.455533 0.763920 0.848151
O O9 0.405839 0.000000 0.020985
O O10 0.340266 0.725634 0.167411
O O11 0.048046 0.500000 0.450587
O O12 0.047349 0.253179 0.553386
O O13 0.139777 0.252019 0.256069
O O14 0.894397 0.794752 0.271309
O O15 0.024898 0.769033 0.253515
O O16 0.882434 0.000000 0.414320
O O17 0.179817 0.785145 0.509307
O O18 0.019259 0.000000 0.689804
O O19 0.152276 0.000000 0.142964
O O20 0.256745 0.500000 0.380746
#
# Coordination Sequence:
#
# PCOD9132431 Si02
#       8
#     4   4   4   4   4   4   4   4
#     4  11  20  36  63  93 127 167 208 254 311 375
#     4   9  20  38  62  90 123 164 205 250 308 368
#     4  12  25  42  64  95 130 168 209 257 313 378
#     4  11  23  42  63  88 121 161 210 264 314 371
#     4  10  20  35  61  93 129 164 201 253 316 376
#     4  12  26  45  66  91 122 165 215 267 318 373
#     4  10  20  38  62  90 124 163 204 251 310 377
#     4  11  23  42  67  96 128 166 208 258 316 378
#
# _framework density 22.730822
#
# number of rings (size 3 to 8) (size 9 to 14) (size 15 to 20)
#    0.000    1.250    2.500    4.125    0.000    3.500 
#    0.000    7.500    0.000    0.000    0.000    0.000 
#    0.000    0.000    0.000    0.000    0.000    0.000 
#
# Total GULP energy -89508.082785 kJ/mol
# GULP energy per Si atom -5594.255174 kJ/mol
# Density = 2.267909 g / cm^3
# Si number density = 22.730822 Si / 1000 Ang^3
#
#
#
# Elastic Constant Matrix: (Units=GPa)
#
#
# Indices 1 2 3 4 5 6 
#
# 1 72.4802 -4.9082 11.4609 0.0000 32.4278 0.0000
# 2 -4.9082 22.3763 8.5473 -0.0001 10.5228 0.0001
# 3 11.4609 8.5473 75.2643 0.0000 30.9564 0.0000
# 4 0.0000 -0.0001 0.0000 25.3619 0.0000 2.1079
# 5 32.4278 10.5228 30.9564 0.0000 43.6354 0.0000
# 6 0.0000 0.0001 0.0000 2.1079 0.0000 22.5234
#
#
#
# Elastic Compliance Matrix: (Units=1/GPa)
#
#
# Indices 1 2 3 4 5 6 
#
# 1 0.026313 0.016590 0.005362 0.000000 -0.027359 0.000000
# 2 0.016590 0.060922 0.002356 0.000000 -0.028692 0.000000
# 3 0.005362 0.002356 0.019874 0.000000 -0.018653 0.000000
# 4 0.000000 0.000000 0.000000 0.039738 0.000000 -0.003719
# 5 -0.027359 -0.028692 -0.018653 0.000000 0.063401 0.000000
# 6 0.000000 0.000000 0.000000 -0.003719 0.000000 0.044746
#
#
# Mechanical properties :
#
#
# Convention : Reuss Voigt Hill
#
# Bulk Modulus (GPa) = 6.42155 22.25787 14.33971
# Shear Modulus (GPa) = 19.35828 28.63885 23.99856
#
# Velocity S-wave (km/s) = 2.92144 3.55338 3.25279
# Velocity P-wave (km/s) = 3.76974 5.16222 4.51992
#
# Compressibility (1/GPa) = 0.15572574
#
# Stress axis : x y z
#
# Youngs Moduli (GPa) = 38.00393 16.41445 50.31634
#
# Poissons Ratio (x) = -0.27231 -0.26981
# Poissons Ratio (y) = -0.63047 -0.11856
# Poissons Ratio (z) = -0.20378 -0.03868
#
# Static dielectric constant tensor:
#      x y z
#    x 1.905950 0.000000 -0.010400 
#    y 0.000000 1.760860 0.000000 
#    z -0.010400 0.000000 1.858070 
# 
# From -- ./inp_files/26558.got.cif
#   From: 2010.05.17/outbox.cif.g08.bks.cpg/sg8_14_cif.got.tgz:26558.got - 2010.06.03 19:46:02.
