data_PCOD9132070
_publ_section_title
;
Structure prediction by ZEFSAII (Michael W. Deem and Ramdas Pophale) SiO2 
 PCOD9132070
Probable space group: C M
;
_chemical_formula_sum "Si O2"
_cell_formula_units_Z 32
_cell_length_a 23.066897
_cell_length_b 8.342461
_cell_length_c 28.343255
_cell_angle_alpha 90.000000
_cell_angle_beta 162.186666
_cell_angle_gamma 90.000000
_cell_volume 1668.539623
_symmetry_space_group_name_H-M "C M"
_symmetry_group_IT_number 8
_symmetry_cell_setting 'monoclinic'
loop_
_space_group_symop_operation_xyz
x,y,z
x,-y,z
1/2+x,1/2+y,z
1/2+x,1/2-y,z
loop_
_atom_site_type_symbol
_atom_site_label
_atom_site_fract_x
_atom_site_fract_y
_atom_site_fract_z
Si Si1 0.654550 0.194195 0.455800
Si Si2 0.162214 0.809689 0.208978
Si Si3 0.904032 0.194142 0.830444
Si Si4 0.731957 0.304183 0.156274
Si Si5 0.725278 0.688815 0.405494
Si Si6 0.973403 0.195511 0.776579
Si Si7 0.898956 0.309270 0.085386
Si Si8 0.986564 0.811629 0.527523
O O1 0.442647 0.248089 0.305071
O O2 0.710152 0.251917 0.447032
O O3 0.807358 0.248847 0.612928
O O4 0.654005 0.000000 0.455242
O O5 0.180289 0.753038 0.169257
O O6 0.357143 0.775972 0.388072
O O7 0.996631 0.728679 0.111134
O O8 0.128825 0.000000 0.183169
O O9 0.938408 0.246756 0.803223
O O10 0.701634 0.254928 0.691191
O O11 0.901107 0.000000 0.828514
O O12 0.074520 0.246849 0.996580
O O13 0.734006 0.500000 0.158103
O O14 0.758182 0.500000 0.429465
O O15 0.530748 0.728742 0.227101
O O16 0.890031 0.772946 0.502875
O O17 0.970928 0.000000 0.774492
O O18 0.182093 0.244774 0.921172
O O19 0.905883 0.500000 0.098900
O O20 0.973356 0.000000 0.508444
#
# Coordination Sequence:
#
# PCOD9132070 Si02
#       8
#     4   4   4   4   4   4   4   4
#     4  10  19  36  58  82 109 143 183 225 267 320
#     4  10  19  35  57  83 111 145 182 222 267 320
#     4  10  19  36  58  82 109 143 183 225 267 320
#     4   9  19  34  58  84 110 144 183 221 268 323
#     4  11  22  37  56  81 109 144 182 224 272 323
#     4   9  19  34  58  84 110 144 183 221 268 323
#     4  10  19  35  57  83 111 145 182 222 267 320
#     4  11  22  37  56  81 109 144 182 224 272 323
#
# _framework density 19.178446999999998
#
# number of rings (size 3 to 8) (size 9 to 14) (size 15 to 20)
#    0.000    2.000    0.000    6.000    0.000    5.000 
#    0.000   11.250    0.000    0.000    0.000    0.000 
#    0.000    0.000    0.000    0.000    0.000    0.000 
#
# Total GULP energy -89383.384489 kJ/mol
# GULP energy per Si atom -5586.461531 kJ/mol
# Density = 1.913480 g / cm^3
# Si number density = 19.178447 Si / 1000 Ang^3
#
#
#
# Elastic Constant Matrix: (Units=GPa)
#
#
# Indices 1 2 3 4 5 6 
#
# 1 155.4457 -10.3778 90.1218 -0.0024 -14.4827 -0.0001
# 2 -10.3778 13.5776 -7.0881 -0.0001 -0.8090 -0.0006
# 3 90.1218 -7.0881 159.6124 0.0119 13.7769 0.0028
# 4 -0.0024 -0.0001 0.0119 20.4334 0.0039 4.7462
# 5 -14.4827 -0.8090 13.7769 0.0039 24.4253 -0.0019
# 6 -0.0001 -0.0006 0.0028 4.7462 -0.0019 27.4330
#
#
#
# Elastic Compliance Matrix: (Units=1/GPa)
#
#
# Indices 1 2 3 4 5 6 
#
# 1 0.012503 0.006189 -0.007823 0.000003 0.012031 0.000001
# 2 0.006189 0.078472 -0.000579 0.000000 0.006595 0.000002
# 3 -0.007823 -0.000579 0.011625 -0.000005 -0.011214 -0.000001
# 4 0.000003 0.000000 -0.000005 0.050989 -0.000004 -0.008822
# 5 0.012031 0.006595 -0.011214 -0.000004 0.054618 0.000006
# 6 0.000001 0.000002 -0.000001 -0.008822 0.000006 0.037979
#
#
# Mechanical properties :
#
#
# Convention : Reuss Voigt Hill
#
# Bulk Modulus (GPa) = 10.18610 52.66083 31.42347
# Shear Modulus (GPa) = 17.64698 31.52368 24.58533
#
# Velocity S-wave (km/s) = 3.03668 4.05866 3.58428
# Velocity P-wave (km/s) = 4.19738 7.03431 5.79222
#
# Compressibility (1/GPa) = 0.09817300
#
# Stress axis : x y z
#
# Youngs Moduli (GPa) = 79.98298 12.74346 86.02517
#
# Poissons Ratio (x) = -0.07887 0.67297
# Poissons Ratio (y) = -0.49502 0.04980
# Poissons Ratio (z) = 0.62570 0.00738
#
# Static dielectric constant tensor:
#      x y z
#    x 1.645180 0.000000 0.000760 
#    y 0.000000 1.664380 0.000000 
#    z 0.000760 0.000000 1.643140 
# 
# From -- ./inp_files/33060.got.cif
#   From: 2010.05.17/outbox.cif.g08.bks.cpg/sg8_17_cif.got.tgz:33060.got - 2010.06.03 19:46:02.
