data_PCOD9132204
_publ_section_title
;
Structure prediction by ZEFSAII (Michael W. Deem and Ramdas Pophale) SiO2 
 PCOD9132204
Probable space group: C M
;
_chemical_formula_sum "Si O2"
_cell_formula_units_Z 26
_cell_length_a 14.175792
_cell_length_b 7.585828
_cell_length_c 11.993049
_cell_angle_alpha 90.000000
_cell_angle_beta 64.759896
_cell_angle_gamma 90.000000
_cell_volume 1166.547251
_symmetry_space_group_name_H-M "C M"
_symmetry_group_IT_number 8
_symmetry_cell_setting 'monoclinic'
loop_
_space_group_symop_operation_xyz
x,y,z
x,-y,z
1/2+x,1/2+y,z
1/2+x,1/2-y,z
loop_
_atom_site_type_symbol
_atom_site_label
_atom_site_fract_x
_atom_site_fract_y
_atom_site_fract_z
Si Si1 0.034790 0.204984 0.166050
Si Si2 0.881500 0.712578 0.677691
Si Si3 0.678530 0.500000 0.282851
Si Si4 0.176102 0.795835 0.898400
Si Si5 0.829303 0.804163 0.113332
Si Si6 0.981910 0.710766 0.848736
Si Si7 0.029270 0.699607 0.416519
O O1 0.013075 0.301581 0.291254
O O2 0.930658 0.201235 0.144407
O O3 0.063123 0.000000 0.190400
O O4 0.125596 0.275642 0.038927
O O5 0.867506 0.500000 0.681455
O O6 0.774348 0.783922 0.784401
O O7 0.968837 0.753721 0.726191
O O8 0.925755 0.760505 0.535097
O O9 0.750155 0.654774 0.186520
O O10 0.618017 0.343554 0.385716
O O11 0.080967 0.792060 0.859189
O O12 0.199786 0.000000 0.914353
O O13 0.783811 0.000000 0.144286
O O14 0.879193 0.772555 0.966817
O O15 0.988684 0.500000 0.858159
O O16 0.054647 0.500000 0.440829
#
# Coordination Sequence:
#
# PCOD9132204 Si02
#       7
#     4   4   2   4   4   4   4
#     4   9  19  38  65  94 128 160 209 267 310 374
#     4   9  21  41  62  87 129 171 208 260 314 374
#     4  12  24  42  64  92 128 166 216 260 322 382
#     4   9  19  38  64  91 121 166 211 260 318 371
#     4  10  22  40  65  98 127 161 209 269 322 371
#     4  10  19  37  64  93 131 160 209 265 313 377
#     4  11  24  42  63  92 131 168 212 263 316 379
#
# _framework density 22.287994000000001
#
# number of rings (size 3 to 8) (size 9 to 14) (size 15 to 20)
#    0.000    2.154    1.538    1.846    3.231    0.615 
#    6.923    0.000    0.000    0.000    0.000    0.000 
#    0.000    0.000    0.000    0.000    0.000    0.000 
#
# Total GULP energy -72375.511332 kJ/mol
# GULP energy per Si atom -5567.347026 kJ/mol
# Density = 2.223727 g / cm^3
# Si number density = 22.287994 Si / 1000 Ang^3
#
#
#
# Elastic Constant Matrix: (Units=GPa)
#
#
# Indices 1 2 3 4 5 6 
#
# 1 31.9899 22.5876 56.8082 0.0000 -12.1330 0.0000
# 2 22.5876 129.1442 29.6452 0.0000 -13.9830 0.0000
# 3 56.8082 29.6452 191.2729 0.0000 -26.5379 0.0000
# 4 0.0000 0.0000 0.0000 24.1356 0.0000 -1.1736
# 5 -12.1330 -13.9830 -26.5379 0.0000 21.4855 0.0000
# 6 0.0000 0.0000 0.0000 -1.1736 0.0000 30.5171
#
#
#
# Elastic Compliance Matrix: (Units=1/GPa)
#
#
# Indices 1 2 3 4 5 6 
#
# 1 0.076885 -0.007378 -0.019712 0.000000 0.014269 0.000000
# 2 -0.007378 0.009106 0.001236 0.000000 0.003286 0.000000
# 3 -0.019712 0.001236 0.011414 0.000000 0.003771 0.000000
# 4 0.000000 0.000000 0.000000 0.041510 0.000000 0.001596
# 5 0.014269 0.003286 0.003771 0.000000 0.061398 0.000000
# 6 0.000000 0.000000 0.000000 0.001596 0.000000 0.032830
#
#
# Mechanical properties :
#
#
# Convention : Reuss Voigt Hill
#
# Bulk Modulus (GPa) = 21.88264 63.38766 42.63515
# Shear Modulus (GPa) = 16.66204 31.45206 24.05705
#
# Velocity S-wave (km/s) = 2.73716 3.76062 3.28894
# Velocity P-wave (km/s) = 4.45295 6.88174 5.79600
#
# Compressibility (1/GPa) = 0.04569833
#
# Stress axis : x y z
#
# Youngs Moduli (GPa) = 13.00636 109.82030 87.60969
#
# Poissons Ratio (x) = 0.81021 1.72695
# Poissons Ratio (y) = 0.09596 -0.10827
# Poissons Ratio (z) = 0.25638 -0.13572
#
# Static dielectric constant tensor:
#      x y z
#    x 2.219040 0.000000 0.126670 
#    y 0.000000 1.836050 0.000000 
#    z 0.126670 0.000000 1.845620 
# 
# From -- ./inp_files/21261.got.cif
#   From: 2010.05.17/outbox.cif.g08.bks.cpg/sg8_11_cif.got.tgz:21261.got - 2010.06.03 19:46:02.
