data_PCOD9132675
_publ_section_title
;
Structure prediction by ZEFSAII (Michael W. Deem and Ramdas Pophale) SiO2 
 PCOD9132675
Probable space group: C M
;
_chemical_formula_sum "Si O2"
_cell_formula_units_Z 28
_cell_length_a 9.717396
_cell_length_b 20.581229
_cell_length_c 15.515944
_cell_angle_alpha 90.000000
_cell_angle_beta 154.060932
_cell_angle_gamma 90.000000
_cell_volume 1357.354056
_symmetry_space_group_name_H-M "C M"
_symmetry_group_IT_number 8
_symmetry_cell_setting 'monoclinic'
loop_
_space_group_symop_operation_xyz
x,y,z
x,-y,z
1/2+x,1/2+y,z
1/2+x,1/2-y,z
loop_
_atom_site_type_symbol
_atom_site_label
_atom_site_fract_x
_atom_site_fract_y
_atom_site_fract_z
Si Si1 0.441200 0.423380 0.344430
Si Si2 0.239772 0.924951 0.001165
Si Si3 0.309997 0.574053 0.589567
Si Si4 0.797247 0.423115 0.721204
Si Si5 0.743901 0.805125 0.983904
Si Si6 0.798230 0.345299 0.401581
Si Si7 0.833905 0.192498 0.834528
O O1 0.413951 0.500000 0.310723
O O2 0.693220 0.415294 0.563407
O O3 0.565579 0.387773 0.330189
O O4 0.097741 0.403076 0.185828
O O5 0.239323 0.000000 0.033673
O O6 0.064445 0.925675 0.810175
O O7 0.037975 0.874315 0.943396
O O8 0.208925 0.500000 0.516853
O O9 0.497405 0.596624 0.610899
O O10 0.017420 0.614038 0.459969
O O11 0.858199 0.500000 0.771825
O O12 0.085093 0.376229 0.904925
O O13 0.755514 0.793619 0.888754
O O14 0.533292 0.751189 0.909380
O O15 0.081108 0.801495 0.219353
O O16 0.032613 0.313525 0.602743
#
# Coordination Sequence:
#
# PCOD9132675 Si02
#       7
#     4   4   4   4   4   4   4
#     4  10  20  38  67 102 138 175 218 276 336 392
#     4   9  20  40  68  94 130 175 220 273 334 392
#     4   9  19  37  63  98 132 167 216 271 327 393
#     4  10  22  41  67 101 139 174 221 278 329 396
#     4  12  28  46  69  98 134 180 224 276 338 399
#     4  11  24  43  69  95 130 180 223 278 328 395
#     4  11  28  47  65 100 134 173 226 282 334 397
#
# _framework density 20.628367999999998
#
# number of rings (size 3 to 8) (size 9 to 14) (size 15 to 20)
#    0.000    1.714    1.429    1.286    8.000    5.714 
#    0.000    0.000    0.000    0.000    0.000    0.000 
#    0.000    0.000    0.000    0.000    0.000    0.000 
#
# Total GULP energy -78229.073534 kJ/mol
# GULP energy per Si atom -5587.790967 kJ/mol
# Density = 2.058142 g / cm^3
# Si number density = 20.628368 Si / 1000 Ang^3
#
#
#
# Elastic Constant Matrix: (Units=GPa)
#
#
# Indices 1 2 3 4 5 6 
#
# 1 103.8678 32.7369 24.6348 -0.0220 -5.4724 0.0476
# 2 32.7369 56.4763 39.7521 0.0083 2.2111 0.0449
# 3 24.6348 39.7521 115.4881 0.1058 11.6238 0.0939
# 4 -0.0220 0.0083 0.1058 12.9273 0.0126 21.8682
# 5 -5.4724 2.2111 11.6238 0.0126 17.2554 -0.0147
# 6 0.0476 0.0449 0.0939 21.8682 -0.0147 20.7681
#
#
#
# Elastic Compliance Matrix: (Units=1/GPa)
#
#
# Indices 1 2 3 4 5 6 
#
# 1 0.012216 -0.006704 -0.000831 -0.000047 0.005293 0.000044
# 2 -0.006704 0.027156 -0.007888 -0.000063 -0.000292 0.000059
# 3 -0.000831 -0.007888 0.012311 0.000024 -0.007546 -0.000067
# 4 -0.000047 -0.000063 0.000024 -0.099016 0.000138 0.104261
# 5 0.005293 -0.000292 -0.007546 0.000138 0.064752 -0.000077
# 6 0.000044 0.000059 -0.000067 0.104261 -0.000077 -0.061633
#
#
# Mechanical properties :
#
#
# Convention : Reuss Voigt Hill
#
# Bulk Modulus (GPa) = 47.99004 52.23105 50.11054
# Shear Modulus (GPa) = -778.48194 22.10406 -378.18894
#
# Velocity S-wave (km/s) = -19.44745 3.27699 -13.55479
# Velocity P-wave (km/s) = 21.93072 6.30025 14.85368
#
# Compressibility (1/GPa) = 0.02083766
#
# Stress axis : x y z
#
# Youngs Moduli (GPa) = 81.85688 36.82456 81.22919
#
# Poissons Ratio (x) = 0.24685 0.06752
# Poissons Ratio (y) = 0.54873 0.64073
# Poissons Ratio (z) = 0.06804 0.29047
#
# Static dielectric constant tensor:
#      x y z
#    x 1.707110 -0.000040 0.016860 
#    y -0.000040 1.723250 -0.000030 
#    z 0.016860 -0.000030 1.743210 
# 
# From -- ./inp_files/13747.got.cif
#   From: 2010.05.17/outbox.cif.g08.bks.cpg/sg8_7_cif.got.tgz:13747.got - 2010.06.03 19:46:02.
