data_PCOD9132400
_publ_section_title
;
Structure prediction by ZEFSAII (Michael W. Deem and Ramdas Pophale) SiO2 
 PCOD9132400
Probable space group: C M
;
_chemical_formula_sum "Si O2"
_cell_formula_units_Z 32
_cell_length_a 20.887548
_cell_length_b 8.849322
_cell_length_c 12.423294
_cell_angle_alpha 90.000000
_cell_angle_beta 52.513822
_cell_angle_gamma 90.000000
_cell_volume 1822.137930
_symmetry_space_group_name_H-M "C M"
_symmetry_group_IT_number 8
_symmetry_cell_setting 'monoclinic'
loop_
_space_group_symop_operation_xyz
x,y,z
x,-y,z
1/2+x,1/2+y,z
1/2+x,1/2-y,z
loop_
_atom_site_type_symbol
_atom_site_label
_atom_site_fract_x
_atom_site_fract_y
_atom_site_fract_z
Si Si1 0.668070 0.180802 0.953270
Si Si2 0.844537 0.320048 0.803661
Si Si3 0.104880 0.819191 0.796466
Si Si4 0.901108 0.179522 0.528723
Si Si5 0.011866 0.319495 0.241928
Si Si6 0.420189 0.319716 0.939286
Si Si7 0.765517 0.319399 0.514844
Si Si8 0.372906 0.819849 0.209491
O O1 0.753363 0.259439 0.884499
O O2 0.631340 0.234240 0.877336
O O3 0.678515 0.000000 0.941252
O O4 0.601657 0.219226 0.112056
O O5 0.844649 0.500000 0.798574
O O6 0.894805 0.253855 0.651957
O O7 0.880834 0.261667 0.878164
O O8 0.173010 0.787670 0.637176
O O9 0.014826 0.778532 0.853522
O O10 0.106271 0.000000 0.816279
O O11 0.823009 0.235206 0.540840
O O12 0.977267 0.234740 0.380808
O O13 0.900161 0.000000 0.538886
O O14 0.006844 0.500000 0.265445
O O15 0.950863 0.286405 0.204917
O O16 0.414075 0.500000 0.932243
O O17 0.378732 0.269004 0.092935
O O18 0.779425 0.500000 0.514876
O O19 0.796774 0.282125 0.363520
O O20 0.372860 0.000000 0.188126
#
# Coordination Sequence:
#
# PCOD9132400 Si02
#       8
#     4   4   4   4   4   4   4   4
#     4  11  21  36  60  89 117 147 192 243 285 339
#     4  12  25  41  59  80 115 159 197 237 295 349
#     4  10  20  35  58  86 116 151 190 236 285 337
#     4  11  21  34  56  86 116 149 192 239 285 338
#     4   9  19  35  57  85 118 151 185 232 288 343
#     4  11  23  38  57  84 116 151 195 241 286 341
#     4   9  18  34  56  83 115 151 188 232 284 339
#     4   9  17  33  55  81 113 151 189 226 284 346
#
# _framework density 17.561788
#
# number of rings (size 3 to 8) (size 9 to 14) (size 15 to 20)
#    0.000    1.750    2.500    3.750    0.000    3.500 
#    0.000    1.250    0.000    4.500    0.000    0.000 
#    0.000    0.000    0.000    0.000    0.000    0.000 
#
# Total GULP energy -89351.010997 kJ/mol
# GULP energy per Si atom -5584.438187 kJ/mol
# Density = 1.752182 g / cm^3
# Si number density = 17.561788 Si / 1000 Ang^3
#
#
#
# Elastic Constant Matrix: (Units=GPa)
#
#
# Indices 1 2 3 4 5 6 
#
# 1 83.8172 54.1578 65.2246 0.0000 7.1870 0.0000
# 2 54.1578 82.9833 71.9821 0.0000 5.2855 0.0000
# 3 65.2246 71.9821 157.8128 0.0000 4.4780 0.0000
# 4 0.0000 0.0000 0.0000 30.8170 0.0000 1.4108
# 5 7.1870 5.2855 4.4780 0.0000 21.4277 0.0000
# 6 0.0000 0.0000 0.0000 1.4108 0.0000 23.5902
#
#
#
# Elastic Compliance Matrix: (Units=1/GPa)
#
#
# Indices 1 2 3 4 5 6 
#
# 1 0.022567 -0.010723 -0.004322 0.000000 -0.004021 0.000000
# 2 -0.010723 0.025233 -0.007045 0.000000 -0.001155 0.000000
# 3 -0.004322 -0.007045 0.011313 0.000000 0.000823 0.000000
# 4 0.000000 0.000000 0.000000 0.032539 0.000000 -0.001946
# 5 -0.004021 -0.001155 0.000823 0.000000 0.048130 0.000000
# 6 0.000000 0.000000 0.000000 -0.001946 0.000000 0.042507
#
#
# Mechanical properties :
#
#
# Convention : Reuss Voigt Hill
#
# Bulk Modulus (GPa) = 66.96256 78.59360 72.77808
# Shear Modulus (GPa) = 21.60317 24.05024 22.82671
#
# Velocity S-wave (km/s) = 3.51112 3.70464 3.60918
# Velocity P-wave (km/s) = 7.39255 7.94663 7.67459
#
# Compressibility (1/GPa) = 0.01493372
#
# Stress axis : x y z
#
# Youngs Moduli (GPa) = 44.31154 39.63002 88.39460
#
# Poissons Ratio (x) = 0.42496 0.38205
# Poissons Ratio (y) = 0.47516 0.62273
# Poissons Ratio (z) = 0.19152 0.27919
#
# Static dielectric constant tensor:
#      x y z
#    x 1.562450 0.000000 -0.017130 
#    y 0.000000 1.587240 0.000000 
#    z -0.017130 0.000000 1.609300 
# 
# From -- ./inp_files/23864.got.cif
#   From: 2010.05.17/outbox.cif.g08.bks.cpg/sg8_12_cif.got.tgz:23864.got - 2010.06.03 19:46:02.
