data_PCOD9132074
_publ_section_title
;
Structure prediction by ZEFSAII (Michael W. Deem and Ramdas Pophale) SiO2 
 PCOD9132074
Probable space group: C M
;
_chemical_formula_sum "Si O2"
_cell_formula_units_Z 28
_cell_length_a 15.017458
_cell_length_b 17.164555
_cell_length_c 7.364351
_cell_angle_alpha 90.000000
_cell_angle_beta 46.546086
_cell_angle_gamma 90.000000
_cell_volume 1378.024352
_symmetry_space_group_name_H-M "C M"
_symmetry_group_IT_number 8
_symmetry_cell_setting 'monoclinic'
loop_
_space_group_symop_operation_xyz
x,y,z
x,-y,z
1/2+x,1/2+y,z
1/2+x,1/2-y,z
loop_
_atom_site_type_symbol
_atom_site_label
_atom_site_fract_x
_atom_site_fract_y
_atom_site_fract_z
Si Si1 0.812210 0.911563 0.664970
Si Si2 0.432707 0.365333 0.835085
Si Si3 0.003450 0.844974 0.128439
Si Si4 0.391561 0.817626 0.855050
Si Si5 0.106988 0.697011 0.798655
Si Si6 0.710688 0.341814 0.431250
Si Si7 0.777481 0.590474 0.698821
O O1 0.842045 0.912365 0.836490
O O2 0.692877 0.862177 0.782621
O O3 0.925672 0.866089 0.411954
O O4 0.806066 0.000000 0.605758
O O5 0.532848 0.254479 0.040372
O O6 0.426138 0.373876 0.061132
O O7 0.407519 0.275185 0.820335
O O8 0.136110 0.886339 0.943351
O O9 0.076735 0.879991 0.593878
O O10 0.277924 0.833345 0.147979
O O11 0.364752 0.857458 0.701900
O O12 0.512395 0.843927 0.794823
O O13 0.185047 0.758427 0.565874
O O14 0.787621 0.389917 0.471385
O O15 0.797466 0.500000 0.706153
#
# Coordination Sequence:
#
# PCOD9132074 Si02
#       7
#     4   4   4   4   4   4   4
#     4  12  23  36  58  87 119 149 179 232 295 336
#     4   9  20  35  56  83 107 140 188 236 275 328
#     4   9  20  38  59  79 108 149 191 229 273 332
#     4  10  19  35  58  77 105 148 189 226 273 333
#     4   9  20  37  56  80 110 147 190 230 268 332
#     4   9  19  36  57  80 104 141 193 237 270 322
#     4  10  20  33  53  82 111 140 182 236 283 327
#
# _framework density 20.318943999999998
#
# number of rings (size 3 to 8) (size 9 to 14) (size 15 to 20)
#    0.000    2.857    0.000    4.714    0.000    4.000 
#    0.000    5.714    0.000    0.000    0.000    0.000 
#    0.000    0.000    0.000    0.000    0.000    0.000 
#
# Total GULP energy -78137.932057 kJ/mol
# GULP energy per Si atom -5581.280861 kJ/mol
# Density = 2.027270 g / cm^3
# Si number density = 20.318944 Si / 1000 Ang^3
#
#
#
# Elastic Constant Matrix: (Units=GPa)
#
#
# Indices 1 2 3 4 5 6 
#
# 1 76.6671 27.0320 -2.7206 0.0000 21.2665 0.0000
# 2 27.0320 45.7117 -0.8874 0.0000 11.2255 0.0000
# 3 -2.7206 -0.8874 32.7140 0.0000 7.2686 0.0000
# 4 0.0000 0.0000 0.0000 7.5257 0.0000 -5.0836
# 5 21.2665 11.2255 7.2686 0.0000 19.2159 0.0000
# 6 0.0000 0.0000 0.0000 -5.0836 0.0000 -2.7214
#
#
#
# Elastic Compliance Matrix: (Units=1/GPa)
#
#
# Indices 1 2 3 4 5 6 
#
# 1 0.022219 -0.007410 0.006713 0.000000 -0.022800 0.000000
# 2 -0.007410 0.028598 0.002238 0.000000 -0.009352 0.000000
# 3 0.006713 0.002238 0.036168 0.000000 -0.022417 0.000000
# 4 0.000000 0.000000 0.000000 0.058747 0.000000 -0.109742
# 5 -0.022800 -0.009352 -0.022417 0.000000 0.091217 0.000000
# 6 0.000000 0.000000 0.000000 -0.109742 0.000000 -0.162460
#
#
# Mechanical properties :
#
#
# Convention : Reuss Voigt Hill
#
# Bulk Modulus (GPa) = 11.10304 22.43787 16.77046
# Shear Modulus (GPa) = 49.29543 13.58197 31.43870
#
# Velocity S-wave (km/s) = 4.93087 2.58822 3.93779
# Velocity P-wave (km/s) = 6.15583 4.47199 5.38019
#
# Compressibility (1/GPa) = 0.09006541
#
# Stress axis : x y z
#
# Youngs Moduli (GPa) = 45.00696 34.96725 27.64903
#
# Poissons Ratio (x) = 0.25910 -0.18560
# Poissons Ratio (y) = 0.33349 -0.06186
# Poissons Ratio (z) = -0.30212 -0.07824
#
# Static dielectric constant tensor:
#      x y z
#    x 1.738430 0.000000 0.001380 
#    y 0.000000 1.716720 0.000000 
#    z 0.001380 0.000000 1.712750 
# 
# From -- ./inp_files/4085.got.cif
#   From: 2010.05.17/outbox.cif.g08.bks.cpg/sg8_3_cif.got.tgz:4085.got - 2010.06.03 19:46:02.
