data_PCOD9132538
_publ_section_title
;
Structure prediction by ZEFSAII (Michael W. Deem and Ramdas Pophale) SiO2 
 PCOD9132538
Probable space group: C M
;
_chemical_formula_sum "Si O2"
_cell_formula_units_Z 28
_cell_length_a 9.186119
_cell_length_b 10.196457
_cell_length_c 23.718951
_cell_angle_alpha 90.000000
_cell_angle_beta 141.955284
_cell_angle_gamma 90.000000
_cell_volume 1369.153977
_symmetry_space_group_name_H-M "C M"
_symmetry_group_IT_number 8
_symmetry_cell_setting 'monoclinic'
loop_
_space_group_symop_operation_xyz
x,y,z
x,-y,z
1/2+x,1/2+y,z
1/2+x,1/2-y,z
loop_
_atom_site_type_symbol
_atom_site_label
_atom_site_fract_x
_atom_site_fract_y
_atom_site_fract_z
Si Si1 0.595570 0.147858 0.332120
Si Si2 0.919006 0.648878 0.825386
Si Si3 0.602980 0.268285 0.456704
Si Si4 0.116675 0.354399 0.579227
Si Si5 0.520159 0.847553 0.730884
Si Si6 0.228854 0.150997 0.131125
Si Si7 0.721934 0.853175 0.030796
O O1 0.556766 0.215226 0.380027
O O2 0.447707 0.204855 0.234781
O O3 0.874222 0.148582 0.404109
O O4 0.507954 0.000000 0.310614
O O5 0.816273 0.500000 0.796197
O O6 0.722774 0.761537 0.764053
O O7 0.063195 0.654943 0.811304
O O8 0.078785 0.666162 0.929139
O O9 0.609604 0.160983 0.508898
O O10 0.858079 0.336867 0.528287
O O11 0.206827 0.500000 0.621146
O O12 0.278748 0.232369 0.647110
O O13 0.507887 0.000000 0.709367
O O14 0.175292 0.242306 0.061970
O O15 0.997895 0.150225 0.099628
O O16 0.276766 0.000000 0.128027
O O17 0.662417 0.000000 0.033748
#
# Coordination Sequence:
#
# PCOD9132538 Si02
#       7
#     4   4   4   4   4   4   4
#     4  10  20  37  58  82 115 152 190 234 283 333
#     4  10  22  40  60  84 116 152 191 235 283 338
#     4  10  22  37  58  84 113 151 194 235 281 336
#     4  11  23  39  59  85 116 150 191 237 286 340
#     4  11  24  40  61  87 115 149 190 236 286 342
#     4  10  21  37  59  87 118 152 191 236 284 336
#     4  10  21  38  59  85 117 152 191 235 283 337
#
# _framework density 20.450585
#
# number of rings (size 3 to 8) (size 9 to 14) (size 15 to 20)
#    0.000    1.714    0.000    3.857    0.000    9.143 
#    0.000    3.571    0.000    0.000    0.000    0.000 
#    0.000    0.000    0.000    0.000    0.000    0.000 
#
# Total GULP energy -78146.010936 kJ/mol
# GULP energy per Si atom -5581.857924 kJ/mol
# Density = 2.040404 g / cm^3
# Si number density = 20.450585 Si / 1000 Ang^3
#
#
#
# Elastic Constant Matrix: (Units=GPa)
#
#
# Indices 1 2 3 4 5 6 
#
# 1 81.8318 29.1650 1.4668 0.0000 -6.8621 0.0000
# 2 29.1650 110.4945 22.4056 0.0000 -7.4397 0.0000
# 3 1.4668 22.4056 50.2329 0.0000 0.4173 0.0000
# 4 0.0000 0.0000 0.0000 24.7171 0.0000 6.5347
# 5 -6.8621 -7.4397 0.4173 0.0000 37.6431 0.0000
# 6 0.0000 0.0000 0.0000 6.5347 0.0000 0.8010
#
#
#
# Elastic Compliance Matrix: (Units=1/GPa)
#
#
# Indices 1 2 3 4 5 6 
#
# 1 0.013680 -0.003749 0.001258 0.000000 0.001739 0.000000
# 2 -0.003749 0.011133 -0.004869 0.000000 0.001571 0.000000
# 3 0.001258 -0.004869 0.022050 0.000000 -0.000977 0.000000
# 4 0.000000 0.000000 0.000000 -0.034976 0.000000 0.285326
# 5 0.001739 0.001571 -0.000977 0.000000 0.027204 0.000000
# 6 0.000000 0.000000 0.000000 0.285326 0.000000 -1.079234
#
#
# Mechanical properties :
#
#
# Convention : Reuss Voigt Hill
#
# Bulk Modulus (GPa) = 31.11072 38.73712 34.92392
# Shear Modulus (GPa) = -4.92752 25.26704 10.16976
#
# Velocity S-wave (km/s) = -1.55393 3.51881 2.23241
# Velocity P-wave (km/s) = 3.46786 5.95754 4.87434
#
# Compressibility (1/GPa) = 0.03214326
#
# Stress axis : x y z
#
# Youngs Moduli (GPa) = 73.10204 89.82443 45.35050
#
# Poissons Ratio (x) = 0.33673 -0.05706
# Poissons Ratio (y) = 0.27404 0.22082
# Poissons Ratio (z) = -0.09198 0.43737
#
# Static dielectric constant tensor:
#      x y z
#    x 1.698040 0.000000 -0.013770 
#    y 0.000000 1.734630 0.000000 
#    z -0.013770 0.000000 1.760440 
# 
# From -- ./inp_files/25212.got.cif
#   From: 2010.05.17/outbox.cif.g08.bks.cpg/sg8_13_cif.got.tgz:25212.got - 2010.06.03 19:46:02.
