data_PCOD9132757
_publ_section_title
;
Structure prediction by ZEFSAII (Michael W. Deem and Ramdas Pophale) SiO2 
 PCOD9132757
Probable space group: C M
;
_chemical_formula_sum "Si O2"
_cell_formula_units_Z 28
_cell_length_a 8.751026
_cell_length_b 25.375119
_cell_length_c 5.589667
_cell_angle_alpha 90.000000
_cell_angle_beta 117.566904
_cell_angle_gamma 90.000000
_cell_volume 1100.316317
_symmetry_space_group_name_H-M "C M"
_symmetry_group_IT_number 8
_symmetry_cell_setting 'monoclinic'
loop_
_space_group_symop_operation_xyz
x,y,z
x,-y,z
1/2+x,1/2+y,z
1/2+x,1/2-y,z
loop_
_atom_site_type_symbol
_atom_site_label
_atom_site_fract_x
_atom_site_fract_y
_atom_site_fract_z
Si Si1 0.011790 0.813583 0.459170
Si Si2 0.159519 0.500000 0.049261
Si Si3 0.247122 0.867242 0.314178
Si Si4 0.746584 0.264884 0.992011
Si Si5 0.567568 0.837448 0.868515
Si Si6 0.866017 0.000000 0.701087
Si Si7 0.329081 0.612403 0.714549
Si Si8 0.992267 0.588052 0.192650
O O1 0.082106 0.864577 0.362264
O O2 0.189588 0.786075 0.685292
O O3 0.902495 0.840795 0.597525
O O4 0.902553 0.770408 0.224882
O O5 0.240318 0.500000 0.847322
O O6 0.033510 0.549008 0.007628
O O7 0.299041 0.500000 0.371276
O O8 0.418254 0.856150 0.588462
O O9 0.312727 0.915214 0.197547
O O10 0.220462 0.816064 0.132345
O O11 0.589050 0.224199 0.901703
O O12 0.746641 0.861816 0.894617
O O13 0.513518 0.855019 0.091286
O O14 0.946594 0.940588 0.799925
O O15 0.157301 0.585746 0.479692
#
# Coordination Sequence:
#
# PCOD9132757 Si02
#       8
#     4   2   4   4   4   2   4   4
#     4  12  28  44  68 106 147 197 245 306 366 443
#     4  10  20  40  75 109 141 187 251 306 372 449
#     4  11  27  42  66  99 147 186 239 297 369 437
#     4  12  27  43  68  97 145 196 246 293 363 435
#     4  11  22  42  68  99 139 184 237 304 359 435
#     4  10  20  42  73 113 139 193 245 316 368 455
#     4  10  23  41  70 104 142 184 247 306 372 433
#     4  10  21  42  69 105 139 187 241 307 365 442
#
# _framework density 25.447225
#
# number of rings (size 3 to 8) (size 9 to 14) (size 15 to 20)
#    0.000    1.143    4.286    0.857    8.000    0.000 
#    0.000    0.714    0.000    2.571    0.000    0.000 
#    0.000    0.000    0.000    0.000    0.000    0.000 
#
# Total GULP energy -77935.653108 kJ/mol
# GULP energy per Si atom -5566.832365 kJ/mol
# Density = 2.538931 g / cm^3
# Si number density = 25.447225 Si / 1000 Ang^3
#
#
#
# Elastic Constant Matrix: (Units=GPa)
#
#
# Indices 1 2 3 4 5 6 
#
# 1 126.5041 11.2790 58.4595 0.0000 -0.4553 0.0000
# 2 11.2790 55.8666 8.9042 0.0000 -5.4808 0.0000
# 3 58.4595 8.9042 112.4749 0.0000 15.8049 0.0000
# 4 0.0000 0.0000 0.0000 31.4612 0.0000 -16.0426
# 5 -0.4553 -5.4808 15.8049 0.0000 43.8915 0.0000
# 6 0.0000 0.0000 0.0000 -16.0426 0.0000 18.8957
#
#
#
# Elastic Compliance Matrix: (Units=1/GPa)
#
#
# Indices 1 2 3 4 5 6 
#
# 1 0.010660 -0.001035 -0.005747 0.000000 0.002051 0.000000
# 2 -0.001035 0.018594 -0.001326 0.000000 0.002788 0.000000
# 3 -0.005747 -0.001326 0.012655 0.000000 -0.004782 0.000000
# 4 0.000000 0.000000 0.000000 0.056051 0.000000 0.047588
# 5 0.002051 0.002788 -0.004782 0.000000 0.024875 0.000000
# 6 0.000000 0.000000 0.000000 0.047588 0.000000 0.093324
#
#
# Mechanical properties :
#
#
# Convention : Reuss Voigt Hill
#
# Bulk Modulus (GPa) = 38.92112 50.23678 44.57895
# Shear Modulus (GPa) = 20.75211 33.26320 27.00766
#
# Velocity S-wave (km/s) = 2.85879 3.61937 3.26133
# Velocity P-wave (km/s) = 5.12103 6.10335 5.63364
#
# Compressibility (1/GPa) = 0.02569299
#
# Stress axis : x y z
#
# Youngs Moduli (GPa) = 93.80575 53.78187 79.02114
#
# Poissons Ratio (x) = 0.05567 0.45413
# Poissons Ratio (y) = 0.09710 0.10477
# Poissons Ratio (z) = 0.53910 0.07131
#
# Static dielectric constant tensor:
#      x y z
#    x 2.038960 0.000000 0.034550 
#    y 0.000000 2.222100 0.000000 
#    z 0.034550 0.000000 2.106180 
# 
# From -- ./inp_files/2047.got.cif
#   From: 2010.05.17/outbox.cif.g08.bks.cpg/sg8_2_cif.got.tgz:2047.got - 2010.06.03 19:46:02.
