data_PCOD9132280
_publ_section_title
;
Structure prediction by ZEFSAII (Michael W. Deem and Ramdas Pophale) SiO2 
 PCOD9132280
Probable space group: C M
;
_chemical_formula_sum "Si O2"
_cell_formula_units_Z 26
_cell_length_a 20.126697
_cell_length_b 7.480995
_cell_length_c 6.540241
_cell_angle_alpha 90.000000
_cell_angle_beta 114.716675
_cell_angle_gamma 90.000000
_cell_volume 894.532880
_symmetry_space_group_name_H-M "C M"
_symmetry_group_IT_number 8
_symmetry_cell_setting 'monoclinic'
loop_
_space_group_symop_operation_xyz
x,y,z
x,-y,z
1/2+x,1/2+y,z
1/2+x,1/2-y,z
loop_
_atom_site_type_symbol
_atom_site_label
_atom_site_fract_x
_atom_site_fract_y
_atom_site_fract_z
Si Si1 0.036020 0.712026 0.798940
Si Si2 0.768397 0.000000 0.537309
Si Si3 0.189147 0.718771 0.864280
Si Si4 0.500773 0.712026 0.275675
Si Si5 0.847646 0.218771 0.210338
Si Si6 0.881659 0.294222 0.722956
Si Si7 0.655134 0.705778 0.351662
O O1 0.033372 0.500000 0.818668
O O2 0.018396 0.750001 0.537308
O O3 0.965558 0.780930 0.832987
O O4 0.121016 0.769247 0.923363
O O5 0.820624 0.153952 0.710803
O O6 0.716170 0.153952 0.363815
O O7 0.190267 0.500000 0.837479
O O8 0.268397 0.778557 0.037309
O O9 0.170505 0.793309 0.618248
O O10 0.503421 0.500000 0.255944
O O11 0.415777 0.769248 0.151254
O O12 0.571235 0.780931 0.241631
O O13 0.866288 0.293309 0.456370
O O14 0.846526 0.000000 0.237138
O O15 0.874218 0.500000 0.775088
O O16 0.662575 0.500000 0.299529
#
# Coordination Sequence:
#
# PCOD9132280 Si02
#       7
#     4   2   4   4   4   4   4
#     4   8  15  27  47  76 105 127 163 212 260 305
#     4  12  22  36  54  74 102 144 182 214 252 294
#     4   9  16  30  54  84 110 134 162 213 273 312
#     4   8  15  27  47  76 105 127 163 212 260 305
#     4   9  16  30  54  84 110 134 162 213 273 312
#     4  10  20  34  53  79 104 136 178 215 253 308
#     4  10  20  34  53  79 104 136 178 215 253 308
#
# _framework density 29.065449000000001
#
# number of rings (size 3 to 8) (size 9 to 14) (size 15 to 20)
#    0.000    2.769    1.538    0.462    2.154    0.615 
#    0.000    0.000    0.000    1.846    0.000    0.000 
#    0.000    0.000    0.000    0.000    0.000    0.000 
#
# Total GULP energy -72646.697503 kJ/mol
# GULP energy per Si atom -5588.207500 kJ/mol
# Density = 2.899929 g / cm^3
# Si number density = 29.065449 Si / 1000 Ang^3
#
#
#
# Elastic Constant Matrix: (Units=GPa)
#
#
# Indices 1 2 3 4 5 6 
#
# 1 163.3084 58.9485 38.1876 0.0000 32.8676 0.0000
# 2 58.9485 214.1714 57.0722 0.0000 11.7712 0.0000
# 3 38.1876 57.0722 169.4713 0.0000 76.5943 0.0000
# 4 0.0000 0.0000 0.0000 54.2883 0.0000 -6.8686
# 5 32.8676 11.7712 76.5943 0.0000 77.3285 0.0000
# 6 0.0000 0.0000 0.0000 -6.8686 0.0000 24.1380
#
#
#
# Elastic Compliance Matrix: (Units=1/GPa)
#
#
# Indices 1 2 3 4 5 6 
#
# 1 0.007395 -0.001990 0.000520 0.000000 -0.003356 0.000000
# 2 -0.001990 0.005789 -0.002689 0.000000 0.002628 0.000000
# 3 0.000520 -0.002689 0.011956 0.000000 -0.011655 0.000000
# 4 0.000000 0.000000 0.000000 0.019108 0.000000 0.005437
# 5 -0.003356 0.002628 -0.011655 0.000000 0.025502 0.000000
# 6 0.000000 0.000000 0.000000 0.005437 0.000000 0.042976
#
#
# Mechanical properties :
#
#
# Convention : Reuss Voigt Hill
#
# Bulk Modulus (GPa) = 59.43766 95.04087 77.23926
# Shear Modulus (GPa) = 39.47847 57.33380 48.40614
#
# Velocity S-wave (km/s) = 3.68946 4.44619 4.08538
# Velocity P-wave (km/s) = 6.21639 7.68947 6.99183
#
# Compressibility (1/GPa) = 0.01682435
#
# Stress axis : x y z
#
# Youngs Moduli (GPa) = 135.22068 172.74476 83.63678
#
# Poissons Ratio (x) = 0.34371 -0.04352
# Poissons Ratio (y) = 0.26905 0.22488
# Poissons Ratio (z) = -0.07036 0.46448
#
# Static dielectric constant tensor:
#      x y z
#    x 2.498190 0.000000 -0.124130 
#    y 0.000000 2.021320 0.000000 
#    z -0.124130 0.000000 2.557810 
# 
# From -- ./inp_files/23542.got.cif
#   From: 2010.05.17/outbox.cif.g08.bks.cpg/sg8_12_cif.got.tgz:23542.got - 2010.06.03 19:46:02.
