data_PCOD9132684
_publ_section_title
;
Structure prediction by ZEFSAII (Michael W. Deem and Ramdas Pophale) SiO2 
 PCOD9132684
Probable space group: C M
;
_chemical_formula_sum "Si O2"
_cell_formula_units_Z 28
_cell_length_a 10.617078
_cell_length_b 14.972733
_cell_length_c 8.894980
_cell_angle_alpha 90.000000
_cell_angle_beta 103.980039
_cell_angle_gamma 90.000000
_cell_volume 1372.122476
_symmetry_space_group_name_H-M "C M"
_symmetry_group_IT_number 8
_symmetry_cell_setting 'monoclinic'
loop_
_space_group_symop_operation_xyz
x,y,z
x,-y,z
1/2+x,1/2+y,z
1/2+x,1/2-y,z
loop_
_atom_site_type_symbol
_atom_site_label
_atom_site_fract_x
_atom_site_fract_y
_atom_site_fract_z
Si Si1 0.029540 0.397919 0.153990
Si Si2 0.776423 0.214926 0.196763
Si Si3 0.962763 0.896870 0.457586
Si Si4 0.065608 0.764933 0.729818
Si Si5 0.221980 0.900128 0.334999
Si Si6 0.359029 0.783478 0.926464
Si Si7 0.999984 0.397590 0.503187
O O1 0.065844 0.500000 0.151265
O O2 0.145134 0.337336 0.128520
O O3 0.012641 0.379157 0.327515
O O4 0.906073 0.375597 0.016144
O O5 0.737530 0.315170 0.232696
O O6 0.851637 0.163860 0.350742
O O7 0.862583 0.217793 0.072016
O O8 0.010594 0.848917 0.621681
O O9 0.086670 0.895783 0.382186
O O10 0.921621 0.000000 0.465493
O O11 0.211283 0.783323 0.827750
O O12 0.961715 0.743567 0.829789
O O13 0.067629 0.678664 0.619233
O O14 0.344474 0.893152 0.484240
O O15 0.235428 0.000000 0.269099
O O16 0.043074 0.500000 0.544079
#
# Coordination Sequence:
#
# PCOD9132684 Si02
#       7
#     4   4   4   4   4   4   4
#     4  11  24  44  70 100 130 179 236 276 328 402
#     4  12  22  44  68  98 136 177 226 280 329 399
#     4  11  25  43  69  97 129 174 227 281 333 392
#     4  12  25  44  65 100 143 180 214 278 343 412
#     4  10  20  38  69 101 125 164 224 281 325 382
#     4  12  26  42  69  97 141 181 218 270 347 399
#     4  10  21  41  71  99 128 173 230 280 324 396
#
# _framework density 20.406341000000001
#
# number of rings (size 3 to 8) (size 9 to 14) (size 15 to 20)
#    0.000    0.857    4.286    3.000    2.000    1.143 
#    0.000    1.429    0.000    0.857    0.000    0.000 
#    0.000    0.000    0.000    0.000    0.000    0.000 
#
# Total GULP energy -78220.100537 kJ/mol
# GULP energy per Si atom -5587.150038 kJ/mol
# Density = 2.035990 g / cm^3
# Si number density = 20.406341 Si / 1000 Ang^3
#
#
#
# Elastic Constant Matrix: (Units=GPa)
#
#
# Indices 1 2 3 4 5 6 
#
# 1 59.8519 39.9993 33.0880 0.0000 1.8682 0.0000
# 2 39.9993 139.9259 68.2488 0.0000 -6.9750 0.0000
# 3 33.0880 68.2488 100.3973 0.0000 4.4769 0.0000
# 4 0.0000 0.0000 0.0000 20.6990 0.0000 -0.5918
# 5 1.8682 -6.9750 4.4769 0.0000 35.9967 0.0000
# 6 0.0000 0.0000 0.0000 -0.5918 0.0000 28.4818
#
#
#
# Elastic Compliance Matrix: (Units=1/GPa)
#
#
# Indices 1 2 3 4 5 6 
#
# 1 0.021967 -0.004265 -0.004276 0.000000 -0.001435 0.000000
# 2 -0.004265 0.011850 -0.006800 0.000000 0.003363 0.000000
# 3 -0.004276 -0.006800 0.016131 0.000000 -0.003102 0.000000
# 4 0.000000 0.000000 0.000000 0.048340 0.000000 0.001004
# 5 -0.001435 0.003363 -0.003102 0.000000 0.028892 0.000000
# 6 0.000000 0.000000 0.000000 0.001004 0.000000 0.035131
#
#
# Mechanical properties :
#
#
# Convention : Reuss Voigt Hill
#
# Bulk Modulus (GPa) = 51.90742 64.76084 58.33413
# Shear Modulus (GPa) = 25.07319 27.62476 26.34897
#
# Velocity S-wave (km/s) = 3.50908 3.68330 3.59725
# Velocity P-wave (km/s) = 6.47382 7.06353 6.77509
#
# Compressibility (1/GPa) = 0.01926507
#
# Stress axis : x y z
#
# Youngs Moduli (GPa) = 45.52221 84.38660 61.99425
#
# Poissons Ratio (x) = 0.35994 0.26510
# Poissons Ratio (y) = 0.19417 0.42155
# Poissons Ratio (z) = 0.19467 0.57382
#
# Static dielectric constant tensor:
#      x y z
#    x 1.747490 0.000000 -0.005540 
#    y 0.000000 1.719220 0.000000 
#    z -0.005540 0.000000 1.730490 
# 
# From -- ./inp_files/10655.got.cif
#   From: 2010.05.17/outbox.cif.g08.bks.cpg/sg8_6_cif.got.tgz:10655.got - 2010.06.03 19:46:02.
