data_PCOD9132575
_publ_section_title
;
Structure prediction by ZEFSAII (Michael W. Deem and Ramdas Pophale) SiO2 
 PCOD9132575
Probable space group: C M
;
_chemical_formula_sum "Si O2"
_cell_formula_units_Z 24
_cell_length_a 13.445459
_cell_length_b 11.394480
_cell_length_c 18.603662
_cell_angle_alpha 90.000000
_cell_angle_beta 157.854237
_cell_angle_gamma 90.000000
_cell_volume 1074.406588
_symmetry_space_group_name_H-M "C M"
_symmetry_group_IT_number 8
_symmetry_cell_setting 'monoclinic'
loop_
_space_group_symop_operation_xyz
x,y,z
x,-y,z
1/2+x,1/2+y,z
1/2+x,1/2-y,z
loop_
_atom_site_type_symbol
_atom_site_label
_atom_site_fract_x
_atom_site_fract_y
_atom_site_fract_z
Si Si1 0.791010 0.230064 0.530040
Si Si2 0.959847 0.369805 0.424355
Si Si3 0.737032 0.374168 0.924867
Si Si4 0.986158 0.214413 0.199031
Si Si5 0.735365 0.869236 0.761346
Si Si6 0.050933 0.628936 0.002823
O O1 0.557174 0.224790 0.431744
O O2 0.665235 0.199391 0.368363
O O3 0.005874 0.146579 0.712380
O O4 0.968565 0.344083 0.629687
O O5 0.969114 0.500000 0.397305
O O6 0.676196 0.349491 0.270219
O O7 0.151073 0.368020 0.621563
O O8 0.700591 0.500000 0.935264
O O9 0.766198 0.276754 0.003969
O O10 0.006060 0.374032 0.058350
O O11 0.836859 0.136488 0.158044
O O12 0.838775 0.000000 0.848475
O O13 0.912151 0.753715 0.891580
O O14 0.938586 0.500000 0.903584
#
# Coordination Sequence:
#
# PCOD9132575 Si02
#       6
#     4   4   4   4   4   4
#     4  10  21  38  61  90 121 155 204 259 307 360
#     4  10  20  37  61  88 124 165 204 255 313 368
#     4  10  22  40  60  86 123 164 207 259 314 367
#     4  11  22  38  61  90 121 162 210 253 305 371
#     4   9  20  40  65  91 122 164 210 255 309 372
#     4  10  21  39  62  89 127 166 203 257 314 364
#
# _framework density 22.337914000000001
#
# number of rings (size 3 to 8) (size 9 to 14) (size 15 to 20)
#    0.000    2.000    0.000    3.000    0.000    4.667 
#    0.000   17.500    0.000    4.000    0.000    0.000 
#    0.000    0.000    0.000    0.000    0.000    0.000 
#
# Total GULP energy -66804.763711 kJ/mol
# GULP energy per Si atom -5567.063643 kJ/mol
# Density = 2.228707 g / cm^3
# Si number density = 22.337914 Si / 1000 Ang^3
#
#
#
# Elastic Constant Matrix: (Units=GPa)
#
#
# Indices 1 2 3 4 5 6 
#
# 1 126.5785 33.2679 15.5658 0.0040 34.1888 0.0006
# 2 33.2679 124.6465 27.9530 0.0049 -0.5448 0.0004
# 3 15.5658 27.9530 55.1953 0.0061 12.6540 -0.0007
# 4 0.0040 0.0049 0.0061 10.4034 0.0039 2.6423
# 5 34.1888 -0.5448 12.6540 0.0039 41.9063 0.0000
# 6 0.0006 0.0004 -0.0007 2.6423 0.0000 17.0284
#
#
#
# Elastic Compliance Matrix: (Units=1/GPa)
#
#
# Indices 1 2 3 4 5 6 
#
# 1 0.011180 -0.003156 0.000587 0.000000 -0.009339 0.000000
# 2 -0.003156 0.010044 -0.005175 -0.000002 0.004268 0.000000
# 3 0.000587 -0.005175 0.022238 -0.000009 -0.007261 0.000002
# 4 0.000000 -0.000002 -0.000009 0.100066 -0.000007 -0.015527
# 5 -0.009339 0.004268 -0.007261 -0.000007 0.033730 0.000001
# 6 0.000000 0.000000 0.000002 -0.015527 0.000001 0.061135
#
#
# Mechanical properties :
#
#
# Convention : Reuss Voigt Hill
#
# Bulk Modulus (GPa) = 35.74969 51.11041 43.43005
# Shear Modulus (GPa) = 18.99647 29.17654 24.08651
#
# Velocity S-wave (km/s) = 2.91935 3.61798 3.28728
# Velocity P-wave (km/s) = 5.23472 6.35479 5.82175
#
# Compressibility (1/GPa) = 0.02797227
#
# Stress axis : x y z
#
# Youngs Moduli (GPa) = 89.44349 99.55826 44.96888
#
# Poissons Ratio (x) = 0.31424 -0.02638
# Poissons Ratio (y) = 0.28232 0.23273
# Poissons Ratio (z) = -0.05247 0.51524
#
# Static dielectric constant tensor:
#      x y z
#    x 1.839810 0.000000 0.083810 
#    y 0.000000 1.839380 0.000000 
#    z 0.083810 0.000000 1.931830 
# 
# From -- ./inp_files/30831.got.cif
#   From: 2010.05.17/outbox.cif.g08.bks.cpg/sg8_16_cif.got.tgz:30831.got - 2010.06.03 19:46:02.
