data_PCOD9132402
_publ_section_title
;
Structure prediction by ZEFSAII (Michael W. Deem and Ramdas Pophale) SiO2 
 PCOD9132402
Probable space group: C M
;
_chemical_formula_sum "Si O2"
_cell_formula_units_Z 32
_cell_length_a 28.842911
_cell_length_b 8.501483
_cell_length_c 12.287884
_cell_angle_alpha 90.000000
_cell_angle_beta 30.121938
_cell_angle_gamma 90.000000
_cell_volume 1512.090737
_symmetry_space_group_name_H-M "C M"
_symmetry_group_IT_number 8
_symmetry_cell_setting 'monoclinic'
loop_
_space_group_symop_operation_xyz
x,y,z
x,-y,z
1/2+x,1/2+y,z
1/2+x,1/2-y,z
loop_
_atom_site_type_symbol
_atom_site_label
_atom_site_fract_x
_atom_site_fract_y
_atom_site_fract_z
Si Si1 0.572730 0.190190 0.523930
Si Si2 0.653129 0.812921 0.590713
Si Si3 0.209332 0.810754 0.062595
Si Si4 0.966891 0.818866 0.376724
Si Si5 0.309032 0.816517 0.413394
Si Si6 0.248590 0.680571 0.754837
Si Si7 0.414120 0.187382 0.705877
Si Si8 0.509273 0.687549 0.055560
O O1 0.612284 0.244813 0.558774
O O2 0.637786 0.245479 0.294297
O O3 0.470376 0.245493 0.696393
O O4 0.571401 0.000000 0.530048
O O5 0.748119 0.731822 0.433943
O O6 0.667587 0.000000 0.556293
O O7 0.578111 0.773646 0.835240
O O8 0.207528 0.000000 0.064938
O O9 0.197170 0.751304 0.963672
O O10 0.310568 0.753194 0.897905
O O11 0.857754 0.818109 0.566342
O O12 0.971087 0.726851 0.480652
O O13 0.016425 0.758183 0.167210
O O14 0.994297 0.000000 0.340046
O O15 0.247677 0.777843 0.645281
O O16 0.404159 0.721192 0.231281
O O17 0.331361 0.000000 0.366621
O O18 0.221908 0.500000 0.789248
O O19 0.407077 0.000000 0.728190
O O20 0.525558 0.500000 0.020768
#
# Coordination Sequence:
#
# PCOD9132402 Si02
#       8
#     4   4   4   4   4   4   4   4
#     4  10  23  41  57  78 111 151 195 238 282 338
#     4  11  24  41  59  82 114 155 203 248 291 343
#     4  10  20  35  58  87 116 147 186 233 285 340
#     4   8  16  31  54  84 114 142 176 222 276 338
#     4  11  22  38  61  88 118 152 192 241 297 351
#     4   9  17  33  57  85 117 150 186 230 284 347
#     4   9  19  36  57  81 111 145 181 225 276 332
#     4  10  21  39  61  87 119 152 189 237 293 351
#
# _framework density 21.162751
#
# number of rings (size 3 to 8) (size 9 to 14) (size 15 to 20)
#    0.000    2.250    0.000    3.375    0.000    7.500 
#    0.000    3.750    0.000    0.000    0.000    0.000 
#    0.000    0.000    0.000    0.000    0.000    0.000 
#
# Total GULP energy -89390.613611 kJ/mol
# GULP energy per Si atom -5586.913351 kJ/mol
# Density = 2.111458 g / cm^3
# Si number density = 21.162751 Si / 1000 Ang^3
#
#
#
# Elastic Constant Matrix: (Units=GPa)
#
#
# Indices 1 2 3 4 5 6 
#
# 1 114.0107 3.9787 1.5822 0.0000 -9.9923 0.0000
# 2 3.9787 23.4141 -19.0270 0.0000 3.1590 0.0000
# 3 1.5822 -19.0270 37.2075 0.0000 -4.3517 0.0000
# 4 0.0000 0.0000 0.0000 28.4054 0.0000 3.6357
# 5 -9.9923 3.1590 -4.3517 0.0000 16.8656 0.0000
# 6 0.0000 0.0000 0.0000 3.6357 0.0000 23.8203
#
#
#
# Elastic Compliance Matrix: (Units=1/GPa)
#
#
# Indices 1 2 3 4 5 6 
#
# 1 0.009437 -0.003702 -0.001608 0.000000 0.005870 0.000000
# 2 -0.003702 0.074816 0.037657 0.000000 -0.006490 0.000000
# 3 -0.001608 0.037657 0.046674 0.000000 0.004037 0.000000
# 4 0.000000 0.000000 0.000000 0.035906 0.000000 -0.005480
# 5 0.005870 -0.006490 0.004037 0.000000 0.065027 0.000000
# 6 0.000000 0.000000 0.000000 -0.005480 0.000000 0.042817
#
#
# Mechanical properties :
#
#
# Convention : Reuss Voigt Hill
#
# Bulk Modulus (GPa) = 5.11192 16.41111 10.76152
# Shear Modulus (GPa) = 18.16925 26.35816 22.26370
#
# Velocity S-wave (km/s) = 2.93328 3.53299 3.24701
# Velocity P-wave (km/s) = 3.72732 4.94108 4.37648
#
# Compressibility (1/GPa) = 0.19562117
#
# Stress axis : x y z
#
# Youngs Moduli (GPa) = 105.96529 13.36615 21.42518
#
# Poissons Ratio (x) = 0.04949 0.03445
# Poissons Ratio (y) = 0.39232 -0.80682
# Poissons Ratio (z) = 0.17040 -0.50334
#
# Static dielectric constant tensor:
#      x y z
#    x 1.806480 0.000000 -0.046080 
#    y 0.000000 1.714150 0.000000 
#    z -0.046080 0.000000 1.768130 
# 
# From -- ./inp_files/21541.got.cif
#   From: 2010.05.17/outbox.cif.g08.bks.cpg/sg8_11_cif.got.tgz:21541.got - 2010.06.03 19:46:02.
