data_PCOD9132911
_publ_section_title
;
Structure prediction by ZEFSAII (Michael W. Deem and Ramdas Pophale) SiO2 
 PCOD9132911
Probable space group: C M
;
_chemical_formula_sum "Si O2"
_cell_formula_units_Z 28
_cell_length_a 5.046945
_cell_length_b 30.398077
_cell_length_c 9.178660
_cell_angle_alpha 90.000000
_cell_angle_beta 61.079473
_cell_angle_gamma 90.000000
_cell_volume 1232.555805
_symmetry_space_group_name_H-M "C M"
_symmetry_group_IT_number 8
_symmetry_cell_setting 'monoclinic'
loop_
_space_group_symop_operation_xyz
x,y,z
x,-y,z
1/2+x,1/2+y,z
1/2+x,1/2-y,z
loop_
_atom_site_type_symbol
_atom_site_label
_atom_site_fract_x
_atom_site_fract_y
_atom_site_fract_z
Si Si1 0.966830 0.911541 0.426650
Si Si2 0.543078 0.724847 0.965726
Si Si3 0.971449 0.000000 0.237836
Si Si4 0.120544 0.866897 0.098787
Si Si5 0.792225 0.096841 0.924429
Si Si6 0.836641 0.621890 0.581619
Si Si7 0.674645 0.000000 0.002550
Si Si8 0.913540 0.722011 0.562396
O O1 0.637510 0.897883 0.574229
O O2 0.048875 0.874886 0.285199
O O3 0.224741 0.908692 0.479226
O O4 0.943672 0.957243 0.347391
O O5 0.202504 0.735280 0.009505
O O6 0.577554 0.682033 0.053431
O O7 0.738674 0.720172 0.765325
O O8 0.755876 0.000000 0.153707
O O9 0.313091 0.000000 0.085326
O O10 0.461893 0.883779 0.982055
O O11 0.884650 0.895645 0.067589
O O12 0.052674 0.121400 0.765788
O O13 0.796437 0.044627 0.898580
O O14 0.904195 0.671718 0.512764
O O15 0.735224 0.756361 0.509395
#
# Coordination Sequence:
#
# PCOD9132911 Si02
#       8
#     4   4   2   4   4   4   2   4
#     4  12  26  44  69  96 142 181 212 273 344 410
#     4  10  21  37  65  99 128 169 226 284 323 380
#     4  12  24  46  70  98 132 178 230 260 340 418
#     4  12  23  44  67 100 129 180 224 273 331 397
#     4  12  24  41  72  97 134 169 229 287 315 389
#     4  12  26  44  65 106 137 175 221 277 343 392
#     4  12  22  44  70 104 126 172 236 278 322 384
#     4  10  21  39  66  95 129 177 223 273 329 397
#
# _framework density 22.717026000000001
#
# number of rings (size 3 to 8) (size 9 to 14) (size 15 to 20)
#    0.000    0.571    4.286    4.286    4.000    1.143 
#    0.000    4.286    0.000    0.000    0.000    0.000 
#    0.000    0.000    0.000    0.000    0.000    0.000 
#
# Total GULP energy -78368.980708 kJ/mol
# GULP energy per Si atom -5597.784336 kJ/mol
# Density = 2.266532 g / cm^3
# Si number density = 22.717026 Si / 1000 Ang^3
#
#
#
# Elastic Constant Matrix: (Units=GPa)
#
#
# Indices 1 2 3 4 5 6 
#
# 1 91.9298 17.5661 8.1589 0.0000 -4.1808 0.0000
# 2 17.5661 101.9072 -1.1240 0.0000 -10.5463 0.0000
# 3 8.1589 -1.1240 28.2102 0.0000 1.5310 0.0000
# 4 0.0000 0.0000 0.0000 30.8959 0.0000 5.5754
# 5 -4.1808 -10.5463 1.5310 0.0000 20.5030 0.0000
# 6 0.0000 0.0000 0.0000 5.5754 0.0000 32.6360
#
#
#
# Elastic Compliance Matrix: (Units=1/GPa)
#
#
# Indices 1 2 3 4 5 6 
#
# 1 0.011624 -0.001870 -0.003527 0.000000 0.001672 0.000000
# 2 -0.001870 0.010666 0.000691 0.000000 0.005053 0.000000
# 3 -0.003527 0.000691 0.036664 0.000000 -0.003101 0.000000
# 4 0.000000 0.000000 0.000000 0.033396 0.000000 -0.005705
# 5 0.001672 0.005053 -0.003101 0.000000 0.051945 0.000000
# 6 0.000000 0.000000 0.000000 -0.005705 0.000000 0.031616
#
#
# Mechanical properties :
#
#
# Convention : Reuss Voigt Hill
#
# Bulk Modulus (GPa) = 20.18431 30.13880 25.16155
# Shear Modulus (GPa) = 24.77254 29.97005 27.37130
#
# Velocity S-wave (km/s) = 3.30583 3.63613 3.47490
# Velocity P-wave (km/s) = 4.84518 5.56097 5.21537
#
# Compressibility (1/GPa) = 0.04954344
#
# Stress axis : x y z
#
# Youngs Moduli (GPa) = 86.02753 93.75852 27.27462
#
# Poissons Ratio (x) = 0.17529 0.09620
# Poissons Ratio (y) = 0.16083 -0.01886
# Poissons Ratio (z) = 0.30343 -0.06483
#
# Static dielectric constant tensor:
#      x y z
#    x 1.797700 0.000000 0.008090 
#    y 0.000000 1.835910 0.000000 
#    z 0.008090 0.000000 1.856900 
# 
# From -- ./inp_files/7077.got.cif
#   From: 2010.05.17/outbox.cif.g08.bks.cpg/sg8_4_cif.got.tgz:7077.got - 2010.06.03 19:46:02.
