data_PCOD9132171
_publ_section_title
;
Structure prediction by ZEFSAII (Michael W. Deem and Ramdas Pophale) SiO2 
 PCOD9132171
Probable space group: C M
;
_chemical_formula_sum "Si O2"
_cell_formula_units_Z 28
_cell_length_a 13.797312
_cell_length_b 14.266623
_cell_length_c 14.619024
_cell_angle_alpha 90.000000
_cell_angle_beta 31.763883
_cell_angle_gamma 90.000000
_cell_volume 1514.838696
_symmetry_space_group_name_H-M "C M"
_symmetry_group_IT_number 8
_symmetry_cell_setting 'monoclinic'
loop_
_space_group_symop_operation_xyz
x,y,z
x,-y,z
1/2+x,1/2+y,z
1/2+x,1/2-y,z
loop_
_atom_site_type_symbol
_atom_site_label
_atom_site_fract_x
_atom_site_fract_y
_atom_site_fract_z
Si Si1 0.679010 0.221552 0.009220
Si Si2 0.847236 0.606246 0.552835
Si Si3 0.027734 0.107814 0.665508
Si Si4 0.333095 0.892628 0.781464
Si Si5 0.262481 0.208775 0.319197
Si Si6 0.069811 0.222373 0.289324
Si Si7 0.257764 0.610096 0.432691
O O1 0.474819 0.180541 0.159995
O O2 0.694419 0.247072 0.103758
O O3 0.705486 0.318743 0.933921
O O4 0.835075 0.154396 0.845077
O O5 0.920941 0.500000 0.482297
O O6 0.654436 0.610766 0.654254
O O7 0.827616 0.622852 0.676605
O O8 0.970508 0.684970 0.407406
O O9 0.135589 0.162859 0.499185
O O10 0.005921 0.000000 0.655267
O O11 0.547947 0.880738 0.638058
O O12 0.279749 0.000000 0.842658
O O13 0.184371 0.184512 0.282833
O O14 0.262268 0.320693 0.341509
O O15 0.912391 0.152447 0.376420
O O16 0.287792 0.500000 0.389377
#
# Coordination Sequence:
#
# PCOD9132171 Si02
#       7
#     4   4   4   4   4   4   4
#     4  11  23  39  61  94 123 161 203 259 312 367
#     4  10  19  36  65  92 120 162 210 256 311 370
#     4  11  23  42  62  88 125 162 206 256 309 370
#     4  10  20  38  64  93 126 163 209 260 312 370
#     4  11  23  42  64  90 123 171 206 253 309 378
#     4  11  22  38  63  93 127 159 206 262 310 366
#     4  10  20  39  65  90 122 166 208 252 305 367
#
# _framework density 18.483815
#
# number of rings (size 3 to 8) (size 9 to 14) (size 15 to 20)
#    0.000    1.429    5.714    0.000    2.000    4.000 
#    2.571    0.000    0.000    0.000    0.000    0.000 
#    0.000    0.000    0.000    0.000    0.000    0.000 
#
# Total GULP energy -78128.542264 kJ/mol
# GULP energy per Si atom -5580.610162 kJ/mol
# Density = 1.844175 g / cm^3
# Si number density = 18.483815 Si / 1000 Ang^3
#
#
#
# Elastic Constant Matrix: (Units=GPa)
#
#
# Indices 1 2 3 4 5 6 
#
# 1 118.4698 27.8571 41.2233 0.0005 6.4624 -0.0006
# 2 27.8571 104.9939 54.8038 -0.0002 9.0294 0.0002
# 3 41.2233 54.8038 116.2087 0.0014 -3.7367 -0.0012
# 4 0.0005 -0.0002 0.0014 -0.4063 -0.0009 5.6847
# 5 6.4624 9.0294 -3.7367 -0.0009 17.5867 0.0007
# 6 -0.0006 0.0002 -0.0012 5.6847 0.0007 17.4598
#
#
#
# Elastic Compliance Matrix: (Units=1/GPa)
#
#
# Indices 1 2 3 4 5 6 
#
# 1 0.009981 -0.000496 -0.003440 0.000003 -0.004143 -0.000001
# 2 -0.000496 0.013821 -0.006610 -0.000003 -0.008318 0.000001
# 3 -0.003440 -0.006610 0.013182 0.000006 0.007458 -0.000002
# 4 0.000003 -0.000003 0.000006 -0.443030 -0.000027 0.144245
# 5 -0.004143 -0.008318 0.007458 -0.000027 0.064239 0.000007
# 6 -0.000001 0.000001 -0.000002 0.144245 0.000007 0.010310
#
#
# Mechanical properties :
#
#
# Convention : Reuss Voigt Hill
#
# Bulk Modulus (GPa) = 62.92002 65.27120 64.09561
# Shear Modulus (GPa) = -16.38767 21.31390 2.46312
#
# Velocity S-wave (km/s) = -2.98081 3.39943 1.15563
# Velocity P-wave (km/s) = 4.71885 7.12723 6.04421
#
# Compressibility (1/GPa) = 0.01589319
#
# Stress axis : x y z
#
# Youngs Moduli (GPa) = 100.19471 72.35147 75.85965
#
# Poissons Ratio (x) = 0.03591 0.26093
# Poissons Ratio (y) = 0.04973 0.50140
# Poissons Ratio (z) = 0.34463 0.47821
#
# Static dielectric constant tensor:
#      x y z
#    x 1.652180 0.000000 -0.026050 
#    y 0.000000 1.646300 0.000000 
#    z -0.026050 0.000000 1.623420 
# 
# From -- ./inp_files/26896.got.cif
#   From: 2010.05.17/outbox.cif.g08.bks.cpg/sg8_14_cif.got.tgz:26896.got - 2010.06.03 19:46:02.
