data_PCOD9132181
_publ_section_title
;
Structure prediction by ZEFSAII (Michael W. Deem and Ramdas Pophale) SiO2 
 PCOD9132181
Probable space group: C M
;
_chemical_formula_sum "Si O2"
_cell_formula_units_Z 30
_cell_length_a 7.243780
_cell_length_b 12.211365
_cell_length_c 16.788864
_cell_angle_alpha 90.000000
_cell_angle_beta 129.200206
_cell_angle_gamma 90.000000
_cell_volume 1150.853641
_symmetry_space_group_name_H-M "C M"
_symmetry_group_IT_number 8
_symmetry_cell_setting 'monoclinic'
loop_
_space_group_symop_operation_xyz
x,y,z
x,-y,z
1/2+x,1/2+y,z
1/2+x,1/2-y,z
loop_
_atom_site_type_symbol
_atom_site_label
_atom_site_fract_x
_atom_site_fract_y
_atom_site_fract_z
Si Si1 0.761340 0.384001 0.833300
Si Si2 0.731639 0.875232 0.067951
Si Si3 0.092738 0.656333 0.588030
Si Si4 0.093399 0.883602 0.361718
Si Si5 0.917878 0.624857 0.123447
Si Si6 0.438803 0.175113 0.715225
Si Si7 0.250579 0.500000 0.505883
Si Si8 0.926469 0.349417 0.314192
O O1 0.641088 0.500000 0.818542
O O2 0.589681 0.280238 0.785384
O O3 0.881849 0.388552 0.779070
O O4 0.975435 0.371004 0.953953
O O5 0.834864 0.751951 0.078997
O O6 0.665846 0.879761 0.143391
O O7 0.829684 0.000000 0.073045
O O8 0.842282 0.629272 0.478466
O O9 0.068726 0.625454 0.674282
O O10 0.186390 0.780088 0.613037
O O11 0.279045 0.592771 0.584172
O O12 0.944588 0.777951 0.338563
O O13 0.190642 0.885408 0.297435
O O14 0.988128 0.000000 0.355635
O O15 0.810801 0.500000 0.074498
O O16 0.916615 0.628140 0.218492
O O17 0.151783 0.406550 0.416349
#
# Coordination Sequence:
#
# PCOD9132181 Si02
#       8
#     4   4   4   4   4   4   2   4
#     4  10  22  41  61  89 125 157 199 256 314 361
#     4  10  23  41  64  94 129 163 202 265 315 374
#     4  10  19  37  59  83 124 161 203 247 302 349
#     4  11  22  39  58  84 123 162 206 258 301 355
#     4  11  22  40  66  93 125 165 211 253 313 379
#     4  10  22  37  62  92 117 160 209 245 300 378
#     4  10  20  36  58  82 124 158 192 250 302 342
#     4  11  21  40  62  86 122 164 201 255 305 356
#
# _framework density 26.067609000000001
#
# number of rings (size 3 to 8) (size 9 to 14) (size 15 to 20)
#    0.000    1.600    3.333    3.200    1.867    1.067 
#    1.200    0.667    0.000    0.000    0.000    0.000 
#    0.000    0.000    0.000    0.000    0.000    0.000 
#
# Total GULP energy -83511.679855 kJ/mol
# GULP energy per Si atom -5567.445324 kJ/mol
# Density = 2.600828 g / cm^3
# Si number density = 26.067609 Si / 1000 Ang^3
#
#
#
# Elastic Constant Matrix: (Units=GPa)
#
#
# Indices 1 2 3 4 5 6 
#
# 1 84.1620 38.4810 14.4810 0.0000 -11.0323 0.0000
# 2 38.4810 259.1492 37.4138 0.0000 18.1805 0.0000
# 3 14.4810 37.4138 82.5839 0.0000 -4.4320 0.0000
# 4 0.0000 0.0000 0.0000 -11.0327 0.0000 9.7216
# 5 -11.0323 18.1805 -4.4320 0.0000 32.3856 0.0000
# 6 0.0000 0.0000 0.0000 9.7216 0.0000 23.5459
#
#
#
# Elastic Compliance Matrix: (Units=1/GPa)
#
#
# Indices 1 2 3 4 5 6 
#
# 1 0.013900 -0.002323 -0.001069 0.000000 0.005893 0.000000
# 2 -0.002323 0.004745 -0.001942 0.000000 -0.003721 0.000000
# 3 -0.001069 -0.001942 0.013313 0.000000 0.002548 0.000000
# 4 0.000000 0.000000 0.000000 -0.066460 0.000000 0.027440
# 5 0.005893 -0.003721 0.002548 0.000000 0.035323 0.000000
# 6 0.000000 0.000000 0.000000 0.027440 0.000000 0.031141
#
#
# Mechanical properties :
#
#
# Convention : Reuss Voigt Hill
#
# Bulk Modulus (GPa) = 46.96908 67.40519 57.18713
# Shear Modulus (GPa) = 100.55000 31.34774 65.94887
#
# Velocity S-wave (km/s) = 6.21744 3.47155 5.03528
# Velocity P-wave (km/s) = 8.34262 6.47942 7.46934
#
# Compressibility (1/GPa) = 0.02129060
#
# Stress axis : x y z
#
# Youngs Moduli (GPa) = 71.94010 210.74007 75.11525
#
# Poissons Ratio (x) = 0.48960 0.08027
# Poissons Ratio (y) = 0.16713 0.14588
# Poissons Ratio (z) = 0.07688 0.40927
#
# Static dielectric constant tensor:
#      x y z
#    x 2.063630 0.000000 0.053920 
#    y 0.000000 2.047650 0.000000 
#    z 0.053920 0.000000 2.072840 
# 
# From -- ./inp_files/28541.got.cif
#   From: 2010.05.17/outbox.cif.g08.bks.cpg/sg8_15_cif.got.tgz:28541.got - 2010.06.03 19:46:02.
