data_PCOD9132319
_publ_section_title
;
Structure prediction by ZEFSAII (Michael W. Deem and Ramdas Pophale) SiO2 
 PCOD9132319
Probable space group: C M
;
_chemical_formula_sum "Si O2"
_cell_formula_units_Z 32
_cell_length_a 24.755894
_cell_length_b 10.523486
_cell_length_c 6.665398
_cell_angle_alpha 90.000000
_cell_angle_beta 69.350331
_cell_angle_gamma 90.000000
_cell_volume 1624.897997
_symmetry_space_group_name_H-M "C M"
_symmetry_group_IT_number 8
_symmetry_cell_setting 'monoclinic'
loop_
_space_group_symop_operation_xyz
x,y,z
x,-y,z
1/2+x,1/2+y,z
1/2+x,1/2-y,z
loop_
_atom_site_type_symbol
_atom_site_label
_atom_site_fract_x
_atom_site_fract_y
_atom_site_fract_z
Si Si1 0.176340 0.353978 0.389060
Si Si2 0.496635 0.365730 0.925314
Si Si3 0.864843 0.646538 0.190153
Si Si4 0.885399 0.181764 0.829941
Si Si5 0.755242 0.858800 0.894423
Si Si6 0.040374 0.642985 0.586365
Si Si7 0.245709 0.157866 0.554491
Si Si8 0.959663 0.243189 0.361794
O O1 0.188043 0.500000 0.449538
O O2 0.107743 0.346777 0.448086
O O3 0.195815 0.236200 0.503367
O O4 0.211269 0.343428 0.135896
O O5 0.524946 0.500000 0.834922
O O6 0.430278 0.373038 0.933373
O O7 0.523868 0.247147 0.774428
O O8 0.495492 0.345406 0.164792
O O9 0.858210 0.500000 0.213748
O O10 0.804245 0.696572 0.356519
O O11 0.917120 0.684534 0.266688
O O12 0.876648 0.681060 0.943749
O O13 0.820820 0.134486 0.890171
O O14 0.918344 0.175045 0.576980
O O15 0.750824 0.735095 0.757528
O O16 0.743877 0.000000 0.816520
O O17 0.028240 0.500000 0.674692
O O18 0.001740 0.672186 0.441771
O O19 0.240224 0.000000 0.573658
#
# Coordination Sequence:
#
# PCOD9132319 Si02
#       8
#     4   4   4   4   4   4   4   4
#     4  10  23  44  65  89 121 164 212 257 301 360
#     4  10  23  40  61  92 128 162 203 255 309 366
#     4  10  20  34  56  88 128 163 199 248 308 367
#     4  10  20  37  57  89 124 164 205 243 300 367
#     4  11  22  38  62  91 124 165 207 251 304 366
#     4  10  23  43  67  90 119 162 214 259 302 360
#     4  11  23  39  60  91 126 162 202 252 309 365
#     4  10  21  37  60  90 125 162 201 249 306 363
#
# _framework density 19.693543999999999
#
# number of rings (size 3 to 8) (size 9 to 14) (size 15 to 20)
#    0.000    1.750    2.500    1.125    0.000   10.500 
#    0.000    2.500    0.000    0.000    0.000    0.000 
#    0.000    0.000    0.000    0.000    0.000    0.000 
#
# Total GULP energy -89072.912546 kJ/mol
# GULP energy per Si atom -5567.057034 kJ/mol
# Density = 1.964872 g / cm^3
# Si number density = 19.693544 Si / 1000 Ang^3
#
#
#
# Elastic Constant Matrix: (Units=GPa)
#
#
# Indices 1 2 3 4 5 6 
#
# 1 77.0472 44.9662 33.3980 0.0000 -13.2732 0.0000
# 2 44.9662 131.8000 52.8028 0.0000 -4.1561 0.0000
# 3 33.3980 52.8028 102.7045 0.0000 2.5671 0.0000
# 4 0.0000 0.0000 0.0000 -6.2735 0.0000 -26.7545
# 5 -13.2732 -4.1561 2.5671 0.0000 20.0519 0.0000
# 6 0.0000 0.0000 0.0000 -26.7545 0.0000 -3.0714
#
#
#
# Elastic Compliance Matrix: (Units=1/GPa)
#
#
# Indices 1 2 3 4 5 6 
#
# 1 0.019733 -0.004578 -0.004380 0.000000 0.012674 0.000000
# 2 -0.004578 0.010756 -0.004034 0.000000 -0.000284 0.000000
# 3 -0.004380 -0.004034 0.013371 0.000000 -0.005447 0.000000
# 4 0.000000 0.000000 0.000000 0.004410 0.000000 -0.038411
# 5 0.012674 -0.000284 -0.005447 0.000000 0.058898 0.000000
# 6 0.000000 0.000000 0.000000 -0.038411 0.000000 0.009007
#
#
# Mechanical properties :
#
#
# Convention : Reuss Voigt Hill
#
# Bulk Modulus (GPa) = 55.94080 63.76507 59.85294
# Shear Modulus (GPa) = 33.75682 14.16705 23.96194
#
# Velocity S-wave (km/s) = 4.14467 2.68503 3.49197
# Velocity P-wave (km/s) = 7.16740 6.48548 6.83495
#
# Compressibility (1/GPa) = 0.01787604
#
# Stress axis : x y z
#
# Youngs Moduli (GPa) = 50.67724 92.96804 74.78692
#
# Poissons Ratio (x) = 0.42559 0.32757
# Poissons Ratio (y) = 0.23199 0.30172
# Poissons Ratio (z) = 0.22197 0.37507
#
# Static dielectric constant tensor:
#      x y z
#    x 1.707760 0.000000 -0.019610 
#    y 0.000000 1.772250 0.000000 
#    z -0.019610 0.000000 1.702250 
# 
# From -- ./inp_files/6001.got.cif
#   From: 2010.05.17/outbox.cif.g08.bks.cpg/sg8_4_cif.got.tgz:6001.got - 2010.06.03 19:46:02.
