data_PCOD9132257
_publ_section_title
;
Structure prediction by ZEFSAII (Michael W. Deem and Ramdas Pophale) SiO2 
 PCOD9132257
Probable space group: C M
;
_chemical_formula_sum "Si O2"
_cell_formula_units_Z 32
_cell_length_a 28.960414
_cell_length_b 8.771724
_cell_length_c 16.444493
_cell_angle_alpha 90.000000
_cell_angle_beta 26.131505
_cell_angle_gamma 90.000000
_cell_volume 1839.881971
_symmetry_space_group_name_H-M "C M"
_symmetry_group_IT_number 8
_symmetry_cell_setting 'monoclinic'
loop_
_space_group_symop_operation_xyz
x,y,z
x,-y,z
1/2+x,1/2+y,z
1/2+x,1/2-y,z
loop_
_atom_site_type_symbol
_atom_site_label
_atom_site_fract_x
_atom_site_fract_y
_atom_site_fract_z
Si Si1 0.171620 0.816706 0.854290
Si Si2 0.469784 0.816910 0.262557
Si Si3 0.237926 0.182486 0.569487
Si Si4 0.394466 0.316381 0.548905
Si Si5 0.488526 0.316505 0.573770
Si Si6 0.149059 0.317894 0.545132
Si Si7 0.418908 0.183837 0.849377
Si Si8 0.718539 0.684030 0.269491
O O1 0.178778 0.777044 0.747001
O O2 0.276779 0.748088 0.727685
O O3 0.174547 0.000000 0.856235
O O4 0.068734 0.751193 0.059370
O O5 0.360213 0.778319 0.390639
O O6 0.457969 0.749807 0.371815
O O7 0.477192 0.000000 0.255133
O O8 0.190351 0.260568 0.565925
O O9 0.231440 0.000000 0.569946
O O10 0.392443 0.500000 0.547084
O O11 0.446150 0.270671 0.552745
O O12 0.483796 0.500000 0.585740
O O13 0.422614 0.248640 0.752557
O O14 0.609424 0.270959 0.398495
O O15 0.153882 0.500000 0.534352
O O16 0.214729 0.249887 0.366233
O O17 0.028193 0.270864 0.719686
O O18 0.416788 0.000000 0.848290
O O19 0.318773 0.234661 0.059383
O O20 0.720654 0.500000 0.271170
#
# Coordination Sequence:
#
# PCOD9132257 Si02
#       8
#     4   4   4   4   4   4   4   4
#     4  10  21  37  56  79 106 139 178 217 264 318
#     4  10  21  37  56  79 106 138 177 220 267 315
#     4   9  20  37  54  74 103 138 173 210 259 316
#     4  10  20  35  54  79 110 141 177 219 263 313
#     4   9  19  34  53  77 103 134 172 213 257 305
#     4  10  20  33  51  77 104 132 171 215 258 304
#     4   9  19  34  52  75 103 136 172 211 256 306
#     4   9  18  35  54  72 101 138 172 209 256 307
#
# _framework density 17.392420999999999
#
# number of rings (size 3 to 8) (size 9 to 14) (size 15 to 20)
#    0.000    2.500    0.000    2.250    0.000    7.000 
#    0.000    5.000    0.000    0.000    0.000    0.000 
#    0.000    0.000    0.000    0.000    0.000    0.000 
#
# Total GULP energy -89273.753591 kJ/mol
# GULP energy per Si atom -5579.609599 kJ/mol
# Density = 1.735283 g / cm^3
# Si number density = 17.392421 Si / 1000 Ang^3
#
#
#
# Elastic Constant Matrix: (Units=GPa)
#
#
# Indices 1 2 3 4 5 6 
#
# 1 165.1309 48.8961 86.7593 0.0000 22.8003 0.0000
# 2 48.8961 37.0498 46.2061 0.0000 6.4231 0.0000
# 3 86.7593 46.2061 181.6537 0.0000 18.8202 0.0000
# 4 0.0000 0.0000 0.0000 28.4057 0.0000 4.4867
# 5 22.8003 6.4231 18.8202 0.0000 9.9086 0.0000
# 6 0.0000 0.0000 0.0000 4.4867 0.0000 30.7903
#
#
#
# Elastic Compliance Matrix: (Units=1/GPa)
#
#
# Indices 1 2 3 4 5 6 
#
# 1 0.013043 -0.012535 -0.000963 0.000000 -0.020058 0.000000
# 2 -0.012535 0.052111 -0.008412 0.000000 0.011043 0.000000
# 3 -0.000963 -0.008412 0.009101 0.000000 -0.009618 0.000000
# 4 0.000000 0.000000 0.000000 0.036034 0.000000 -0.005251
# 5 -0.020058 0.011043 -0.009618 0.000000 0.158188 0.000000
# 6 0.000000 0.000000 0.000000 -0.005251 0.000000 0.033243
#
#
# Mechanical properties :
#
#
# Convention : Reuss Voigt Hill
#
# Bulk Modulus (GPa) = 32.85770 83.06193 57.95981
# Shear Modulus (GPa) = 14.05744 27.28578 20.67161
#
# Velocity S-wave (km/s) = 2.84606 3.96515 3.45126
# Velocity P-wave (km/s) = 5.45280 8.29605 7.01988
#
# Compressibility (1/GPa) = 0.03043427
#
# Stress axis : x y z
#
# Youngs Moduli (GPa) = 76.67021 19.18993 109.87771
#
# Poissons Ratio (x) = 0.24055 0.10579
# Poissons Ratio (y) = 0.96107 0.92431
# Poissons Ratio (z) = 0.07382 0.16143
#
# Static dielectric constant tensor:
#      x y z
#    x 1.569070 0.000000 -0.009130 
#    y 0.000000 1.583240 0.000000 
#    z -0.009130 0.000000 1.572880 
# 
# From -- ./inp_files/26520.got.cif
#   From: 2010.05.17/outbox.cif.g08.bks.cpg/sg8_14_cif.got.tgz:26520.got - 2010.06.03 19:46:02.
