data_PCOD9132984
_publ_section_title
;
Structure prediction by ZEFSAII (Michael W. Deem and Ramdas Pophale) SiO2 
 PCOD9132984
Probable space group: C M
;
_chemical_formula_sum "Si O2"
_cell_formula_units_Z 32
_cell_length_a 20.032486
_cell_length_b 7.770476
_cell_length_c 12.194752
_cell_angle_alpha 90.000000
_cell_angle_beta 51.926381
_cell_angle_gamma 90.000000
_cell_volume 1494.345553
_symmetry_space_group_name_H-M "C M"
_symmetry_group_IT_number 8
_symmetry_cell_setting 'monoclinic'
loop_
_space_group_symop_operation_xyz
x,y,z
x,-y,z
1/2+x,1/2+y,z
1/2+x,1/2-y,z
loop_
_atom_site_type_symbol
_atom_site_label
_atom_site_fract_x
_atom_site_fract_y
_atom_site_fract_z
Si Si1 0.862360 0.697474 0.135510
Si Si2 0.393570 0.199369 0.561516
Si Si3 0.705089 0.798968 0.801870
Si Si4 0.120596 0.208555 0.105087
Si Si5 0.931737 0.800650 0.279342
Si Si6 0.026595 0.296393 0.605063
Si Si7 0.035447 0.288605 0.847245
Si Si8 0.674918 0.709156 0.292153
O O1 0.859108 0.500000 0.099934
O O2 0.871261 0.702714 0.257700
O O3 0.771289 0.774886 0.199916
O O4 0.949180 0.769669 0.995730
O O5 0.294035 0.211134 0.686191
O O6 0.411340 0.287866 0.427752
O O7 0.451292 0.271840 0.602343
O O8 0.418002 0.000000 0.522582
O O9 0.622155 0.732491 0.820003
O O10 0.715039 0.000000 0.764576
O O11 0.685269 0.777495 0.950345
O O12 0.137568 0.260864 0.212377
O O13 0.026853 0.266781 0.166733
O O14 0.122498 0.000000 0.099997
O O15 0.928344 0.000000 0.250440
O O16 0.010627 0.500000 0.632917
O O17 0.031838 0.230707 0.724192
O O18 0.114047 0.270032 0.451011
O O19 0.037125 0.500000 0.849759
O O20 0.675493 0.500000 0.296661
#
# Coordination Sequence:
#
# PCOD9132984 Si02
#       8
#     4   4   4   4   4   4   4   4
#     4  10  21  39  63  88 118 156 200 244 296 355
#     4  11  24  40  62  89 120 157 202 250 299 355
#     4  11  23  39  62  89 120 157 199 248 300 356
#     4  10  21  39  62  87 118 155 199 248 299 352
#     4  11  22  39  63  87 120 157 198 250 298 351
#     4  10  22  40  62  85 117 159 198 243 297 356
#     4   9  20  39  60  84 116 155 196 238 291 354
#     4  10  22  39  62  89 119 156 196 247 298 349
#
# _framework density 21.414055999999999
#
# number of rings (size 3 to 8) (size 9 to 14) (size 15 to 20)
#    0.000    1.750    2.500    1.125    3.500    2.000 
#    0.000    1.250    0.000    0.000    0.000    0.000 
#    0.000    0.000    0.000    0.000    0.000    0.000 
#
# Total GULP energy -89372.549876 kJ/mol
# GULP energy per Si atom -5585.784367 kJ/mol
# Density = 2.136532 g / cm^3
# Si number density = 21.414056 Si / 1000 Ang^3
#
#
#
# Elastic Constant Matrix: (Units=GPa)
#
#
# Indices 1 2 3 4 5 6 
#
# 1 100.3282 -3.0243 36.6969 0.0000 -3.3650 0.0000
# 2 -3.0243 30.6459 -10.0469 0.0000 0.9197 0.0000
# 3 36.6969 -10.0469 107.4057 0.0000 3.3804 0.0000
# 4 0.0000 0.0000 0.0000 26.6166 0.0000 -2.3034
# 5 -3.3650 0.9197 3.3804 0.0000 41.1615 0.0000
# 6 0.0000 0.0000 0.0000 -2.3034 0.0000 5.2418
#
#
#
# Elastic Compliance Matrix: (Units=1/GPa)
#
#
# Indices 1 2 3 4 5 6 
#
# 1 0.011457 -0.000210 -0.003974 0.000000 0.001268 0.000000
# 2 -0.000210 0.033709 0.003258 0.000000 -0.001038 0.000000
# 3 -0.003974 0.003258 0.011014 0.000000 -0.001302 0.000000
# 4 0.000000 0.000000 0.000000 0.039056 0.000000 0.017162
# 5 0.001268 -0.001038 -0.001302 0.000000 0.024528 0.000000
# 6 0.000000 0.000000 0.000000 0.017162 0.000000 0.198315
#
#
# Mechanical properties :
#
#
# Convention : Reuss Voigt Hill
#
# Bulk Modulus (GPa) = 18.40704 31.73680 25.07192
# Shear Modulus (GPa) = 14.79108 28.92092 21.85600
#
# Velocity S-wave (km/s) = 2.63100 3.67898 3.19821
# Velocity P-wave (km/s) = 4.22422 5.73579 5.03703
#
# Compressibility (1/GPa) = 0.05432704
#
# Stress axis : x y z
#
# Youngs Moduli (GPa) = 87.28248 29.66553 90.79345
#
# Poissons Ratio (x) = 0.00624 0.36082
# Poissons Ratio (y) = 0.01835 -0.29578
# Poissons Ratio (z) = 0.34687 -0.09664
#
# Static dielectric constant tensor:
#      x y z
#    x 1.768420 0.000000 -0.006960 
#    y 0.000000 1.787740 0.000000 
#    z -0.006960 0.000000 1.729410 
# 
# From -- ./inp_files/23832.got.cif
#   From: 2010.05.17/outbox.cif.g08.bks.cpg/sg8_12_cif.got.tgz:23832.got - 2010.06.03 19:46:02.
