data_PCOD9132440
_publ_section_title
;
Structure prediction by ZEFSAII (Michael W. Deem and Ramdas Pophale) SiO2 
 PCOD9132440
Probable space group: C M
;
_chemical_formula_sum "Si O2"
_cell_formula_units_Z 32
_cell_length_a 14.548687
_cell_length_b 8.626152
_cell_length_c 14.218275
_cell_angle_alpha 90.000000
_cell_angle_beta 73.363437
_cell_angle_gamma 90.000000
_cell_volume 1709.687826
_symmetry_space_group_name_H-M "C M"
_symmetry_group_IT_number 8
_symmetry_cell_setting 'monoclinic'
loop_
_space_group_symop_operation_xyz
x,y,z
x,-y,z
1/2+x,1/2+y,z
1/2+x,1/2-y,z
loop_
_atom_site_type_symbol
_atom_site_label
_atom_site_fract_x
_atom_site_fract_y
_atom_site_fract_z
Si Si1 0.092260 0.813415 0.322540
Si Si2 0.389291 0.813444 0.313779
Si Si3 0.282038 0.684794 0.168972
Si Si4 0.197420 0.187800 0.478385
Si Si5 0.123087 0.185118 0.700520
Si Si6 0.430207 0.679044 0.842811
Si Si7 0.595670 0.818850 0.899263
Si Si8 0.754243 0.680832 0.974756
O O1 0.177844 0.740424 0.236333
O O2 0.119020 0.769795 0.422332
O O3 0.989554 0.753871 0.319471
O O4 0.097155 0.000000 0.313198
O O5 0.358915 0.753891 0.219631
O O6 0.301334 0.764677 0.408348
O O7 0.393019 0.000000 0.311338
O O8 0.287815 0.500000 0.167511
O O9 0.290912 0.750000 0.061784
O O10 0.170148 0.240827 0.590624
O O11 0.198018 0.000000 0.482251
O O12 0.006586 0.203371 0.736037
O O13 0.152690 0.276735 0.785794
O O14 0.140452 0.000000 0.708752
O O15 0.400761 0.500000 0.854115
O O16 0.498944 0.720626 0.911506
O O17 0.338270 0.786124 0.874946
O O18 0.573661 0.000000 0.908666
O O19 0.658920 0.766573 0.967765
O O20 0.735440 0.500000 0.989231
#
# Coordination Sequence:
#
# PCOD9132440 Si02
#       8
#     4   4   4   4   4   4   4   4
#     4  10  20  37  59  85 115 147 185 228 277 332
#     4  10  20  37  59  85 115 147 185 228 276 332
#     4  11  23  39  59  83 112 144 184 232 282 332
#     4   8  16  34  58  81 113 151 186 228 276 324
#     4   8  16  35  58  79 113 153 185 229 279 320
#     4   9  19  36  57  80 111 146 185 229 275 323
#     4  10  20  36  55  80 112 147 186 229 274 324
#     4  12  23  38  59  83 111 147 188 229 279 333
#
# _framework density 18.716868000000002
#
# number of rings (size 3 to 8) (size 9 to 14) (size 15 to 20)
#    0.750    1.500    0.000    4.875    0.000    1.000 
#    2.250    8.750    0.000    0.000    0.000    0.000 
#    0.000    0.000    0.000    0.000    0.000    0.000 
#
# Total GULP energy -89173.030093 kJ/mol
# GULP energy per Si atom -5573.314381 kJ/mol
# Density = 1.867427 g / cm^3
# Si number density = 18.716868 Si / 1000 Ang^3
#
#
#
# Elastic Constant Matrix: (Units=GPa)
#
#
# Indices 1 2 3 4 5 6 
#
# 1 71.4588 -4.6834 3.7862 0.0000 9.9923 0.0000
# 2 -4.6834 62.1577 12.5549 0.0000 0.7435 0.0000
# 3 3.7862 12.5549 55.4849 0.0000 6.2478 0.0000
# 4 0.0000 0.0000 0.0000 20.9328 0.0000 0.6648
# 5 9.9923 0.7435 6.2478 0.0000 12.0097 0.0000
# 6 0.0000 0.0000 0.0000 0.6648 0.0000 29.0254
#
#
#
# Elastic Compliance Matrix: (Units=1/GPa)
#
#
# Indices 1 2 3 4 5 6 
#
# 1 0.015952 0.001338 0.000119 0.000000 -0.013417 0.000000
# 2 0.001338 0.016982 -0.003920 0.000000 -0.000126 0.000000
# 3 0.000119 -0.003920 0.020061 0.000000 -0.010293 0.000000
# 4 0.000000 0.000000 0.000000 0.047807 0.000000 -0.001095
# 5 -0.013417 -0.000126 -0.010293 0.000000 0.099792 0.000000
# 6 0.000000 0.000000 0.000000 -0.001095 0.000000 0.034478
#
#
# Mechanical properties :
#
#
# Convention : Reuss Voigt Hill
#
# Bulk Modulus (GPa) = 20.80285 23.60188 22.20237
# Shear Modulus (GPa) = 19.52987 24.22317 21.87652
#
# Velocity S-wave (km/s) = 3.23373 3.60139 3.42250
# Velocity P-wave (km/s) = 5.00812 5.47089 5.24461
#
# Compressibility (1/GPa) = 0.04807033
#
# Stress axis : x y z
#
# Youngs Moduli (GPa) = 62.68962 58.88515 49.84863
#
# Poissons Ratio (x) = -0.07880 -0.00596
# Poissons Ratio (y) = -0.08390 0.19540
# Poissons Ratio (z) = -0.00749 0.23082
#
# Static dielectric constant tensor:
#      x y z
#    x 1.637340 0.000000 -0.018960 
#    y 0.000000 1.620790 0.000000 
#    z -0.018960 0.000000 1.675760 
# 
# From -- ./inp_files/26429.got.cif
#   From: 2010.05.17/outbox.cif.g08.bks.cpg/sg8_14_cif.got.tgz:26429.got - 2010.06.03 19:46:02.
