data_PCOD9132107
_publ_section_title
;
Structure prediction by ZEFSAII (Michael W. Deem and Ramdas Pophale) SiO2 
 PCOD9132107
Probable space group: C M
;
_chemical_formula_sum "Si O2"
_cell_formula_units_Z 32
_cell_length_a 29.198652
_cell_length_b 8.542599
_cell_length_c 12.236019
_cell_angle_alpha 90.000000
_cell_angle_beta 146.871796
_cell_angle_gamma 90.000000
_cell_volume 1667.993934
_symmetry_space_group_name_H-M "C M"
_symmetry_group_IT_number 8
_symmetry_cell_setting 'monoclinic'
loop_
_space_group_symop_operation_xyz
x,y,z
x,-y,z
1/2+x,1/2+y,z
1/2+x,1/2-y,z
loop_
_atom_site_type_symbol
_atom_site_label
_atom_site_fract_x
_atom_site_fract_y
_atom_site_fract_z
Si Si1 0.577610 0.813095 0.587570
Si Si2 0.763345 0.310930 0.431429
Si Si3 0.015972 0.187381 0.693613
Si Si4 0.826750 0.310894 0.318288
Si Si5 0.417873 0.312409 0.880890
Si Si6 0.257108 0.188759 0.945476
Si Si7 0.918357 0.689374 0.127439
Si Si8 0.075761 0.809116 0.052178
O O1 0.560643 0.755231 0.676524
O O2 0.667964 0.753545 0.730698
O O3 0.500931 0.757537 0.358236
O O4 0.576651 0.000000 0.585167
O O5 0.766849 0.500000 0.445809
O O6 0.782617 0.268403 0.343798
O O7 0.835443 0.242465 0.651655
O O8 0.669088 0.259592 0.272006
O O9 0.056232 0.239770 0.888768
O O10 0.919299 0.239372 0.499715
O O11 0.021462 0.000000 0.700032
O O12 0.834595 0.500000 0.330920
O O13 0.776590 0.263251 0.109530
O O14 0.419424 0.500000 0.885480
O O15 0.500559 0.256764 0.980278
O O16 0.418082 0.249560 0.003956
O O17 0.253553 0.000000 0.936245
O O18 0.335012 0.239251 0.026253
O O19 0.918623 0.500000 0.127097
O O20 0.075244 0.000000 0.051478
#
# Coordination Sequence:
#
# PCOD9132107 Si02
#       8
#     4   4   4   4   4   4   4   4
#     4  11  23  40  61  90 123 152 194 245 294 349
#     4  10  20  37  62  86 115 155 195 233 292 358
#     4  11  20  35  61  89 122 158 195 236 292 355
#     4  10  19  35  60  89 121 155 193 240 294 352
#     4  11  23  40  60  85 117 149 198 253 292 337
#     4  10  21  40  63  87 119 157 195 237 295 357
#     4  10  23  43  62  81 115 158 198 241 294 353
#     4   9  20  38  59  85 118 156 192 235 287 349
#
# _framework density 19.184722000000001
#
# number of rings (size 3 to 8) (size 9 to 14) (size 15 to 20)
#    0.000    1.750    2.500    1.875    0.000    5.000 
#    0.000    7.500    0.000    0.000    0.000    0.000 
#    0.000    0.000    0.000    0.000    0.000    0.000 
#
# Total GULP energy -89395.341111 kJ/mol
# GULP energy per Si atom -5587.208819 kJ/mol
# Density = 1.914106 g / cm^3
# Si number density = 19.184722 Si / 1000 Ang^3
#
#
#
# Elastic Constant Matrix: (Units=GPa)
#
#
# Indices 1 2 3 4 5 6 
#
# 1 138.6830 28.3310 132.2208 0.0000 -5.2047 0.0000
# 2 28.3310 11.5472 31.6273 0.0000 1.8948 0.0000
# 3 132.2208 31.6273 155.6672 0.0000 25.0316 0.0000
# 4 0.0000 0.0000 0.0000 19.0947 0.0000 4.5934
# 5 -5.2047 1.8948 25.0316 0.0000 36.9964 0.0000
# 6 0.0000 0.0000 0.0000 4.5934 0.0000 28.0163
#
#
#
# Elastic Compliance Matrix: (Units=1/GPa)
#
#
# Indices 1 2 3 4 5 6 
#
# 1 0.204746 0.046540 -0.210515 0.000000 0.168855 0.000000
# 2 0.046540 0.218365 -0.093301 0.000000 0.058490 0.000000
# 3 -0.210515 -0.093301 0.233597 0.000000 -0.182888 0.000000
# 4 0.000000 0.000000 0.000000 0.054521 0.000000 -0.008939
# 5 0.168855 0.058490 -0.182888 0.000000 0.171530 0.000000
# 6 0.000000 0.000000 0.000000 -0.008939 0.000000 0.037159
#
#
# Mechanical properties :
#
#
# Convention : Reuss Voigt Hill
#
# Bulk Modulus (GPa) = 7.03461 76.69505 41.86483
# Shear Modulus (GPa) = 3.37415 24.40269 13.88842
#
# Velocity S-wave (km/s) = 1.32762 3.57036 2.69352
# Velocity P-wave (km/s) = 2.45456 7.55384 5.61629
#
# Compressibility (1/GPa) = 0.14215437
#
# Stress axis : x y z
#
# Youngs Moduli (GPa) = 4.88409 4.57949 4.28088
#
# Poissons Ratio (x) = -0.21313 0.90119
# Poissons Ratio (y) = -0.22730 0.39941
# Poissons Ratio (z) = 1.02818 0.42727
#
# Static dielectric constant tensor:
#      x y z
#    x 1.653700 0.000000 0.010950 
#    y 0.000000 1.660040 0.000000 
#    z 0.010950 0.000000 1.651240 
# 
# From -- ./inp_files/21394.got.cif
#   From: 2010.05.17/outbox.cif.g08.bks.cpg/sg8_11_cif.got.tgz:21394.got - 2010.06.03 19:46:02.
