data_PCOD9132840
_publ_section_title
;
Structure prediction by ZEFSAII (Michael W. Deem and Ramdas Pophale) SiO2 
 PCOD9132840
Probable space group: C M
;
_chemical_formula_sum "Si O2"
_cell_formula_units_Z 32
_cell_length_a 6.858443
_cell_length_b 15.615236
_cell_length_c 14.161603
_cell_angle_alpha 90.000000
_cell_angle_beta 110.696681
_cell_angle_gamma 90.000000
_cell_volume 1418.775939
_symmetry_space_group_name_H-M "C M"
_symmetry_group_IT_number 8
_symmetry_cell_setting 'monoclinic'
loop_
_space_group_symop_operation_xyz
x,y,z
x,-y,z
1/2+x,1/2+y,z
1/2+x,1/2-y,z
loop_
_atom_site_type_symbol
_atom_site_label
_atom_site_fract_x
_atom_site_fract_y
_atom_site_fract_z
Si Si1 0.746220 0.252946 0.207020
Si Si2 0.026710 0.669160 0.731323
Si Si3 0.112629 0.759470 0.363475
Si Si4 0.704742 0.089889 0.487659
Si Si5 0.431880 0.103562 0.112657
Si Si6 0.771001 0.595533 0.526864
Si Si7 0.370890 0.094240 0.881588
Si Si8 0.454413 0.633505 0.707092
O O1 0.845110 0.265996 0.333628
O O2 0.645136 0.160134 0.159976
O O3 0.768124 0.339763 0.147045
O O4 0.014945 0.224427 0.235567
O O5 0.838647 0.622353 0.643894
O O6 0.996709 0.660039 0.837867
O O7 0.012566 0.767518 0.700037
O O8 0.244414 0.631780 0.733687
O O9 0.190904 0.669445 0.418567
O O10 0.144520 0.835251 0.444958
O O11 0.495365 0.092786 0.513722
O O12 0.890220 0.096014 0.595030
O O13 0.707889 0.000000 0.435414
O O14 0.444511 0.000000 0.137416
O O15 0.371240 0.110996 0.992369
O O16 0.683764 0.500000 0.507249
O O17 0.139397 0.094717 0.799368
O O18 0.464170 0.000000 0.881455
#
# Coordination Sequence:
#
# PCOD9132840 Si02
#       8
#     4   4   4   4   4   4   4   4
#     4  10  24  41  70  92 128 169 222 290 337 397
#     4  11  22  38  64  97 134 179 218 270 320 408
#     4  11  20  39  63  94 123 168 220 263 329 400
#     4  10  21  37  60  90 134 178 215 263 324 398
#     4  10  25  49  70  97 132 171 226 290 351 405
#     4  10  21  36  57  89 132 172 210 261 323 392
#     4  11  25  44  68  98 132 173 223 280 343 407
#     4  11  22  38  65  97 135 180 223 263 328 405
#
# _framework density 22.554656000000001
#
# number of rings (size 3 to 8) (size 9 to 14) (size 15 to 20)
#    0.000    1.500    3.750    0.750    1.750    5.500 
#    2.250    3.125    0.000    0.000    0.000    0.000 
#    0.000    0.000    0.000    0.000    0.000    0.000 
#
# Total GULP energy -89218.707332 kJ/mol
# GULP energy per Si atom -5576.169208 kJ/mol
# Density = 2.250332 g / cm^3
# Si number density = 22.554656 Si / 1000 Ang^3
#
#
#
# Elastic Constant Matrix: (Units=GPa)
#
#
# Indices 1 2 3 4 5 6 
#
# 1 130.6880 24.3224 36.6013 0.0000 -1.9755 0.0000
# 2 24.3224 180.6183 74.3725 0.0000 -13.5483 0.0000
# 3 36.6013 74.3725 120.6821 0.0000 -6.3667 0.0000
# 4 0.0000 0.0000 0.0000 58.3289 0.0000 -1.8091
# 5 -1.9755 -13.5483 -6.3667 0.0000 35.7782 0.0000
# 6 0.0000 0.0000 0.0000 -1.8091 0.0000 29.2647
#
#
#
# Elastic Compliance Matrix: (Units=1/GPa)
#
#
# Indices 1 2 3 4 5 6 
#
# 1 0.008364 -0.000111 -0.002469 0.000000 -0.000020 0.000000
# 2 -0.000111 0.007567 -0.004521 0.000000 0.002055 0.000000
# 3 -0.002469 -0.004521 0.011835 0.000000 0.000258 0.000000
# 4 0.000000 0.000000 0.000000 0.017177 0.000000 0.001062
# 5 -0.000020 0.002055 0.000258 0.000000 0.028773 0.000000
# 6 0.000000 0.000000 0.000000 0.001062 0.000000 0.034236
#
#
# Mechanical properties :
#
#
# Convention : Reuss Voigt Hill
#
# Bulk Modulus (GPa) = 73.73081 78.06453 75.89767
# Shear Modulus (GPa) = 39.47042 44.45384 41.96213
#
# Velocity S-wave (km/s) = 4.18783 4.44434 4.31799
# Velocity P-wave (km/s) = 7.49297 7.81170 7.65400
#
# Compressibility (1/GPa) = 0.01356285
#
# Stress axis : x y z
#
# Youngs Moduli (GPa) = 119.56404 132.14544 84.49404
#
# Poissons Ratio (x) = 0.01467 0.20864
# Poissons Ratio (y) = 0.01327 0.38204
# Poissons Ratio (z) = 0.29523 0.59749
#
# Static dielectric constant tensor:
#      x y z
#    x 2.127770 0.000000 0.000920 
#    y 0.000000 1.776740 0.000000 
#    z 0.000920 0.000000 1.787850 
# 
# From -- ./inp_files/25366.got.cif
#   From: 2010.05.17/outbox.cif.g08.bks.cpg/sg8_13_cif.got.tgz:25366.got - 2010.06.03 19:46:02.
