data_PCOD9132617
_publ_section_title
;
Structure prediction by ZEFSAII (Michael W. Deem and Ramdas Pophale) SiO2 
 PCOD9132617
Probable space group: C M
;
_chemical_formula_sum "Si O2"
_cell_formula_units_Z 26
_cell_length_a 14.349270
_cell_length_b 7.526697
_cell_length_c 22.065031
_cell_angle_alpha 90.000000
_cell_angle_beta 37.817669
_cell_angle_gamma 90.000000
_cell_volume 1461.187697
_symmetry_space_group_name_H-M "C M"
_symmetry_group_IT_number 8
_symmetry_cell_setting 'monoclinic'
loop_
_space_group_symop_operation_xyz
x,y,z
x,-y,z
1/2+x,1/2+y,z
1/2+x,1/2-y,z
loop_
_atom_site_type_symbol
_atom_site_label
_atom_site_fract_x
_atom_site_fract_y
_atom_site_fract_z
Si Si1 0.127050 0.206044 0.468670
Si Si2 0.073742 0.285070 0.633593
Si Si3 0.675339 0.500000 0.161458
Si Si4 0.890517 0.500000 0.158537
Si Si5 0.516227 0.000000 0.966587
Si Si6 0.787604 0.783599 0.633466
Si Si7 0.227286 0.794932 0.802291
Si Si8 0.935567 0.702854 0.252641
O O1 0.130694 0.217460 0.539497
O O2 0.280303 0.279543 0.360860
O O3 0.961574 0.279867 0.536123
O O4 0.126037 0.000000 0.449874
O O5 0.075737 0.500000 0.629350
O O6 0.180342 0.228529 0.633698
O O7 0.897849 0.233323 0.732483
O O8 0.732216 0.500000 0.202548
O O9 0.574696 0.329358 0.196837
O O10 0.836668 0.500000 0.043519
O O11 0.909871 0.666162 0.194142
O O12 0.013203 0.500000 0.041502
O O13 0.602200 0.169831 0.895965
O O14 0.727125 0.720065 0.729391
O O15 0.790182 0.000000 0.634640
O O16 0.207922 0.000000 0.829801
O O17 0.960604 0.500000 0.263959
#
# Coordination Sequence:
#
# PCOD9132617 Si02
#       8
#     4   4   2   2   2   4   4   4
#     4   9  18  32  56  79 119 156 184 239 293 346
#     4   9  19  32  53  87 117 154 194 228 288 365
#     4  10  22  42  67  84 117 166 201 262 313 358
#     4   8  22  44  60  90 122 150 210 262 308 357
#     4  10  22  44  57  84 115 156 205 252 315 349
#     4   9  17  34  55  83 122 156 186 236 287 359
#     4  10  20  38  57  82 118 154 192 247 296 349
#     4   9  20  42  60  90 124 155 207 256 306 362
#
# _framework density 17.793745000000001
#
# number of rings (size 3 to 8) (size 9 to 14) (size 15 to 20)
#    0.923    1.846    0.769    0.000    2.154    2.462 
#    5.538    0.000    0.000    0.000    0.000    0.000 
#    0.000    0.000    0.000    0.000    0.000    0.000 
#
# Total GULP energy -72383.492152 kJ/mol
# GULP energy per Si atom -5567.960935 kJ/mol
# Density = 1.775325 g / cm^3
# Si number density = 17.793745 Si / 1000 Ang^3
#
#
#
# Elastic Constant Matrix: (Units=GPa)
#
#
# Indices 1 2 3 4 5 6 
#
# 1 130.9755 26.1594 55.4768 0.0000 -21.0210 0.0000
# 2 26.1594 77.4520 45.0789 0.0000 -9.6016 0.0000
# 3 55.4768 45.0789 154.8869 0.0000 -14.7747 0.0000
# 4 0.0000 0.0000 0.0000 19.7738 0.0000 -9.5635
# 5 -21.0210 -9.6016 -14.7747 0.0000 10.5220 0.0000
# 6 0.0000 0.0000 0.0000 -9.5635 0.0000 -0.4887
#
#
#
# Elastic Compliance Matrix: (Units=1/GPa)
#
#
# Indices 1 2 3 4 5 6 
#
# 1 0.011913 -0.000168 -0.002266 0.000000 0.020465 0.000000
# 2 -0.000168 0.016329 -0.003814 0.000000 0.009211 0.000000
# 3 -0.002266 -0.003814 0.008792 0.000000 0.004338 0.000000
# 4 0.000000 0.000000 0.000000 0.004833 0.000000 -0.094572
# 5 0.020465 0.009211 0.004338 0.000000 0.150420 0.000000
# 6 0.000000 0.000000 0.000000 -0.094572 0.000000 -0.195539
#
#
# Mechanical properties :
#
#
# Convention : Reuss Voigt Hill
#
# Bulk Modulus (GPa) = 40.75167 68.52718 54.63943
# Shear Modulus (GPa) = 286.99265 21.73472 154.36368
#
# Velocity S-wave (km/s) = 12.71372 3.49876 9.32416
# Velocity P-wave (km/s) = 15.44248 7.41062 12.11172
#
# Compressibility (1/GPa) = 0.02453887
#
# Stress axis : x y z
#
# Youngs Moduli (GPa) = 83.94346 61.23890 113.74332
#
# Poissons Ratio (x) = 0.01027 0.25773
# Poissons Ratio (y) = 0.01408 0.43381
# Poissons Ratio (z) = 0.19021 0.23356
#
# Static dielectric constant tensor:
#      x y z
#    x 1.594970 0.000000 -0.012390 
#    y 0.000000 1.637660 0.000000 
#    z -0.012390 0.000000 1.594970 
# 
# From -- ./inp_files/21182.got.cif
#   From: 2010.05.17/outbox.cif.g08.bks.cpg/sg8_11_cif.got.tgz:21182.got - 2010.06.03 19:46:02.
