data_PCOD9132673
_publ_section_title
;
Structure prediction by ZEFSAII (Michael W. Deem and Ramdas Pophale) SiO2 
 PCOD9132673
Probable space group: C M
;
_chemical_formula_sum "Si O2"
_cell_formula_units_Z 20
_cell_length_a 9.333064
_cell_length_b 23.025396
_cell_length_c 8.101489
_cell_angle_alpha 90.000000
_cell_angle_beta 31.251412
_cell_angle_gamma 90.000000
_cell_volume 903.215572
_symmetry_space_group_name_H-M "C M"
_symmetry_group_IT_number 8
_symmetry_cell_setting 'monoclinic'
loop_
_space_group_symop_operation_xyz
x,y,z
x,-y,z
1/2+x,1/2+y,z
1/2+x,1/2-y,z
loop_
_atom_site_type_symbol
_atom_site_label
_atom_site_fract_x
_atom_site_fract_y
_atom_site_fract_z
Si Si1 0.565990 0.807068 0.369250
Si Si2 0.299575 0.123367 0.135738
Si Si3 0.566228 0.373259 0.737699
Si Si4 0.510019 0.000000 0.999624
Si Si5 0.520251 0.500000 0.720524
Si Si6 0.806618 0.811886 0.495764
O O1 0.314204 0.852457 0.609287
O O2 0.693050 0.802282 0.425022
O O3 0.444623 0.746343 0.428058
O O4 0.808876 0.830735 0.013301
O O5 0.181766 0.128957 0.437298
O O6 0.044060 0.139254 0.270509
O O7 0.423417 0.058922 0.994495
O O8 0.548255 0.167816 0.859855
O O9 0.473905 0.439586 0.858601
O O10 0.332962 0.000000 0.344553
O O11 0.825265 0.000000 0.749623
#
# Coordination Sequence:
#
# PCOD9132673 Si02
#       6
#     4   4   4   2   2   4
#     4  12  26  44  64  94 133 175 217 270 328 385
#     4  11  23  43  69  98 129 170 219 268 319 386
#     4  11  23  43  69  98 129 170 219 268 319 386
#     4  10  20  38  67 100 129 166 215 264 317 386
#     4  10  20  38  67 100 129 166 215 264 317 386
#     4  12  26  44  64  94 133 175 217 270 328 385
#
# _framework density 22.143108000000002
#
# number of rings (size 3 to 8) (size 9 to 14) (size 15 to 20)
#    0.000    0.800    0.000    9.600    0.000    3.200 
#    0.000    6.000    0.000    0.000    0.000    0.000 
#    0.000    0.000    0.000    0.000    0.000    0.000 
#
# Total GULP energy -56018.362523 kJ/mol
# GULP energy per Si atom -5601.836252 kJ/mol
# Density = 2.209271 g / cm^3
# Si number density = 22.143108 Si / 1000 Ang^3
#
#
#
# Elastic Constant Matrix: (Units=GPa)
#
#
# Indices 1 2 3 4 5 6 
#
# 1 142.6754 80.5911 28.9667 0.0000 -30.7583 0.0000
# 2 80.5911 162.3887 60.2022 0.0000 -8.8018 0.0000
# 3 28.9667 60.2022 127.6494 0.0000 -14.3368 0.0000
# 4 0.0000 0.0000 0.0000 34.0160 0.0000 -11.5098
# 5 -30.7583 -8.8018 -14.3368 0.0000 38.8816 0.0000
# 6 0.0000 0.0000 0.0000 -11.5098 0.0000 36.0579
#
#
#
# Elastic Compliance Matrix: (Units=1/GPa)
#
#
# Indices 1 2 3 4 5 6 
#
# 1 0.011928 -0.005829 0.000995 0.000000 0.008484 0.000000
# 2 -0.005829 0.010317 -0.003963 0.000000 -0.003737 0.000000
# 3 0.000995 -0.003963 0.009874 0.000000 0.003531 0.000000
# 4 0.000000 0.000000 0.000000 0.032958 0.000000 0.010520
# 5 0.008484 -0.003737 0.003531 0.000000 0.032886 0.000000
# 6 0.000000 0.000000 0.000000 0.010520 0.000000 0.031091
#
#
# Mechanical properties :
#
#
# Convention : Reuss Voigt Hill
#
# Bulk Modulus (GPa) = 68.84230 85.80372 77.32301
# Shear Modulus (GPa) = 33.00546 39.32133 36.16339
#
# Velocity S-wave (km/s) = 3.86496 4.21857 4.04563
# Velocity P-wave (km/s) = 7.14663 7.90963 7.53779
#
# Compressibility (1/GPa) = 0.01452595
#
# Stress axis : x y z
#
# Youngs Moduli (GPa) = 83.83424 96.92273 101.27896
#
# Poissons Ratio (x) = 0.56495 -0.10078
# Poissons Ratio (y) = 0.48866 0.40136
# Poissons Ratio (z) = -0.08342 0.38410
#
# Static dielectric constant tensor:
#      x y z
#    x 1.787380 0.000000 0.017190 
#    y 0.000000 1.834400 0.000000 
#    z 0.017190 0.000000 1.817820 
# 
# From -- ./inp_files/9015.got.cif
#   From: 2010.05.17/outbox.cif.g08.bks.cpg/sg8_5_cif.got.tgz:9015.got - 2010.06.03 19:46:02.
