data_PCOD9132959
_publ_section_title
;
Structure prediction by ZEFSAII (Michael W. Deem and Ramdas Pophale) SiO2 
 PCOD9132959
Probable space group: C M
;
_chemical_formula_sum "Si O2"
_cell_formula_units_Z 32
_cell_length_a 11.516971
_cell_length_b 22.005957
_cell_length_c 6.104659
_cell_angle_alpha 90.000000
_cell_angle_beta 88.521643
_cell_angle_gamma 90.000000
_cell_volume 1546.661804
_symmetry_space_group_name_H-M "C M"
_symmetry_group_IT_number 8
_symmetry_cell_setting 'monoclinic'
loop_
_space_group_symop_operation_xyz
x,y,z
x,-y,z
1/2+x,1/2+y,z
1/2+x,1/2-y,z
loop_
_atom_site_type_symbol
_atom_site_label
_atom_site_fract_x
_atom_site_fract_y
_atom_site_fract_z
Si Si1 0.276230 0.147708 0.696970
Si Si2 0.714732 0.929018 0.427192
Si Si3 0.547421 0.839558 0.681727
Si Si4 0.146116 0.764178 0.372729
Si Si5 0.410165 0.383490 0.741321
Si Si6 0.617588 0.567498 0.487725
Si Si7 0.733183 0.166390 0.044234
Si Si8 0.594535 0.366691 0.076708
O O1 0.411529 0.153171 0.723863
O O2 0.230686 0.193655 0.512361
O O3 0.233555 0.081905 0.614219
O O4 0.196195 0.156145 0.912700
O O5 0.603890 0.894104 0.535376
O O6 0.814111 0.921216 0.610932
O O7 0.747644 0.892667 0.202032
O O8 0.696575 0.000000 0.385836
O O9 0.575126 0.778654 0.541549
O O10 0.615522 0.837778 0.908496
O O11 0.222788 0.721432 0.212181
O O12 0.067336 0.806398 0.219363
O O13 0.517584 0.384862 0.567599
O O14 0.332420 0.329639 0.850936
O O15 0.487774 0.397125 0.952998
O O16 0.573981 0.500000 0.529285
O O17 0.640763 0.581909 0.236042
#
# Coordination Sequence:
#
# PCOD9132959 Si02
#       8
#     4   4   4   4   4   4   4   4
#     4  10  23  43  63  90 127 165 214 260 321 385
#     4  10  22  40  62  93 131 169 212 266 318 375
#     4  10  23  43  63  90 127 165 214 260 321 385
#     4  10  22  42  62  96 126 164 208 270 326 390
#     4  10  21  38  64  92 126 162 215 260 320 382
#     4  10  22  40  62  93 131 169 212 266 318 375
#     4  10  22  40  62  97 124 169 214 263 326 384
#     4  10  22  40  62  97 124 169 214 263 326 384
#
# _framework density 20.689719
#
# number of rings (size 3 to 8) (size 9 to 14) (size 15 to 20)
#    0.000    2.000    0.000    1.875    1.750    9.500 
#   22.500    0.000    0.000    0.000    0.000    0.000 
#    0.000    0.000    0.000    0.000    0.000    0.000 
#
# Total GULP energy -89088.793598 kJ/mol
# GULP energy per Si atom -5568.049600 kJ/mol
# Density = 2.064263 g / cm^3
# Si number density = 20.689719 Si / 1000 Ang^3
#
#
#
# Elastic Constant Matrix: (Units=GPa)
#
#
# Indices 1 2 3 4 5 6 
#
# 1 119.6537 18.9696 41.3545 0.0000 1.4583 0.0000
# 2 18.9696 83.5346 51.1196 0.0000 -4.7341 0.0000
# 3 41.3545 51.1196 110.5901 0.0000 1.9984 0.0000
# 4 0.0000 0.0000 0.0000 14.7555 0.0000 4.1338
# 5 1.4583 -4.7341 1.9984 0.0000 24.8339 0.0000
# 6 0.0000 0.0000 0.0000 4.1338 0.0000 9.3062
#
#
#
# Elastic Compliance Matrix: (Units=1/GPa)
#
#
# Indices 1 2 3 4 5 6 
#
# 1 0.009600 -0.000003 -0.003584 0.000000 -0.000276 0.000000
# 2 -0.000003 0.017061 -0.007956 0.000000 0.003893 0.000000
# 3 -0.003584 -0.007956 0.014104 0.000000 -0.002441 0.000000
# 4 0.000000 0.000000 0.000000 0.077404 0.000000 -0.034383
# 5 -0.000276 0.003893 -0.002441 0.000000 0.041222 0.000000
# 6 0.000000 0.000000 0.000000 -0.034383 0.000000 0.122727
#
#
# Mechanical properties :
#
#
# Convention : Reuss Voigt Hill
#
# Bulk Modulus (GPa) = 56.55804 59.62953 58.09379
# Shear Modulus (GPa) = 16.07225 23.26811 19.67018
#
# Velocity S-wave (km/s) = 2.79018 3.35718 3.08672
# Velocity P-wave (km/s) = 6.14620 6.62653 6.39088
#
# Compressibility (1/GPa) = 0.01768095
#
# Stress axis : x y z
#
# Youngs Moduli (GPa) = 104.16907 58.61392 70.90181
#
# Poissons Ratio (x) = 0.00015 0.25408
# Poissons Ratio (y) = 0.00027 0.56407
# Poissons Ratio (z) = 0.37330 0.46631
#
# Static dielectric constant tensor:
#      x y z
#    x 1.736070 0.000000 -0.001700 
#    y 0.000000 1.783140 0.000000 
#    z -0.001700 0.000000 1.773700 
# 
# From -- ./inp_files/3116.got.cif
#   From: 2010.05.17/outbox.cif.g08.bks.cpg/sg8_2_cif.got.tgz:3116.got - 2010.06.03 19:46:02.
