data_PCOD9132712
_publ_section_title
;
Structure prediction by ZEFSAII (Michael W. Deem and Ramdas Pophale) SiO2 
 PCOD9132712
Probable space group: C M
;
_chemical_formula_sum "Si O2"
_cell_formula_units_Z 32
_cell_length_a 11.156555
_cell_length_b 15.084754
_cell_length_c 16.729499
_cell_angle_alpha 90.000000
_cell_angle_beta 32.483491
_cell_angle_gamma 90.000000
_cell_volume 1512.067976
_symmetry_space_group_name_H-M "C M"
_symmetry_group_IT_number 8
_symmetry_cell_setting 'monoclinic'
loop_
_space_group_symop_operation_xyz
x,y,z
x,-y,z
1/2+x,1/2+y,z
1/2+x,1/2-y,z
loop_
_atom_site_type_symbol
_atom_site_label
_atom_site_fract_x
_atom_site_fract_y
_atom_site_fract_z
Si Si1 0.109390 0.223743 0.103870
Si Si2 0.177374 0.401999 0.610745
Si Si3 0.665612 0.894770 0.344765
Si Si4 0.153423 0.100734 0.329820
Si Si5 0.458946 0.793882 0.614233
Si Si6 0.096813 0.654977 0.826022
Si Si7 0.877176 0.673204 0.362837
Si Si8 0.595507 0.102145 0.003160
O O1 0.889509 0.165220 0.205165
O O2 0.052570 0.258313 0.224920
O O3 0.154839 0.312020 0.023882
O O4 0.332328 0.167203 0.975172
O O5 0.161636 0.500000 0.584430
O O6 0.413682 0.353718 0.456821
O O7 0.975061 0.349175 0.686133
O O8 0.165846 0.403355 0.712043
O O9 0.543302 0.852932 0.491867
O O10 0.500938 0.880560 0.362005
O O11 0.713442 0.000000 0.328348
O O12 0.292420 0.123377 0.330538
O O13 0.324968 0.105946 0.161181
O O14 0.085544 0.000000 0.378437
O O15 0.221573 0.748069 0.739233
O O16 0.647019 0.718218 0.519034
O O17 0.169833 0.618148 0.870816
O O18 0.655370 0.000000 0.995054
#
# Coordination Sequence:
#
# PCOD9132712 Si02
#       8
#     4   4   4   4   4   4   4   4
#     4  10  24  41  65  93 135 176 217 272 342 392
#     4  11  23  39  60  90 127 167 215 269 329 389
#     4  11  24  42  68 101 134 177 230 277 329 401
#     4   9  19  37  62  91 123 162 209 267 324 385
#     4  11  24  40  63  90 134 174 217 271 336 390
#     4  12  23  42  62  95 130 176 217 271 328 399
#     4  10  20  39  65  93 126 167 216 269 328 393
#     4  10  22  40  64  95 127 169 222 270 327 395
#
# _framework density 21.163069
#
# number of rings (size 3 to 8) (size 9 to 14) (size 15 to 20)
#    0.000    1.500    1.250    3.375    7.000    1.500 
#    0.000    2.500    0.000    0.000    0.000    0.000 
#    0.000    0.000    0.000    0.000    0.000    0.000 
#
# Total GULP energy -89199.382299 kJ/mol
# GULP energy per Si atom -5574.961394 kJ/mol
# Density = 2.111490 g / cm^3
# Si number density = 21.163069 Si / 1000 Ang^3
#
#
#
# Elastic Constant Matrix: (Units=GPa)
#
#
# Indices 1 2 3 4 5 6 
#
# 1 70.2287 32.4957 16.4988 0.0005 7.9004 -0.0005
# 2 32.4957 82.4205 5.0886 0.0030 5.8233 0.0017
# 3 16.4988 5.0886 66.8500 0.0017 4.8675 0.0036
# 4 0.0005 0.0030 0.0017 5.7002 0.0061 8.3793
# 5 7.9004 5.8233 4.8675 0.0061 29.6426 -0.0006
# 6 -0.0005 0.0017 0.0036 8.3793 -0.0006 20.0503
#
#
#
# Elastic Compliance Matrix: (Units=1/GPa)
#
#
# Indices 1 2 3 4 5 6 
#
# 1 0.018684 -0.006917 -0.003867 0.000010 -0.002986 -0.000002
# 2 -0.006917 0.014904 0.000659 -0.000010 -0.001193 0.000002
# 3 -0.003867 0.000659 0.015989 0.000004 -0.001724 -0.000005
# 4 0.000010 -0.000010 0.000004 0.454891 -0.000100 -0.190106
# 5 -0.002986 -0.001193 -0.001724 -0.000100 0.035049 0.000043
# 6 -0.000002 0.000002 -0.000005 -0.190106 0.000043 0.129323
#
#
# Mechanical properties :
#
#
# Convention : Reuss Voigt Hill
#
# Bulk Modulus (GPa) = 34.09838 36.40728 35.25283
# Shear Modulus (GPa) = 7.15447 22.10635 14.63041
#
# Velocity S-wave (km/s) = 1.84065 3.23549 2.63214
# Velocity P-wave (km/s) = 4.54582 5.58555 5.09229
#
# Compressibility (1/GPa) = 0.02932691
#
# Stress axis : x y z
#
# Youngs Moduli (GPa) = 53.52129 67.09824 62.54418
#
# Poissons Ratio (x) = 0.46411 0.24188
# Poissons Ratio (y) = 0.37020 -0.04125
# Poissons Ratio (z) = 0.20699 -0.04425
#
# Static dielectric constant tensor:
#      x y z
#    x 1.765180 0.000000 -0.005560 
#    y 0.000000 1.887730 0.000000 
#    z -0.005560 0.000000 1.788180 
# 
# From -- ./inp_files/28889.got.cif
#   From: 2010.05.17/outbox.cif.g08.bks.cpg/sg8_15_cif.got.tgz:28889.got - 2010.06.03 19:46:02.
