data_PCOD9132015
_publ_section_title
;
Structure prediction by ZEFSAII (Michael W. Deem and Ramdas Pophale) SiO2 
 PCOD9132015
Probable space group: C M
;
_chemical_formula_sum "Si O2"
_cell_formula_units_Z 32
_cell_length_a 34.292075
_cell_length_b 9.043756
_cell_length_c 13.015863
_cell_angle_alpha 90.000000
_cell_angle_beta 155.035201
_cell_angle_gamma 90.000000
_cell_volume 1703.692357
_symmetry_space_group_name_H-M "C M"
_symmetry_group_IT_number 8
_symmetry_cell_setting 'monoclinic'
loop_
_space_group_symop_operation_xyz
x,y,z
x,-y,z
1/2+x,1/2+y,z
1/2+x,1/2-y,z
loop_
_atom_site_type_symbol
_atom_site_label
_atom_site_fract_x
_atom_site_fract_y
_atom_site_fract_z
Si Si1 0.232270 0.671307 0.895810
Si Si2 0.676130 0.678649 0.173384
Si Si3 0.281696 0.822507 0.219055
Si Si4 0.431540 0.823203 0.097131
Si Si5 0.448800 0.328875 0.352920
Si Si6 0.233826 0.177912 0.537651
Si Si7 0.990964 0.322844 0.662489
Si Si8 0.112829 0.676600 0.416017
O O1 0.207498 0.500000 0.855260
O O2 0.169607 0.727408 0.652765
O O3 0.228470 0.757999 0.993393
O O4 0.338498 0.677063 0.111684
O O5 0.667165 0.500000 0.148995
O O6 0.736096 0.724359 0.217284
O O7 0.723846 0.719665 0.394786
O O8 0.575517 0.751148 0.924990
O O9 0.389891 0.780099 0.465822
O O10 0.278016 0.000000 0.204913
O O11 0.330543 0.773778 0.819368
O O12 0.429428 0.000000 0.111921
O O13 0.462610 0.742563 0.274971
O O14 0.506098 0.796979 0.186188
O O15 0.478077 0.500000 0.425688
O O16 0.494613 0.238574 0.554854
O O17 0.151993 0.244319 0.410051
O O18 0.231292 0.000000 0.537013
O O19 0.997340 0.500000 0.678065
O O20 0.127773 0.500000 0.442019
#
# Coordination Sequence:
#
# PCOD9132015 Si02
#       8
#     4   4   4   4   4   4   4   4
#     4   9  18  33  54  82 117 149 180 229 284 333
#     4  10  22  40  59  82 114 153 194 235 284 336
#     4   9  20  37  57  82 113 149 187 230 280 339
#     4  10  21  36  57  85 114 150 191 235 283 335
#     4  10  19  34  57  84 118 153 183 230 288 340
#     4  10  22  40  59  81 115 154 193 237 281 336
#     4  10  21  37  58  86 114 147 191 236 281 337
#     4  10  21  37  57  84 115 149 189 236 285 336
#
# _framework density 18.782731999999999
#
# number of rings (size 3 to 8) (size 9 to 14) (size 15 to 20)
#    0.000    2.250    1.250    0.750    1.750    4.000 
#    0.000    2.500    0.000    0.000    0.000    0.000 
#    0.000    0.000    0.000    0.000    0.000    0.000 
#
# Total GULP energy -89330.365639 kJ/mol
# GULP energy per Si atom -5583.147852 kJ/mol
# Density = 1.873998 g / cm^3
# Si number density = 18.782732 Si / 1000 Ang^3
#
#
#
# Elastic Constant Matrix: (Units=GPa)
#
#
# Indices 1 2 3 4 5 6 
#
# 1 114.0025 24.0134 11.4666 0.0000 -9.5790 0.0000
# 2 24.0134 17.7077 9.8889 0.0000 -0.1775 0.0000
# 3 11.4666 9.8889 30.4005 0.0000 -6.2710 0.0000
# 4 0.0000 0.0000 0.0000 25.8338 0.0000 -2.5352
# 5 -9.5790 -0.1775 -6.2710 0.0000 21.8063 0.0000
# 6 0.0000 0.0000 0.0000 -2.5352 0.0000 28.9473
#
#
#
# Elastic Compliance Matrix: (Units=1/GPa)
#
#
# Indices 1 2 3 4 5 6 
#
# 1 0.013067 -0.019104 0.002591 0.000000 0.006330 0.000000
# 2 -0.019104 0.097753 -0.027809 0.000000 -0.015593 0.000000
# 3 0.002591 -0.027809 0.043746 0.000000 0.013492 0.000000
# 4 0.000000 0.000000 0.000000 0.039045 0.000000 0.003419
# 5 0.006330 -0.015593 0.013492 0.000000 0.052392 0.000000
# 6 0.000000 0.000000 0.000000 0.003419 0.000000 0.034845
#
#
# Mechanical properties :
#
#
# Convention : Reuss Voigt Hill
#
# Bulk Modulus (GPa) = 15.16919 28.09428 21.63173
# Shear Modulus (GPa) = 12.77258 23.10024 17.93641
#
# Velocity S-wave (km/s) = 2.61054 3.51075 3.09357
# Velocity P-wave (km/s) = 4.14491 5.60569 4.92971
#
# Compressibility (1/GPa) = 0.06592311
#
# Stress axis : x y z
#
# Youngs Moduli (GPa) = 76.52904 10.22991 22.85930
#
# Poissons Ratio (x) = 0.19543 -0.05923
# Poissons Ratio (y) = 1.46199 0.63569
# Poissons Ratio (z) = -0.19830 0.28448
#
# Static dielectric constant tensor:
#      x y z
#    x 1.632850 0.000000 0.018960 
#    y 0.000000 1.634010 0.000000 
#    z 0.018960 0.000000 1.650810 
# 
# From -- ./inp_files/21610.got.cif
#   From: 2010.05.17/outbox.cif.g08.bks.cpg/sg8_11_cif.got.tgz:21610.got - 2010.06.03 19:46:02.
