data_PCOD9132639
_publ_section_title
;
Structure prediction by ZEFSAII (Michael W. Deem and Ramdas Pophale) SiO2 
 PCOD9132639
Probable space group: C M
;
_chemical_formula_sum "Si O2"
_cell_formula_units_Z 26
_cell_length_a 18.692147
_cell_length_b 7.247810
_cell_length_c 9.757638
_cell_angle_alpha 90.000000
_cell_angle_beta 43.481847
_cell_angle_gamma 90.000000
_cell_volume 909.657386
_symmetry_space_group_name_H-M "C M"
_symmetry_group_IT_number 8
_symmetry_cell_setting 'monoclinic'
loop_
_space_group_symop_operation_xyz
x,y,z
x,-y,z
1/2+x,1/2+y,z
1/2+x,1/2-y,z
loop_
_atom_site_type_symbol
_atom_site_label
_atom_site_fract_x
_atom_site_fract_y
_atom_site_fract_z
Si Si1 0.778160 0.279506 0.941490
Si Si2 0.018838 0.723428 0.539011
Si Si3 0.731207 0.794225 0.313428
Si Si4 0.471113 0.775578 0.306627
Si Si5 0.461544 0.793672 0.025629
Si Si6 0.245965 0.206664 0.696684
Si Si7 0.085560 0.000000 0.727181
O O1 0.768531 0.500000 0.981268
O O2 0.899645 0.238234 0.740850
O O3 0.718778 0.215608 0.885147
O O4 0.743917 0.192706 0.131352
O O5 0.030372 0.500000 0.533258
O O6 0.029190 0.778379 0.364409
O O7 0.118589 0.807561 0.482324
O O8 0.836369 0.698136 0.214344
O O9 0.728807 0.000000 0.376190
O O10 0.503259 0.713072 0.111381
O O11 0.352359 0.710171 0.493320
O O12 0.473368 0.000000 0.294596
O O13 0.492087 0.658354 0.864616
O O14 0.499839 0.000000 0.947653
O O15 0.280163 0.000000 0.693418
O O16 0.166408 0.162886 0.685934
#
# Coordination Sequence:
#
# PCOD9132639 Si02
#       7
#     4   4   4   4   4   4   2
#     4   9  17  35  60  85 114 149 198 241 293 360
#     4   8  17  34  60  85 111 153 197 242 301 355
#     4  11  22  38  55  82 122 160 197 248 297 350
#     4   8  15  33  59  86 111 149 194 241 294 356
#     4  11  23  39  59  86 121 158 202 247 296 357
#     4   7  15  32  60  85 111 151 185 240 302 346
#     4  10  20  38  62  86 122 152 200 246 300 352
#
# _framework density 28.582189
#
# number of rings (size 3 to 8) (size 9 to 14) (size 15 to 20)
#    0.462    2.462    0.769    2.308    2.154    0.000 
#    2.769    1.538    8.462    0.000    0.000    0.000 
#    0.000    0.000    0.000    0.000    0.000    0.000 
#
# Total GULP energy -72439.686883 kJ/mol
# GULP energy per Si atom -5572.283606 kJ/mol
# Density = 2.851713 g / cm^3
# Si number density = 28.582189 Si / 1000 Ang^3
#
#
#
# Elastic Constant Matrix: (Units=GPa)
#
#
# Indices 1 2 3 4 5 6 
#
# 1 170.9848 -45.0026 -0.1300 0.0000 -19.4599 0.0000
# 2 -45.0026 132.3601 -35.1662 0.0000 -18.3050 0.0000
# 3 -0.1300 -35.1662 73.4385 0.0000 -10.2874 0.0000
# 4 0.0000 0.0000 0.0000 16.5852 0.0000 3.1192
# 5 -19.4599 -18.3050 -10.2874 0.0000 55.2913 0.0000
# 6 0.0000 0.0000 0.0000 3.1192 0.0000 20.4907
#
#
#
# Elastic Compliance Matrix: (Units=1/GPa)
#
#
# Indices 1 2 3 4 5 6 
#
# 1 0.007308 0.003704 0.002381 0.000000 0.004241 0.000000
# 2 0.003704 0.011356 0.006318 0.000000 0.006239 0.000000
# 3 0.002381 0.006318 0.017513 0.000000 0.006188 0.000000
# 4 0.000000 0.000000 0.000000 0.062072 0.000000 -0.009449
# 5 0.004241 0.006239 0.006188 0.000000 0.022795 0.000000
# 6 0.000000 0.000000 0.000000 -0.009449 0.000000 0.050241
#
#
# Mechanical properties :
#
#
# Convention : Reuss Voigt Hill
#
# Bulk Modulus (GPa) = 16.39834 24.02064 20.20949
# Shear Modulus (GPa) = 29.97467 48.94559 39.46013
#
# Velocity S-wave (km/s) = 3.24191 4.14267 3.71965
# Velocity P-wave (km/s) = 4.44556 5.59505 5.05309
#
# Compressibility (1/GPa) = 0.06098177
#
# Stress axis : x y z
#
# Youngs Moduli (GPa) = 136.84111 88.06047 57.09919
#
# Poissons Ratio (x) = -0.32614 -0.13593
# Poissons Ratio (y) = -0.50681 -0.36077
# Poissons Ratio (z) = -0.32575 -0.55639
#
# Static dielectric constant tensor:
#      x y z
#    x 2.331460 0.000000 0.090100 
#    y 0.000000 2.192220 0.000000 
#    z 0.090100 0.000000 2.344700 
# 
# From -- ./inp_files/23807.got.cif
#   From: 2010.05.17/outbox.cif.g08.bks.cpg/sg8_12_cif.got.tgz:23807.got - 2010.06.03 19:46:02.
