data_PCOD9132598
_publ_section_title
;
Structure prediction by ZEFSAII (Michael W. Deem and Ramdas Pophale) SiO2 
 PCOD9132598
Probable space group: C M
;
_chemical_formula_sum "Si O2"
_cell_formula_units_Z 32
_cell_length_a 15.341635
_cell_length_b 17.063990
_cell_length_c 12.100763
_cell_angle_alpha 90.000000
_cell_angle_beta 26.458953
_cell_angle_gamma 90.000000
_cell_volume 1411.457592
_symmetry_space_group_name_H-M "C M"
_symmetry_group_IT_number 8
_symmetry_cell_setting 'monoclinic'
loop_
_space_group_symop_operation_xyz
x,y,z
x,-y,z
1/2+x,1/2+y,z
1/2+x,1/2-y,z
loop_
_atom_site_type_symbol
_atom_site_label
_atom_site_fract_x
_atom_site_fract_y
_atom_site_fract_z
Si Si1 0.765780 0.587995 0.352390
Si Si2 0.310742 0.911280 0.663318
Si Si3 0.858273 0.866811 0.825480
Si Si4 0.903836 0.137982 0.024817
Si Si5 0.053106 0.407712 0.587884
Si Si6 0.964318 0.314917 0.303568
Si Si7 0.186770 0.582924 0.794323
Si Si8 0.132574 0.706695 0.692947
O O1 0.684109 0.500000 0.447569
O O2 0.584574 0.645598 0.538945
O O3 0.874588 0.609329 0.342248
O O4 0.949571 0.588760 0.062552
O O5 0.352997 0.902606 0.744827
O O6 0.427870 0.841276 0.469688
O O7 0.089793 0.901652 0.873018
O O8 0.380629 0.000000 0.556255
O O9 0.865704 0.896857 0.944296
O O10 0.772073 0.915540 0.821010
O O11 0.690450 0.800514 0.022752
O O12 0.981095 0.227026 0.908761
O O13 0.722700 0.124121 0.312047
O O14 0.090437 0.500000 0.569017
O O15 0.047578 0.355090 0.703273
O O16 0.817953 0.249633 0.427950
O O17 0.244922 0.500000 0.677056
O O18 0.238859 0.660624 0.671557
#
# Coordination Sequence:
#
# PCOD9132598 Si02
#       8
#     4   4   4   4   4   4   4   4
#     4  10  20  37  63  94 131 167 214 271 332 394
#     4  10  20  38  63  96 132 170 219 275 334 397
#     4  11  21  39  65  99 134 170 222 276 345 394
#     4  11  24  40  67 100 132 172 220 280 335 398
#     4  11  25  45  70  96 134 184 226 270 338 409
#     4  10  21  38  57  98 129 170 215 277 329 391
#     4  10  24  43  66  96 132 176 225 277 329 403
#     4  11  25  46  66  93 139 177 225 276 334 400
#
# _framework density 22.671599000000001
#
# number of rings (size 3 to 8) (size 9 to 14) (size 15 to 20)
#    0.000    1.500    3.750    1.500    3.500    5.000 
#    2.250    0.000    0.000    3.000    0.000    0.000 
#    0.000    0.000    0.000    0.000    0.000    0.000 
#
# Total GULP energy -89115.236148 kJ/mol
# GULP energy per Si atom -5569.702259 kJ/mol
# Density = 2.262000 g / cm^3
# Si number density = 22.671599 Si / 1000 Ang^3
#
#
#
# Elastic Constant Matrix: (Units=GPa)
#
#
# Indices 1 2 3 4 5 6 
#
# 1 122.8968 56.3519 23.3571 0.1412 -11.4857 -0.1606
# 2 56.3519 100.6527 11.8369 -0.0544 2.6646 0.0569
# 3 23.3571 11.8369 49.9233 -0.2056 -22.6035 0.2266
# 4 0.1412 -0.0544 -0.2056 -222.3170 -0.0038 268.4689
# 5 -11.4857 2.6646 -22.6035 -0.0038 33.6341 0.0071
# 6 -0.1606 0.0569 0.2266 268.4689 0.0071 -264.1714
#
#
#
# Elastic Compliance Matrix: (Units=1/GPa)
#
#
# Indices 1 2 3 4 5 6 
#
# 1 0.011842 -0.006367 -0.002834 0.000007 0.002644 -0.000004
# 2 -0.006367 0.013939 -0.002602 -0.000002 -0.005027 0.000002
# 3 -0.002834 -0.002602 0.031088 -0.000018 0.020131 0.000011
# 4 0.000007 -0.000002 -0.000018 0.019794 -0.000011 0.020116
# 5 0.002644 -0.005027 0.020131 -0.000011 0.044562 0.000004
# 6 -0.000004 0.000002 0.000011 0.020116 0.000004 0.016658
#
#
# Mechanical properties :
#
#
# Convention : Reuss Voigt Hill
#
# Bulk Modulus (GPa) = 30.06333 50.72939 40.39636
# Shear Modulus (GPa) = 28.97279 -78.44240 -24.73481
#
# Velocity S-wave (km/s) = 3.57870 -5.88851 -3.30662
# Velocity P-wave (km/s) = 5.51047 4.87938 1.81064
#
# Compressibility (1/GPa) = 0.03326311
#
# Stress axis : x y z
#
# Youngs Moduli (GPa) = 84.44670 71.74272 32.16679
#
# Poissons Ratio (x) = 0.45675 0.09115
# Poissons Ratio (y) = 0.53763 0.08371
# Poissons Ratio (z) = 0.23929 0.18671
#
# Static dielectric constant tensor:
#      x y z
#    x 1.843290 0.000070 0.010730 
#    y 0.000070 3.414490 0.000000 
#    z 0.010730 0.000000 1.887450 
# 
# From -- ./inp_files/22409.got.cif
#   From: 2010.05.17/outbox.cif.g08.bks.cpg/sg8_12_cif.got.tgz:22409.got - 2010.06.03 19:46:02.
