data_PCOD9132652
_publ_section_title
;
Structure prediction by ZEFSAII (Michael W. Deem and Ramdas Pophale) SiO2 
 PCOD9132652
Probable space group: C M
;
_chemical_formula_sum "Si O2"
_cell_formula_units_Z 32
_cell_length_a 17.044410
_cell_length_b 13.169124
_cell_length_c 11.755645
_cell_angle_alpha 90.000000
_cell_angle_beta 147.400914
_cell_angle_gamma 90.000000
_cell_volume 1421.603640
_symmetry_space_group_name_H-M "C M"
_symmetry_group_IT_number 8
_symmetry_cell_setting 'monoclinic'
loop_
_space_group_symop_operation_xyz
x,y,z
x,-y,z
1/2+x,1/2+y,z
1/2+x,1/2-y,z
loop_
_atom_site_type_symbol
_atom_site_label
_atom_site_fract_x
_atom_site_fract_y
_atom_site_fract_z
Si Si1 0.926190 0.616670 0.722810
Si Si2 0.721415 0.377874 0.267929
Si Si3 0.777362 0.382553 0.075239
Si Si4 0.198910 0.194933 0.592992
Si Si5 0.031457 0.120307 0.607522
Si Si6 0.896514 0.821827 0.127832
Si Si7 0.238428 0.615015 0.158293
Si Si8 0.381643 0.381878 0.858712
O O1 0.955864 0.500000 0.726574
O O2 0.827992 0.659031 0.499289
O O3 0.831398 0.622360 0.721630
O O4 0.082769 0.664145 0.942559
O O5 0.712600 0.500000 0.273033
O O6 0.784589 0.361907 0.218289
O O7 0.550942 0.347096 0.058545
O O8 0.821304 0.500000 0.108094
O O9 0.865250 0.297069 0.114260
O O10 0.612643 0.371903 0.826490
O O11 0.127769 0.178088 0.630062
O O12 0.268502 0.306171 0.660358
O O13 0.068776 0.166779 0.349645
O O14 0.863708 0.154286 0.396084
O O15 0.033164 0.000000 0.578589
O O16 0.820049 0.880284 0.137285
O O17 0.843987 0.865860 0.945513
O O18 0.209350 0.500000 0.160787
O O19 0.370210 0.500000 0.811474
#
# Coordination Sequence:
#
# PCOD9132652 Si02
#       8
#     4   4   4   4   4   4   4   4
#     4  10  20  38  63  94 127 166 217 269 318 375
#     4   9  20  39  63  90 125 170 211 259 318 379
#     4  10  21  39  63  91 127 167 211 257 317 385
#     4  11  22  37  62  95 126 164 212 262 322 380
#     4   9  18  37  62  89 123 162 207 261 323 382
#     4  11  22  39  62  92 125 166 210 258 317 382
#     4   9  20  36  59  92 122 158 209 269 320 366
#     4  11  23  41  63  93 131 171 214 261 322 385
#
# _framework density 22.509789999999999
#
# number of rings (size 3 to 8) (size 9 to 14) (size 15 to 20)
#    0.000    2.000    2.500    0.750    1.750    2.500 
#    0.000    2.500    0.000    1.500    0.000    0.875 
#    0.000    0.000    0.000    0.000    0.000    0.000 
#
# Total GULP energy -89250.347816 kJ/mol
# GULP energy per Si atom -5578.146738 kJ/mol
# Density = 2.245856 g / cm^3
# Si number density = 22.509790 Si / 1000 Ang^3
#
#
#
# Elastic Constant Matrix: (Units=GPa)
#
#
# Indices 1 2 3 4 5 6 
#
# 1 36.9222 5.4694 35.4308 0.0000 10.0061 0.0000
# 2 5.4694 94.7797 12.0811 0.0000 3.8637 0.0000
# 3 35.4308 12.0811 101.4535 0.0000 27.3316 0.0000
# 4 0.0000 0.0000 0.0000 19.3916 0.0000 -4.5277
# 5 10.0061 3.8637 27.3316 0.0000 34.6934 0.0000
# 6 0.0000 0.0000 0.0000 -4.5277 0.0000 26.6738
#
#
#
# Elastic Compliance Matrix: (Units=1/GPa)
#
#
# Indices 1 2 3 4 5 6 
#
# 1 0.040776 -0.000542 -0.013994 0.000000 -0.000676 0.000000
# 2 -0.000542 0.010722 -0.001026 0.000000 -0.000230 0.000000
# 3 -0.013994 -0.001026 0.017452 0.000000 -0.009598 0.000000
# 4 0.000000 0.000000 0.000000 0.053697 0.000000 0.009115
# 5 -0.000676 -0.000230 -0.009598 0.000000 0.036606 0.000000
# 6 0.000000 0.000000 0.000000 0.009115 0.000000 0.039037
#
#
# Mechanical properties :
#
#
# Convention : Reuss Voigt Hill
#
# Bulk Modulus (GPa) = 26.43589 37.67979 32.05784
# Shear Modulus (GPa) = 20.65936 28.16336 24.41136
#
# Velocity S-wave (km/s) = 3.03280 3.54101 3.29671
# Velocity P-wave (km/s) = 4.90240 5.78740 5.36318
#
# Compressibility (1/GPa) = 0.03782736
#
# Stress axis : x y z
#
# Youngs Moduli (GPa) = 24.52439 93.26489 57.30098
#
# Poissons Ratio (x) = 0.05053 0.80185
# Poissons Ratio (y) = 0.01329 0.05877
# Poissons Ratio (z) = 0.34319 0.09566
#
# Static dielectric constant tensor:
#      x y z
#    x 1.806920 0.000000 -0.000700 
#    y 0.000000 1.887310 0.000000 
#    z -0.000700 0.000000 1.856890 
# 
# From -- ./inp_files/23321.got.cif
#   From: 2010.05.17/outbox.cif.g08.bks.cpg/sg8_12_cif.got.tgz:23321.got - 2010.06.03 19:46:02.
