data_PCOD9132397
_publ_section_title
;
Structure prediction by ZEFSAII (Michael W. Deem and Ramdas Pophale) SiO2 
 PCOD9132397
Probable space group: C M
;
_chemical_formula_sum "Si O2"
_cell_formula_units_Z 32
_cell_length_a 21.170865
_cell_length_b 8.993167
_cell_length_c 13.980075
_cell_angle_alpha 90.000000
_cell_angle_beta 139.452582
_cell_angle_gamma 90.000000
_cell_volume 1730.316923
_symmetry_space_group_name_H-M "C M"
_symmetry_group_IT_number 8
_symmetry_cell_setting 'monoclinic'
loop_
_space_group_symop_operation_xyz
x,y,z
x,-y,z
1/2+x,1/2+y,z
1/2+x,1/2-y,z
loop_
_atom_site_type_symbol
_atom_site_label
_atom_site_fract_x
_atom_site_fract_y
_atom_site_fract_z
Si Si1 0.806250 0.325915 0.174050
Si Si2 0.257541 0.329296 0.820339
Si Si3 0.778404 0.823977 0.345586
Si Si4 0.629323 0.672249 0.819037
Si Si5 0.434220 0.823297 0.663005
Si Si6 0.058122 0.323751 0.159139
Si Si7 0.938835 0.171704 0.178648
Si Si8 0.407457 0.679077 0.838724
O O1 0.821546 0.500000 0.212439
O O2 0.784204 0.236084 0.244459
O O3 0.898227 0.257828 0.223715
O O4 0.714102 0.314391 0.996399
O O5 0.223125 0.500000 0.775156
O O6 0.176422 0.226200 0.773687
O O7 0.305994 0.284515 0.775770
O O8 0.348856 0.327407 0.999285
O O9 0.854975 0.735383 0.497299
O O10 0.670467 0.801729 0.263285
O O11 0.799638 0.000000 0.372298
O O12 0.599738 0.500000 0.779990
O O13 0.539419 0.772352 0.746433
O O14 0.414668 0.745376 0.742071
O O15 0.430337 0.000000 0.668777
O O16 0.037218 0.500000 0.136735
O O17 0.025475 0.252018 0.221969
O O18 0.993165 0.247028 0.002275
O O19 0.961196 0.000000 0.225700
O O20 0.416221 0.500000 0.847709
#
# Coordination Sequence:
#
# PCOD9132397 Si02
#       8
#     4   4   4   4   4   4   4   4
#     4  10  20  35  58  86 113 143 182 226 271 324
#     4   8  16  31  53  82 112 141 176 221 270 318
#     4  11  24  40  56  77 110 148 185 228 276 325
#     4  10  20  35  58  85 113 144 180 224 271 323
#     4  12  25  39  56  78 109 147 187 230 273 324
#     4  10  20  35  58  86 113 143 182 227 273 324
#     4   9  17  31  54  83 114 145 179 223 271 320
#     4  10  20  36  59  85 114 145 179 223 273 326
#
# _framework density 18.49372
#
# number of rings (size 3 to 8) (size 9 to 14) (size 15 to 20)
#    0.000    2.000    0.000    4.875    0.000    9.000 
#    0.000    1.250    0.000    4.500    0.000    0.000 
#    0.000    0.000    0.000    0.000    0.000    0.000 
#
# Total GULP energy -89352.834791 kJ/mol
# GULP energy per Si atom -5584.552174 kJ/mol
# Density = 1.845163 g / cm^3
# Si number density = 18.493720 Si / 1000 Ang^3
#
#
#
# Elastic Constant Matrix: (Units=GPa)
#
#
# Indices 1 2 3 4 5 6 
#
# 1 136.9554 76.8213 29.9366 0.0000 15.2591 0.0000
# 2 76.8213 117.2807 32.5862 0.0000 2.7084 0.0000
# 3 29.9366 32.5862 28.1266 0.0000 1.4703 0.0000
# 4 0.0000 0.0000 0.0000 23.8836 0.0000 -2.1168
# 5 15.2591 2.7084 1.4703 0.0000 -11.3819 0.0000
# 6 0.0000 0.0000 0.0000 -2.1168 0.0000 38.6104
#
#
#
# Elastic Compliance Matrix: (Units=1/GPa)
#
#
# Indices 1 2 3 4 5 6 
#
# 1 0.010218 -0.005562 -0.005044 0.000000 0.011724 0.000000
# 2 -0.005562 0.015588 -0.011864 0.000000 -0.005280 0.000000
# 3 -0.005044 -0.011864 0.054798 0.000000 -0.002507 0.000000
# 4 0.000000 0.000000 0.000000 0.042074 0.000000 0.002307
# 5 0.011724 -0.005280 -0.002507 0.000000 -0.073722 0.000000
# 6 0.000000 0.000000 0.000000 0.002307 0.000000 0.026026
#
#
# Mechanical properties :
#
#
# Convention : Reuss Voigt Hill
#
# Bulk Modulus (GPa) = 28.03934 62.33899 45.18916
# Shear Modulus (GPa) = 37.93315 19.75700 28.84508
#
# Velocity S-wave (km/s) = 4.53386 3.27205 3.95362
# Velocity P-wave (km/s) = 6.52705 6.93227 6.73271
#
# Compressibility (1/GPa) = 0.03566418
#
# Stress axis : x y z
#
# Youngs Moduli (GPa) = 97.86640 64.15135 18.24878
#
# Poissons Ratio (x) = 0.35682 0.09205
# Poissons Ratio (y) = 0.54435 0.21650
# Poissons Ratio (z) = 0.49366 0.76107
#
# Static dielectric constant tensor:
#      x y z
#    x 1.629640 0.000000 0.000490 
#    y 0.000000 1.616960 0.000000 
#    z 0.000490 0.000000 1.614770 
# 
# From -- ./inp_files/27784.got.cif
#   From: 2010.05.17/outbox.cif.g08.bks.cpg/sg8_14_cif.got.tgz:27784.got - 2010.06.03 19:46:02.
