data_PCOD9132790
_publ_section_title
;
Structure prediction by ZEFSAII (Michael W. Deem and Ramdas Pophale) SiO2 
 PCOD9132790
Probable space group: C M
;
_chemical_formula_sum "Si O2"
_cell_formula_units_Z 30
_cell_length_a 7.218869
_cell_length_b 30.802966
_cell_length_c 5.551524
_cell_angle_alpha 90.000000
_cell_angle_beta 80.973926
_cell_angle_gamma 90.000000
_cell_volume 1219.165030
_symmetry_space_group_name_H-M "C M"
_symmetry_group_IT_number 8
_symmetry_cell_setting 'monoclinic'
loop_
_space_group_symop_operation_xyz
x,y,z
x,-y,z
1/2+x,1/2+y,z
1/2+x,1/2-y,z
loop_
_atom_site_type_symbol
_atom_site_label
_atom_site_fract_x
_atom_site_fract_y
_atom_site_fract_z
Si Si1 0.019920 0.811759 0.206620
Si Si2 0.111730 0.904442 0.417825
Si Si3 0.015432 0.673472 0.787554
Si Si4 0.082290 0.285594 0.284290
Si Si5 0.776940 0.070410 0.222840
Si Si6 0.397512 0.639909 0.845762
Si Si7 0.451165 0.078575 0.653869
Si Si8 0.045302 0.500000 0.960290
O O1 0.096101 0.854542 0.327244
O O2 0.100388 0.766214 0.269046
O O3 0.795643 0.802851 0.253553
O O4 0.045351 0.825850 0.922157
O O5 0.312689 0.921465 0.452051
O O6 0.991975 0.935003 0.265973
O O7 0.001036 0.898838 0.690668
O O8 0.975702 0.699448 0.549205
O O9 0.240505 0.664586 0.730421
O O10 0.930132 0.625130 0.786214
O O11 0.991221 0.696829 0.051119
O O12 0.655320 0.074287 0.490075
O O13 0.784550 0.115772 0.081491
O O14 0.675059 0.036901 0.072760
O O15 0.432317 0.038537 0.835588
#
# Coordination Sequence:
#
# PCOD9132790 Si02
#       8
#     4   4   4   4   4   4   4   2
#     4  10  24  41  62 103 141 192 245 300 357 431
#     4  11  24  45  74 103 145 191 245 300 364 448
#     4  11  22  44  70  98 144 198 241 303 371 434
#     4  11  25  40  69  98 149 194 252 302 366 429
#     4  11  23  48  72 102 144 189 233 304 378 442
#     4  10  20  45  72  96 144 192 238 294 370 433
#     4  12  26  45  75 107 139 185 250 297 378 444
#     4  12  26  44  78 106 138 186 240 306 374 460
#
# _framework density 24.607004
#
# number of rings (size 3 to 8) (size 9 to 14) (size 15 to 20)
#    0.000    1.067    4.000    2.000    3.733    3.733 
#    0.000    3.333    0.000    0.000    0.000    0.000 
#    0.000    0.000    0.000    0.000    0.000    0.000 
#
# Total GULP energy -83548.505703 kJ/mol
# GULP energy per Si atom -5569.900380 kJ/mol
# Density = 2.455100 g / cm^3
# Si number density = 24.607004 Si / 1000 Ang^3
#
#
#
# Elastic Constant Matrix: (Units=GPa)
#
#
# Indices 1 2 3 4 5 6 
#
# 1 83.3101 49.2016 35.1953 0.0000 33.5084 0.0000
# 2 49.2016 147.2482 41.3592 0.0000 25.8404 0.0000
# 3 35.1953 41.3592 97.5260 0.0000 26.9286 0.0000
# 4 0.0000 0.0000 0.0000 529.8308 0.0000 -66.7209
# 5 33.5084 25.8404 26.9286 0.0000 44.8972 0.0000
# 6 0.0000 0.0000 0.0000 -66.7209 0.0000 42.3520
#
#
#
# Elastic Compliance Matrix: (Units=1/GPa)
#
#
# Indices 1 2 3 4 5 6 
#
# 1 0.019834 -0.004013 -0.002405 0.000000 -0.011051 0.000000
# 2 -0.004013 0.008866 -0.002073 0.000000 -0.000865 0.000000
# 3 -0.002405 -0.002073 0.013394 0.000000 -0.005046 0.000000
# 4 0.000000 0.000000 0.000000 0.002354 0.000000 0.003709
# 5 -0.011051 -0.000865 -0.005046 0.000000 0.034045 0.000000
# 6 0.000000 0.000000 0.000000 0.003709 0.000000 0.029455
#
#
# Mechanical properties :
#
#
# Convention : Reuss Voigt Hill
#
# Bulk Modulus (GPa) = 39.81991 64.39962 52.10976
# Shear Modulus (GPa) = 37.50944 136.90455 87.20700
#
# Velocity S-wave (km/s) = 3.90852 7.46707 5.95960
# Velocity P-wave (km/s) = 6.04865 10.02851 8.28122
#
# Compressibility (1/GPa) = 0.02511307
#
# Stress axis : x y z
#
# Youngs Moduli (GPa) = 50.41889 112.78976 74.66140
#
# Poissons Ratio (x) = 0.45257 0.17953
# Poissons Ratio (y) = 0.20231 0.15478
# Poissons Ratio (z) = 0.12124 0.23383
#
# Static dielectric constant tensor:
#      x y z
#    x 2.017730 0.000000 0.009840 
#    y 0.000000 1.378040 0.000000 
#    z 0.009840 0.000000 2.098420 
# 
# From -- ./inp_files/1899.got.cif
#   From: 2010.05.17/outbox.cif.g08.bks.cpg/sg8_1_cif.got.tgz:1899.got - 2010.06.03 19:46:02.
