data_PCOD9132270
_publ_section_title
;
Structure prediction by ZEFSAII (Michael W. Deem and Ramdas Pophale) SiO2 
 PCOD9132270
Probable space group: C M
;
_chemical_formula_sum "Si O2"
_cell_formula_units_Z 32
_cell_length_a 28.858160
_cell_length_b 7.695820
_cell_length_c 21.640726
_cell_angle_alpha 90.000000
_cell_angle_beta 18.981947
_cell_angle_gamma 90.000000
_cell_volume 1563.290427
_symmetry_space_group_name_H-M "C M"
_symmetry_group_IT_number 8
_symmetry_cell_setting 'monoclinic'
loop_
_space_group_symop_operation_xyz
x,y,z
x,-y,z
1/2+x,1/2+y,z
1/2+x,1/2-y,z
loop_
_atom_site_type_symbol
_atom_site_label
_atom_site_fract_x
_atom_site_fract_y
_atom_site_fract_z
Si Si1 0.289110 0.790836 0.673280
Si Si2 0.466584 0.298678 0.090534
Si Si3 0.802296 0.297684 0.417831
Si Si4 0.482026 0.287755 0.823588
Si Si5 0.063005 0.207045 0.392484
Si Si6 0.808907 0.295862 0.165816
Si Si7 0.735686 0.198816 0.053899
Si Si8 0.467535 0.213854 0.327976
O O1 0.395796 0.741432 0.594506
O O2 0.365076 0.732267 0.513866
O O3 0.284274 0.000000 0.676493
O O4 0.127321 0.726615 0.881900
O O5 0.480113 0.500000 0.090813
O O6 0.378130 0.212582 0.256645
O O7 0.381585 0.287925 0.133447
O O8 0.782548 0.500000 0.459097
O O9 0.643215 0.223883 0.616715
O O10 0.901146 0.225468 0.347601
O O11 0.478185 0.500000 0.826543
O O12 0.408919 0.233449 0.979931
O O13 0.383753 0.223352 0.890740
O O14 0.151336 0.262863 0.341755
O O15 0.139654 0.298458 0.237619
O O16 0.086459 0.000000 0.356267
O O17 0.800474 0.500000 0.190080
O O18 0.627993 0.276669 0.139688
O O19 0.764524 0.000000 0.999066
O O20 0.473897 0.000000 0.321013
#
# Coordination Sequence:
#
# PCOD9132270 Si02
#       8
#     4   4   4   4   4   4   4   4
#     4   9  18  34  55  76  99 131 172 212 251 303
#     4  11  23  37  52  72 102 140 180 217 256 304
#     4  10  20  34  50  70 101 137 172 211 254 299
#     4   9  17  31  53  77 101 133 170 207 250 302
#     4   9  17  29  49  79 107 128 158 206 259 305
#     4  10  20  34  54  80 107 134 169 213 258 306
#     4   8  14  27  48  73  99 128 164 203 245 297
#     4   8  14  28  51  73  92 121 161 203 247 296
#
# _framework density 20.469643999999999
#
# number of rings (size 3 to 8) (size 9 to 14) (size 15 to 20)
#    0.000    2.750    0.000    2.625    0.000    5.000 
#    0.000    3.750    0.000    3.000    0.000    0.000 
#    0.000    0.000    0.000    0.000    0.000    0.000 
#
# Total GULP energy -89176.541193 kJ/mol
# GULP energy per Si atom -5573.533825 kJ/mol
# Density = 2.042305 g / cm^3
# Si number density = 20.469644 Si / 1000 Ang^3
#
#
#
# Elastic Constant Matrix: (Units=GPa)
#
#
# Indices 1 2 3 4 5 6 
#
# 1 131.0946 -6.4722 104.2221 0.0001 -48.5419 -0.0001
# 2 -6.4722 36.4142 -7.3975 0.0004 -3.1313 0.0008
# 3 104.2221 -7.3975 65.1333 0.0000 -33.5161 0.0002
# 4 0.0001 0.0004 0.0000 5.2693 0.0001 2.9119
# 5 -48.5419 -3.1313 -33.5161 0.0001 33.7520 0.0001
# 6 -0.0001 0.0008 0.0002 2.9119 0.0001 16.5123
#
#
#
# Elastic Compliance Matrix: (Units=1/GPa)
#
#
# Indices 1 2 3 4 5 6 
#
# 1 -0.025662 0.005896 0.047079 0.000001 0.010390 -0.000001
# 2 0.005896 0.029266 -0.000716 -0.000002 0.010484 -0.000001
# 3 0.047079 -0.000716 -0.051642 -0.000002 0.016361 0.000001
# 4 0.000001 -0.000002 -0.000002 0.210267 -0.000002 -0.037080
# 5 0.010390 0.010484 0.016361 -0.000002 0.061790 -0.000001
# 6 -0.000001 -0.000001 0.000001 -0.037080 -0.000001 0.067100
#
#
# Mechanical properties :
#
#
# Convention : Reuss Voigt Hill
#
# Bulk Modulus (GPa) = 17.70548 45.92743 31.81646
# Shear Modulus (GPa) = 24.33959 20.59271 22.46615
#
# Velocity S-wave (km/s) = 3.45201 3.17521 3.31650
# Velocity P-wave (km/s) = 4.95549 5.99401 5.49932
#
# Compressibility (1/GPa) = 0.05647968
#
# Stress axis : x y z
#
# Youngs Moduli (GPa) = -38.96768 34.16957 -19.36407
#
# Poissons Ratio (x) = -0.20148 0.91164
# Poissons Ratio (y) = 0.22977 -0.01387
# Poissons Ratio (z) = 1.83456 0.02448
#
# Static dielectric constant tensor:
#      x y z
#    x 1.727350 0.000000 -0.067570 
#    y 0.000000 1.746720 0.000000 
#    z -0.067570 0.000000 1.732600 
# 
# From -- ./inp_files/22756.got.cif
#   From: 2010.05.17/outbox.cif.g08.bks.cpg/sg8_12_cif.got.tgz:22756.got - 2010.06.03 19:46:02.
