data_PCOD9132132
_publ_section_title
;
Structure prediction by ZEFSAII (Michael W. Deem and Ramdas Pophale) SiO2 
 PCOD9132132
Probable space group: C M
;
_chemical_formula_sum "Si O2"
_cell_formula_units_Z 28
_cell_length_a 20.749763
_cell_length_b 15.653032
_cell_length_c 9.068625
_cell_angle_alpha 90.000000
_cell_angle_beta 29.860034
_cell_angle_gamma 90.000000
_cell_volume 1466.493997
_symmetry_space_group_name_H-M "C M"
_symmetry_group_IT_number 8
_symmetry_cell_setting 'monoclinic'
loop_
_space_group_symop_operation_xyz
x,y,z
x,-y,z
1/2+x,1/2+y,z
1/2+x,1/2-y,z
loop_
_atom_site_type_symbol
_atom_site_label
_atom_site_fract_x
_atom_site_fract_y
_atom_site_fract_z
Si Si1 0.317660 0.224623 0.202030
Si Si2 0.695460 0.095444 0.370288
Si Si3 0.656153 0.907617 0.781270
Si Si4 0.934700 0.595726 0.737140
Si Si5 0.914579 0.803805 0.291872
Si Si6 0.168326 0.900104 0.709856
Si Si7 0.404444 0.138115 0.461044
O O1 0.277195 0.317647 0.218767
O O2 0.416639 0.246630 0.138465
O O3 0.208445 0.166383 0.500284
O O4 0.374192 0.167102 0.961054
O O5 0.623334 0.095199 0.672647
O O6 0.589507 0.101286 0.452990
O O7 0.759240 0.000000 0.234613
O O8 0.769714 0.840721 0.583115
O O9 0.716275 0.000000 0.690877
O O10 0.530194 0.898732 0.129482
O O11 0.896726 0.500000 0.861191
O O12 0.897791 0.608392 0.641201
O O13 0.926729 0.739904 0.403797
O O14 0.028532 0.871774 0.049437
O O15 0.277393 0.886850 0.619852
O O16 0.168345 0.000000 0.665389
#
# Coordination Sequence:
#
# PCOD9132132 Si02
#       7
#     4   4   4   4   4   4   4
#     4  10  20  36  57  83 111 145 184 227 278 334
#     4   9  19  35  57  80 106 140 184 231 275 323
#     4  10  19  36  59  83 108 140 182 229 275 327
#     4  11  22  36  54  80 111 147 187 228 271 325
#     4  10  21  37  57  83 111 144 184 230 280 329
#     4  11  21  36  58  86 116 147 183 230 281 331
#     4  11  22  36  55  81 113 149 189 227 269 327
#
# _framework density 19.093154999999999
#
# number of rings (size 3 to 8) (size 9 to 14) (size 15 to 20)
#    0.000    1.714    0.000    7.286    0.000    4.000 
#    0.000    0.000    0.000    0.857    0.000    6.000 
#    0.000    0.000    0.000    0.000    0.000    0.000 
#
# Total GULP energy -78059.437437 kJ/mol
# GULP energy per Si atom -5575.674103 kJ/mol
# Density = 1.904970 g / cm^3
# Si number density = 19.093155 Si / 1000 Ang^3
#
#
#
# Elastic Constant Matrix: (Units=GPa)
#
#
# Indices 1 2 3 4 5 6 
#
# 1 54.7124 31.0423 19.3432 0.0000 0.1100 0.0000
# 2 31.0423 151.5623 22.8788 0.0000 -2.2073 0.0000
# 3 19.3432 22.8788 54.4058 0.0000 -7.6834 0.0000
# 4 0.0000 0.0000 0.0000 21.8003 0.0000 -6.8507
# 5 0.1100 -2.2073 -7.6834 0.0000 16.7917 0.0000
# 6 0.0000 0.0000 0.0000 -6.8507 0.0000 15.9540
#
#
#
# Elastic Compliance Matrix: (Units=1/GPa)
#
#
# Indices 1 2 3 4 5 6 
#
# 1 0.022893 -0.003667 -0.007149 0.000000 -0.003903 0.000000
# 2 -0.003667 0.007636 -0.001884 0.000000 0.000166 0.000000
# 3 -0.007149 -0.001884 0.023184 0.000000 0.010408 0.000000
# 4 0.000000 0.000000 0.000000 0.053026 0.000000 0.022770
# 5 -0.003903 0.000166 0.010408 0.000000 0.064363 0.000000
# 6 0.000000 0.000000 0.000000 0.022770 0.000000 0.072458
#
#
# Mechanical properties :
#
#
# Convention : Reuss Voigt Hill
#
# Bulk Modulus (GPa) = 35.31770 45.24545 40.28158
# Shear Modulus (GPa) = 17.96005 23.40360 20.68183
#
# Velocity S-wave (km/s) = 3.07034 3.50488 3.29478
# Velocity P-wave (km/s) = 5.57737 6.33463 5.96802
#
# Compressibility (1/GPa) = 0.02831441
#
# Stress axis : x y z
#
# Youngs Moduli (GPa) = 43.68169 130.96330 43.13316
#
# Poissons Ratio (x) = 0.48019 0.30834
# Poissons Ratio (y) = 0.16016 0.08126
# Poissons Ratio (z) = 0.31226 0.24673
#
# Static dielectric constant tensor:
#      x y z
#    x 1.650780 0.000000 -0.006540 
#    y 0.000000 1.724480 0.000000 
#    z -0.006540 0.000000 1.646900 
# 
# From -- ./inp_files/10470.got.cif
#   From: 2010.05.17/outbox.cif.g08.bks.cpg/sg8_6_cif.got.tgz:10470.got - 2010.06.03 19:46:02.
