data_PCOD9132714
_publ_section_title
;
Structure prediction by ZEFSAII (Michael W. Deem and Ramdas Pophale) SiO2 
 PCOD9132714
Probable space group: C M
;
_chemical_formula_sum "Si O2"
_cell_formula_units_Z 26
_cell_length_a 18.711991
_cell_length_b 7.193892
_cell_length_c 13.412418
_cell_angle_alpha 90.000000
_cell_angle_beta 147.816926
_cell_angle_gamma 90.000000
_cell_volume 961.642348
_symmetry_space_group_name_H-M "C M"
_symmetry_group_IT_number 8
_symmetry_cell_setting 'monoclinic'
loop_
_space_group_symop_operation_xyz
x,y,z
x,-y,z
1/2+x,1/2+y,z
1/2+x,1/2-y,z
loop_
_atom_site_type_symbol
_atom_site_label
_atom_site_fract_x
_atom_site_fract_y
_atom_site_fract_z
Si Si1 0.325190 0.224938 0.561170
Si Si2 0.056746 0.217783 0.168941
Si Si3 0.310090 0.220387 0.759894
Si Si4 0.397220 0.274484 0.332222
Si Si5 0.140907 0.776931 0.747667
Si Si6 0.480664 0.000000 0.253411
Si Si7 0.121212 0.291819 0.943138
O O1 0.212371 0.280545 0.349379
O O2 0.265200 0.285419 0.598373
O O3 0.476873 0.295746 0.748628
O O4 0.335623 0.000000 0.567897
O O5 0.988492 0.340197 0.173597
O O6 0.055426 0.000000 0.193407
O O7 0.966669 0.240452 0.964223
O O8 0.228698 0.291469 0.758376
O O9 0.290485 0.000000 0.735318
O O10 0.402450 0.500000 0.323967
O O11 0.487196 0.235287 0.535913
O O12 0.462868 0.162620 0.318987
O O13 0.241739 0.213175 0.150701
O O14 0.181381 0.700857 0.901947
O O15 0.158097 0.000000 0.775450
O O16 0.096335 0.500000 0.950895
#
# Coordination Sequence:
#
# PCOD9132714 Si02
#       7
#     4   4   4   4   4   2   4
#     4   9  21  43  66  90 130 173 214 265 319 377
#     4  11  23  41  63  93 131 168 209 268 319 379
#     4  10  20  39  65  94 127 169 214 263 320 379
#     4  10  23  41  63  93 130 169 209 264 319 383
#     4  10  22  39  62  95 129 166 208 267 323 376
#     4  12  22  38  66  94 126 168 208 260 324 378
#     4  10  22  41  66  93 126 173 217 260 320 384
#
# _framework density 27.03708
#
# number of rings (size 3 to 8) (size 9 to 14) (size 15 to 20)
#    0.000    1.846    0.769    2.308    4.308    5.538 
#    5.538    1.538    0.000    0.000    0.000    0.000 
#    0.000    0.000    0.000    0.000    0.000    0.000 
#
# Total GULP energy -72504.788036 kJ/mol
# GULP energy per Si atom -5577.291387 kJ/mol
# Density = 2.697554 g / cm^3
# Si number density = 27.037080 Si / 1000 Ang^3
#
#
#
# Elastic Constant Matrix: (Units=GPa)
#
#
# Indices 1 2 3 4 5 6 
#
# 1 61.8828 -3.7017 27.8655 0.0000 -1.2619 0.0000
# 2 -3.7017 172.3008 -11.5048 0.0000 -7.1710 0.0000
# 3 27.8655 -11.5048 180.6428 0.0000 -2.8907 0.0000
# 4 0.0000 0.0000 0.0000 9.4265 0.0000 -12.5437
# 5 -1.2619 -7.1710 -2.8907 0.0000 40.9277 0.0000
# 6 0.0000 0.0000 0.0000 -12.5437 0.0000 8.0754
#
#
#
# Elastic Compliance Matrix: (Units=1/GPa)
#
#
# Indices 1 2 3 4 5 6 
#
# 1 0.017378 0.000212 -0.002661 0.000000 0.000385 0.000000
# 2 0.000212 0.005876 0.000359 0.000000 0.001061 0.000000
# 3 -0.002661 0.000359 0.005976 0.000000 0.000403 0.000000
# 4 0.000000 0.000000 0.000000 -0.099425 0.000000 -0.154438
# 5 0.000385 0.001061 0.000403 0.000000 0.024660 0.000000
# 6 0.000000 0.000000 0.000000 -0.154438 0.000000 -0.116060
#
#
# Mechanical properties :
#
#
# Convention : Reuss Voigt Hill
#
# Bulk Modulus (GPa) = 39.92210 48.90493 44.41352
# Shear Modulus (GPa) = -33.54282 38.49708 2.47713
#
# Velocity S-wave (km/s) = -3.52607 3.77750 0.95822
# Velocity P-wave (km/s) = 1.33409 6.09536 4.20557
#
# Compressibility (1/GPa) = 0.02504878
#
# Stress axis : x y z
#
# Youngs Moduli (GPa) = 57.54279 170.17006 167.34824
#
# Poissons Ratio (x) = -0.03602 0.44533
# Poissons Ratio (y) = -0.01218 -0.06001
# Poissons Ratio (z) = 0.15313 -0.06102
#
# Static dielectric constant tensor:
#      x y z
#    x 2.134330 0.000000 0.122180 
#    y 0.000000 1.946450 0.000000 
#    z 0.122180 0.000000 2.147780 
# 
# From -- ./inp_files/27795.got.cif
#   From: 2010.05.17/outbox.cif.g08.bks.cpg/sg8_14_cif.got.tgz:27795.got - 2010.06.03 19:46:02.
