data_PCOD9132053
_publ_section_title
;
Structure prediction by ZEFSAII (Michael W. Deem and Ramdas Pophale) SiO2 
 PCOD9132053
Probable space group: C M
;
_chemical_formula_sum "Si O2"
_cell_formula_units_Z 24
_cell_length_a 8.595076
_cell_length_b 25.162483
_cell_length_c 5.322498
_cell_angle_alpha 90.000000
_cell_angle_beta 59.131925
_cell_angle_gamma 90.000000
_cell_volume 988.060636
_symmetry_space_group_name_H-M "C M"
_symmetry_group_IT_number 8
_symmetry_cell_setting 'monoclinic'
loop_
_space_group_symop_operation_xyz
x,y,z
x,-y,z
1/2+x,1/2+y,z
1/2+x,1/2-y,z
loop_
_atom_site_type_symbol
_atom_site_label
_atom_site_fract_x
_atom_site_fract_y
_atom_site_fract_z
Si Si1 0.406190 0.098181 0.951360
Si Si2 0.302772 0.606522 0.233221
Si Si3 0.407398 0.280587 0.326927
Si Si4 0.397989 0.061057 0.461381
Si Si5 0.321190 0.561477 0.715485
Si Si6 0.324205 0.214444 0.907097
O O1 0.311449 0.065893 0.807634
O O2 0.606480 0.074361 0.845601
O O3 0.416164 0.157132 0.832165
O O4 0.317893 0.095169 0.299921
O O5 0.298386 0.666332 0.342219
O O6 0.397809 0.573807 0.376815
O O7 0.102687 0.581901 0.349118
O O8 0.387484 0.599243 0.886370
O O9 0.351509 0.249070 0.628505
O O10 0.397032 0.244209 0.090224
O O11 0.616710 0.296384 0.153073
O O12 0.399933 0.000000 0.380606
O O13 0.344429 0.500000 0.765889
#
# Coordination Sequence:
#
# PCOD9132053 Si02
#       6
#     4   4   4   4   4   4
#     4  10  20  35  59  89 132 162 216 274 332 374
#     4  10  20  35  59  89 132 162 216 274 332 374
#     4  12  28  45  68  96 136 182 235 280 341 400
#     4  10  19  34  65  97 127 170 223 268 325 407
#     4  10  19  34  65  97 127 170 223 268 325 407
#     4  12  28  45  68  96 136 182 235 280 341 400
#
# _framework density 24.290004
#
# number of rings (size 3 to 8) (size 9 to 14) (size 15 to 20)
#    0.000    1.333    0.000    8.000   14.000    0.000 
#    0.000    0.000    0.000   11.000    0.000    0.000 
#    0.000    0.000    0.000    0.000    0.000    0.000 
#
# Total GULP energy -66984.880947 kJ/mol
# GULP energy per Si atom -5582.073412 kJ/mol
# Density = 2.423472 g / cm^3
# Si number density = 24.290004 Si / 1000 Ang^3
#
#
#
# Elastic Constant Matrix: (Units=GPa)
#
#
# Indices 1 2 3 4 5 6 
#
# 1 43.9748 12.2425 47.2724 0.0000 9.8070 0.0000
# 2 12.2425 134.7687 27.6144 0.0000 15.4796 0.0000
# 3 47.2724 27.6144 167.4194 0.0000 51.1102 0.0000
# 4 0.0000 0.0000 0.0000 43.6582 0.0000 16.1592
# 5 9.8070 15.4796 51.1102 0.0000 58.3003 0.0000
# 6 0.0000 0.0000 0.0000 16.1592 0.0000 28.4706
#
#
#
# Elastic Compliance Matrix: (Units=1/GPa)
#
#
# Indices 1 2 3 4 5 6 
#
# 1 0.033427 -0.001349 -0.010389 0.000000 0.003843 0.000000
# 2 -0.001349 0.007803 -0.000468 0.000000 -0.001434 0.000000
# 3 -0.010389 -0.000468 0.011486 0.000000 -0.008198 0.000000
# 4 0.000000 0.000000 0.000000 0.028997 0.000000 -0.016458
# 5 0.003843 -0.001434 -0.008198 0.000000 0.024074 0.000000
# 6 0.000000 0.000000 0.000000 -0.016458 0.000000 0.044465
#
#
# Mechanical properties :
#
#
# Convention : Reuss Voigt Hill
#
# Bulk Modulus (GPa) = 35.33112 57.82463 46.57788
# Shear Modulus (GPa) = 27.15913 43.35474 35.25694
#
# Velocity S-wave (km/s) = 3.34746 4.22937 3.81399
# Velocity P-wave (km/s) = 5.43302 6.90707 6.21391
#
# Compressibility (1/GPa) = 0.02830366
#
# Stress axis : x y z
#
# Youngs Moduli (GPa) = 29.91590 128.14945 87.05959
#
# Poissons Ratio (x) = 0.17290 0.90448
# Poissons Ratio (y) = 0.04036 0.04076
# Poissons Ratio (z) = 0.31080 0.06000
#
# Static dielectric constant tensor:
#      x y z
#    x 2.021330 0.000000 -0.102120 
#    y 0.000000 1.816830 0.000000 
#    z -0.102120 0.000000 2.229340 
# 
# From -- ./inp_files/1567.got.cif
#   From: 2010.05.17/outbox.cif.g08.bks.cpg/sg8_1_cif.got.tgz:1567.got - 2010.06.03 19:46:02.
