data_PCOD9132047
_publ_section_title
;
Structure prediction by ZEFSAII (Michael W. Deem and Ramdas Pophale) SiO2 
 PCOD9132047
Probable space group: C M
;
_chemical_formula_sum "Si O2"
_cell_formula_units_Z 26
_cell_length_a 17.218311
_cell_length_b 8.003980
_cell_length_c 9.064285
_cell_angle_alpha 90.000000
_cell_angle_beta 83.518257
_cell_angle_gamma 90.000000
_cell_volume 1241.209585
_symmetry_space_group_name_H-M "C M"
_symmetry_group_IT_number 8
_symmetry_cell_setting 'monoclinic'
loop_
_space_group_symop_operation_xyz
x,y,z
x,-y,z
1/2+x,1/2+y,z
1/2+x,1/2-y,z
loop_
_atom_site_type_symbol
_atom_site_label
_atom_site_fract_x
_atom_site_fract_y
_atom_site_fract_z
Si Si1 0.652070 0.694499 0.449400
Si Si2 0.176611 0.306211 0.758627
Si Si3 0.330775 0.000000 0.048840
Si Si4 0.381876 0.000000 0.390645
Si Si5 0.234949 0.685216 0.156515
Si Si6 0.798677 0.500000 0.732214
Si Si7 0.485944 0.684478 0.320498
Si Si8 0.066902 0.689049 0.031488
O O1 0.666002 0.500000 0.480500
O O2 0.652694 0.802421 0.594398
O O3 0.719747 0.759110 0.327108
O O4 0.568995 0.700927 0.385519
O O5 0.196300 0.500000 0.798067
O O6 0.244216 0.166917 0.758570
O O7 0.099985 0.251962 0.868557
O O8 0.361143 0.000000 0.216039
O O9 0.282235 0.171559 0.066865
O O10 0.356191 0.000000 0.866772
O O11 0.431808 0.169121 0.387935
O O12 0.332524 0.000000 0.556259
O O13 0.269004 0.500000 0.140245
O O14 0.148328 0.682058 0.104939
O O15 0.453750 0.500000 0.352874
O O16 0.506636 0.708248 0.142419
O O17 0.035756 0.500000 0.025066
#
# Coordination Sequence:
#
# PCOD9132047 Si02
#       8
#     4   4   2   2   4   2   4   4
#     4  10  19  34  61  96 130 165 209 270 346 395
#     4  11  22  36  62 103 133 162 204 276 355 394
#     4  12  24  42  68  92 128 184 226 264 318 396
#     4  12  28  48  62  90 134 190 233 254 314 398
#     4  10  19  34  60  93 127 159 206 271 335 389
#     4  12  26  44  68  96 142 174 215 280 320 404
#     4  10  23  42  64  87 123 176 223 270 318 387
#     4   9  18  35  62  94 127 152 200 273 333 393
#
# _framework density 20.947308
#
# number of rings (size 3 to 8) (size 9 to 14) (size 15 to 20)
#    0.000    1.538    3.846    1.385    4.308    1.231 
#    2.769    0.000    0.000    0.000    0.000    0.000 
#    0.000    0.000    0.000    0.000    0.000    0.000 
#
# Total GULP energy -72398.831002 kJ/mol
# GULP energy per Si atom -5569.140846 kJ/mol
# Density = 2.089963 g / cm^3
# Si number density = 20.947308 Si / 1000 Ang^3
#
#
#
# Elastic Constant Matrix: (Units=GPa)
#
#
# Indices 1 2 3 4 5 6 
#
# 1 24.3866 40.6350 28.2499 0.0000 -7.4624 0.0000
# 2 40.6350 159.3727 29.6998 0.0000 -14.5844 0.0000
# 3 28.2499 29.6998 155.9261 0.0000 -10.0936 0.0000
# 4 0.0000 0.0000 0.0000 96.9465 0.0000 -27.5376
# 5 -7.4624 -14.5844 -10.0936 0.0000 24.3627 0.0000
# 6 0.0000 0.0000 0.0000 -27.5376 0.0000 30.0067
#
#
#
# Elastic Compliance Matrix: (Units=1/GPa)
#
#
# Indices 1 2 3 4 5 6 
#
# 1 0.092130 -0.020216 -0.012123 0.000000 0.011096 0.000000
# 2 -0.020216 0.011241 0.001599 0.000000 0.001199 0.000000
# 3 -0.012123 0.001599 0.008351 0.000000 0.000704 0.000000
# 4 0.000000 0.000000 0.000000 0.013952 0.000000 0.012804
# 5 0.011096 0.001199 0.000704 0.000000 0.045455 0.000000
# 6 0.000000 0.000000 0.000000 0.012804 0.000000 0.045076
#
#
# Mechanical properties :
#
#
# Convention : Reuss Voigt Hill
#
# Bulk Modulus (GPa) = 19.90343 59.65053 39.77698
# Shear Modulus (GPa) = 16.98191 46.33655 31.65923
#
# Velocity S-wave (km/s) = 2.85036 4.70835 3.89186
# Velocity P-wave (km/s) = 4.51166 7.62210 6.26304
#
# Compressibility (1/GPa) = 0.05024260
#
# Stress axis : x y z
#
# Youngs Moduli (GPa) = 10.85419 88.96209 119.75167
#
# Poissons Ratio (x) = 1.79844 1.45174
# Poissons Ratio (y) = 0.21943 -0.19151
# Poissons Ratio (z) = 0.13158 -0.14227
#
# Static dielectric constant tensor:
#      x y z
#    x 1.781890 0.000000 0.040860 
#    y 0.000000 1.440300 0.000000 
#    z 0.040860 0.000000 1.815950 
# 
# From -- ./inp_files/14432.got.cif
#   From: 2010.05.17/outbox.cif.g08.bks.cpg/sg8_8_cif.got.tgz:14432.got - 2010.06.03 19:46:02.
