data_PCOD9132826
_publ_section_title
;
Structure prediction by ZEFSAII (Michael W. Deem and Ramdas Pophale) SiO2 
 PCOD9132826
Probable space group: C M
;
_chemical_formula_sum "Si O2"
_cell_formula_units_Z 28
_cell_length_a 14.844199
_cell_length_b 7.362202
_cell_length_c 10.560085
_cell_angle_alpha 90.000000
_cell_angle_beta 110.294315
_cell_angle_gamma 90.000000
_cell_volume 1082.428605
_symmetry_space_group_name_H-M "C M"
_symmetry_group_IT_number 8
_symmetry_cell_setting 'monoclinic'
loop_
_space_group_symop_operation_xyz
x,y,z
x,-y,z
1/2+x,1/2+y,z
1/2+x,1/2-y,z
loop_
_atom_site_type_symbol
_atom_site_label
_atom_site_fract_x
_atom_site_fract_y
_atom_site_fract_z
Si Si1 0.480950 0.780497 0.557800
Si Si2 0.463570 0.248627 0.072716
Si Si3 0.357303 0.222685 0.264307
Si Si4 0.268157 0.721380 0.854190
Si Si5 0.555540 0.778739 0.857714
Si Si6 0.189217 0.281964 0.552750
Si Si7 0.658715 0.709533 0.254201
O O1 0.399789 0.721666 0.421011
O O2 0.488721 0.721865 0.706676
O O3 0.582137 0.730068 0.543804
O O4 0.477180 0.000000 0.560350
O O5 0.415410 0.313649 0.180403
O O6 0.562150 0.180207 0.187223
O O7 0.361515 0.190010 0.961184
O O8 0.015608 0.194667 0.966727
O O9 0.245157 0.266517 0.206005
O O10 0.367024 0.000000 0.257075
O O11 0.280453 0.500000 0.867304
O O12 0.165860 0.763181 0.871895
O O13 0.257277 0.774987 0.701256
O O14 0.550513 0.000000 0.870066
O O15 0.193447 0.500000 0.550771
O O16 0.200265 0.215141 0.416348
O O17 0.632467 0.500000 0.217342
#
# Coordination Sequence:
#
# PCOD9132826 Si02
#       7
#     4   4   4   4   4   4   4
#     4   8  15  33  58  82 110 145 191 242 286 327
#     4  12  21  35  58  86 117 153 192 234 292 353
#     4  10  21  36  55  83 120 159 194 236 291 348
#     4   9  20  38  58  82 114 150 189 240 295 340
#     4   9  19  34  57  86 110 145 200 245 275 334
#     4   9  18  38  65  86 110 154 206 242 278 343
#     4  11  24  38  57  87 124 158 189 237 302 351
#
# _framework density 25.867756
#
# number of rings (size 3 to 8) (size 9 to 14) (size 15 to 20)
#    0.000    2.286    1.429    3.429    2.000    0.571 
#    0.000    2.143    0.000    6.857    0.000    0.000 
#    0.000    0.000    0.000    0.000    0.000    0.000 
#
# Total GULP energy -78049.245748 kJ/mol
# GULP energy per Si atom -5574.946125 kJ/mol
# Density = 2.580888 g / cm^3
# Si number density = 25.867756 Si / 1000 Ang^3
#
#
#
# Elastic Constant Matrix: (Units=GPa)
#
#
# Indices 1 2 3 4 5 6 
#
# 1 194.3527 34.3751 90.2825 0.0000 1.8876 0.0000
# 2 34.3751 120.6270 24.7648 0.0000 6.1798 0.0000
# 3 90.2825 24.7648 222.5781 0.0000 1.5221 0.0000
# 4 0.0000 0.0000 0.0000 -125.1484 0.0000 19.3469
# 5 1.8876 6.1798 1.5221 0.0000 58.9725 0.0000
# 6 0.0000 0.0000 0.0000 19.3469 0.0000 -31.7639
#
#
#
# Elastic Compliance Matrix: (Units=1/GPa)
#
#
# Indices 1 2 3 4 5 6 
#
# 1 0.006548 -0.001351 -0.002506 0.000000 -0.000003 0.000000
# 2 -0.001351 0.008807 -0.000426 0.000000 -0.000869 0.000000
# 3 -0.002506 -0.000426 0.005557 0.000000 -0.000019 0.000000
# 4 0.000000 0.000000 0.000000 -0.008821 0.000000 -0.005373
# 5 -0.000003 -0.000869 -0.000019 0.000000 0.017049 0.000000
# 6 0.000000 0.000000 0.000000 -0.005373 0.000000 -0.034755
#
#
# Mechanical properties :
#
#
# Convention : Reuss Voigt Hill
#
# Bulk Modulus (GPa) = 80.99737 92.93363 86.96550
# Shear Modulus (GPa) = 707.58241 6.28773 356.93507
#
# Velocity S-wave (km/s) = 16.55694 1.56077 11.75943
# Velocity P-wave (km/s) = 19.92209 6.26518 14.76723
#
# Compressibility (1/GPa) = 0.01234608
#
# Stress axis : x y z
#
# Youngs Moduli (GPa) = 152.71017 113.54525 179.96307
#
# Poissons Ratio (x) = 0.15345 0.45094
# Poissons Ratio (y) = 0.20638 0.07662
# Poissons Ratio (z) = 0.38266 0.04834
#
# Static dielectric constant tensor:
#      x y z
#    x 1.942450 0.000000 -0.001310 
#    y 0.000000 2.450060 0.000000 
#    z -0.001310 0.000000 1.991430 
# 
# From -- ./inp_files/21617.got.cif
#   From: 2010.05.17/outbox.cif.g08.bks.cpg/sg8_11_cif.got.tgz:21617.got - 2010.06.03 19:46:02.
