data_PCOD9132878
_publ_section_title
;
Structure prediction by ZEFSAII (Michael W. Deem and Ramdas Pophale) SiO2 
 PCOD9132878
Probable space group: C M
;
_chemical_formula_sum "Si O2"
_cell_formula_units_Z 32
_cell_length_a 14.439138
_cell_length_b 8.677712
_cell_length_c 20.381209
_cell_angle_alpha 90.000000
_cell_angle_beta 135.004234
_cell_angle_gamma 90.000000
_cell_volume 1805.632440
_symmetry_space_group_name_H-M "C M"
_symmetry_group_IT_number 8
_symmetry_cell_setting 'monoclinic'
loop_
_space_group_symop_operation_xyz
x,y,z
x,-y,z
1/2+x,1/2+y,z
1/2+x,1/2-y,z
loop_
_atom_site_type_symbol
_atom_site_label
_atom_site_fract_x
_atom_site_fract_y
_atom_site_fract_z
Si Si1 0.065690 0.815143 0.317600
Si Si2 0.553000 0.314464 0.804873
Si Si3 0.261984 0.684295 0.162748
Si Si4 0.264975 0.184708 0.663305
Si Si5 0.058156 0.684693 0.663214
Si Si6 0.553879 0.315782 0.159817
Si Si7 0.770615 0.816405 0.522157
Si Si8 0.767942 0.315640 0.021451
O O1 0.089482 0.776141 0.253057
O O2 0.163572 0.729671 0.414915
O O3 0.913416 0.776695 0.254654
O O4 0.081526 0.000000 0.333174
O O5 0.544083 0.500000 0.795496
O O6 0.410689 0.247223 0.751491
O O7 0.588667 0.246188 0.751630
O O8 0.660786 0.274069 0.913195
O O9 0.250347 0.500000 0.158021
O O10 0.162516 0.757465 0.164195
O O11 0.235898 0.743192 0.076073
O O12 0.234138 0.245638 0.574681
O O13 0.161392 0.249700 0.663155
O O14 0.265017 0.000000 0.663622
O O15 0.058705 0.500000 0.663080
O O16 0.912073 0.745923 0.574797
O O17 0.541413 0.500000 0.150218
O O18 0.412317 0.242616 0.074571
O O19 0.782326 0.000000 0.533984
O O20 0.770023 0.500000 0.028792
#
# Coordination Sequence:
#
# PCOD9132878 Si02
#       8
#     4   4   4   4   4   4   4   4
#     4   9  20  38  56  79 111 147 185 227 272 322
#     4  10  21  38  58  83 112 144 183 227 274 327
#     4  10  21  37  58  82 112 146 184 228 273 324
#     4  11  22  38  59  82 111 146 183 227 273 324
#     4  11  22  38  59  82 111 146 183 227 273 324
#     4  10  21  37  58  82 112 146 184 228 273 324
#     4  11  22  37  58  84 113 145 181 225 274 328
#     4  10  21  37  58  82 112 146 183 227 274 325
#
# _framework density 17.722321999999998
#
# number of rings (size 3 to 8) (size 9 to 14) (size 15 to 20)
#    0.000    1.750    0.000    7.125    0.000    7.000 
#    0.000    2.500    0.000    0.000    0.000    0.000 
#    0.000    0.000    0.000    0.000    0.000    0.000 
#
# Total GULP energy -89395.479059 kJ/mol
# GULP energy per Si atom -5587.217441 kJ/mol
# Density = 1.768198 g / cm^3
# Si number density = 17.722322 Si / 1000 Ang^3
#
#
#
# Elastic Constant Matrix: (Units=GPa)
#
#
# Indices 1 2 3 4 5 6 
#
# 1 138.6538 38.9452 54.8242 0.0000 4.6057 0.0000
# 2 38.9452 103.2331 57.0409 0.0000 0.5635 0.0000
# 3 54.8242 57.0409 145.3305 0.0000 -1.6117 0.0000
# 4 0.0000 0.0000 0.0000 33.4027 0.0000 -0.7142
# 5 4.6057 0.5635 -1.6117 0.0000 3.4196 0.0000
# 6 0.0000 0.0000 0.0000 -0.7142 0.0000 31.3280
#
#
#
# Elastic Compliance Matrix: (Units=1/GPa)
#
#
# Indices 1 2 3 4 5 6 
#
# 1 0.009350 -0.001813 -0.002967 0.000000 -0.013692 0.000000
# 2 -0.001813 0.012786 -0.004353 0.000000 -0.001717 0.000000
# 3 -0.002967 -0.004353 0.009812 0.000000 0.009339 0.000000
# 4 0.000000 0.000000 0.000000 0.029952 0.000000 0.000683
# 5 -0.013692 -0.001717 0.009339 0.000000 0.315559 0.000000
# 6 0.000000 0.000000 0.000000 0.000683 0.000000 0.031936
#
#
# Mechanical properties :
#
#
# Convention : Reuss Voigt Hill
#
# Bulk Modulus (GPa) = 73.09699 76.53755 74.81727
# Shear Modulus (GPa) = 11.56813 29.39052 20.47932
#
# Velocity S-wave (km/s) = 2.55766 4.07675 3.40305
# Velocity P-wave (km/s) = 7.07513 8.08954 7.59928
#
# Compressibility (1/GPa) = 0.01368045
#
# Stress axis : x y z
#
# Youngs Moduli (GPa) = 106.95758 78.21354 101.91124
#
# Poissons Ratio (x) = 0.14179 0.30240
# Poissons Ratio (y) = 0.19390 0.44366
# Poissons Ratio (z) = 0.31738 0.34049
#
# Static dielectric constant tensor:
#      x y z
#    x 1.575430 0.000000 -0.000940 
#    y 0.000000 1.591460 0.000000 
#    z -0.000940 0.000000 1.583760 
# 
# From -- ./inp_files/30709.got.cif
#   From: 2010.05.17/outbox.cif.g08.bks.cpg/sg8_16_cif.got.tgz:30709.got - 2010.06.03 19:46:02.
