data_PCOD9132467
_publ_section_title
;
Structure prediction by ZEFSAII (Michael W. Deem and Ramdas Pophale) SiO2 
 PCOD9132467
Probable space group: C M
;
_chemical_formula_sum "Si O2"
_cell_formula_units_Z 32
_cell_length_a 29.608628
_cell_length_b 9.453482
_cell_length_c 5.317254
_cell_angle_alpha 90.000000
_cell_angle_beta 101.932126
_cell_angle_gamma 90.000000
_cell_volume 1456.166121
_symmetry_space_group_name_H-M "C M"
_symmetry_group_IT_number 8
_symmetry_cell_setting 'monoclinic'
loop_
_space_group_symop_operation_xyz
x,y,z
x,-y,z
1/2+x,1/2+y,z
1/2+x,1/2-y,z
loop_
_atom_site_type_symbol
_atom_site_label
_atom_site_fract_x
_atom_site_fract_y
_atom_site_fract_z
Si Si1 0.591220 0.671871 0.843200
Si Si2 0.929108 0.172864 0.075363
Si Si3 0.665246 0.156420 0.650670
Si Si4 0.714093 0.345522 0.363467
Si Si5 0.307447 0.150639 0.751192
Si Si6 0.893211 0.668208 0.529875
Si Si7 0.037311 0.830372 0.277050
Si Si8 0.262919 0.652173 0.023347
O O1 0.597416 0.500000 0.849301
O O2 0.637646 0.754781 0.825213
O O3 0.557406 0.710976 0.570772
O O4 0.567912 0.718821 0.076486
O O5 0.904848 0.249125 0.286791
O O6 0.983665 0.201844 0.178303
O O7 0.922190 0.000000 0.061199
O O8 0.914957 0.248578 0.796222
O O9 0.671459 0.255661 0.416257
O O10 0.645349 0.000000 0.583500
O O11 0.718086 0.134603 0.795394
O O12 0.698795 0.500000 0.262165
O O13 0.753630 0.363477 0.620945
O O14 0.743472 0.264037 0.193752
O O15 0.339033 0.169493 0.544019
O O16 0.322271 0.000000 0.887681
O O17 0.306668 0.286656 0.926501
O O18 0.906516 0.500000 0.533173
O O19 0.040701 0.000000 0.273972
O O20 0.273031 0.500000 0.153438
#
# Coordination Sequence:
#
# PCOD9132467 Si02
#       8
#     4   4   4   4   4   4   4   4
#     4  10  20  37  62  90 116 156 206 253 300 364
#     4  11  23  43  69  97 128 167 214 265 321 385
#     4  10  22  38  53  81 120 155 192 247 308 357
#     4  10  20  36  59  82 110 156 206 246 291 359
#     4   9  21  39  57  81 115 159 205 248 299 362
#     4  11  24  42  65  96 134 170 210 265 323 383
#     4   9  20  39  63  89 121 156 202 257 308 362
#     4  10  21  36  56  82 118 155 193 249 306 354
#
# _framework density 21.975515000000001
#
# number of rings (size 3 to 8) (size 9 to 14) (size 15 to 20)
#    0.000    2.000    0.000    2.625    3.500    5.000 
#    0.000    3.750    0.000    0.000    0.000    0.000 
#    0.000    0.000    0.000    0.000    0.000    0.000 
#
# Total GULP energy -89231.157930 kJ/mol
# GULP energy per Si atom -5576.947371 kJ/mol
# Density = 2.192550 g / cm^3
# Si number density = 21.975515 Si / 1000 Ang^3
#
#
#
# Elastic Constant Matrix: (Units=GPa)
#
#
# Indices 1 2 3 4 5 6 
#
# 1 91.9234 32.7443 29.5797 0.0000 -11.7717 0.0000
# 2 32.7443 150.7936 43.2407 0.0000 -15.9867 0.0000
# 3 29.5797 43.2407 88.2801 0.0000 -5.4603 0.0000
# 4 0.0000 0.0000 0.0000 13.8673 0.0000 17.7134
# 5 -11.7717 -15.9867 -5.4603 0.0000 34.4225 0.0000
# 6 0.0000 0.0000 0.0000 17.7134 0.0000 -26.6495
#
#
#
# Elastic Compliance Matrix: (Units=1/GPa)
#
#
# Indices 1 2 3 4 5 6 
#
# 1 0.012911 -0.001492 -0.003399 0.000000 0.003183 0.000000
# 2 -0.001492 0.008210 -0.003350 0.000000 0.002771 0.000000
# 3 -0.003399 -0.003350 0.014077 0.000000 -0.000485 0.000000
# 4 0.000000 0.000000 0.000000 0.039000 0.000000 0.025922
# 5 0.003183 0.002771 -0.000485 0.000000 0.031350 0.000000
# 6 0.000000 0.000000 0.000000 0.025922 0.000000 -0.020294
#
#
# Mechanical properties :
#
#
# Convention : Reuss Voigt Hill
#
# Bulk Modulus (GPa) = 53.42507 60.23629 56.83068
# Shear Modulus (GPa) = 46.30750 19.35691 32.83220
#
# Velocity S-wave (km/s) = 4.59544 2.97111 3.86947
# Velocity P-wave (km/s) = 7.24716 6.26420 6.77353
#
# Compressibility (1/GPa) = 0.01871780
#
# Stress axis : x y z
#
# Youngs Moduli (GPa) = 77.45191 121.80335 71.03641
#
# Poissons Ratio (x) = 0.18168 0.24143
# Poissons Ratio (y) = 0.11552 0.23798
# Poissons Ratio (z) = 0.26323 0.40806
#
# Static dielectric constant tensor:
#      x y z
#    x 1.815220 0.000000 0.070370 
#    y 0.000000 1.965460 0.000000 
#    z 0.070370 0.000000 1.871820 
# 
# From -- ./inp_files/6417.got.cif
#   From: 2010.05.17/outbox.cif.g08.bks.cpg/sg8_4_cif.got.tgz:6417.got - 2010.06.03 19:46:02.
