data_PCOD9132271
_publ_section_title
;
Structure prediction by ZEFSAII (Michael W. Deem and Ramdas Pophale) SiO2 
 PCOD9132271
Probable space group: C M
;
_chemical_formula_sum "Si O2"
_cell_formula_units_Z 32
_cell_length_a 12.774750
_cell_length_b 26.778578
_cell_length_c 13.508686
_cell_angle_alpha 90.000000
_cell_angle_beta 157.999901
_cell_angle_gamma 90.000000
_cell_volume 1731.132471
_symmetry_space_group_name_H-M "C M"
_symmetry_group_IT_number 8
_symmetry_cell_setting 'monoclinic'
loop_
_space_group_symop_operation_xyz
x,y,z
x,-y,z
1/2+x,1/2+y,z
1/2+x,1/2-y,z
loop_
_atom_site_type_symbol
_atom_site_label
_atom_site_fract_x
_atom_site_fract_y
_atom_site_fract_z
Si Si1 0.112640 0.821995 0.185840
Si Si2 0.992625 0.677996 0.699246
Si Si3 0.154330 0.844703 0.598579
Si Si4 0.504598 0.717220 0.797779
Si Si5 0.085133 0.281735 0.071150
Si Si6 0.908736 0.443591 0.124657
Si Si7 0.436924 0.845866 0.270961
Si Si8 0.538593 0.443572 0.609899
O O1 0.309194 0.837583 0.446531
O O2 0.107891 0.761567 0.171787
O O3 0.239840 0.841747 0.194724
O O4 0.804488 0.837771 0.946823
O O5 0.858082 0.657827 0.682347
O O6 0.986855 0.738540 0.703268
O O7 0.869462 0.814393 0.322883
O O8 0.105951 0.900916 0.590477
O O9 0.317481 0.817496 0.831909
O O10 0.230140 0.682067 0.551486
O O11 0.535454 0.749125 0.927111
O O12 0.781067 0.683801 0.045581
O O13 0.853593 0.500000 0.113344
O O14 0.943987 0.402478 0.240458
O O15 0.206234 0.443943 0.330831
O O16 0.676825 0.431630 0.838072
O O17 0.632367 0.500000 0.666200
#
# Coordination Sequence:
#
# PCOD9132271 Si02
#       8
#     4   4   4   4   4   4   4   4
#     4  11  21  33  50  76 111 145 176 212 256 315
#     4  11  21  33  50  76 111 145 176 212 256 315
#     4  11  21  36  56  78 108 144 181 220 269 324
#     4  10  20  34  50  75 108 143 181 217 253 308
#     4  10  20  34  50  75 108 143 181 217 253 308
#     4  10  22  39  59  83 107 135 179 234 286 327
#     4  11  21  36  56  78 108 144 181 220 269 324
#     4  10  22  39  59  83 107 135 179 234 286 327
#
# _framework density 18.485009999999999
#
# number of rings (size 3 to 8) (size 9 to 14) (size 15 to 20)
#    0.000    1.500    0.000    9.000    0.000    6.000 
#    0.000    0.000    0.000    1.500    0.000    0.000 
#    0.000    0.000    0.000    0.000    0.000    0.000 
#
# Total GULP energy -89267.781329 kJ/mol
# GULP energy per Si atom -5579.236333 kJ/mol
# Density = 1.844294 g / cm^3
# Si number density = 18.485010 Si / 1000 Ang^3
#
#
#
# Elastic Constant Matrix: (Units=GPa)
#
#
# Indices 1 2 3 4 5 6 
#
# 1 65.5223 39.1418 21.4347 -0.0001 -2.4674 -0.0006
# 2 39.1418 102.4676 14.4787 -0.0003 -0.2900 -0.0001
# 3 21.4347 14.4787 118.5624 -0.0021 8.8531 0.0019
# 4 -0.0001 -0.0003 -0.0021 19.9095 -0.0007 -3.1324
# 5 -2.4674 -0.2900 8.8531 -0.0007 19.6065 0.0000
# 6 -0.0006 -0.0001 0.0019 -3.1324 0.0000 28.1417
#
#
#
# Elastic Compliance Matrix: (Units=1/GPa)
#
#
# Indices 1 2 3 4 5 6 
#
# 1 0.020953 -0.007546 -0.003162 0.000000 0.003953 0.000001
# 2 -0.007546 0.012658 -0.000129 0.000000 -0.000704 0.000000
# 3 -0.003162 -0.000129 0.009367 0.000001 -0.004630 -0.000001
# 4 0.000000 0.000000 0.000001 0.051123 0.000001 0.005690
# 5 0.003953 -0.000704 -0.004630 0.000001 0.053581 0.000000
# 6 0.000001 0.000000 -0.000001 0.005690 0.000000 0.036168
#
#
# Mechanical properties :
#
#
# Convention : Reuss Voigt Hill
#
# Bulk Modulus (GPa) = 46.93724 48.51808 47.72766
# Shear Modulus (GPa) = 23.51563 27.63135 25.57349
#
# Velocity S-wave (km/s) = 3.57058 3.87046 3.72354
# Velocity P-wave (km/s) = 6.51506 6.80280 6.66048
#
# Compressibility (1/GPa) = 0.02130505
#
# Stress axis : x y z
#
# Youngs Moduli (GPa) = 47.72605 79.00213 106.75297
#
# Poissons Ratio (x) = 0.59614 0.33752
# Poissons Ratio (y) = 0.36014 0.01377
# Poissons Ratio (z) = 0.15090 0.01019
#
# Static dielectric constant tensor:
#      x y z
#    x 1.602100 0.000000 -0.009280 
#    y 0.000000 1.668300 0.000000 
#    z -0.009280 0.000000 1.656190 
# 
# From -- ./inp_files/27097.got.cif
#   From: 2010.05.17/outbox.cif.g08.bks.cpg/sg8_14_cif.got.tgz:27097.got - 2010.06.03 19:46:02.
