data_PCOD9132196
_publ_section_title
;
Structure prediction by ZEFSAII (Michael W. Deem and Ramdas Pophale) SiO2 
 PCOD9132196
Probable space group: C M
;
_chemical_formula_sum "Si O2"
_cell_formula_units_Z 28
_cell_length_a 9.025700
_cell_length_b 16.977650
_cell_length_c 7.201768
_cell_angle_alpha 90.000000
_cell_angle_beta 107.352608
_cell_angle_gamma 90.000000
_cell_volume 1053.338057
_symmetry_space_group_name_H-M "C M"
_symmetry_group_IT_number 8
_symmetry_cell_setting 'monoclinic'
loop_
_space_group_symop_operation_xyz
x,y,z
x,-y,z
1/2+x,1/2+y,z
1/2+x,1/2-y,z
loop_
_atom_site_type_symbol
_atom_site_label
_atom_site_fract_x
_atom_site_fract_y
_atom_site_fract_z
Si Si1 0.669490 0.916724 0.257800
Si Si2 0.098714 0.587388 0.791050
Si Si3 0.735920 0.414902 0.555558
Si Si4 0.012926 0.251977 0.812568
Si Si5 0.403809 0.818518 0.145324
Si Si6 0.449974 0.678990 0.403850
Si Si7 0.138191 0.914204 0.952356
O O1 0.567623 0.844908 0.292594
O O2 0.848237 0.899720 0.359282
O O3 0.624134 0.000000 0.323023
O O4 0.626078 0.919712 0.023673
O O5 0.161272 0.500000 0.749328
O O6 0.921986 0.590885 0.644901
O O7 0.139212 0.681553 0.788785
O O8 0.700742 0.500000 0.456319
O O9 0.628093 0.346245 0.430945
O O10 0.676589 0.418191 0.747496
O O11 0.938262 0.220007 0.598226
O O12 0.915804 0.297878 0.932141
O O13 0.058060 0.171174 0.936854
O O14 0.366485 0.737947 0.231470
O O15 0.296475 0.895031 0.120645
O O16 0.070468 0.000000 0.978005
#
# Coordination Sequence:
#
# PCOD9132196 Si02
#       7
#     4   4   4   4   4   4   4
#     4  10  20  37  60  87 118 156 199 247 300 356
#     4   9  17  35  62  85 114 161 204 238 295 361
#     4   9  17  34  59  84 114 159 200 239 295 358
#     4  10  22  38  62  88 124 156 201 250 302 352
#     4  11  21  38  63  85 120 159 199 244 304 353
#     4  11  24  35  60  92 123 150 201 250 304 353
#     4  10  19  37  62  89 119 163 205 242 297 367
#
# _framework density 26.582160999999999
#
# number of rings (size 3 to 8) (size 9 to 14) (size 15 to 20)
#    0.000    2.000    2.857    2.571    2.000    0.571 
#    0.000    2.857    0.000    4.286    0.000    0.000 
#    0.000    0.000    0.000    0.000    0.000    0.000 
#
# Total GULP energy -78028.055634 kJ/mol
# GULP energy per Si atom -5573.432545 kJ/mol
# Density = 2.652166 g / cm^3
# Si number density = 26.582161 Si / 1000 Ang^3
#
#
#
# Elastic Constant Matrix: (Units=GPa)
#
#
# Indices 1 2 3 4 5 6 
#
# 1 34.4129 25.9068 19.6699 0.0000 6.0608 0.0000
# 2 25.9068 214.3951 33.6472 0.0000 15.1843 0.0000
# 3 19.6699 33.6472 105.8488 0.0000 -5.7286 0.0000
# 4 0.0000 0.0000 0.0000 1.9823 0.0000 9.1227
# 5 6.0608 15.1843 -5.7286 0.0000 29.5700 0.0000
# 6 0.0000 0.0000 0.0000 9.1227 0.0000 27.0999
#
#
#
# Elastic Compliance Matrix: (Units=1/GPa)
#
#
# Indices 1 2 3 4 5 6 
#
# 1 0.035996 -0.002881 -0.006157 0.000000 -0.007091 0.000000
# 2 -0.002881 0.005390 -0.001310 0.000000 -0.002431 0.000000
# 3 -0.006157 -0.001310 0.011230 0.000000 0.004110 0.000000
# 4 0.000000 0.000000 0.000000 -0.918540 0.000000 0.309208
# 5 -0.007091 -0.002431 0.004110 0.000000 0.037316 0.000000
# 6 0.000000 0.000000 0.000000 0.309208 0.000000 -0.067188
#
#
# Mechanical properties :
#
#
# Convention : Reuss Voigt Hill
#
# Bulk Modulus (GPa) = 31.32741 57.01162 44.16951
# Shear Modulus (GPa) = -5.78396 30.09264 12.15434
#
# Velocity S-wave (km/s) = -1.47669 3.36826 2.14063
# Velocity P-wave (km/s) = 2.98383 6.05151 4.77096
#
# Compressibility (1/GPa) = 0.03192093
#
# Stress axis : x y z
#
# Youngs Moduli (GPa) = 27.78087 185.52422 89.04456
#
# Poissons Ratio (x) = 0.53452 0.54825
# Poissons Ratio (y) = 0.08004 0.11661
# Poissons Ratio (z) = 0.17105 0.24296
#
# Static dielectric constant tensor:
#      x y z
#    x 2.169310 0.000000 -0.014040 
#    y 0.000000 2.115520 0.000000 
#    z -0.014040 0.000000 2.018150 
# 
# From -- ./inp_files/10791.got.cif
#   From: 2010.05.17/outbox.cif.g08.bks.cpg/sg8_6_cif.got.tgz:10791.got - 2010.06.03 19:46:02.
