data_PCOD9132052
_publ_section_title
;
Structure prediction by ZEFSAII (Michael W. Deem and Ramdas Pophale) SiO2 
 PCOD9132052
Probable space group: C M
;
_chemical_formula_sum "Si O2"
_cell_formula_units_Z 26
_cell_length_a 19.595202
_cell_length_b 7.460573
_cell_length_c 8.223797
_cell_angle_alpha 90.000000
_cell_angle_beta 71.652270
_cell_angle_gamma 90.000000
_cell_volume 1141.130663
_symmetry_space_group_name_H-M "C M"
_symmetry_group_IT_number 8
_symmetry_cell_setting 'monoclinic'
loop_
_space_group_symop_operation_xyz
x,y,z
x,-y,z
1/2+x,1/2+y,z
1/2+x,1/2-y,z
loop_
_atom_site_type_symbol
_atom_site_label
_atom_site_fract_x
_atom_site_fract_y
_atom_site_fract_z
Si Si1 0.401240 0.296235 0.504610
Si Si2 0.975274 0.782123 0.112216
Si Si3 0.847730 0.796945 0.997176
Si Si4 0.373440 0.000000 0.760409
Si Si5 0.212705 0.216314 0.286499
Si Si6 0.639291 0.718535 0.006563
Si Si7 0.232900 0.218402 0.627949
O O1 0.424095 0.500000 0.518826
O O2 0.438065 0.234061 0.310009
O O3 0.418302 0.158890 0.634186
O O4 0.314484 0.287823 0.554288
O O5 0.923737 0.721876 0.004807
O O6 0.972685 0.000000 0.106020
O O7 0.057067 0.724002 0.041919
O O8 0.792079 0.788850 0.186671
O O9 0.852852 0.000000 0.934538
O O10 0.823186 0.655862 0.883929
O O11 0.194187 0.264774 0.485757
O O12 0.214995 0.000000 0.281112
O O13 0.165763 0.275222 0.166365
O O14 0.639366 0.500000 0.004967
O O15 0.688442 0.778759 0.818632
O O16 0.240912 0.000000 0.630437
#
# Coordination Sequence:
#
# PCOD9132052 Si02
#       7
#     4   4   4   2   4   4   4
#     4  11  22  39  66  95 128 171 217 269 328 386
#     4   9  20  40  64  93 128 173 217 268 328 390
#     4  11  22  39  66  95 128 171 217 269 328 386
#     4  12  24  38  60  98 130 166 214 274 320 390
#     4  10  19  34  63  97 130 174 216 269 328 392
#     4   9  19  37  61  92 133 170 222 268 326 393
#     4  10  19  34  63  97 130 174 216 269 328 392
#
# _framework density 22.784417999999999
#
# number of rings (size 3 to 8) (size 9 to 14) (size 15 to 20)
#    0.000    1.846    3.077    1.385    2.154    0.615 
#    2.769    0.000    6.769    0.000    0.000    0.000 
#    0.000    0.000    0.000    0.000    0.000    0.000 
#
# Total GULP energy -72392.530910 kJ/mol
# GULP energy per Si atom -5568.656224 kJ/mol
# Density = 2.273256 g / cm^3
# Si number density = 22.784418 Si / 1000 Ang^3
#
#
#
# Elastic Constant Matrix: (Units=GPa)
#
#
# Indices 1 2 3 4 5 6 
#
# 1 124.4845 -4.9018 46.6461 0.0000 -6.3080 0.0000
# 2 -4.9018 118.3127 22.5275 0.0000 6.5311 0.0000
# 3 46.6461 22.5275 139.1609 0.0000 0.2981 0.0000
# 4 0.0000 0.0000 0.0000 18.4849 0.0000 -11.2106
# 5 -6.3080 6.5311 0.2981 0.0000 32.5356 0.0000
# 6 0.0000 0.0000 0.0000 -11.2106 0.0000 10.1003
#
#
#
# Elastic Compliance Matrix: (Units=1/GPa)
#
#
# Indices 1 2 3 4 5 6 
#
# 1 0.009391 0.000926 -0.003301 0.000000 0.001665 0.000000
# 2 0.000926 0.008912 -0.001750 0.000000 -0.001593 0.000000
# 3 -0.003301 -0.001750 0.008576 0.000000 -0.000367 0.000000
# 4 0.000000 0.000000 0.000000 0.165509 0.000000 0.183703
# 5 0.001665 -0.001593 -0.000367 0.000000 0.031382 0.000000
# 6 0.000000 0.000000 0.000000 0.183703 0.000000 0.302904
#
#
# Mechanical properties :
#
#
# Convention : Reuss Voigt Hill
#
# Bulk Modulus (GPa) = 53.67962 56.72242 55.20102
# Shear Modulus (GPa) = 9.23986 33.40324 21.32155
#
# Velocity S-wave (km/s) = 2.01597 3.83307 3.06240
# Velocity P-wave (km/s) = 5.38793 6.67377 6.06502
#
# Compressibility (1/GPa) = 0.01862904
#
# Stress axis : x y z
#
# Youngs Moduli (GPa) = 106.48516 112.21328 116.59788
#
# Poissons Ratio (x) = -0.10388 0.38492
# Poissons Ratio (y) = -0.09858 0.20399
# Poissons Ratio (z) = 0.35153 0.19632
#
# Static dielectric constant tensor:
#      x y z
#    x 1.896130 0.000000 0.100230 
#    y 0.000000 1.856990 0.000000 
#    z 0.100230 0.000000 1.959190 
# 
# From -- ./inp_files/15621.got.cif
#   From: 2010.05.17/outbox.cif.g08.bks.cpg/sg8_8_cif.got.tgz:15621.got - 2010.06.03 19:46:02.
