data_PCOD9132592
_publ_section_title
;
Structure prediction by ZEFSAII (Michael W. Deem and Ramdas Pophale) SiO2 
 PCOD9132592
Probable space group: C M
;
_chemical_formula_sum "Si O2"
_cell_formula_units_Z 32
_cell_length_a 10.326602
_cell_length_b 14.320112
_cell_length_c 10.816091
_cell_angle_alpha 90.000000
_cell_angle_beta 88.803617
_cell_angle_gamma 90.000000
_cell_volume 1599.114279
_symmetry_space_group_name_H-M "C M"
_symmetry_group_IT_number 8
_symmetry_cell_setting 'monoclinic'
loop_
_space_group_symop_operation_xyz
x,y,z
x,-y,z
1/2+x,1/2+y,z
1/2+x,1/2-y,z
loop_
_atom_site_type_symbol
_atom_site_label
_atom_site_fract_x
_atom_site_fract_y
_atom_site_fract_z
Si Si1 0.373630 0.235152 0.112340
Si Si2 0.339871 0.611738 0.306275
Si Si3 0.720807 0.888678 0.770376
Si Si4 0.026982 0.111838 0.730786
Si Si5 0.632241 0.267607 0.949924
Si Si6 0.876167 0.612953 0.350749
Si Si7 0.616454 0.887149 0.507686
Si Si8 0.594560 0.386968 0.452686
O O1 0.325575 0.328736 0.183227
O O2 0.402728 0.160510 0.219167
O O3 0.502885 0.257676 0.033634
O O4 0.255773 0.202228 0.028283
O O5 0.336390 0.500000 0.284815
O O6 0.230263 0.635278 0.408946
O O7 0.477563 0.638109 0.364357
O O8 0.873766 0.870380 0.750218
O O9 0.667363 0.830946 0.885987
O O10 0.649542 0.857494 0.645599
O O11 0.703998 0.000000 0.786025
O O12 0.103699 0.161971 0.838248
O O13 0.069371 0.143954 0.593276
O O14 0.045832 0.000000 0.737258
O O15 0.881295 0.500000 0.340136
O O16 0.733230 0.641300 0.397935
O O17 0.981517 0.642985 0.450534
O O18 0.613685 0.000000 0.513712
O O19 0.593504 0.500000 0.456970
#
# Coordination Sequence:
#
# PCOD9132592 Si02
#       8
#     4   4   4   4   4   4   4   4
#     4  12  26  40  58  86 128 170 212 248 294 364
#     4  10  20  37  63  89 117 160 207 252 302 368
#     4  10  21  42  69  92 123 163 204 259 315 367
#     4  10  21  42  69  92 123 163 204 259 315 367
#     4  12  26  42  60  92 124 168 222 254 286 366
#     4  10  22  39  59  89 127 156 189 256 320 362
#     4   9  18  37  65  93 118 150 199 253 316 375
#     4   9  18  37  65  93 118 150 199 253 316 375
#
# _framework density 20.011078000000001
#
# number of rings (size 3 to 8) (size 9 to 14) (size 15 to 20)
#    0.000    1.750    2.500    1.500    0.000    5.000 
#    0.000    1.250    0.000    0.000    0.000    0.000 
#    0.000    0.000    0.000    0.000    0.000    0.000 
#
# Total GULP energy -89453.523426 kJ/mol
# GULP energy per Si atom -5590.845214 kJ/mol
# Density = 1.996553 g / cm^3
# Si number density = 20.011078 Si / 1000 Ang^3
#
#
#
# Elastic Constant Matrix: (Units=GPa)
#
#
# Indices 1 2 3 4 5 6 
#
# 1 53.2927 -21.2294 -7.8068 0.0000 17.2201 0.0000
# 2 -21.2294 54.1591 -0.0530 0.0000 10.1057 0.0000
# 3 -7.8068 -0.0530 72.2363 0.0000 11.7701 0.0000
# 4 0.0000 0.0000 0.0000 44.3760 0.0000 2.6061
# 5 17.2201 10.1057 11.7701 0.0000 41.1034 0.0000
# 6 0.0000 0.0000 0.0000 2.6061 0.0000 -20.2043
#
#
#
# Elastic Compliance Matrix: (Units=1/GPa)
#
#
# Indices 1 2 3 4 5 6 
#
# 1 0.032680 0.016488 0.006750 0.000000 -0.019678 0.000000
# 2 0.016488 0.027718 0.004236 0.000000 -0.014935 0.000000
# 3 0.006750 0.004236 0.015951 0.000000 -0.008437 0.000000
# 4 0.000000 0.000000 0.000000 0.022365 0.000000 0.002885
# 5 -0.019678 -0.014935 -0.008437 0.000000 0.038661 0.000000
# 6 0.000000 0.000000 0.000000 0.002885 0.000000 -0.049122
#
#
# Mechanical properties :
#
#
# Convention : Reuss Voigt Hill
#
# Bulk Modulus (GPa) = 7.61637 13.50110 10.55874
# Shear Modulus (GPa) = 64.87643 26.97351 45.92497
#
# Velocity S-wave (km/s) = 5.70006 3.67540 4.79579
# Velocity P-wave (km/s) = 6.86551 4.97723 5.99617
#
# Compressibility (1/GPa) = 0.13129621
#
# Stress axis : x y z
#
# Youngs Moduli (GPa) = 30.60021 36.07752 62.69299
#
# Poissons Ratio (x) = -0.59485 -0.42318
# Poissons Ratio (y) = -0.50454 -0.26555
# Poissons Ratio (z) = -0.20655 -0.15282
#
# Static dielectric constant tensor:
#      x y z
#    x 1.686700 0.000000 0.012680 
#    y 0.000000 1.733330 0.000000 
#    z 0.012680 0.000000 1.664240 
# 
# From -- ./inp_files/18868.got.cif
#   From: 2010.05.17/outbox.cif.g08.bks.cpg/sg8_10_cif.got.tgz:18868.got - 2010.06.03 19:46:02.
