data_PCOD9132041
_publ_section_title
;
Structure prediction by ZEFSAII (Michael W. Deem and Ramdas Pophale) SiO2 
 PCOD9132041
Probable space group: C M
;
_chemical_formula_sum "Si O2"
_cell_formula_units_Z 32
_cell_length_a 25.240235
_cell_length_b 8.795789
_cell_length_c 16.401338
_cell_angle_alpha 90.000000
_cell_angle_beta 153.183180
_cell_angle_gamma 90.000000
_cell_volume 1642.700465
_symmetry_space_group_name_H-M "C M"
_symmetry_group_IT_number 8
_symmetry_cell_setting 'monoclinic'
loop_
_space_group_symop_operation_xyz
x,y,z
x,-y,z
1/2+x,1/2+y,z
1/2+x,1/2-y,z
loop_
_atom_site_type_symbol
_atom_site_label
_atom_site_fract_x
_atom_site_fract_y
_atom_site_fract_z
Si Si1 0.571470 0.318269 0.086610
Si Si2 0.651719 0.180788 0.608283
Si Si3 0.398593 0.181949 0.978222
Si Si4 0.534177 0.675168 0.603779
Si Si5 0.344784 0.816822 0.456954
Si Si6 0.930277 0.684801 0.206812
Si Si7 0.709314 0.323808 0.999399
Si Si8 0.015110 0.680494 0.839932
O O1 0.566953 0.500000 0.084294
O O2 0.708704 0.272250 0.272795
O O3 0.504496 0.248819 0.071455
O O4 0.509158 0.261844 0.918428
O O5 0.775059 0.264464 0.772239
O O6 0.586594 0.227508 0.602381
O O7 0.561073 0.224612 0.412849
O O8 0.670062 0.000000 0.631840
O O9 0.404924 0.000000 0.986628
O O10 0.401688 0.235770 0.076491
O O11 0.519435 0.500000 0.558056
O O12 0.415618 0.741923 0.479789
O O13 0.629417 0.677015 0.808006
O O14 0.414424 0.775547 0.636030
O O15 0.352203 0.000000 0.458788
O O16 0.920480 0.500000 0.194190
O O17 0.835288 0.736524 0.143337
O O18 0.719006 0.500000 0.040734
O O19 0.638523 0.228475 0.968222
O O20 0.009887 0.500000 0.843962
#
# Coordination Sequence:
#
# PCOD9132041 Si02
#       8
#     4   4   4   4   4   4   4   4
#     4  11  24  42  63  87 117 160 203 243 296 359
#     4  11  22  37  60  90 120 156 199 243 296 356
#     4  11  23  44  64  84 118 158 201 251 296 348
#     4  10  19  34  59  89 123 157 196 243 296 351
#     4   9  21  40  60  85 121 158 197 244 297 351
#     4   9  20  38  60  85 117 158 199 238 294 356
#     4   9  17  35  59  84 120 161 195 236 293 354
#     4  10  21  38  59  90 122 154 196 246 296 347
#
# _framework density 19.480118000000001
#
# number of rings (size 3 to 8) (size 9 to 14) (size 15 to 20)
#    0.000    2.000    1.250    1.875    1.750    3.000 
#    0.000    5.625    0.000    0.000    0.000    0.000 
#    0.000    0.000    0.000    0.000    0.000    0.000 
#
# Total GULP energy -89387.073663 kJ/mol
# GULP energy per Si atom -5586.692104 kJ/mol
# Density = 1.943578 g / cm^3
# Si number density = 19.480118 Si / 1000 Ang^3
#
#
#
# Elastic Constant Matrix: (Units=GPa)
#
#
# Indices 1 2 3 4 5 6 
#
# 1 52.9296 12.3676 12.4928 0.0000 17.2356 0.0000
# 2 12.3676 39.4565 16.7698 0.0000 5.2364 0.0000
# 3 12.4928 16.7698 63.4876 0.0000 18.2847 0.0000
# 4 0.0000 0.0000 0.0000 20.0257 0.0000 3.4542
# 5 17.2356 5.2364 18.2847 0.0000 27.5546 0.0000
# 6 0.0000 0.0000 0.0000 3.4542 0.0000 36.5311
#
#
#
# Elastic Compliance Matrix: (Units=1/GPa)
#
#
# Indices 1 2 3 4 5 6 
#
# 1 0.025059 -0.006311 0.001119 0.000000 -0.015218 0.000000
# 2 -0.006311 0.030145 -0.007674 0.000000 0.003311 0.000000
# 3 0.001119 -0.007674 0.021436 0.000000 -0.013466 0.000000
# 4 0.000000 0.000000 0.000000 0.050764 0.000000 -0.004800
# 5 -0.015218 0.003311 -0.013466 0.000000 0.054117 0.000000
# 6 0.000000 0.000000 0.000000 -0.004800 0.000000 0.027828
#
#
# Mechanical properties :
#
#
# Convention : Reuss Voigt Hill
#
# Bulk Modulus (GPa) = 19.64350 26.57047 23.10698
# Shear Modulus (GPa) = 19.83731 24.43852 22.13791
#
# Velocity S-wave (km/s) = 3.19460 3.54579 3.37476
# Velocity P-wave (km/s) = 4.86961 5.51660 5.20317
#
# Compressibility (1/GPa) = 0.05090743
#
# Stress axis : x y z
#
# Youngs Moduli (GPa) = 39.90602 33.17328 46.64954
#
# Poissons Ratio (x) = 0.20934 -0.05219
# Poissons Ratio (y) = 0.25183 0.35801
# Poissons Ratio (z) = -0.04464 0.25459
#
# Static dielectric constant tensor:
#      x y z
#    x 1.653080 0.000000 -0.007350 
#    y 0.000000 1.657600 0.000000 
#    z -0.007350 0.000000 1.696570 
# 
# From -- ./inp_files/28179.got.cif
#   From: 2010.05.17/outbox.cif.g08.bks.cpg/sg8_15_cif.got.tgz:28179.got - 2010.06.03 19:46:02.
