data_PCOD9132201
_publ_section_title
;
Structure prediction by ZEFSAII (Michael W. Deem and Ramdas Pophale) SiO2 
 PCOD9132201
Probable space group: C M
;
_chemical_formula_sum "Si O2"
_cell_formula_units_Z 24
_cell_length_a 20.106273
_cell_length_b 14.667791
_cell_length_c 5.509867
_cell_angle_alpha 90.000000
_cell_angle_beta 141.024636
_cell_angle_gamma 90.000000
_cell_volume 1022.064972
_symmetry_space_group_name_H-M "C M"
_symmetry_group_IT_number 8
_symmetry_cell_setting 'monoclinic'
loop_
_space_group_symop_operation_xyz
x,y,z
x,-y,z
1/2+x,1/2+y,z
1/2+x,1/2-y,z
loop_
_atom_site_type_symbol
_atom_site_label
_atom_site_fract_x
_atom_site_fract_y
_atom_site_fract_z
Si Si1 0.932740 0.000000 0.720211
Si Si2 0.445231 0.691600 0.744661
Si Si3 0.506477 0.000000 0.629259
Si Si4 0.591418 0.801986 0.840975
Si Si5 0.791858 0.304246 0.628914
Si Si6 0.061566 0.000000 0.588486
Si Si7 0.370439 0.000000 0.740001
Si Si8 0.647956 0.675488 0.613321
O O1 0.878402 0.901161 0.522614
O O2 0.013562 0.000000 0.719629
O O3 0.973033 0.000000 0.117989
O O4 0.484059 0.751739 0.629082
O O5 0.390998 0.751908 0.797498
O O6 0.558750 0.655363 0.160679
O O7 0.575251 0.091921 0.831274
O O8 0.433467 0.000000 0.664007
O O9 0.443449 0.000000 0.192557
O O10 0.614397 0.770918 0.633461
O O11 0.692746 0.757312 0.260610
O O12 0.803675 0.407374 0.570310
O O13 0.764227 0.316911 0.834201
O O14 0.129436 0.091058 0.738734
#
# Coordination Sequence:
#
# PCOD9132201 Si02
#       8
#     2   4   2   4   4   2   2   4
#     4  10  20  37  65  94 125 178 218 280 353 430
#     4  10  21  42  64  95 141 187 240 298 370 435
#     4  12  28  49  77 107 152 208 241 305 383 455
#     4  11  24  43  71  99 147 189 247 301 376 435
#     4  11  25  42  71 107 140 189 254 306 362 440
#     4  10  19  37  64  92 129 162 223 279 368 402
#     4  12  27  49  78 111 148 196 260 308 370 443
#     4  10  22  39  65  98 138 185 230 315 364 432
#
# _framework density 23.481874000000001
#
# number of rings (size 3 to 8) (size 9 to 14) (size 15 to 20)
#    0.000    1.333    3.333    1.500    4.667    4.667 
#    0.000    0.833    0.000    0.000    0.000    0.000 
#    0.000    0.000    0.000    0.000    0.000    0.000 
#
# Total GULP energy -66924.660703 kJ/mol
# GULP energy per Si atom -5577.055059 kJ/mol
# Density = 2.342843 g / cm^3
# Si number density = 23.481874 Si / 1000 Ang^3
#
#
#
# Elastic Constant Matrix: (Units=GPa)
#
#
# Indices 1 2 3 4 5 6 
#
# 1 164.8726 64.9903 7.9002 0.0000 -10.8121 0.0000
# 2 64.9903 221.1056 8.7741 0.0000 5.7247 0.0000
# 3 7.9002 8.7741 69.0306 0.0000 -0.7919 0.0000
# 4 0.0000 0.0000 0.0000 19.9029 0.0000 1.8668
# 5 -10.8121 5.7247 -0.7919 0.0000 24.8249 0.0000
# 6 0.0000 0.0000 0.0000 1.8668 0.0000 44.6677
#
#
#
# Elastic Compliance Matrix: (Units=1/GPa)
#
#
# Indices 1 2 3 4 5 6 
#
# 1 0.007189 -0.002187 -0.000503 0.000000 0.003619 0.000000
# 2 -0.002187 0.005239 -0.000441 0.000000 -0.002175 0.000000
# 3 -0.000503 -0.000441 0.014604 0.000000 0.000348 0.000000
# 4 0.000000 0.000000 0.000000 0.050442 0.000000 -0.002108
# 5 0.003619 -0.002175 0.000348 0.000000 0.042371 0.000000
# 6 0.000000 0.000000 0.000000 -0.002108 0.000000 0.022476
#
#
# Mechanical properties :
#
#
# Convention : Reuss Voigt Hill
#
# Bulk Modulus (GPa) = 48.14473 68.70421 58.42447
# Shear Modulus (GPa) = 32.15327 42.76870 37.46098
#
# Velocity S-wave (km/s) = 3.70439 4.27236 3.99847
# Velocity P-wave (km/s) = 6.23251 7.32525 6.80086
#
# Compressibility (1/GPa) = 0.02077071
#
# Stress axis : x y z
#
# Youngs Moduli (GPa) = 139.10678 190.86624 68.47473
#
# Poissons Ratio (x) = 0.41737 0.03446
# Poissons Ratio (y) = 0.30419 0.03017
# Poissons Ratio (z) = 0.07001 0.08410
#
# Static dielectric constant tensor:
#      x y z
#    x 1.908500 0.000000 -0.056910 
#    y 0.000000 1.924200 0.000000 
#    z -0.056910 0.000000 1.981590 
# 
# From -- ./inp_files/3791.got.cif
#   From: 2010.05.17/outbox.cif.g08.bks.cpg/sg8_2_cif.got.tgz:3791.got - 2010.06.03 19:46:02.
