data_PCOD9132731
_publ_section_title
;
Structure prediction by ZEFSAII (Michael W. Deem and Ramdas Pophale) SiO2 
 PCOD9132731
Probable space group: C M
;
_chemical_formula_sum "Si O2"
_cell_formula_units_Z 24
_cell_length_a 14.842986
_cell_length_b 11.028391
_cell_length_c 7.373715
_cell_angle_alpha 90.000000
_cell_angle_beta 106.397044
_cell_angle_gamma 90.000000
_cell_volume 1157.942904
_symmetry_space_group_name_H-M "C M"
_symmetry_group_IT_number 8
_symmetry_cell_setting 'monoclinic'
loop_
_space_group_symop_operation_xyz
x,y,z
x,-y,z
1/2+x,1/2+y,z
1/2+x,1/2-y,z
loop_
_atom_site_type_symbol
_atom_site_label
_atom_site_fract_x
_atom_site_fract_y
_atom_site_fract_z
Si Si1 0.927200 0.763494 0.802390
Si Si2 0.441627 0.368070 0.428705
Si Si3 0.238282 0.642731 0.842520
Si Si4 0.099034 0.638581 0.081382
Si Si5 0.642845 0.725917 0.452572
Si Si6 0.839062 0.633487 0.433850
O O1 0.943800 0.860095 0.650206
O O2 0.843671 0.809723 0.880913
O O3 0.890936 0.650490 0.658416
O O4 0.018584 0.727426 0.963323
O O5 0.404478 0.500000 0.350590
O O6 0.547618 0.348895 0.422676
O O7 0.380258 0.248582 0.347043
O O8 0.235590 0.500000 0.795696
O O9 0.177105 0.717243 0.661072
O O10 0.190630 0.658516 0.009814
O O11 0.068884 0.500000 0.039099
O O12 0.121186 0.666245 0.301049
O O13 0.729504 0.652805 0.414624
O O14 0.857468 0.500000 0.368396
#
# Coordination Sequence:
#
# PCOD9132731 Si02
#       6
#     4   4   4   4   4   4
#     4   9  20  36  65  89 124 161 210 250 311 362
#     4  10  21  38  64  92 124 162 209 253 309 371
#     4  10  20  40  62  87 125 166 207 256 307 368
#     4  11  23  39  61  95 128 164 210 258 310 373
#     4  11  22  37  63  90 126 161 212 250 320 362
#     4   9  20  38  63  89 122 164 209 253 310 368
#
# _framework density 20.726410000000001
#
# number of rings (size 3 to 8) (size 9 to 14) (size 15 to 20)
#    1.000    1.000    1.667    2.000    0.000    3.333 
#    0.000    5.000    0.000    0.000    0.000    0.000 
#    0.000    0.000    0.000    0.000    0.000    0.000 
#
# Total GULP energy -66935.741093 kJ/mol
# GULP energy per Si atom -5577.978424 kJ/mol
# Density = 2.067924 g / cm^3
# Si number density = 20.726410 Si / 1000 Ang^3
#
#
#
# Elastic Constant Matrix: (Units=GPa)
#
#
# Indices 1 2 3 4 5 6 
#
# 1 101.3354 45.5472 6.5610 0.0000 1.7312 0.0000
# 2 45.5472 136.3127 2.8543 0.0000 -0.1576 0.0000
# 3 6.5610 2.8543 29.8685 0.0000 -6.5393 0.0000
# 4 0.0000 0.0000 0.0000 11.9821 0.0000 -2.3910
# 5 1.7312 -0.1576 -6.5393 0.0000 17.7717 0.0000
# 6 0.0000 0.0000 0.0000 -2.3910 0.0000 11.1788
#
#
#
# Elastic Compliance Matrix: (Units=1/GPa)
#
#
# Indices 1 2 3 4 5 6 
#
# 1 0.011833 -0.003900 -0.002705 0.000000 -0.002182 0.000000
# 2 -0.003900 0.008637 0.000143 0.000000 0.000509 0.000000
# 3 -0.002705 0.000143 0.037108 0.000000 0.013919 0.000000
# 4 0.000000 0.000000 0.000000 0.087178 0.000000 0.018646
# 5 -0.002182 0.000509 0.013919 0.000000 0.061608 0.000000
# 6 0.000000 0.000000 0.000000 0.018646 0.000000 0.093443
#
#
# Mechanical properties :
#
#
# Convention : Reuss Voigt Hill
#
# Bulk Modulus (GPa) = 22.39400 41.93797 32.16598
# Shear Modulus (GPa) = 15.26178 22.35681 18.80930
#
# Velocity S-wave (km/s) = 2.71651 3.28786 3.01575
# Velocity P-wave (km/s) = 4.54613 5.88994 5.26112
#
# Compressibility (1/GPa) = 0.04465483
#
# Stress axis : x y z
#
# Youngs Moduli (GPa) = 84.50592 115.78398 26.94843
#
# Poissons Ratio (x) = 0.45155 0.07288
# Poissons Ratio (y) = 0.32956 -0.00385
# Poissons Ratio (z) = 0.22855 -0.01653
#
# Static dielectric constant tensor:
#      x y z
#    x 1.728240 0.000000 0.001030 
#    y 0.000000 1.734300 0.000000 
#    z 0.001030 0.000000 1.706380 
# 
# From -- ./inp_files/12532.got.cif
#   From: 2010.05.17/outbox.cif.g08.bks.cpg/sg8_7_cif.got.tgz:12532.got - 2010.06.03 19:46:02.
