data_PCOD9132043
_publ_section_title
;
Structure prediction by ZEFSAII (Michael W. Deem and Ramdas Pophale) SiO2 
 PCOD9132043
Probable space group: C M
;
_chemical_formula_sum "Si O2"
_cell_formula_units_Z 30
_cell_length_a 10.069112
_cell_length_b 24.347135
_cell_length_c 9.825213
_cell_angle_alpha 90.000000
_cell_angle_beta 41.238998
_cell_angle_gamma 90.000000
_cell_volume 1587.812267
_symmetry_space_group_name_H-M "C M"
_symmetry_group_IT_number 8
_symmetry_cell_setting 'monoclinic'
loop_
_space_group_symop_operation_xyz
x,y,z
x,-y,z
1/2+x,1/2+y,z
1/2+x,1/2-y,z
loop_
_atom_site_type_symbol
_atom_site_label
_atom_site_fract_x
_atom_site_fract_y
_atom_site_fract_z
Si Si1 0.553270 0.405656 0.394270
Si Si2 0.571839 0.287978 0.240422
Si Si3 0.486571 0.062971 0.944087
Si Si4 0.954361 0.903170 0.055513
Si Si5 0.693203 0.802665 0.360987
Si Si6 0.896053 0.063760 0.788774
Si Si7 0.370975 0.847511 0.821316
Si Si8 0.905599 0.000000 0.320713
O O1 0.524943 0.345913 0.351120
O O2 0.524530 0.403753 0.577726
O O3 0.409086 0.451250 0.436876
O O4 0.774194 0.426968 0.182447
O O5 0.613461 0.239893 0.312595
O O6 0.377505 0.274893 0.300129
O O7 0.766598 0.301605 0.997437
O O8 0.667048 0.069501 0.911538
O O9 0.488771 0.108266 0.823789
O O10 0.483479 0.000000 0.893485
O O11 0.794420 0.855871 0.214477
O O12 0.923940 0.952087 0.186911
O O13 0.924825 0.919829 0.922060
O O14 0.179641 0.879443 0.904503
O O15 0.518297 0.821726 0.597666
O O16 0.953082 0.000000 0.731672
#
# Coordination Sequence:
#
# PCOD9132043 Si02
#       8
#     4   4   4   4   4   4   4   2
#     4  11  20  40  65  88 119 171 211 255 316 379
#     4  10  24  41  63  90 125 164 219 266 307 379
#     4  10  19  34  59  90 121 159 209 258 308 387
#     4  11  24  41  63  98 131 163 207 273 320 373
#     4  11  24  43  63  92 125 168 216 260 318 378
#     4  11  23  34  58  93 129 160 200 261 326 371
#     4  10  22  41  65  89 119 170 221 255 319 380
#     4  12  18  42  72  88 132 168 212 270 312 382
#
# _framework density 18.893922
#
# number of rings (size 3 to 8) (size 9 to 14) (size 15 to 20)
#    0.000    1.333    6.000    0.800    0.000    7.467 
#    0.000    0.000    0.000    0.000    0.000    0.000 
#    0.000    0.000    0.000    0.000    0.000    0.000 
#
# Total GULP energy -83536.090547 kJ/mol
# GULP energy per Si atom -5569.072703 kJ/mol
# Density = 1.885092 g / cm^3
# Si number density = 18.893922 Si / 1000 Ang^3
#
#
#
# Elastic Constant Matrix: (Units=GPa)
#
#
# Indices 1 2 3 4 5 6 
#
# 1 50.0635 18.2506 29.8988 0.0000 24.4004 0.0000
# 2 18.2506 58.9466 19.9918 0.0000 3.8326 0.0000
# 3 29.8988 19.9918 74.1799 0.0000 14.9295 0.0000
# 4 0.0000 0.0000 0.0000 19.3595 0.0000 18.2441
# 5 24.4004 3.8326 14.9295 0.0000 31.8572 0.0000
# 6 0.0000 0.0000 0.0000 18.2441 0.0000 38.6945
#
#
#
# Elastic Compliance Matrix: (Units=1/GPa)
#
#
# Indices 1 2 3 4 5 6 
#
# 1 0.041129 -0.007921 -0.009158 0.000000 -0.026257 0.000000
# 2 -0.007921 0.020197 -0.003293 0.000000 0.005180 0.000000
# 3 -0.009158 -0.003293 0.018293 0.000000 -0.001162 0.000000
# 4 0.000000 0.000000 0.000000 0.092958 0.000000 -0.043829
# 5 -0.026257 0.005180 -0.001162 0.000000 0.051423 0.000000
# 6 0.000000 0.000000 0.000000 -0.043829 0.000000 0.046508
#
#
# Mechanical properties :
#
#
# Convention : Reuss Voigt Hill
#
# Bulk Modulus (GPa) = 25.72341 35.49694 30.61017
# Shear Modulus (GPa) = 15.42203 25.65216 20.53709
#
# Velocity S-wave (km/s) = 2.86010 3.68869 3.30050
# Velocity P-wave (km/s) = 4.95490 6.08031 5.54623
#
# Compressibility (1/GPa) = 0.03887510
#
# Stress axis : x y z
#
# Youngs Moduli (GPa) = 24.31371 49.51228 54.66433
#
# Poissons Ratio (x) = 0.39218 0.50062
# Poissons Ratio (y) = 0.19259 0.18002
# Poissons Ratio (z) = 0.22267 0.16306
#
# Static dielectric constant tensor:
#      x y z
#    x 1.652550 0.000000 -0.023070 
#    y 0.000000 1.639890 0.000000 
#    z -0.023070 0.000000 1.667700 
# 
# From -- ./inp_files/9157.got.cif
#   From: 2010.05.17/outbox.cif.g08.bks.cpg/sg8_5_cif.got.tgz:9157.got - 2010.06.03 19:46:02.
