data_PCOD9132254
_publ_section_title
;
Structure prediction by ZEFSAII (Michael W. Deem and Ramdas Pophale) SiO2 
 PCOD9132254
Probable space group: C M
;
_chemical_formula_sum "Si O2"
_cell_formula_units_Z 32
_cell_length_a 15.209946
_cell_length_b 9.017469
_cell_length_c 22.241094
_cell_angle_alpha 90.000000
_cell_angle_beta 29.564738
_cell_angle_gamma 90.000000
_cell_volume 1505.128145
_symmetry_space_group_name_H-M "C M"
_symmetry_group_IT_number 8
_symmetry_cell_setting 'monoclinic'
loop_
_space_group_symop_operation_xyz
x,y,z
x,-y,z
1/2+x,1/2+y,z
1/2+x,1/2-y,z
loop_
_atom_site_type_symbol
_atom_site_label
_atom_site_fract_x
_atom_site_fract_y
_atom_site_fract_z
Si Si1 0.929450 0.177914 0.807720
Si Si2 0.955330 0.835157 0.550089
Si Si3 0.615904 0.822886 0.812996
Si Si4 0.088864 0.672979 0.075262
Si Si5 0.332159 0.326682 0.052754
Si Si6 0.227618 0.334151 0.565209
Si Si7 0.490929 0.822457 0.317932
Si Si8 0.306469 0.325666 0.313509
O O1 0.028037 0.231800 0.810180
O O2 0.040400 0.252723 0.688195
O O3 0.938970 0.000000 0.797645
O O4 0.723098 0.219487 0.942179
O O5 0.828078 0.795823 0.681896
O O6 0.818791 0.848095 0.576112
O O7 0.101533 0.719331 0.441960
O O8 0.035587 0.000000 0.512338
O O9 0.589948 0.000000 0.820413
O O10 0.507056 0.768978 0.935722
O O11 0.042294 0.500000 0.095761
O O12 0.209742 0.683377 0.064594
O O13 0.912903 0.767948 0.191896
O O14 0.377605 0.500000 0.033183
O O15 0.198338 0.278121 0.185583
O O16 0.202324 0.500000 0.555175
O O17 0.372341 0.244904 0.441004
O O18 0.394207 0.762022 0.316346
O O19 0.487898 0.000000 0.322027
O O20 0.331260 0.500000 0.304479
#
# Coordination Sequence:
#
# PCOD9132254 Si02
#       8
#     4   4   4   4   4   4   4   4
#     4   9  16  27  45  68  94 125 158 194 239 287
#     4   9  19  34  49  69 100 132 159 195 245 294
#     4   9  16  26  44  69  94 122 157 200 242 279
#     4   8  15  28  45  66  94 126 158 194 239 287
#     4   8  15  27  44  67  93 123 157 194 237 285
#     4  10  20  33  51  75 100 127 162 203 242 283
#     4  10  20  34  51  71 100 134 162 194 242 295
#     4  11  21  31  49  75  99 127 165 206 242 280
#
# _framework density 21.260649000000001
#
# number of rings (size 3 to 8) (size 9 to 14) (size 15 to 20)
#    0.000    2.750    0.000    4.875    0.000    8.500 
#    0.000    0.000    0.000    1.500    0.000    5.250 
#    0.000    0.000    0.000    0.000    0.000    0.000 
#
# Total GULP energy -89175.875212 kJ/mol
# GULP energy per Si atom -5573.492201 kJ/mol
# Density = 2.121226 g / cm^3
# Si number density = 21.260649 Si / 1000 Ang^3
#
#
#
# Elastic Constant Matrix: (Units=GPa)
#
#
# Indices 1 2 3 4 5 6 
#
# 1 26.6380 0.2596 12.5786 -0.0001 6.3636 0.0000
# 2 0.2596 76.4563 86.5479 -0.0001 20.8986 0.0000
# 3 12.5786 86.5479 219.3364 -0.0001 33.6727 0.0001
# 4 -0.0001 -0.0001 -0.0001 39.1464 0.0000 2.0542
# 5 6.3636 20.8986 33.6727 0.0000 12.9747 -0.0001
# 6 0.0000 0.0000 0.0001 2.0542 -0.0001 9.9769
#
#
#
# Elastic Compliance Matrix: (Units=1/GPa)
#
#
# Indices 1 2 3 4 5 6 
#
# 1 0.047475 0.012285 -0.001592 0.000000 -0.038940 -0.000001
# 2 0.012285 0.031847 -0.007432 0.000000 -0.038033 0.000000
# 3 -0.001592 -0.007432 0.009351 0.000000 -0.011517 0.000000
# 4 0.000000 0.000000 0.000000 0.025824 -0.000001 -0.005317
# 5 -0.038940 -0.038033 -0.011517 -0.000001 0.187322 0.000002
# 6 -0.000001 0.000000 0.000000 -0.005317 0.000002 0.101327
#
#
# Mechanical properties :
#
#
# Convention : Reuss Voigt Hill
#
# Bulk Modulus (GPa) = 10.50481 57.91143 34.20812
# Shear Modulus (GPa) = 11.67256 27.28924 19.48090
#
# Velocity S-wave (km/s) = 2.34566 3.58656 3.03031
# Velocity P-wave (km/s) = 3.50541 6.66702 5.32621
#
# Compressibility (1/GPa) = 0.09519447
#
# Stress axis : x y z
#
# Youngs Moduli (GPa) = 21.06380 31.40055 106.93803
#
# Poissons Ratio (x) = -0.38575 0.17024
# Poissons Ratio (y) = -0.25876 0.79476
# Poissons Ratio (z) = 0.03353 0.23337
#
# Static dielectric constant tensor:
#      x y z
#    x 1.852730 0.000000 0.037410 
#    y 0.000000 1.721770 0.000000 
#    z 0.037410 0.000000 1.856920 
# 
# From -- ./inp_files/23746.got.cif
#   From: 2010.05.17/outbox.cif.g08.bks.cpg/sg8_12_cif.got.tgz:23746.got - 2010.06.03 19:46:02.
