data_PCOD9132221
_publ_section_title
;
Structure prediction by ZEFSAII (Michael W. Deem and Ramdas Pophale) SiO2 
 PCOD9132221
Probable space group: C M
;
_chemical_formula_sum "Si O2"
_cell_formula_units_Z 22
_cell_length_a 7.530146
_cell_length_b 13.878223
_cell_length_c 9.420807
_cell_angle_alpha 90.000000
_cell_angle_beta 81.794443
_cell_angle_gamma 90.000000
_cell_volume 974.442715
_symmetry_space_group_name_H-M "C M"
_symmetry_group_IT_number 8
_symmetry_cell_setting 'monoclinic'
loop_
_space_group_symop_operation_xyz
x,y,z
x,-y,z
1/2+x,1/2+y,z
1/2+x,1/2-y,z
loop_
_atom_site_type_symbol
_atom_site_label
_atom_site_fract_x
_atom_site_fract_y
_atom_site_fract_z
Si Si1 0.665930 0.853199 0.107240
Si Si2 0.141131 0.109995 0.396375
Si Si3 0.318747 0.500000 0.882574
Si Si4 0.204938 0.000000 0.818397
Si Si5 0.549617 0.168559 0.430366
Si Si6 0.255260 0.864730 0.072199
Si Si7 0.576291 0.000000 0.637442
O O1 0.669339 0.856512 0.277601
O O2 0.463499 0.880771 0.087393
O O3 0.708271 0.745387 0.062950
O O4 0.798235 0.913668 0.995902
O O5 0.347736 0.132139 0.418777
O O6 0.048641 0.213984 0.448595
O O7 0.143370 0.105012 0.223999
O O8 0.088414 0.000000 0.448371
O O9 0.506459 0.500000 0.781504
O O10 0.167442 0.500000 0.780646
O O11 0.363414 0.000000 0.689912
O O12 0.221501 0.912670 0.926335
O O13 0.618308 0.098818 0.547900
#
# Coordination Sequence:
#
# PCOD9132221 Si02
#       7
#     4   4   2   2   4   4   2
#     4  10  20  40  71 105 137 180 236 303 357 427
#     4  10  20  43  73 105 141 184 241 302 363 428
#     4  12  25  43  69 107 137 192 246 290 362 432
#     4  12  24  43  70 103 140 191 230 294 368 426
#     4  10  23  44  73 104 145 196 235 300 373 425
#     4  10  19  38  69 104 138 176 233 300 361 418
#     4  12  25  50  65 102 155 201 238 300 360 444
#
# _framework density 22.577006999999998
#
# number of rings (size 3 to 8) (size 9 to 14) (size 15 to 20)
#    0.000    1.455    3.636    1.636    2.545    1.455 
#    8.182    0.000    4.000    0.000    0.000    0.000 
#    0.000    0.000    0.000    0.000    0.000    0.000 
#
# Total GULP energy -61409.772906 kJ/mol
# GULP energy per Si atom -5582.706628 kJ/mol
# Density = 2.252562 g / cm^3
# Si number density = 22.577007 Si / 1000 Ang^3
#
#
#
# Elastic Constant Matrix: (Units=GPa)
#
#
# Indices 1 2 3 4 5 6 
#
# 1 63.0264 15.7491 15.0654 0.0000 -14.5381 0.0000
# 2 15.7491 200.4477 71.4629 0.0000 -12.2483 0.0000
# 3 15.0654 71.4629 99.3878 0.0000 -13.7080 0.0000
# 4 0.0000 0.0000 0.0000 15.3885 0.0000 0.2016
# 5 -14.5381 -12.2483 -13.7080 0.0000 20.4828 0.0000
# 6 0.0000 0.0000 0.0000 0.2016 0.0000 27.6822
#
#
#
# Elastic Compliance Matrix: (Units=1/GPa)
#
#
# Indices 1 2 3 4 5 6 
#
# 1 0.019114 -0.000426 -0.000832 0.000000 0.012755 0.000000
# 2 -0.000426 0.006732 -0.004696 0.000000 0.000581 0.000000
# 3 -0.000832 -0.004696 0.014427 0.000000 0.006257 0.000000
# 4 0.000000 0.000000 0.000000 0.064990 0.000000 -0.000473
# 5 0.012755 0.000581 0.006257 0.000000 0.062409 0.000000
# 6 0.000000 0.000000 0.000000 -0.000473 0.000000 0.036128
#
#
# Mechanical properties :
#
#
# Convention : Reuss Voigt Hill
#
# Bulk Modulus (GPa) = 35.25375 63.04631 49.15003
# Shear Modulus (GPa) = 22.20624 30.08300 26.14462
#
# Velocity S-wave (km/s) = 3.13961 3.65425 3.40666
# Velocity P-wave (km/s) = 5.36578 6.76686 6.10663
#
# Compressibility (1/GPa) = 0.02836578
#
# Stress axis : x y z
#
# Youngs Moduli (GPa) = 52.31818 148.54639 69.31400
#
# Poissons Ratio (x) = 0.06325 0.05766
# Poissons Ratio (y) = 0.02228 0.32549
# Poissons Ratio (z) = 0.04352 0.69755
#
# Static dielectric constant tensor:
#      x y z
#    x 1.880930 0.000000 0.005940 
#    y 0.000000 1.879970 0.000000 
#    z 0.005940 0.000000 1.778250 
# 
# From -- ./inp_files/7776.got.cif
#   From: 2010.05.17/outbox.cif.g08.bks.cpg/sg8_4_cif.got.tgz:7776.got - 2010.06.03 19:46:02.
