data_PCOD9132288
_publ_section_title
;
Structure prediction by ZEFSAII (Michael W. Deem and Ramdas Pophale) SiO2 
 PCOD9132288
Probable space group: C M
;
_chemical_formula_sum "Si O2"
_cell_formula_units_Z 32
_cell_length_a 16.153769
_cell_length_b 11.208986
_cell_length_c 24.433518
_cell_angle_alpha 90.000000
_cell_angle_beta 21.547496
_cell_angle_gamma 90.000000
_cell_volume 1624.854464
_symmetry_space_group_name_H-M "C M"
_symmetry_group_IT_number 8
_symmetry_cell_setting 'monoclinic'
loop_
_space_group_symop_operation_xyz
x,y,z
x,-y,z
1/2+x,1/2+y,z
1/2+x,1/2-y,z
loop_
_atom_site_type_symbol
_atom_site_label
_atom_site_fract_x
_atom_site_fract_y
_atom_site_fract_z
Si Si1 0.193710 0.366556 0.538790
Si Si2 0.934237 0.642597 0.144725
Si Si3 0.479186 0.142595 0.993279
Si Si4 0.903033 0.136220 0.895154
Si Si5 0.010270 0.863772 0.242955
Si Si6 0.812431 0.245856 0.707189
Si Si7 0.600955 0.745862 0.430826
Si Si8 0.219489 0.866551 0.599368
O O1 0.178057 0.500000 0.573723
O O2 0.410599 0.365879 0.365949
O O3 0.206558 0.250004 0.569106
O O4 0.977863 0.344109 0.632032
O O5 0.957935 0.500000 0.127529
O O6 0.956739 0.689582 0.068986
O O7 0.702635 0.670247 0.318370
O O8 0.152394 0.687464 0.044273
O O9 0.260943 0.187444 0.093808
O O10 0.455493 0.000000 0.010476
O O11 0.710766 0.170232 0.819637
O O12 0.092309 0.200787 0.813788
O O13 0.002666 0.134089 0.772182
O O14 0.888561 0.000000 0.923987
O O15 0.821034 0.799218 0.324275
O O16 0.024676 0.000000 0.214175
O O17 0.956690 0.186358 0.569010
O O18 0.435428 0.844084 0.506045
O O19 0.235155 0.000000 0.564426
#
# Coordination Sequence:
#
# PCOD9132288 Si02
#       8
#     4   4   4   4   4   4   4   4
#     4  10  20  35  57  83 111 146 187 231 279 331
#     4  10  20  34  54  79 110 150 188 224 274 335
#     4  10  20  34  54  79 110 150 188 224 274 335
#     4   9  18  34  55  78 106 145 191 228 267 330
#     4   9  18  34  55  78 106 145 191 228 267 330
#     4  10  20  34  55  81 108 140 183 234 279 323
#     4  10  20  34  55  81 108 140 183 234 279 323
#     4  10  20  35  57  83 111 146 187 231 279 331
#
# _framework density 19.694071000000001
#
# number of rings (size 3 to 8) (size 9 to 14) (size 15 to 20)
#    0.000    2.250    0.000    3.000    0.000    6.500 
#    0.000    3.750    0.000   19.500    0.000    0.000 
#    0.000    0.000    0.000    0.000    0.000    0.000 
#
# Total GULP energy -89115.513936 kJ/mol
# GULP energy per Si atom -5569.719621 kJ/mol
# Density = 1.964925 g / cm^3
# Si number density = 19.694071 Si / 1000 Ang^3
#
#
#
# Elastic Constant Matrix: (Units=GPa)
#
#
# Indices 1 2 3 4 5 6 
#
# 1 75.8130 32.1579 35.9876 0.0411 7.2547 -0.0073
# 2 32.1579 52.4961 20.3927 0.0172 4.3364 0.0053
# 3 35.9876 20.3927 132.7089 0.0596 0.4351 -0.0261
# 4 0.0411 0.0172 0.0596 23.8131 -0.0375 0.6328
# 5 7.2547 4.3364 0.4351 -0.0375 30.8782 0.0200
# 6 -0.0073 0.0053 -0.0261 0.6328 0.0200 3.2055
#
#
#
# Elastic Compliance Matrix: (Units=1/GPa)
#
#
# Indices 1 2 3 4 5 6 
#
# 1 0.019637 -0.010324 -0.003728 -0.000023 -0.003111 0.000056
# 2 -0.010324 0.025931 -0.001181 0.000002 -0.001199 -0.000069
# 3 -0.003728 -0.001181 0.008725 -0.000015 0.000919 0.000062
# 4 -0.000023 0.000002 -0.000015 0.042215 0.000062 -0.008334
# 5 -0.003111 -0.001199 0.000919 0.000062 0.033272 -0.000218
# 6 0.000056 -0.000069 0.000062 -0.008334 -0.000218 0.313606
#
#
# Mechanical properties :
#
#
# Convention : Reuss Voigt Hill
#
# Bulk Modulus (GPa) = 41.97089 48.67715 45.32402
# Shear Modulus (GPa) = 10.37785 23.07803 16.72794
#
# Velocity S-wave (km/s) = 2.29804 3.42691 2.91759
# Velocity P-wave (km/s) = 5.32907 6.35835 5.86633
#
# Compressibility (1/GPa) = 0.02382604
#
# Stress axis : x y z
#
# Youngs Moduli (GPa) = 50.92415 38.56373 114.61478
#
# Poissons Ratio (x) = 0.39813 0.42734
# Poissons Ratio (y) = 0.52573 0.13538
# Poissons Ratio (z) = 0.18987 0.04555
#
# Static dielectric constant tensor:
#      x y z
#    x 1.756720 0.000000 0.005780 
#    y 0.000000 1.674580 0.000010 
#    z 0.005780 0.000010 1.710190 
# 
# From -- ./inp_files/32988.got.cif
#   From: 2010.05.17/outbox.cif.g08.bks.cpg/sg8_17_cif.got.tgz:32988.got - 2010.06.03 19:46:02.
