data_PCOD9132615
_publ_section_title
;
Structure prediction by ZEFSAII (Michael W. Deem and Ramdas Pophale) SiO2 
 PCOD9132615
Probable space group: C M
;
_chemical_formula_sum "Si O2"
_cell_formula_units_Z 32
_cell_length_a 11.529272
_cell_length_b 31.503525
_cell_length_c 9.570334
_cell_angle_alpha 90.000000
_cell_angle_beta 154.756530
_cell_angle_gamma 90.000000
_cell_volume 1482.423167
_symmetry_space_group_name_H-M "C M"
_symmetry_group_IT_number 8
_symmetry_cell_setting 'monoclinic'
loop_
_space_group_symop_operation_xyz
x,y,z
x,-y,z
1/2+x,1/2+y,z
1/2+x,1/2-y,z
loop_
_atom_site_type_symbol
_atom_site_label
_atom_site_fract_x
_atom_site_fract_y
_atom_site_fract_z
Si Si1 0.969670 0.047730 0.025180
Si Si2 0.584721 0.331282 0.740543
Si Si3 0.818813 0.746889 0.467088
Si Si4 0.703661 0.830412 0.815740
Si Si5 0.532051 0.952512 0.783573
Si Si6 0.147344 0.134661 0.102715
Si Si7 0.393866 0.211610 0.829459
Si Si8 0.251116 0.369383 0.145729
O O1 0.213272 0.050116 0.403832
O O2 0.978623 0.000000 0.973374
O O3 0.692530 0.052182 0.810870
O O4 0.031287 0.086990 0.991120
O O5 0.374668 0.295908 0.565306
O O6 0.710799 0.352264 0.013206
O O7 0.748054 0.301319 0.812370
O O8 0.453957 0.366080 0.496061
O O9 0.073760 0.716211 0.703372
O O10 0.720805 0.727146 0.507901
O O11 0.618883 0.753136 0.117315
O O12 0.912315 0.836124 0.916207
O O13 0.861531 0.852420 0.117444
O O14 0.428471 0.857777 0.491217
O O15 0.627781 0.915305 0.988435
O O16 0.595587 0.000000 0.904356
O O17 0.534051 0.167694 0.937833
#
# Coordination Sequence:
#
# PCOD9132615 Si02
#       8
#     4   4   4   4   4   4   4   4
#     4  10  20  38  66 100 131 165 217 273 320 388
#     4  11  27  40  63  90 137 170 215 274 334 391
#     4  10  24  42  61  90 123 173 219 280 315 387
#     4  11  25  40  73  91 125 173 227 268 325 385
#     4  10  20  37  67  99 127 164 217 271 320 382
#     4  12  24  43  65 102 129 174 218 272 330 397
#     4  10  24  42  63  89 128 171 224 266 330 381
#     4  10  22  42  61  97 128 168 212 272 326 387
#
# _framework density 21.586279000000001
#
# number of rings (size 3 to 8) (size 9 to 14) (size 15 to 20)
#    0.000    1.500    2.500    0.750   12.250    2.000 
#    0.000    0.625    0.000    0.750    0.000    0.000 
#    0.000    0.000    0.000    0.000    0.000    0.000 
#
# Total GULP energy -89298.137566 kJ/mol
# GULP energy per Si atom -5581.133598 kJ/mol
# Density = 2.153715 g / cm^3
# Si number density = 21.586279 Si / 1000 Ang^3
#
#
#
# Elastic Constant Matrix: (Units=GPa)
#
#
# Indices 1 2 3 4 5 6 
#
# 1 75.0161 20.7837 19.6010 0.0000 -12.9244 0.0000
# 2 20.7837 142.9469 24.6581 0.0000 -18.5960 0.0000
# 3 19.6010 24.6581 47.8724 0.0000 -8.9201 0.0000
# 4 0.0000 0.0000 0.0000 32.5370 0.0000 -5.1068
# 5 -12.9244 -18.5960 -8.9201 0.0000 33.1660 0.0000
# 6 0.0000 0.0000 0.0000 -5.1068 0.0000 22.2492
#
#
#
# Elastic Compliance Matrix: (Units=1/GPa)
#
#
# Indices 1 2 3 4 5 6 
#
# 1 0.015646 -0.000828 -0.005190 0.000000 0.004237 0.000000
# 2 -0.000828 0.008107 -0.003211 0.000000 0.003359 0.000000
# 3 -0.005190 -0.003211 0.025219 0.000000 0.002960 0.000000
# 4 0.000000 0.000000 0.000000 0.031883 0.000000 0.007318
# 5 0.004237 0.003359 0.002960 0.000000 0.034482 0.000000
# 6 0.000000 0.000000 0.000000 0.007318 0.000000 0.046625
#
#
# Mechanical properties :
#
#
# Convention : Reuss Voigt Hill
#
# Bulk Modulus (GPa) = 32.77184 43.99122 38.38153
# Shear Modulus (GPa) = 26.23414 30.97660 28.60537
#
# Velocity S-wave (km/s) = 3.48992 3.79227 3.64423
# Velocity P-wave (km/s) = 5.60840 6.29274 5.96040
#
# Compressibility (1/GPa) = 0.03051400
#
# Stress axis : x y z
#
# Youngs Moduli (GPa) = 63.91403 123.35227 39.65245
#
# Poissons Ratio (x) = 0.10219 0.20580
# Poissons Ratio (y) = 0.05295 0.12731
# Poissons Ratio (z) = 0.33171 0.39603
#
# Static dielectric constant tensor:
#      x y z
#    x 1.962000 0.000000 0.030350 
#    y 0.000000 1.809610 0.000000 
#    z 0.030350 0.000000 1.811210 
# 
# From -- ./inp_files/11724.got.cif
#   From: 2010.05.17/outbox.cif.g08.bks.cpg/sg8_6_cif.got.tgz:11724.got - 2010.06.03 19:46:02.
