data_PCOD9132727
_publ_section_title
;
Structure prediction by ZEFSAII (Michael W. Deem and Ramdas Pophale) SiO2 
 PCOD9132727
Probable space group: C M
;
_chemical_formula_sum "Si O2"
_cell_formula_units_Z 28
_cell_length_a 8.262990
_cell_length_b 27.482855
_cell_length_c 5.827887
_cell_angle_alpha 90.000000
_cell_angle_beta 121.478528
_cell_angle_gamma 90.000000
_cell_volume 1128.692598
_symmetry_space_group_name_H-M "C M"
_symmetry_group_IT_number 8
_symmetry_cell_setting 'monoclinic'
loop_
_space_group_symop_operation_xyz
x,y,z
x,-y,z
1/2+x,1/2+y,z
1/2+x,1/2-y,z
loop_
_atom_site_type_symbol
_atom_site_label
_atom_site_fract_x
_atom_site_fract_y
_atom_site_fract_z
Si Si1 0.441660 0.443398 0.804090
Si Si2 0.516861 0.623818 0.237756
Si Si3 0.956689 0.691504 0.950424
Si Si4 0.903630 0.556384 0.154507
Si Si5 0.765802 0.851752 0.438885
Si Si6 0.075854 0.202745 0.922274
Si Si7 0.915763 0.599440 0.668839
O O1 0.392212 0.500000 0.745421
O O2 0.333081 0.406319 0.555107
O O3 0.403125 0.418399 0.021627
O O4 0.672283 0.439380 0.967582
O O5 0.371004 0.654967 0.274534
O O6 0.618237 0.661566 0.141320
O O7 0.685912 0.599673 0.503996
O O8 0.736068 0.698843 0.846541
O O9 0.051931 0.663256 0.234980
O O10 0.058496 0.742788 0.997296
O O11 0.977422 0.655347 0.750627
O O12 0.952125 0.500000 0.205649
O O13 0.960230 0.577995 0.449593
O O14 0.974643 0.574148 0.954284
O O15 0.870532 0.814711 0.683447
#
# Coordination Sequence:
#
# PCOD9132727 Si02
#       7
#     4   4   4   4   4   4   4
#     4   9  19  37  66 102 139 184 237 295 358 431
#     4  10  20  43  68  97 144 182 241 292 362 429
#     4  12  26  45  73  99 141 186 243 305 370 437
#     4  10  20  39  72 105 145 195 242 295 365 436
#     4  11  23  45  69 101 138 187 237 299 362 437
#     4  11  26  47  65 105 138 189 242 303 363 448
#     4  11  21  42  67 105 143 189 241 303 358 436
#
# _framework density 24.807462000000001
#
# number of rings (size 3 to 8) (size 9 to 14) (size 15 to 20)
#    0.000    1.429    2.857    3.000    2.000    2.286 
#   15.429    1.429    0.000    3.429    0.000    0.000 
#    0.000    0.000    0.000    0.000    0.000    0.000 
#
# Total GULP energy -78226.813628 kJ/mol
# GULP energy per Si atom -5587.629545 kJ/mol
# Density = 2.475100 g / cm^3
# Si number density = 24.807462 Si / 1000 Ang^3
#
#
#
# Elastic Constant Matrix: (Units=GPa)
#
#
# Indices 1 2 3 4 5 6 
#
# 1 76.6769 20.8303 24.2769 0.0000 -6.3498 0.0000
# 2 20.8303 204.3435 76.3471 0.0000 -19.1897 0.0000
# 3 24.2769 76.3471 149.0147 0.0000 -4.9611 0.0000
# 4 0.0000 0.0000 0.0000 21.2130 0.0000 -5.9019
# 5 -6.3498 -19.1897 -4.9611 0.0000 38.4631 0.0000
# 6 0.0000 0.0000 0.0000 -5.9019 0.0000 18.1542
#
#
#
# Elastic Compliance Matrix: (Units=1/GPa)
#
#
# Indices 1 2 3 4 5 6 
#
# 1 0.013948 -0.000528 -0.001942 0.000000 0.001789 0.000000
# 2 -0.000528 0.006349 -0.003078 0.000000 0.002684 0.000000
# 3 -0.001942 -0.003078 0.008579 0.000000 -0.000750 0.000000
# 4 0.000000 0.000000 0.000000 0.051829 0.000000 0.016850
# 5 0.001789 0.002684 -0.000750 0.000000 0.027536 0.000000
# 6 0.000000 0.000000 0.000000 0.016850 0.000000 0.060561
#
#
# Mechanical properties :
#
#
# Convention : Reuss Voigt Hill
#
# Bulk Modulus (GPa) = 56.24139 74.77152 65.50646
# Shear Modulus (GPa) = 26.90679 36.13812 31.52245
#
# Velocity S-wave (km/s) = 3.29694 3.82087 3.56853
# Velocity P-wave (km/s) = 6.10028 7.04781 6.59109
#
# Compressibility (1/GPa) = 0.01778050
#
# Stress axis : x y z
#
# Youngs Moduli (GPa) = 71.69335 157.49278 116.56263
#
# Poissons Ratio (x) = 0.08319 0.22639
# Poissons Ratio (y) = 0.03787 0.35875
# Poissons Ratio (z) = 0.13924 0.48472
#
# Static dielectric constant tensor:
#      x y z
#    x 1.981520 0.000000 0.001100 
#    y 0.000000 1.942980 0.000000 
#    z 0.001100 0.000000 2.012530 
# 
# From -- ./inp_files/2026.got.cif
#   From: 2010.05.17/outbox.cif.g08.bks.cpg/sg8_2_cif.got.tgz:2026.got - 2010.06.03 19:46:02.
