data_PCOD9132347
_publ_section_title
;
Structure prediction by ZEFSAII (Michael W. Deem and Ramdas Pophale) SiO2 
 PCOD9132347
Probable space group: C M
;
_chemical_formula_sum "Si O2"
_cell_formula_units_Z 32
_cell_length_a 19.172298
_cell_length_b 7.832237
_cell_length_c 26.055672
_cell_angle_alpha 90.000000
_cell_angle_beta 23.607429
_cell_angle_gamma 90.000000
_cell_volume 1566.859015
_symmetry_space_group_name_H-M "C M"
_symmetry_group_IT_number 8
_symmetry_cell_setting 'monoclinic'
loop_
_space_group_symop_operation_xyz
x,y,z
x,-y,z
1/2+x,1/2+y,z
1/2+x,1/2-y,z
loop_
_atom_site_type_symbol
_atom_site_label
_atom_site_fract_x
_atom_site_fract_y
_atom_site_fract_z
Si Si1 0.422780 0.698880 0.689330
Si Si2 0.628241 0.799533 0.451438
Si Si3 0.003887 0.795517 0.229324
Si Si4 0.454367 0.796428 0.465842
Si Si5 0.176611 0.794936 0.218037
Si Si6 0.036088 0.797826 0.928608
Si Si7 0.861979 0.206082 0.940183
Si Si8 0.566358 0.290490 0.701675
O O1 0.470433 0.500000 0.653939
O O2 0.510052 0.785864 0.581470
O O3 0.215056 0.716149 0.826107
O O4 0.495452 0.766706 0.694357
O O5 0.529869 0.725521 0.468287
O O6 0.819054 0.725726 0.335121
O O7 0.655658 0.000000 0.421506
O O8 0.064405 0.731103 0.244586
O O9 0.987221 0.000000 0.245619
O O10 0.163326 0.759156 0.083663
O O11 0.589250 0.765295 0.329145
O O12 0.263386 0.731224 0.579172
O O13 0.431529 0.000000 0.487727
O O14 0.176668 0.000000 0.217273
O O15 0.373611 0.734844 0.075691
O O16 0.973062 0.734303 0.914900
O O17 0.066430 0.000000 0.904209
O O18 0.945401 0.264200 0.830697
O O19 0.867420 0.000000 0.937352
O O20 0.563847 0.500000 0.702836
#
# Coordination Sequence:
#
# PCOD9132347 Si02
#       8
#     4   4   4   4   4   4   4   4
#     4  11  22  35  54  80 109 139 175 222 270 314
#     4  10  21  37  56  78 107 142 179 219 263 315
#     4   9  19  35  54  79 110 140 172 215 265 312
#     4  10  20  36  57  78 105 142 182 220 259 312
#     4  10  20  35  55  80 111 141 173 218 267 314
#     4  10  20  36  58  80 105 141 181 217 260 316
#     4   9  18  35  58  79 102 138 180 217 257 311
#     4   9  19  35  54  78 107 139 176 218 263 312
#
# _framework density 20.423024000000002
#
# number of rings (size 3 to 8) (size 9 to 14) (size 15 to 20)
#    0.000    2.250    0.000    2.625    0.000    5.000 
#    0.000    5.000    0.000    0.000    0.000    0.000 
#    0.000    0.000    0.000    0.000    0.000    0.000 
#
# Total GULP energy -89358.913149 kJ/mol
# GULP energy per Si atom -5584.932072 kJ/mol
# Density = 2.037654 g / cm^3
# Si number density = 20.423024 Si / 1000 Ang^3
#
#
#
# Elastic Constant Matrix: (Units=GPa)
#
#
# Indices 1 2 3 4 5 6 
#
# 1 159.2696 -1.9102 111.9540 0.0013 -3.7181 -0.0007
# 2 -1.9102 18.2844 -19.4060 0.0064 -7.9310 -0.0002
# 3 111.9540 -19.4060 134.5809 0.0094 -3.9474 0.0002
# 4 0.0013 0.0064 0.0094 27.6254 0.0003 2.7842
# 5 -3.7181 -7.9310 -3.9474 0.0003 38.7594 0.0000
# 6 -0.0007 -0.0002 0.0002 2.7842 0.0000 7.6591
#
#
#
# Elastic Compliance Matrix: (Units=1/GPa)
#
#
# Indices 1 2 3 4 5 6 
#
# 1 0.019435 -0.020178 -0.019200 0.000011 -0.004220 -0.000002
# 2 -0.020178 0.094391 0.030999 -0.000033 0.020536 0.000012
# 3 -0.019200 0.030999 0.028089 -0.000016 0.007362 0.000005
# 4 0.000011 -0.000033 -0.000016 0.037575 -0.000008 -0.013659
# 5 -0.004220 0.020536 0.007362 -0.000008 0.030347 0.000003
# 6 -0.000002 0.000012 0.000005 -0.013659 0.000003 0.135529
#
#
# Mechanical properties :
#
#
# Convention : Reuss Voigt Hill
#
# Bulk Modulus (GPa) = 7.99011 54.82340 31.40675
# Shear Modulus (GPa) = 12.38103 29.57527 20.97815
#
# Velocity S-wave (km/s) = 2.46484 3.80956 3.20844
# Velocity P-wave (km/s) = 3.46719 6.80092 5.39787
#
# Compressibility (1/GPa) = 0.12515476
#
# Stress axis : x y z
#
# Youngs Moduli (GPa) = 51.45483 10.59420 35.60164
#
# Poissons Ratio (x) = 0.21377 0.68357
# Poissons Ratio (y) = 1.03827 -1.10361
# Poissons Ratio (z) = 0.98795 -0.32841
#
# Static dielectric constant tensor:
#      x y z
#    x 1.728450 0.000000 -0.014350 
#    y 0.000000 1.748310 0.000000 
#    z -0.014350 0.000000 1.681330 
# 
# From -- ./inp_files/33037.got.cif
#   From: 2010.05.17/outbox.cif.g08.bks.cpg/sg8_17_cif.got.tgz:33037.got - 2010.06.03 19:46:02.
