data_PCOD9132128
_publ_section_title
;
Structure prediction by ZEFSAII (Michael W. Deem and Ramdas Pophale) SiO2 
 PCOD9132128
Probable space group: C M
;
_chemical_formula_sum "Si O2"
_cell_formula_units_Z 32
_cell_length_a 13.997069
_cell_length_b 13.984938
_cell_length_c 9.193749
_cell_angle_alpha 90.000000
_cell_angle_beta 89.758063
_cell_angle_gamma 90.000000
_cell_volume 1799.643242
_symmetry_space_group_name_H-M "C M"
_symmetry_group_IT_number 8
_symmetry_cell_setting 'monoclinic'
loop_
_space_group_symop_operation_xyz
x,y,z
x,-y,z
1/2+x,1/2+y,z
1/2+x,1/2-y,z
loop_
_atom_site_type_symbol
_atom_site_label
_atom_site_fract_x
_atom_site_fract_y
_atom_site_fract_z
Si Si1 0.204070 0.713347 0.668470
Si Si2 0.930046 0.610057 0.988360
Si Si3 0.509768 0.889404 0.669513
Si Si4 0.598634 0.609615 0.174929
Si Si5 0.102550 0.889101 0.520953
Si Si6 0.746855 0.273590 0.987690
Si Si7 0.409475 0.284291 0.179742
Si Si8 0.904483 0.784534 0.523381
O O1 0.118019 0.641213 0.633618
O O2 0.170568 0.815978 0.604861
O O3 0.214310 0.723909 0.841276
O O4 0.305937 0.686850 0.599959
O O5 0.935138 0.500000 0.033433
O O6 0.821649 0.641037 0.948641
O O7 0.991588 0.624079 0.842488
O O8 0.953726 0.685051 0.115805
O O9 0.439957 0.816886 0.586807
O O10 0.491531 0.000000 0.635175
O O11 0.619184 0.500000 0.136621
O O12 0.618334 0.622266 0.347122
O O13 0.487525 0.634430 0.152986
O O14 0.662188 0.680698 0.080265
O O15 0.992990 0.856623 0.550445
O O16 0.116891 0.000000 0.558913
O O17 0.812213 0.205862 0.089149
O O18 0.390579 0.277042 0.350529
#
# Coordination Sequence:
#
# PCOD9132128 Si02
#       8
#     4   4   4   4   4   4   4   4
#     4  11  21  35  56  78 108 140 177 213 262 312
#     4   9  18  34  52  75 106 134 170 215 259 301
#     4  10  21  37  54  78 107 140 176 218 260 309
#     4  10  19  36  57  80 105 137 175 219 262 310
#     4   9  21  36  55  80 107 135 176 220 263 307
#     4  10  20  33  54  77 109 134 174 214 260 307
#     4   9  20  34  55  80 108 137 172 218 266 307
#     4  10  19  37  56  78 106 141 173 217 261 313
#
# _framework density 17.781303000000001
#
# number of rings (size 3 to 8) (size 9 to 14) (size 15 to 20)
#    0.750    1.500    1.250    1.875    0.000    2.500 
#    0.000    0.625    0.000    0.750    0.000    0.000 
#    0.000    0.000    0.000    0.000    0.000    0.000 
#
# Total GULP energy -89161.265705 kJ/mol
# GULP energy per Si atom -5572.579107 kJ/mol
# Density = 1.774083 g / cm^3
# Si number density = 17.781303 Si / 1000 Ang^3
#
#
#
# Elastic Constant Matrix: (Units=GPa)
#
#
# Indices 1 2 3 4 5 6 
#
# 1 59.3701 -15.6068 24.4695 0.0000 -18.1544 0.0000
# 2 -15.6068 15.5113 -1.2942 0.0000 -4.1473 0.0000
# 3 24.4695 -1.2942 43.5605 0.0000 -2.2785 0.0000
# 4 0.0000 0.0000 0.0000 14.9314 0.0000 3.2107
# 5 -18.1544 -4.1473 -2.2785 0.0000 33.0117 0.0000
# 6 0.0000 0.0000 0.0000 3.2107 0.0000 13.4495
#
#
#
# Elastic Compliance Matrix: (Units=1/GPa)
#
#
# Indices 1 2 3 4 5 6 
#
# 1 0.057084 0.065147 -0.028162 0.000000 0.037633 0.000000
# 2 0.065147 0.141317 -0.029702 0.000000 0.051531 0.000000
# 3 -0.028162 -0.029702 0.037022 0.000000 -0.016664 0.000000
# 4 0.000000 0.000000 0.000000 0.070597 0.000000 -0.016853
# 5 0.037633 0.051531 -0.016664 0.000000 0.056312 0.000000
# 6 0.000000 0.000000 0.000000 -0.016853 0.000000 0.078375
#
#
# Mechanical properties :
#
#
# Convention : Reuss Voigt Hill
#
# Bulk Modulus (GPa) = 4.00016 14.84211 9.42114
# Shear Modulus (GPa) = 9.81413 19.67009 14.74211
#
# Velocity S-wave (km/s) = 2.35188 3.32960 2.88250
# Velocity P-wave (km/s) = 3.10317 4.81111 4.04824
#
# Compressibility (1/GPa) = 0.24998984
#
# Stress axis : x y z
#
# Youngs Moduli (GPa) = 17.51817 7.07629 27.01083
#
# Poissons Ratio (x) = -0.46100 0.76068
# Poissons Ratio (y) = -1.14126 0.80227
# Poissons Ratio (z) = 0.49335 0.21018
#
# Static dielectric constant tensor:
#      x y z
#    x 1.610100 0.000000 -0.003080 
#    y 0.000000 1.580630 0.000000 
#    z -0.003080 0.000000 1.592320 
# 
# From -- ./inp_files/13107.got.cif
#   From: 2010.05.17/outbox.cif.g08.bks.cpg/sg8_7_cif.got.tgz:13107.got - 2010.06.03 19:46:02.
