data_PCOD9132870
_publ_section_title
;
Structure prediction by ZEFSAII (Michael W. Deem and Ramdas Pophale) SiO2 
 PCOD9132870
Probable space group: C M
;
_chemical_formula_sum "Si O2"
_cell_formula_units_Z 32
_cell_length_a 9.860930
_cell_length_b 7.537604
_cell_length_c 22.509358
_cell_angle_alpha 90.000000
_cell_angle_beta 131.483966
_cell_angle_gamma 90.000000
_cell_volume 1253.366087
_symmetry_space_group_name_H-M "C M"
_symmetry_group_IT_number 8
_symmetry_cell_setting 'monoclinic'
loop_
_space_group_symop_operation_xyz
x,y,z
x,-y,z
1/2+x,1/2+y,z
1/2+x,1/2-y,z
loop_
_atom_site_type_symbol
_atom_site_label
_atom_site_fract_x
_atom_site_fract_y
_atom_site_fract_z
Si Si1 0.390420 0.793435 0.469890
Si Si2 0.254948 0.288176 0.812368
Si Si3 0.364668 0.705036 0.719537
Si Si4 0.000179 0.793435 0.326834
Si Si5 0.635650 0.211824 0.984355
Si Si6 0.783115 0.215740 0.564566
Si Si7 0.107484 0.715740 0.232158
Si Si8 0.025931 0.705037 0.077187
O O1 0.195299 0.710445 0.398362
O O2 0.574687 0.722607 0.495076
O O3 0.404147 0.780662 0.545373
O O4 0.383263 0.000000 0.451251
O O5 0.233192 0.500000 0.804494
O O6 0.264558 0.216252 0.747445
O O7 0.079425 0.213020 0.793724
O O8 0.445299 0.250003 0.898362
O O9 0.308746 0.500000 0.699661
O O10 0.336889 0.780638 0.645666
O O11 0.815913 0.722607 0.301648
O O12 0.986453 0.780661 0.251351
O O13 0.007335 0.000000 0.345472
O O14 0.053710 0.219361 0.151058
O O15 0.811175 0.286978 0.003000
O O16 0.657400 0.000000 0.992227
O O17 0.788589 0.000000 0.565239
O O18 0.102011 0.500000 0.231485
O O19 0.626044 0.716253 0.049280
O O20 0.081850 0.500000 0.097063
#
# Coordination Sequence:
#
# PCOD9132870 Si02
#       8
#     4   4   4   4   4   4   4   4
#     4  10  21  37  57  83 115 149 187 232 280 331
#     4  11  23  39  60  85 114 148 186 229 278 332
#     4  10  22  39  57  81 114 148 185 232 281 330
#     4  10  21  37  57  83 115 149 187 232 280 331
#     4  11  23  39  60  85 114 148 186 229 278 332
#     4  10  21  37  57  82 112 147 188 232 279 332
#     4  10  21  37  57  82 112 147 188 232 279 332
#     4  10  22  39  57  81 114 148 185 232 281 330
#
# _framework density 25.531248999999999
#
# number of rings (size 3 to 8) (size 9 to 14) (size 15 to 20)
#    0.000    1.750    0.000    3.750    0.000    9.500 
#    0.000    0.000    0.000    0.000    0.000    0.000 
#    0.000    0.000    0.000    0.000    0.000    0.000 
#
# Total GULP energy -89562.089340 kJ/mol
# GULP energy per Si atom -5597.630584 kJ/mol
# Density = 2.547314 g / cm^3
# Si number density = 25.531249 Si / 1000 Ang^3
#
#
#
# Elastic Constant Matrix: (Units=GPa)
#
#
# Indices 1 2 3 4 5 6 
#
# 1 119.6152 -3.6335 -8.2674 0.0000 4.5495 0.0000
# 2 -3.6335 87.1761 -2.7591 0.0000 -3.8992 0.0000
# 3 -8.2674 -2.7591 72.5939 0.0000 1.8586 0.0000
# 4 0.0000 0.0000 0.0000 17.1109 0.0000 -6.6208
# 5 4.5495 -3.8992 1.8586 0.0000 49.1898 0.0000
# 6 0.0000 0.0000 0.0000 -6.6208 0.0000 17.1944
#
#
#
# Elastic Compliance Matrix: (Units=1/GPa)
#
#
# Indices 1 2 3 4 5 6 
#
# 1 0.008470 0.000349 0.000998 0.000000 -0.000793 0.000000
# 2 0.000349 0.011539 0.000456 0.000000 0.000865 0.000000
# 3 0.000998 0.000456 0.013921 0.000000 -0.000582 0.000000
# 4 0.000000 0.000000 0.000000 0.068674 0.000000 0.026443
# 5 -0.000793 0.000865 -0.000582 0.000000 0.020493 0.000000
# 6 0.000000 0.000000 0.000000 0.026443 0.000000 0.068341
#
#
# Mechanical properties :
#
#
# Convention : Reuss Voigt Hill
#
# Bulk Modulus (GPa) = 26.64054 27.78503 27.21278
# Shear Modulus (GPa) = 24.95715 36.30201 30.62958
#
# Velocity S-wave (km/s) = 3.12991 3.77485 3.46741
# Velocity P-wave (km/s) = 4.84963 5.46861 5.16840
#
# Compressibility (1/GPa) = 0.03753678
#
# Stress axis : x y z
#
# Youngs Moduli (GPa) = 118.06494 86.66475 71.83295
#
# Poissons Ratio (x) = -0.03026 -0.07170
# Poissons Ratio (y) = -0.04122 -0.03277
# Poissons Ratio (z) = -0.11785 -0.03953
#
# Static dielectric constant tensor:
#      x y z
#    x 1.950580 0.000000 -0.034560 
#    y 0.000000 1.977460 0.000000 
#    z -0.034560 0.000000 2.088460 
# 
# From -- ./inp_files/25842.got.cif
#   From: 2010.05.17/outbox.cif.g08.bks.cpg/sg8_13_cif.got.tgz:25842.got - 2010.06.03 19:46:02.
