data_PCOD9132265
_publ_section_title
;
Structure prediction by ZEFSAII (Michael W. Deem and Ramdas Pophale) SiO2 
 PCOD9132265
Probable space group: C M
;
_chemical_formula_sum "Si O2"
_cell_formula_units_Z 32
_cell_length_a 20.621663
_cell_length_b 8.716944
_cell_length_c 20.457463
_cell_angle_alpha 90.000000
_cell_angle_beta 150.172221
_cell_angle_gamma 90.000000
_cell_volume 1829.114127
_symmetry_space_group_name_H-M "C M"
_symmetry_group_IT_number 8
_symmetry_cell_setting 'monoclinic'
loop_
_space_group_symop_operation_xyz
x,y,z
x,-y,z
1/2+x,1/2+y,z
1/2+x,1/2-y,z
loop_
_atom_site_type_symbol
_atom_site_label
_atom_site_fract_x
_atom_site_fract_y
_atom_site_fract_z
Si Si1 0.391430 0.183677 0.066780
Si Si2 0.215986 0.183531 0.033141
Si Si3 0.169909 0.815805 0.270091
Si Si4 0.348060 0.816355 0.807903
Si Si5 0.898644 0.686501 0.566376
Si Si6 0.147113 0.683054 0.108613
Si Si7 0.691032 0.816673 0.785427
Si Si8 0.438744 0.814552 0.747356
O O1 0.333419 0.224702 0.087127
O O2 0.530400 0.257241 0.173217
O O3 0.402342 0.000000 0.071621
O O4 0.287113 0.240053 0.922016
O O5 0.221739 0.253278 0.110559
O O6 0.208663 0.000000 0.031129
O O7 0.082120 0.245585 0.884062
O O8 0.284119 0.761259 0.418521
O O9 0.189925 0.754750 0.214286
O O10 0.169213 0.000000 0.268184
O O11 0.242953 0.731179 0.759819
O O12 0.353055 0.773657 0.735792
O O13 0.329693 0.000000 0.797367
O O14 0.493261 0.781019 0.962460
O O15 0.896234 0.500000 0.563452
O O16 0.884221 0.733458 0.629462
O O17 0.042448 0.732931 0.668149
O O18 0.158717 0.500000 0.120883
O O19 0.698178 0.000000 0.799535
O O20 0.452562 0.000000 0.760113
#
# Coordination Sequence:
#
# PCOD9132265 Si02
#       8
#     4   4   4   4   4   4   4   4
#     4  11  22  36  54  82 115 143 183 234 277 322
#     4  10  20  33  54  83 112 141 181 231 276 325
#     4  11  22  37  58  81 111 151 189 227 275 333
#     4   9  18  31  52  80 111 140 174 227 276 318
#     4   9  20  37  56  81 110 144 187 229 275 329
#     4  10  20  35  55  80 113 146 181 228 279 329
#     4  11  20  33  57  82 108 143 183 228 274 327
#     4   9  17  34  56  77 108 146 180 222 276 325
#
# _framework density 17.494807999999999
#
# number of rings (size 3 to 8) (size 9 to 14) (size 15 to 20)
#    0.000    2.000    2.500    2.625    0.000    3.500 
#    0.000    5.000    0.000    3.000    0.000    0.000 
#    0.000    0.000    0.000    0.000    0.000    0.000 
#
# Total GULP energy -89301.510995 kJ/mol
# GULP energy per Si atom -5581.344437 kJ/mol
# Density = 1.745499 g / cm^3
# Si number density = 17.494808 Si / 1000 Ang^3
#
#
#
# Elastic Constant Matrix: (Units=GPa)
#
#
# Indices 1 2 3 4 5 6 
#
# 1 163.8522 42.3483 85.2422 0.0000 -21.8625 0.0000
# 2 42.3483 33.9559 28.8658 0.0000 -7.2094 0.0000
# 3 85.2422 28.8658 125.6094 0.0000 -17.1310 0.0000
# 4 0.0000 0.0000 0.0000 8.7205 0.0000 -4.8505
# 5 -21.8625 -7.2094 -17.1310 0.0000 25.3820 0.0000
# 6 0.0000 0.0000 0.0000 -4.8505 0.0000 29.8568
#
#
#
# Elastic Compliance Matrix: (Units=1/GPa)
#
#
# Indices 1 2 3 4 5 6 
#
# 1 0.011826 -0.009382 -0.005335 0.000000 0.003921 0.000000
# 2 -0.009382 0.044676 -0.003603 0.000000 0.002177 0.000000
# 3 -0.005335 -0.003603 0.012824 0.000000 0.003036 0.000000
# 4 0.000000 0.000000 0.000000 0.126063 0.000000 0.020480
# 5 0.003921 0.002177 0.003036 0.000000 0.045443 0.000000
# 6 0.000000 0.000000 0.000000 0.020480 0.000000 0.036820
#
#
# Mechanical properties :
#
#
# Convention : Reuss Voigt Hill
#
# Bulk Modulus (GPa) = 30.59401 70.70333 50.64867
# Shear Modulus (GPa) = 15.37573 23.92262 19.64918
#
# Velocity S-wave (km/s) = 2.96780 3.70187 3.35497
# Velocity P-wave (km/s) = 5.41010 7.66638 6.63485
#
# Compressibility (1/GPa) = 0.03268613
#
# Stress axis : x y z
#
# Youngs Moduli (GPa) = 84.55604 22.38361 77.97958
#
# Poissons Ratio (x) = 0.20999 0.41603
# Poissons Ratio (y) = 0.79327 0.28098
# Poissons Ratio (z) = 0.45111 0.08065
#
# Static dielectric constant tensor:
#      x y z
#    x 1.607670 0.000000 -0.013170 
#    y 0.000000 1.588280 0.000000 
#    z -0.013170 0.000000 1.567920 
# 
# From -- ./inp_files/16860.got.cif
#   From: 2010.05.17/outbox.cif.g08.bks.cpg/sg8_9_cif.got.tgz:16860.got - 2010.06.03 19:46:02.
