data_PCOD9132871
_publ_section_title
;
Structure prediction by ZEFSAII (Michael W. Deem and Ramdas Pophale) SiO2 
 PCOD9132871
Probable space group: C M
;
_chemical_formula_sum "Si O2"
_cell_formula_units_Z 32
_cell_length_a 15.192637
_cell_length_b 7.837742
_cell_length_c 11.466578
_cell_angle_alpha 90.000000
_cell_angle_beta 79.268270
_cell_angle_gamma 90.000000
_cell_volume 1341.512910
_symmetry_space_group_name_H-M "C M"
_symmetry_group_IT_number 8
_symmetry_cell_setting 'monoclinic'
loop_
_space_group_symop_operation_xyz
x,y,z
x,-y,z
1/2+x,1/2+y,z
1/2+x,1/2-y,z
loop_
_atom_site_type_symbol
_atom_site_label
_atom_site_fract_x
_atom_site_fract_y
_atom_site_fract_z
Si Si1 0.000000 0.204631 0.506830
Si Si2 0.657244 0.205180 0.614629
Si Si3 0.909502 0.306425 0.922669
Si Si4 0.741337 0.203172 0.833736
Si Si5 0.075710 0.707655 0.016524
Si Si6 0.112242 0.799144 0.255905
Si Si7 0.315134 0.301462 0.178020
Si Si8 0.324028 0.708802 0.433358
O O1 0.055800 0.250452 0.607596
O O2 0.058003 0.266015 0.381036
O O3 0.898825 0.263254 0.508240
O O4 0.997101 0.000000 0.502454
O O5 0.700420 0.270776 0.723621
O O6 0.725722 0.265857 0.497061
O O7 0.661430 0.000000 0.616242
O O8 0.927055 0.500000 0.884343
O O9 0.004718 0.230362 0.937445
O O10 0.854081 0.296428 0.057997
O O11 0.843979 0.234082 0.840855
O O12 0.731242 0.000000 0.831429
O O13 0.674614 0.262824 0.952209
O O14 0.071472 0.500000 0.021768
O O15 0.057341 0.774569 0.149965
O O16 0.207426 0.709269 0.213368
O O17 0.129175 0.000000 0.267979
O O18 0.340117 0.500000 0.155881
O O19 0.347075 0.237099 0.296642
O O20 0.322845 0.500000 0.430343
#
# Coordination Sequence:
#
# PCOD9132871 Si02
#       8
#     4   4   4   4   4   4   4   4
#     4  10  21  37  57  84 117 148 183 233 287 333
#     4  10  21  39  60  82 110 149 198 236 275 335
#     4  11  23  38  58  86 117 148 190 239 285 338
#     4  10  22  40  60  81 111 153 194 236 285 337
#     4  10  22  39  58  83 117 154 188 232 289 339
#     4  11  21  34  57  88 118 148 189 235 281 340
#     4  11  20  35  60  85 116 153 186 226 288 349
#     4   9  19  36  58  83 114 151 186 227 280 339
#
# _framework density 23.853663999999998
#
# number of rings (size 3 to 8) (size 9 to 14) (size 15 to 20)
#    0.000    1.750    2.500    1.875    0.000    4.000 
#    0.000    1.875    0.000    0.000    0.000    0.000 
#    0.000    0.000    0.000    0.000    0.000    0.000 
#
# Total GULP energy -89428.731703 kJ/mol
# GULP energy per Si atom -5589.295731 kJ/mol
# Density = 2.379937 g / cm^3
# Si number density = 23.853664 Si / 1000 Ang^3
#
#
#
# Elastic Constant Matrix: (Units=GPa)
#
#
# Indices 1 2 3 4 5 6 
#
# 1 114.2790 -2.2148 7.5418 0.0000 37.9971 0.0000
# 2 -2.2148 28.1551 -0.7637 0.0000 -0.3123 0.0000
# 3 7.5418 -0.7637 63.2721 0.0000 38.1971 0.0000
# 4 0.0000 0.0000 0.0000 16.5603 0.0000 10.5890
# 5 37.9971 -0.3123 38.1971 0.0000 42.2846 0.0000
# 6 0.0000 0.0000 0.0000 10.5890 0.0000 22.5168
#
#
#
# Elastic Compliance Matrix: (Units=1/GPa)
#
#
# Indices 1 2 3 4 5 6 
#
# 1 0.018182 0.001539 0.016953 0.000000 -0.031642 0.000000
# 2 0.001539 0.035661 0.002030 0.000000 -0.002954 0.000000
# 3 0.016953 0.002030 0.050579 0.000000 -0.060909 0.000000
# 4 0.000000 0.000000 0.000000 0.086351 0.000000 -0.040608
# 5 -0.031642 -0.002954 -0.060909 0.000000 0.107082 0.000000
# 6 0.000000 0.000000 0.000000 -0.040608 0.000000 0.063508
#
#
# Mechanical properties :
#
#
# Convention : Reuss Voigt Hill
#
# Bulk Modulus (GPa) = 6.87439 23.87032 15.37236
# Shear Modulus (GPa) = 13.55721 29.68186 21.61953
#
# Velocity S-wave (km/s) = 2.38659 3.53133 3.01381
# Velocity P-wave (km/s) = 3.23768 5.16293 4.30920
#
# Compressibility (1/GPa) = 0.14546736
#
# Stress axis : x y z
#
# Youngs Moduli (GPa) = 54.99881 28.04189 19.77100
#
# Poissons Ratio (x) = -0.04316 -0.33518
# Poissons Ratio (y) = -0.08465 -0.04014
# Poissons Ratio (z) = -0.93241 -0.05693
#
# Static dielectric constant tensor:
#      x y z
#    x 1.917260 0.000000 0.027650 
#    y 0.000000 1.864840 0.000000 
#    z 0.027650 0.000000 1.933100 
# 
# From -- ./inp_files/21351.got.cif
#   From: 2010.05.17/outbox.cif.g08.bks.cpg/sg8_11_cif.got.tgz:21351.got - 2010.06.03 19:46:02.
