data_PCOD9132471
_publ_section_title
;
Structure prediction by ZEFSAII (Michael W. Deem and Ramdas Pophale) SiO2 
 PCOD9132471
Probable space group: C M
;
_chemical_formula_sum "Si O2"
_cell_formula_units_Z 32
_cell_length_a 16.873199
_cell_length_b 7.640841
_cell_length_c 19.724324
_cell_angle_alpha 90.000000
_cell_angle_beta 29.995039
_cell_angle_gamma 90.000000
_cell_volume 1271.292793
_symmetry_space_group_name_H-M "C M"
_symmetry_group_IT_number 8
_symmetry_cell_setting 'monoclinic'
loop_
_space_group_symop_operation_xyz
x,y,z
x,-y,z
1/2+x,1/2+y,z
1/2+x,1/2-y,z
loop_
_atom_site_type_symbol
_atom_site_label
_atom_site_fract_x
_atom_site_fract_y
_atom_site_fract_z
Si Si1 0.403150 0.788181 0.969200
Si Si2 0.266570 0.200628 0.205171
Si Si3 0.750954 0.297652 0.367817
Si Si4 0.100860 0.788139 0.105885
Si Si5 0.621884 0.800510 0.601084
Si Si6 0.273741 0.785597 0.847010
Si Si7 0.252218 0.207368 0.710071
Si Si8 0.430994 0.202531 0.450165
O O1 0.573745 0.733774 0.815850
O O2 0.399904 0.000000 0.973209
O O3 0.377806 0.720612 0.064965
O O4 0.253083 0.732212 0.036312
O O5 0.252473 0.279494 0.290646
O O6 0.087468 0.202047 0.308440
O O7 0.316780 0.000000 0.178410
O O8 0.700631 0.500000 0.403146
O O9 0.645764 0.204236 0.502046
O O10 0.934922 0.286659 0.253250
O O11 0.090122 0.000000 0.116779
O O12 0.138950 0.735041 0.000063
O O13 0.447147 0.729292 0.744870
O O14 0.774305 0.711281 0.520584
O O15 0.626266 0.000000 0.622062
O O16 0.256082 0.721141 0.783387
O O17 0.275778 0.000000 0.844424
O O18 0.377219 0.277351 0.563178
O O19 0.281396 0.000000 0.692240
O O20 0.475745 0.000000 0.423213
#
# Coordination Sequence:
#
# PCOD9132471 Si02
#       8
#     4   4   4   4   4   4   4   4
#     4  10  21  37  57  83 113 148 191 234 280 337
#     4  10  22  39  58  83 117 155 194 236 282 336
#     4  11  23  38  57  85 118 150 191 240 286 337
#     4  10  20  36  59  84 112 150 194 235 280 339
#     4  11  22  39  62  84 112 151 191 235 290 346
#     4   9  19  36  58  84 112 147 193 236 277 335
#     4  10  21  37  57  83 115 148 185 233 286 339
#     4  11  23  38  58  86 117 149 191 239 285 339
#
# _framework density 25.171226999999998
#
# number of rings (size 3 to 8) (size 9 to 14) (size 15 to 20)
#    0.000    1.750    0.000    4.125    0.000    6.000 
#    0.000    2.500    0.000    0.000    0.000    0.000 
#    0.000    0.000    0.000    0.000    0.000    0.000 
#
# Total GULP energy -89565.438764 kJ/mol
# GULP energy per Si atom -5597.839923 kJ/mol
# Density = 2.511394 g / cm^3
# Si number density = 25.171227 Si / 1000 Ang^3
#
#
#
# Elastic Constant Matrix: (Units=GPa)
#
#
# Indices 1 2 3 4 5 6 
#
# 1 67.3292 1.0573 -10.2831 -0.0001 0.8979 0.0000
# 2 1.0573 64.1110 -4.7315 0.0000 1.1239 0.0000
# 3 -10.2831 -4.7315 108.4050 0.0001 0.7676 0.0000
# 4 -0.0001 0.0000 0.0001 9.2983 0.0000 -3.8741
# 5 0.8979 1.1239 0.7676 0.0000 46.0432 0.0000
# 6 0.0000 0.0000 0.0000 -3.8741 0.0000 15.2623
#
#
#
# Elastic Compliance Matrix: (Units=1/GPa)
#
#
# Indices 1 2 3 4 5 6 
#
# 1 0.015077 -0.000138 0.001426 0.000000 -0.000314 0.000000
# 2 -0.000138 0.015657 0.000673 0.000000 -0.000391 0.000000
# 3 0.001426 0.000673 0.009391 0.000000 -0.000201 0.000000
# 4 0.000000 0.000000 0.000000 0.120265 0.000000 0.030527
# 5 -0.000314 -0.000391 -0.000201 0.000000 0.021738 0.000000
# 6 0.000000 0.000000 0.000000 0.030527 0.000000 0.073270
#
#
# Mechanical properties :
#
#
# Convention : Reuss Voigt Hill
#
# Bulk Modulus (GPa) = 22.70292 23.54784 23.12538
# Shear Modulus (GPa) = 18.78596 31.04093 24.91345
#
# Velocity S-wave (km/s) = 2.73486 3.51549 3.14946
# Velocity P-wave (km/s) = 4.36023 5.08465 4.73631
#
# Compressibility (1/GPa) = 0.04404719
#
# Stress axis : x y z
#
# Youngs Moduli (GPa) = 66.32797 63.87022 106.48755
#
# Poissons Ratio (x) = 0.00881 -0.15189
# Poissons Ratio (y) = 0.00914 -0.07167
# Poissons Ratio (z) = -0.09461 -0.04299
#
# Static dielectric constant tensor:
#      x y z
#    x 2.062160 0.000000 0.017050 
#    y 0.000000 1.917060 0.000000 
#    z 0.017050 0.000000 1.910910 
# 
# From -- ./inp_files/31064.got.cif
#   From: 2010.05.17/outbox.cif.g08.bks.cpg/sg8_16_cif.got.tgz:31064.got - 2010.06.03 19:46:02.
