data_PCOD9132957
_publ_section_title
;
Structure prediction by ZEFSAII (Michael W. Deem and Ramdas Pophale) SiO2 
 PCOD9132957
Probable space group: C M
;
_chemical_formula_sum "Si O2"
_cell_formula_units_Z 28
_cell_length_a 10.789092
_cell_length_b 22.545708
_cell_length_c 5.374868
_cell_angle_alpha 90.000000
_cell_angle_beta 80.528917
_cell_angle_gamma 90.000000
_cell_volume 1289.602579
_symmetry_space_group_name_H-M "C M"
_symmetry_group_IT_number 8
_symmetry_cell_setting 'monoclinic'
loop_
_space_group_symop_operation_xyz
x,y,z
x,-y,z
1/2+x,1/2+y,z
1/2+x,1/2-y,z
loop_
_atom_site_type_symbol
_atom_site_label
_atom_site_fract_x
_atom_site_fract_y
_atom_site_fract_z
Si Si1 0.922190 0.000000 0.979650
Si Si2 0.380867 0.153365 0.854153
Si Si3 0.598564 0.818790 0.472024
Si Si4 0.743074 0.235548 0.803326
Si Si5 0.806963 0.128374 0.095036
Si Si6 0.534813 0.708657 0.223795
Si Si7 0.737749 0.378626 0.391426
Si Si8 0.588183 0.500000 0.424959
O O1 0.845192 0.938646 0.027462
O O2 0.994933 0.000000 0.692620
O O3 0.015260 0.000000 0.186628
O O4 0.523658 0.149363 0.717185
O O5 0.352390 0.223360 0.868854
O O6 0.297790 0.132139 0.643673
O O7 0.337798 0.126548 0.130200
O O8 0.706431 0.773695 0.532029
O O9 0.675984 0.865458 0.287039
O O10 0.505426 0.772192 0.364835
O O11 0.778551 0.169168 0.867658
O O12 0.621767 0.266878 0.969221
O O13 0.921439 0.164972 0.187745
O O14 0.626348 0.667059 0.358965
O O15 0.674867 0.442528 0.410538
#
# Coordination Sequence:
#
# PCOD9132957 Si02
#       8
#     2   4   4   4   4   4   4   2
#     4  12  28  46  72 103 139 182 234 293 336 422
#     4  11  24  41  68 100 140 175 228 280 351 409
#     4  11  23  39  66  97 144 184 224 274 355 417
#     4  10  22  37  65 100 137 182 221 292 342 416
#     4  11  25  42  66 101 141 184 233 283 348 413
#     4  10  21  38  64 101 138 169 227 285 348 401
#     4  11  24  44  68 101 131 174 225 295 338 408
#     4  12  26  48  74  99 133 178 238 291 356 390
#
# _framework density 21.712112999999999
#
# number of rings (size 3 to 8) (size 9 to 14) (size 15 to 20)
#    0.000    1.143    2.857    2.571   12.000    1.143 
#    0.000    1.429    0.000    0.000    0.000    0.000 
#    0.000    0.000    0.000    0.000    0.000    0.000 
#
# Total GULP energy -78126.150999 kJ/mol
# GULP energy per Si atom -5580.439357 kJ/mol
# Density = 2.166270 g / cm^3
# Si number density = 21.712113 Si / 1000 Ang^3
#
#
#
# Elastic Constant Matrix: (Units=GPa)
#
#
# Indices 1 2 3 4 5 6 
#
# 1 77.4324 43.2847 8.7808 0.0000 3.4904 0.0000
# 2 43.2847 166.5838 36.6442 0.0000 -14.8015 0.0000
# 3 8.7808 36.6442 81.4261 0.0000 -9.6535 0.0000
# 4 0.0000 0.0000 0.0000 15.7545 0.0000 1.3067
# 5 3.4904 -14.8015 -9.6535 0.0000 38.5951 0.0000
# 6 0.0000 0.0000 0.0000 1.3067 0.0000 38.3842
#
#
#
# Elastic Compliance Matrix: (Units=1/GPa)
#
#
# Indices 1 2 3 4 5 6 
#
# 1 0.015447 -0.004261 -0.000111 0.000000 -0.003059 0.000000
# 2 -0.004261 0.007970 -0.002802 0.000000 0.002741 0.000000
# 3 -0.000111 -0.002802 0.013838 0.000000 0.002397 0.000000
# 4 0.000000 0.000000 0.000000 0.063654 0.000000 -0.002167
# 5 -0.003059 0.002741 0.002397 0.000000 0.027837 0.000000
# 6 0.000000 0.000000 0.000000 -0.002167 0.000000 0.026126
#
#
# Mechanical properties :
#
#
# Convention : Reuss Voigt Hill
#
# Bulk Modulus (GPa) = 43.65491 55.87351 49.76421
# Shear Modulus (GPa) = 28.27151 34.32895 31.30023
#
# Velocity S-wave (km/s) = 3.61239 3.98061 3.80096
# Velocity P-wave (km/s) = 6.12773 6.84958 6.49868
#
# Compressibility (1/GPa) = 0.02290693
#
# Stress axis : x y z
#
# Youngs Moduli (GPa) = 64.73796 125.46777 72.26324
#
# Poissons Ratio (x) = 0.53463 0.00800
# Poissons Ratio (y) = 0.27585 0.20251
# Poissons Ratio (z) = 0.00717 0.35160
#
# Static dielectric constant tensor:
#      x y z
#    x 1.880030 0.000000 0.005130 
#    y 0.000000 1.756450 0.000000 
#    z 0.005130 0.000000 1.869990 
# 
# From -- ./inp_files/2926.got.cif
#   From: 2010.05.17/outbox.cif.g08.bks.cpg/sg8_2_cif.got.tgz:2926.got - 2010.06.03 19:46:02.
