data_PCOD9132977
_publ_section_title
;
Structure prediction by ZEFSAII (Michael W. Deem and Ramdas Pophale) SiO2 
 PCOD9132977
Probable space group: C M
;
_chemical_formula_sum "Si O2"
_cell_formula_units_Z 32
_cell_length_a 22.320615
_cell_length_b 8.211640
_cell_length_c 14.620436
_cell_angle_alpha 90.000000
_cell_angle_beta 30.531826
_cell_angle_gamma 90.000000
_cell_volume 1361.364858
_symmetry_space_group_name_H-M "C M"
_symmetry_group_IT_number 8
_symmetry_cell_setting 'monoclinic'
loop_
_space_group_symop_operation_xyz
x,y,z
x,-y,z
1/2+x,1/2+y,z
1/2+x,1/2-y,z
loop_
_atom_site_type_symbol
_atom_site_label
_atom_site_fract_x
_atom_site_fract_y
_atom_site_fract_z
Si Si1 0.589970 0.305860 0.432490
Si Si2 0.879588 0.688511 0.255670
Si Si3 0.344804 0.307726 0.664164
Si Si4 0.983146 0.688824 0.741705
Si Si5 0.603522 0.691049 0.066679
Si Si6 0.260962 0.194938 0.590380
Si Si7 0.992714 0.810626 0.930461
Si Si8 0.726545 0.699145 0.084164
O O1 0.593124 0.500000 0.420467
O O2 0.466121 0.249923 0.550413
O O3 0.584477 0.266272 0.546521
O O4 0.691868 0.243876 0.231167
O O5 0.854482 0.500000 0.269648
O O6 0.786470 0.751429 0.453170
O O7 0.003110 0.707811 0.148272
O O8 0.899789 0.773550 0.132130
O O9 0.331389 0.500000 0.700258
O O10 0.230959 0.214502 0.852192
O O11 0.341880 0.280092 0.558973
O O12 0.985344 0.500000 0.715424
O O13 0.985845 0.709873 0.846649
O O14 0.854458 0.761435 0.886064
O O15 0.570805 0.500000 0.104762
O O16 0.627981 0.740724 0.139325
O O17 0.124563 0.222397 0.794523
O O18 0.282265 0.000000 0.564658
O O19 0.987286 0.000000 0.912238
O O20 0.733737 0.500000 0.074525
#
# Coordination Sequence:
#
# PCOD9132977 Si02
#       8
#     4   4   4   4   4   4   4   4
#     4  10  21  39  61  88 120 156 196 240 294 356
#     4  11  23  40  62  92 121 154 198 248 298 354
#     4  11  21  34  60  93 124 156 197 246 294 349
#     4  11  23  41  62  86 116 155 201 251 295 345
#     4  11  20  36  61  89 124 163 195 235 297 362
#     4  10  23  41  62  87 122 160 196 241 303 362
#     4  11  24  43  63  85 116 160 201 245 300 357
#     4   9  20  38  61  86 119 160 196 234 295 359
#
# _framework density 23.505821999999998
#
# number of rings (size 3 to 8) (size 9 to 14) (size 15 to 20)
#    0.000    1.500    2.500    2.625    0.000    4.000 
#    0.000    7.500    0.000    0.000    0.000    0.000 
#    0.000    0.000    0.000    0.000    0.000    0.000 
#
# Total GULP energy -89466.489968 kJ/mol
# GULP energy per Si atom -5591.655623 kJ/mol
# Density = 2.345232 g / cm^3
# Si number density = 23.505822 Si / 1000 Ang^3
#
#
#
# Elastic Constant Matrix: (Units=GPa)
#
#
# Indices 1 2 3 4 5 6 
#
# 1 53.7192 -2.4179 1.3835 0.0001 22.6847 0.0000
# 2 -2.4179 19.0866 6.9215 0.0000 1.0707 0.0001
# 3 1.3835 6.9215 108.3587 0.0000 37.0642 0.0000
# 4 0.0001 0.0000 0.0000 22.2596 0.0000 7.5956
# 5 22.6847 1.0707 37.0642 0.0000 38.6824 0.0000
# 6 0.0000 0.0001 0.0000 7.5956 0.0000 24.4149
#
#
#
# Elastic Compliance Matrix: (Units=1/GPa)
#
#
# Indices 1 2 3 4 5 6 
#
# 1 0.028881 0.002174 0.007893 0.000000 -0.024560 0.000000
# 2 0.002174 0.053986 -0.003762 0.000000 0.000835 0.000000
# 3 0.007893 -0.003762 0.016238 0.000000 -0.020083 0.000000
# 4 0.000000 0.000000 0.000000 0.050260 0.000000 -0.015636
# 5 -0.024560 0.000835 -0.020083 0.000000 0.059474 0.000000
# 6 0.000000 0.000000 0.000000 -0.015636 0.000000 0.045823
#
#
# Mechanical properties :
#
#
# Convention : Reuss Voigt Hill
#
# Bulk Modulus (GPa) = 8.95133 21.43763 15.19448
# Shear Modulus (GPa) = 17.90260 28.75654 23.32957
#
# Velocity S-wave (km/s) = 2.76275 3.50148 3.15382
# Velocity P-wave (km/s) = 3.74078 5.04847 4.44300
#
# Compressibility (1/GPa) = 0.11171521
#
# Stress axis : x y z
#
# Youngs Moduli (GPa) = 34.62456 18.52347 61.58566
#
# Poissons Ratio (x) = -0.04027 -0.48611
# Poissons Ratio (y) = -0.07528 0.23168
# Poissons Ratio (z) = -0.27330 0.06968
#
# Static dielectric constant tensor:
#      x y z
#    x 1.928660 0.000000 0.019070 
#    y 0.000000 1.810580 0.000000 
#    z 0.019070 0.000000 1.898440 
# 
# From -- ./inp_files/26540.got.cif
#   From: 2010.05.17/outbox.cif.g08.bks.cpg/sg8_14_cif.got.tgz:26540.got - 2010.06.03 19:46:02.
