data_PCOD9132989
_publ_section_title
;
Structure prediction by ZEFSAII (Michael W. Deem and Ramdas Pophale) SiO2 
 PCOD9132989
Probable space group: C M
;
_chemical_formula_sum "Si O2"
_cell_formula_units_Z 32
_cell_length_a 24.575416
_cell_length_b 7.919504
_cell_length_c 9.922706
_cell_angle_alpha 90.000000
_cell_angle_beta 52.158129
_cell_angle_gamma 90.000000
_cell_volume 1525.088040
_symmetry_space_group_name_H-M "C M"
_symmetry_group_IT_number 8
_symmetry_cell_setting 'monoclinic'
loop_
_space_group_symop_operation_xyz
x,y,z
x,-y,z
1/2+x,1/2+y,z
1/2+x,1/2-y,z
loop_
_atom_site_type_symbol
_atom_site_label
_atom_site_fract_x
_atom_site_fract_y
_atom_site_fract_z
Si Si1 0.463340 0.202358 0.037070
Si Si2 0.609481 0.697089 0.918092
Si Si3 0.817914 0.796374 0.763525
Si Si4 0.844872 0.296246 0.412003
Si Si5 0.096495 0.198317 0.470683
Si Si6 0.442888 0.296159 0.763451
Si Si7 0.168442 0.305897 0.093179
Si Si8 0.201767 0.793932 0.533478
O O1 0.413852 0.262477 0.233053
O O2 0.468824 0.000000 0.034914
O O3 0.538403 0.278184 0.948052
O O4 0.435796 0.249795 0.931243
O O5 0.618532 0.500000 0.935580
O O6 0.669352 0.752064 0.726072
O O7 0.617271 0.796086 0.044093
O O8 0.833694 0.751925 0.584329
O O9 0.879891 0.734942 0.766058
O O10 0.815702 0.000000 0.773324
O O11 0.742791 0.736460 0.930459
O O12 0.845383 0.500000 0.407681
O O13 0.780323 0.237084 0.419234
O O14 0.131901 0.215350 0.272505
O O15 0.150667 0.271169 0.496365
O O16 0.018620 0.267033 0.600293
O O17 0.089643 0.000000 0.513628
O O18 0.442385 0.500000 0.753607
O O19 0.178643 0.500000 0.118241
O O20 0.202231 0.000000 0.524356
#
# Coordination Sequence:
#
# PCOD9132989 Si02
#       8
#     4   4   4   4   4   4   4   4
#     4  11  24  39  60  93 125 155 194 250 308 352
#     4  11  21  40  67  87 113 159 204 248 296 355
#     4  10  23  41  60  86 123 161 200 246 295 352
#     4  10  22  40  61  88 120 155 199 247 298 358
#     4  10  21  39  63  88 114 156 207 248 291 355
#     4  10  22  42  62  85 119 161 207 244 288 360
#     4  11  24  40  58  90 127 156 195 252 306 352
#     4   9  18  37  63  87 111 147 202 251 286 344
#
# _framework density 20.982396000000001
#
# number of rings (size 3 to 8) (size 9 to 14) (size 15 to 20)
#    0.000    1.750    2.500    1.125    3.500    2.500 
#    0.000    0.625    0.000    0.000    0.000    0.000 
#    0.000    0.000    0.000    0.000    0.000    0.000 
#
# Total GULP energy -89345.622740 kJ/mol
# GULP energy per Si atom -5584.101421 kJ/mol
# Density = 2.093464 g / cm^3
# Si number density = 20.982396 Si / 1000 Ang^3
#
#
#
# Elastic Constant Matrix: (Units=GPa)
#
#
# Indices 1 2 3 4 5 6 
#
# 1 85.0489 0.1858 13.6539 0.0000 12.0184 0.0000
# 2 0.1858 21.0788 -4.2403 0.0000 -4.5619 0.0000
# 3 13.6539 -4.2403 81.4860 0.0000 1.7098 0.0000
# 4 0.0000 0.0000 0.0000 10.6811 0.0000 8.8460
# 5 12.0184 -4.5619 1.7098 0.0000 32.5543 0.0000
# 6 0.0000 0.0000 0.0000 8.8460 0.0000 15.9349
#
#
#
# Elastic Compliance Matrix: (Units=1/GPa)
#
#
# Indices 1 2 3 4 5 6 
#
# 1 0.012785 -0.001585 -0.002123 0.000000 -0.004831 0.000000
# 2 -0.001585 0.049597 0.002691 0.000000 0.007394 0.000000
# 3 -0.002123 0.002691 0.012758 0.000000 0.000491 0.000000
# 4 0.000000 0.000000 0.000000 0.173299 0.000000 -0.096205
# 5 -0.004831 0.007394 0.000491 0.000000 0.033512 0.000000
# 6 0.000000 0.000000 0.000000 -0.096205 0.000000 0.116162
#
#
# Mechanical properties :
#
#
# Convention : Reuss Voigt Hill
#
# Bulk Modulus (GPa) = 13.67908 22.97918 18.32913
# Shear Modulus (GPa) = 11.77815 23.70168 17.73992
#
# Velocity S-wave (km/s) = 2.37182 3.36460 2.91085
# Velocity P-wave (km/s) = 3.74622 5.10582 4.47792
#
# Compressibility (1/GPa) = 0.07310436
#
# Stress axis : x y z
#
# Youngs Moduli (GPa) = 78.21717 20.16270 78.38472
#
# Poissons Ratio (x) = 0.03196 0.16644
# Poissons Ratio (y) = 0.12400 -0.21096
# Poissons Ratio (z) = 0.16609 -0.05426
#
# Static dielectric constant tensor:
#      x y z
#    x 1.747450 0.000000 -0.014530 
#    y 0.000000 1.760940 0.000000 
#    z -0.014530 0.000000 1.719310 
# 
# From -- ./inp_files/16872.got.cif
#   From: 2010.05.17/outbox.cif.g08.bks.cpg/sg8_9_cif.got.tgz:16872.got - 2010.06.03 19:46:02.
