data_PCOD9132512
_publ_section_title
;
Structure prediction by ZEFSAII (Michael W. Deem and Ramdas Pophale) SiO2 
 PCOD9132512
Probable space group: C M
;
_chemical_formula_sum "Si O2"
_cell_formula_units_Z 32
_cell_length_a 15.162996
_cell_length_b 8.735186
_cell_length_c 12.341180
_cell_angle_alpha 90.000000
_cell_angle_beta 105.065951
_cell_angle_gamma 90.000000
_cell_volume 1578.422947
_symmetry_space_group_name_H-M "C M"
_symmetry_group_IT_number 8
_symmetry_cell_setting 'monoclinic'
loop_
_space_group_symop_operation_xyz
x,y,z
x,-y,z
1/2+x,1/2+y,z
1/2+x,1/2-y,z
loop_
_atom_site_type_symbol
_atom_site_label
_atom_site_fract_x
_atom_site_fract_y
_atom_site_fract_z
Si Si1 0.574150 0.316301 0.811970
Si Si2 0.987681 0.821285 0.558860
Si Si3 0.510990 0.681402 0.185727
Si Si4 0.705075 0.180109 0.291701
Si Si5 0.444667 0.182224 0.947018
Si Si6 0.894474 0.321536 0.336711
Si Si7 0.763734 0.181957 0.784274
Si Si8 0.671664 0.179429 0.534784
O O1 0.583888 0.500000 0.822411
O O2 0.504466 0.283872 0.689898
O O3 0.529141 0.248112 0.904526
O O4 0.671104 0.242234 0.811700
O O5 0.086139 0.785933 0.536312
O O6 0.916652 0.722910 0.467796
O O7 0.963829 0.000000 0.541579
O O8 0.520153 0.500000 0.180848
O O9 0.610090 0.759737 0.214660
O O10 0.462707 0.727445 0.282350
O O11 0.451294 0.746249 0.068296
O O12 0.791669 0.273205 0.277588
O O13 0.700604 0.200471 0.420669
O O14 0.716542 0.000000 0.273192
O O15 0.351628 0.234184 0.859110
O O16 0.449665 0.000000 0.954267
O O17 0.910314 0.500000 0.324210
O O18 0.748197 0.207227 0.650448
O O19 0.773201 0.000000 0.804450
O O20 0.643136 0.000000 0.538104
#
# Coordination Sequence:
#
# PCOD9132512 Si02
#       8
#     4   4   4   4   4   4   4   4
#     4  10  22  41  64  95 131 169 213 264 317 377
#     4  10  20  36  62  93 131 170 211 261 318 377
#     4  12  26  47  69  93 126 168 216 269 322 380
#     4  11  23  41  65  97 130 168 212 263 320 380
#     4  12  26  44  67  95 127 171 218 264 317 381
#     4  12  25  41  63  95 131 170 214 263 317 380
#     4  10  21  40  64  96 131 169 212 263 320 376
#     4   9  19  36  62  92 131 169 206 259 321 379
#
# _framework density 20.273401
#
# number of rings (size 3 to 8) (size 9 to 14) (size 15 to 20)
#    0.000    1.250    1.250    4.875    1.750    3.500 
#    0.000    5.000    0.000    0.000    0.000    0.000 
#    0.000    0.000    0.000    0.000    0.000    0.000 
#
# Total GULP energy -89504.866688 kJ/mol
# GULP energy per Si atom -5594.054168 kJ/mol
# Density = 2.022726 g / cm^3
# Si number density = 20.273401 Si / 1000 Ang^3
#
#
#
# Elastic Constant Matrix: (Units=GPa)
#
#
# Indices 1 2 3 4 5 6 
#
# 1 34.3241 -6.2570 1.9404 0.0000 14.5794 0.0000
# 2 -6.2570 64.0223 29.8754 0.0000 -1.0439 0.0000
# 3 1.9404 29.8754 68.1812 0.0000 10.2903 0.0000
# 4 0.0000 0.0000 0.0000 30.8833 0.0000 4.4043
# 5 14.5794 -1.0439 10.2903 0.0000 27.6975 0.0000
# 6 0.0000 0.0000 0.0000 4.4043 0.0000 31.9706
#
#
#
# Elastic Compliance Matrix: (Units=1/GPa)
#
#
# Indices 1 2 3 4 5 6 
#
# 1 0.038272 0.003133 0.000594 0.000000 -0.020248 0.000000
# 2 0.003133 0.020356 -0.009403 0.000000 0.002611 0.000000
# 3 0.000594 -0.009403 0.019992 0.000000 -0.008094 0.000000
# 4 0.000000 0.000000 0.000000 0.033029 0.000000 -0.004550
# 5 -0.020248 0.002611 -0.008094 0.000000 0.049868 0.000000
# 6 0.000000 0.000000 0.000000 -0.004550 0.000000 0.031906
#
#
# Mechanical properties :
#
#
# Convention : Reuss Voigt Hill
#
# Bulk Modulus (GPa) = 14.86586 24.18281 19.52434
# Shear Modulus (GPa) = 22.00736 27.50822 24.75779
#
# Velocity S-wave (km/s) = 3.29831 3.68756 3.49835
# Velocity P-wave (km/s) = 4.67480 5.48498 5.09602
#
# Compressibility (1/GPa) = 0.06726821
#
# Stress axis : x y z
#
# Youngs Moduli (GPa) = 26.12865 49.12541 50.02089
#
# Poissons Ratio (x) = -0.15392 -0.02971
# Poissons Ratio (y) = -0.08186 0.47034
# Poissons Ratio (z) = -0.01552 0.46192
#
# Static dielectric constant tensor:
#      x y z
#    x 1.698210 0.000000 0.002460 
#    y 0.000000 1.669820 0.000000 
#    z 0.002460 0.000000 1.714950 
# 
# From -- ./inp_files/21611.got.cif
#   From: 2010.05.17/outbox.cif.g08.bks.cpg/sg8_11_cif.got.tgz:21611.got - 2010.06.03 19:46:02.
