data_PCOD9132888
_publ_section_title
;
Structure prediction by ZEFSAII (Michael W. Deem and Ramdas Pophale) SiO2 
 PCOD9132888
Probable space group: C M
;
_chemical_formula_sum "Si O2"
_cell_formula_units_Z 28
_cell_length_a 19.811554
_cell_length_b 8.867980
_cell_length_c 23.526205
_cell_angle_alpha 90.000000
_cell_angle_beta 16.654103
_cell_angle_gamma 90.000000
_cell_volume 1184.570591
_symmetry_space_group_name_H-M "C M"
_symmetry_group_IT_number 8
_symmetry_cell_setting 'monoclinic'
loop_
_space_group_symop_operation_xyz
x,y,z
x,-y,z
1/2+x,1/2+y,z
1/2+x,1/2-y,z
loop_
_atom_site_type_symbol
_atom_site_label
_atom_site_fract_x
_atom_site_fract_y
_atom_site_fract_z
Si Si1 0.158980 0.820899 0.208200
Si Si2 0.144388 0.320369 0.048428
Si Si3 0.047338 0.320064 0.411314
Si Si4 0.273074 0.740753 0.432639
Si Si5 0.960127 0.162900 0.591678
Si Si6 0.534491 0.178497 0.805166
Si Si7 0.756441 0.335643 0.847163
O O1 0.196273 0.744518 0.238833
O O2 0.931710 0.743160 0.360491
O O3 0.107610 0.000000 0.255703
O O4 0.376306 0.806667 0.989742
O O5 0.102198 0.500000 0.091314
O O6 0.399899 0.275430 0.866272
O O7 0.145358 0.278064 0.981668
O O8 0.976676 0.209199 0.221279
O O9 0.047644 0.500000 0.412785
O O10 0.787178 0.251487 0.610916
O O11 0.101831 0.248176 0.428584
O O12 0.129747 0.857811 0.509224
O O13 0.037110 0.647696 0.636010
O O14 0.763188 0.269688 0.778042
O O15 0.874463 0.000000 0.640987
O O16 0.548381 0.000000 0.779674
O O17 0.644998 0.500000 0.940496
#
# Coordination Sequence:
#
# PCOD9132888 Si02
#       7
#     4   4   4   4   4   4   4
#     4  10  21  40  67  93 121 161 204 249 306 364
#     4  11  21  36  62  94 124 157 203 254 305 359
#     4  12  25  41  63  90 125 164 204 253 307 366
#     4   9  22  38  65  91 123 158 201 251 302 356
#     4  10  22  42  64  87 123 164 206 252 304 363
#     4  10  22  40  62  89 122 161 205 252 303 361
#     4  10  21  37  59  88 122 159 199 245 301 359
#
# _framework density 23.637257999999999
#
# number of rings (size 3 to 8) (size 9 to 14) (size 15 to 20)
#    0.857    0.857    0.000    4.714    0.000    5.143 
#    2.571    0.000    0.000    0.000    0.000    0.000 
#    0.000    0.000    0.000    0.000    0.000    0.000 
#
# Total GULP energy -77978.602856 kJ/mol
# GULP energy per Si atom -5569.900204 kJ/mol
# Density = 2.358346 g / cm^3
# Si number density = 23.637258 Si / 1000 Ang^3
#
#
#
# Elastic Constant Matrix: (Units=GPa)
#
#
# Indices 1 2 3 4 5 6 
#
# 1 95.4170 46.8853 12.1039 -0.0077 31.7007 -0.0175
# 2 46.8853 123.0849 25.3518 -0.0129 21.9365 -0.0209
# 3 12.1039 25.3518 94.5642 -0.0140 5.8308 -0.0219
# 4 -0.0077 -0.0129 -0.0140 -25.2738 0.0053 -55.5190
# 5 31.7007 21.9365 5.8308 0.0053 47.8812 0.0149
# 6 -0.0175 -0.0209 -0.0219 -55.5190 0.0149 -80.6862
#
#
#
# Elastic Compliance Matrix: (Units=1/GPa)
#
#
# Indices 1 2 3 4 5 6 
#
# 1 0.015354 -0.004335 -0.000301 -0.000008 -0.008143 0.000002
# 2 -0.004335 0.010522 -0.002162 0.000000 -0.001687 -0.000001
# 3 -0.000301 -0.002162 0.011204 -0.000001 -0.000175 -0.000002
# 4 -0.000008 0.000000 -0.000001 0.077351 0.000013 -0.053224
# 5 -0.008143 -0.001687 -0.000175 0.000013 0.027070 -0.000002
# 6 0.000002 -0.000001 -0.000002 -0.053224 -0.000002 0.024229
#
#
# Mechanical properties :
#
#
# Convention : Reuss Voigt Hill
#
# Bulk Modulus (GPa) = 42.58383 53.52754 48.05568
# Shear Modulus (GPa) = 26.71592 3.63261 15.17426
#
# Velocity S-wave (km/s) = 3.36556 1.24103 2.53645
# Velocity P-wave (km/s) = 5.75824 4.97475 5.38077
#
# Compressibility (1/GPa) = 0.02348309
#
# Stress axis : x y z
#
# Youngs Moduli (GPa) = 65.12940 95.04031 89.25638
#
# Poissons Ratio (x) = 0.41205 0.02686
# Poissons Ratio (y) = 0.28237 0.19296
# Poissons Ratio (z) = 0.01960 0.20546
#
# Static dielectric constant tensor:
#      x y z
#    x 1.970700 0.000020 -0.047000 
#    y 0.000020 1.986380 -0.000010 
#    z -0.047000 -0.000010 1.994130 
# 
# From -- ./inp_files/32259.got.cif
#   From: 2010.05.17/outbox.cif.g08.bks.cpg/sg8_17_cif.got.tgz:32259.got - 2010.06.03 19:46:02.
