data_PCOD9132885
_publ_section_title
;
Structure prediction by ZEFSAII (Michael W. Deem and Ramdas Pophale) SiO2 
 PCOD9132885
Probable space group: C M
;
_chemical_formula_sum "Si O2"
_cell_formula_units_Z 32
_cell_length_a 15.796584
_cell_length_b 24.502851
_cell_length_c 10.648778
_cell_angle_alpha 90.000000
_cell_angle_beta 157.350229
_cell_angle_gamma 90.000000
_cell_volume 1587.266562
_symmetry_space_group_name_H-M "C M"
_symmetry_group_IT_number 8
_symmetry_cell_setting 'monoclinic'
loop_
_space_group_symop_operation_xyz
x,y,z
x,-y,z
1/2+x,1/2+y,z
1/2+x,1/2-y,z
loop_
_atom_site_type_symbol
_atom_site_label
_atom_site_fract_x
_atom_site_fract_y
_atom_site_fract_z
Si Si1 0.155250 0.622280 0.111880
Si Si2 0.203857 0.267002 0.609351
Si Si3 0.936482 0.673965 0.589785
Si Si4 0.882671 0.207737 0.579961
Si Si5 0.119306 0.938312 0.732760
Si Si6 0.344890 0.850538 0.193823
Si Si7 0.039877 0.171443 0.244440
Si Si8 0.693724 0.562807 0.537770
O O1 0.187675 0.671307 0.256019
O O2 0.377007 0.587300 0.418968
O O3 0.129127 0.652532 0.942523
O O4 0.936656 0.586542 0.836401
O O5 0.328419 0.276121 0.647851
O O6 0.129760 0.204070 0.490459
O O7 0.993937 0.306411 0.327796
O O8 0.352917 0.289726 0.927683
O O9 0.934216 0.739032 0.566719
O O10 0.936144 0.642491 0.459088
O O11 0.719100 0.667636 0.377515
O O12 0.103598 0.173693 0.883352
O O13 0.172288 0.937709 0.658150
O O14 0.115751 0.000000 0.774226
O O15 0.304690 0.904232 0.058828
O O16 0.016611 0.107671 0.246331
O O17 0.667754 0.500000 0.457193
#
# Coordination Sequence:
#
# PCOD9132885 Si02
#       8
#     4   4   4   4   4   4   4   4
#     4  10  21  37  66  86 118 159 204 245 300 358
#     4  11  24  38  60  90 125 159 196 248 309 362
#     4  10  21  37  58  91 124 157 190 249 305 364
#     4  10  21  38  57  89 124 157 192 246 301 364
#     4  10  23  42  62  86 115 157 209 258 298 355
#     4  11  23  37  60  87 122 155 199 244 305 367
#     4  10  24  40  62  90 126 159 201 250 304 359
#     4  10  22  41  65  89 118 161 210 252 294 359
#
# _framework density 20.160443999999998
#
# number of rings (size 3 to 8) (size 9 to 14) (size 15 to 20)
#    0.000    1.750    1.250    1.875   14.000    1.000 
#    0.000    3.750    0.000    0.000    0.000    0.000 
#    0.000    0.000    0.000    0.000    0.000    0.000 
#
# Total GULP energy -89272.208466 kJ/mol
# GULP energy per Si atom -5579.513029 kJ/mol
# Density = 2.011456 g / cm^3
# Si number density = 20.160444 Si / 1000 Ang^3
#
#
#
# Elastic Constant Matrix: (Units=GPa)
#
#
# Indices 1 2 3 4 5 6 
#
# 1 39.6541 23.7707 16.8128 0.0001 -3.9312 0.0001
# 2 23.7707 136.2745 34.2239 0.0001 -14.7605 0.0001
# 3 16.8128 34.2239 62.3404 0.0005 -8.0703 0.0003
# 4 0.0001 0.0001 0.0005 29.5084 0.0001 -1.0713
# 5 -3.9312 -14.7605 -8.0703 0.0001 33.4239 0.0001
# 6 0.0001 0.0001 0.0003 -1.0713 0.0001 23.6960
#
#
#
# Elastic Compliance Matrix: (Units=1/GPa)
#
#
# Indices 1 2 3 4 5 6 
#
# 1 0.030018 -0.003675 -0.006019 0.000000 0.000454 0.000000
# 2 -0.003675 0.009207 -0.003709 0.000000 0.002738 0.000000
# 3 -0.006019 -0.003709 0.020023 0.000000 0.002489 0.000000
# 4 0.000000 0.000000 0.000000 0.033944 0.000000 0.001535
# 5 0.000454 0.002738 0.002489 0.000000 0.031782 0.000000
# 6 0.000000 0.000000 0.000000 0.001535 0.000000 0.042271
#
#
# Mechanical properties :
#
#
# Convention : Reuss Voigt Hill
#
# Bulk Modulus (GPa) = 30.82501 43.09821 36.96161
# Shear Modulus (GPa) = 24.40617 28.22312 26.31465
#
# Velocity S-wave (km/s) = 3.48314 3.74562 3.61676
# Velocity P-wave (km/s) = 5.61243 6.33484 5.98455
#
# Compressibility (1/GPa) = 0.03244119
#
# Stress axis : x y z
#
# Youngs Moduli (GPa) = 33.31298 108.60967 49.94342
#
# Poissons Ratio (x) = 0.39917 0.30062
# Poissons Ratio (y) = 0.12244 0.18524
# Poissons Ratio (z) = 0.20052 0.40283
#
# Static dielectric constant tensor:
#      x y z
#    x 1.711610 0.000000 0.000940 
#    y 0.000000 1.747540 0.000000 
#    z 0.000940 0.000000 1.765030 
# 
# From -- ./inp_files/15353.got.cif
#   From: 2010.05.17/outbox.cif.g08.bks.cpg/sg8_8_cif.got.tgz:15353.got - 2010.06.03 19:46:02.
