data_PCOD9132417
_publ_section_title
;
Structure prediction by ZEFSAII (Michael W. Deem and Ramdas Pophale) SiO2 
 PCOD9132417
Probable space group: C M
;
_chemical_formula_sum "Si O2"
_cell_formula_units_Z 32
_cell_length_a 19.319215
_cell_length_b 11.322673
_cell_length_c 19.928484
_cell_angle_alpha 90.000000
_cell_angle_beta 22.766475
_cell_angle_gamma 90.000000
_cell_volume 1686.929243
_symmetry_space_group_name_H-M "C M"
_symmetry_group_IT_number 8
_symmetry_cell_setting 'monoclinic'
loop_
_space_group_symop_operation_xyz
x,y,z
x,-y,z
1/2+x,1/2+y,z
1/2+x,1/2-y,z
loop_
_atom_site_type_symbol
_atom_site_label
_atom_site_fract_x
_atom_site_fract_y
_atom_site_fract_z
Si Si1 0.651700 0.288111 0.101170
Si Si2 0.118562 0.865364 0.982801
Si Si3 0.304930 0.133043 0.388190
Si Si4 0.276631 0.788836 0.266790
Si Si5 0.001340 0.136737 0.756274
Si Si6 0.834750 0.366104 0.555624
Si Si7 0.081168 0.134291 0.310004
Si Si8 0.936502 0.634837 0.612712
O O1 0.473945 0.207137 0.261410
O O2 0.663709 0.353133 0.161737
O O3 0.621695 0.363598 0.060619
O O4 0.828663 0.211910 0.928803
O O5 0.307653 0.818903 0.785994
O O6 0.098752 0.000000 0.976969
O O7 0.956779 0.786950 0.100247
O O8 0.301824 0.132461 0.310569
O O9 0.119880 0.177978 0.586315
O O10 0.323837 0.000000 0.396500
O O11 0.218835 0.849536 0.249105
O O12 0.113748 0.704607 0.435386
O O13 0.146250 0.141007 0.686705
O O14 0.947633 0.000000 0.793199
O O15 0.911864 0.500000 0.471986
O O16 0.819232 0.363418 0.649680
O O17 0.950050 0.249028 0.434174
O O18 0.003887 0.000000 0.384616
O O19 0.986979 0.500000 0.583870
#
# Coordination Sequence:
#
# PCOD9132417 Si02
#       8
#     4   4   4   4   4   4   4   4
#     4  11  22  36  58  82 122 156 194 236 298 352
#     4  10  21  37  57  83 113 152 199 246 290 345
#     4  10  20  37  58  84 113 148 196 251 293 342
#     4  10  21  36  59  81 113 153 195 234 299 348
#     4  10  20  35  59  89 114 150 201 250 296 346
#     4   9  19  37  61  88 119 152 200 250 294 346
#     4  11  23  40  60  88 126 160 195 239 297 361
#     4   9  18  34  56  83 112 143 192 250 293 340
#
# _framework density 18.969380000000001
#
# number of rings (size 3 to 8) (size 9 to 14) (size 15 to 20)
#    0.000    2.000    1.250    2.250    1.750    1.000 
#    0.000    1.250    0.000    3.750    0.000    0.000 
#    0.000    0.000    0.000    0.000    0.000    0.000 
#
# Total GULP energy -89132.285516 kJ/mol
# GULP energy per Si atom -5570.767845 kJ/mol
# Density = 1.892620 g / cm^3
# Si number density = 18.969380 Si / 1000 Ang^3
#
#
#
# Elastic Constant Matrix: (Units=GPa)
#
#
# Indices 1 2 3 4 5 6 
#
# 1 98.6435 23.7895 21.6721 -0.0009 7.1028 0.0007
# 2 23.7895 100.1586 52.7466 -0.0050 -6.2637 0.0053
# 3 21.6721 52.7466 91.7568 -0.0013 2.8713 0.0019
# 4 -0.0009 -0.0050 -0.0013 25.6830 0.0007 -1.5497
# 5 7.1028 -6.2637 2.8713 0.0007 26.8957 0.0000
# 6 0.0007 0.0053 0.0019 -1.5497 0.0000 45.2812
#
#
#
# Elastic Compliance Matrix: (Units=1/GPa)
#
#
# Indices 1 2 3 4 5 6 
#
# 1 0.011187 -0.002192 -0.001278 0.000000 -0.003328 0.000000
# 2 -0.002192 0.015244 -0.008403 0.000002 0.005026 -0.000001
# 3 -0.001278 -0.008403 0.016135 -0.000001 -0.003342 0.000000
# 4 0.000000 0.000002 -0.000001 0.039017 0.000000 0.001335
# 5 -0.003328 0.005026 -0.003342 0.000000 0.039587 0.000000
# 6 0.000000 -0.000001 0.000000 0.001335 0.000000 0.022130
#
#
# Mechanical properties :
#
#
# Convention : Reuss Voigt Hill
#
# Bulk Modulus (GPa) = 53.13366 54.10838 53.62102
# Shear Modulus (GPa) = 28.84858 32.39536 30.62197
#
# Velocity S-wave (km/s) = 3.90397 4.13700 4.02217
# Velocity P-wave (km/s) = 6.95646 7.16978 7.06392
#
# Compressibility (1/GPa) = 0.01882046
#
# Stress axis : x y z
#
# Youngs Moduli (GPa) = 89.39264 65.59824 61.97674
#
# Poissons Ratio (x) = 0.14381 0.07919
# Poissons Ratio (y) = 0.19597 0.52077
# Poissons Ratio (z) = 0.11423 0.55120
#
# Static dielectric constant tensor:
#      x y z
#    x 1.672670 0.000000 0.024960 
#    y 0.000000 1.667090 0.000000 
#    z 0.024960 0.000000 1.647880 
# 
# From -- ./inp_files/31448.got.cif
#   From: 2010.05.17/outbox.cif.g08.bks.cpg/sg8_16_cif.got.tgz:31448.got - 2010.06.03 19:46:02.
