data_PCOD9132357
_publ_section_title
;
Structure prediction by ZEFSAII (Michael W. Deem and Ramdas Pophale) SiO2 
 PCOD9132357
Probable space group: C M
;
_chemical_formula_sum "Si O2"
_cell_formula_units_Z 32
_cell_length_a 22.936036
_cell_length_b 7.966869
_cell_length_c 11.446596
_cell_angle_alpha 90.000000
_cell_angle_beta 49.715523
_cell_angle_gamma 90.000000
_cell_volume 1595.577349
_symmetry_space_group_name_H-M "C M"
_symmetry_group_IT_number 8
_symmetry_cell_setting 'monoclinic'
loop_
_space_group_symop_operation_xyz
x,y,z
x,-y,z
1/2+x,1/2+y,z
1/2+x,1/2-y,z
loop_
_atom_site_type_symbol
_atom_site_label
_atom_site_fract_x
_atom_site_fract_y
_atom_site_fract_z
Si Si1 0.815440 0.799581 0.845760
Si Si2 0.392920 0.702337 0.982756
Si Si3 0.704295 0.294172 0.595721
Si Si4 0.011056 0.303607 0.210784
Si Si5 0.735199 0.702265 0.294330
Si Si6 0.356612 0.202921 0.533176
Si Si7 0.045332 0.198947 0.905752
Si Si8 0.658638 0.698308 0.155053
O O1 0.849604 0.754954 0.676657
O O2 0.808256 0.000000 0.864211
O O3 0.867913 0.739348 0.886000
O O4 0.730962 0.725349 0.975759
O O5 0.397162 0.500000 0.973582
O O6 0.322992 0.749093 0.158130
O O7 0.473225 0.768435 0.926713
O O8 0.705084 0.500000 0.596252
O O9 0.706944 0.240726 0.457168
O O10 0.780901 0.239384 0.562823
O O11 0.627487 0.234268 0.758873
O O12 0.999217 0.500000 0.202672
O O13 0.083053 0.281710 0.202834
O O14 0.933879 0.236227 0.370622
O O15 0.030392 0.222023 0.061880
O O16 0.731305 0.500000 0.297246
O O17 0.686466 0.763097 0.245832
O O18 0.357693 0.000000 0.528666
O O19 0.047729 0.000000 0.879055
O O20 0.643843 0.500000 0.182925
#
# Coordination Sequence:
#
# PCOD9132357 Si02
#       8
#     4   4   4   4   4   4   4   4
#     4  10  20  35  56  81 111 144 179 221 267 318
#     4   9  19  34  53  80 111 140 171 216 269 315
#     4   9  18  34  55  77 102 135 177 222 265 313
#     4  11  23  37  54  78 109 143 182 228 273 317
#     4   9  18  34  57  80 103 138 179 216 260 321
#     4  10  21  36  54  77 107 143 182 225 272 320
#     4  10  20  35  56  79 105 140 181 222 268 324
#     4  10  20  35  57  82 108 141 181 222 268 324
#
# _framework density 20.055437000000001
#
# number of rings (size 3 to 8) (size 9 to 14) (size 15 to 20)
#    0.000    2.250    0.000    2.625    0.000    5.500 
#    0.000    3.750    0.000    0.000    0.000    0.000 
#    0.000    0.000    0.000    0.000    0.000    0.000 
#
# Total GULP energy -89350.195453 kJ/mol
# GULP energy per Si atom -5584.387216 kJ/mol
# Density = 2.000979 g / cm^3
# Si number density = 20.055437 Si / 1000 Ang^3
#
#
#
# Elastic Constant Matrix: (Units=GPa)
#
#
# Indices 1 2 3 4 5 6 
#
# 1 127.6547 -3.8802 91.0844 0.0000 -23.3854 0.0000
# 2 -3.8802 15.1044 -6.4117 0.0000 -2.0236 0.0000
# 3 91.0844 -6.4117 176.3766 0.0000 -1.3170 0.0000
# 4 0.0000 0.0000 0.0000 21.1035 0.0000 1.0219
# 5 -23.3854 -2.0236 -1.3170 0.0000 30.0471 0.0000
# 6 0.0000 0.0000 0.0000 1.0219 0.0000 6.0052
#
#
#
# Elastic Compliance Matrix: (Units=1/GPa)
#
#
# Indices 1 2 3 4 5 6 
#
# 1 0.015837 0.002295 -0.008004 0.000000 0.012129 0.000000
# 2 0.002295 0.068228 0.001343 0.000000 0.006440 0.000000
# 3 -0.008004 0.001343 0.009809 0.000000 -0.005709 0.000000
# 4 0.000000 0.000000 0.000000 0.047779 0.000000 -0.008130
# 5 0.012129 0.006440 -0.005709 0.000000 0.042905 0.000000
# 6 0.000000 0.000000 0.000000 -0.008130 0.000000 0.167906
#
#
# Mechanical properties :
#
#
# Convention : Reuss Voigt Hill
#
# Bulk Modulus (GPa) = 11.74500 53.41341 32.57921
# Shear Modulus (GPa) = 12.83442 27.32072 20.07757
#
# Velocity S-wave (km/s) = 2.53246 3.69488 3.16745
# Velocity P-wave (km/s) = 3.79738 6.70027 5.44581
#
# Compressibility (1/GPa) = 0.08514262
#
# Stress axis : x y z
#
# Youngs Moduli (GPa) = 63.14457 14.65666 101.94214
#
# Poissons Ratio (x) = -0.03364 0.81598
# Poissons Ratio (y) = -0.14494 -0.13690
# Poissons Ratio (z) = 0.50543 -0.01968
#
# Static dielectric constant tensor:
#      x y z
#    x 1.704240 0.000000 -0.001590 
#    y 0.000000 1.720360 0.000000 
#    z -0.001590 0.000000 1.675710 
# 
# From -- ./inp_files/23885.got.cif
#   From: 2010.05.17/outbox.cif.g08.bks.cpg/sg8_12_cif.got.tgz:23885.got - 2010.06.03 19:46:02.
