data_PCOD9132616
_publ_section_title
;
Structure prediction by ZEFSAII (Michael W. Deem and Ramdas Pophale) SiO2 
 PCOD9132616
Probable space group: C M
;
_chemical_formula_sum "Si O2"
_cell_formula_units_Z 26
_cell_length_a 10.371303
_cell_length_b 19.093425
_cell_length_c 7.716720
_cell_angle_alpha 90.000000
_cell_angle_beta 135.517514
_cell_angle_gamma 90.000000
_cell_volume 1070.721620
_symmetry_space_group_name_H-M "C M"
_symmetry_group_IT_number 8
_symmetry_cell_setting 'monoclinic'
loop_
_space_group_symop_operation_xyz
x,y,z
x,-y,z
1/2+x,1/2+y,z
1/2+x,1/2-y,z
loop_
_atom_site_type_symbol
_atom_site_label
_atom_site_fract_x
_atom_site_fract_y
_atom_site_fract_z
Si Si1 0.080260 0.132600 0.107060
Si Si2 0.923488 0.705523 0.399874
Si Si3 0.762709 0.500000 0.456171
Si Si4 0.001553 0.916212 0.661420
Si Si5 0.340609 0.885231 0.786108
Si Si6 0.085447 0.420591 0.344953
Si Si7 0.797855 0.241749 0.906887
O O1 0.232971 0.189065 0.312871
O O2 0.130129 0.060536 0.242260
O O3 0.096144 0.119897 0.916582
O O4 0.883335 0.166532 0.946349
O O5 0.010288 0.632465 0.415316
O O6 0.079228 0.740894 0.665033
O O7 0.865193 0.743763 0.166442
O O8 0.882577 0.436161 0.666895
O O9 0.785819 0.899369 0.463730
O O10 0.121233 0.896426 0.609809
O O11 0.015866 0.000000 0.691986
O O12 0.373892 0.802412 0.849012
O O13 0.446365 0.918277 0.051291
O O14 0.093246 0.500000 0.422545
#
# Coordination Sequence:
#
# PCOD9132616 Si02
#       7
#     4   4   2   4   4   4   4
#     4  12  25  43  71 101 141 188 237 294 362 420
#     4  11  25  43  70  98 142 188 229 299 353 433
#     4  12  26  44  70 110 144 178 242 310 350 416
#     4  11  20  40  74  96 125 185 235 277 359 426
#     4  11  23  45  71  96 144 180 228 295 355 422
#     4  10  20  37  72  98 124 174 234 278 338 432
#     4  11  25  45  69 106 142 188 242 292 358 438
#
# _framework density 24.282689000000001
#
# number of rings (size 3 to 8) (size 9 to 14) (size 15 to 20)
#    0.000    0.923    6.923    0.923    1.077    4.923 
#    0.000    3.077    0.000    0.000    0.000    0.000 
#    0.000    0.000    0.000    0.000    0.000    0.000 
#
# Total GULP energy -72426.557084 kJ/mol
# GULP energy per Si atom -5571.273622 kJ/mol
# Density = 2.422742 g / cm^3
# Si number density = 24.282689 Si / 1000 Ang^3
#
#
#
# Elastic Constant Matrix: (Units=GPa)
#
#
# Indices 1 2 3 4 5 6 
#
# 1 43.4529 0.7531 32.7518 0.0000 6.4650 0.0000
# 2 0.7531 67.1290 34.6477 0.0000 -8.2706 0.0000
# 3 32.7518 34.6477 126.3820 0.0000 9.5120 0.0000
# 4 0.0000 0.0000 0.0000 39.8385 0.0000 14.2932
# 5 6.4650 -8.2706 9.5120 0.0000 37.8927 0.0000
# 6 0.0000 0.0000 0.0000 14.2932 0.0000 21.1524
#
#
#
# Elastic Compliance Matrix: (Units=1/GPa)
#
#
# Indices 1 2 3 4 5 6 
#
# 1 0.029744 0.003854 -0.008609 0.000000 -0.002072 0.000000
# 2 0.003854 0.018866 -0.006555 0.000000 0.005106 0.000000
# 3 -0.008609 -0.006555 0.012168 0.000000 -0.003016 0.000000
# 4 0.000000 0.000000 0.000000 0.033134 0.000000 -0.022390
# 5 -0.002072 0.005106 -0.003016 0.000000 0.028615 0.000000
# 6 0.000000 0.000000 0.000000 -0.022390 0.000000 0.062405
#
#
# Mechanical properties :
#
#
# Convention : Reuss Voigt Hill
#
# Bulk Modulus (GPa) = 26.20702 41.47436 33.84069
# Shear Modulus (GPa) = 22.69934 31.03079 26.86507
#
# Velocity S-wave (km/s) = 3.06076 3.57865 3.32979
# Velocity P-wave (km/s) = 4.82772 5.84744 5.36187
#
# Compressibility (1/GPa) = 0.03815772
#
# Stress axis : x y z
#
# Youngs Moduli (GPa) = 33.62076 53.00574 82.18562
#
# Poissons Ratio (x) = -0.20430 0.70751
# Poissons Ratio (y) = -0.12958 0.53874
# Poissons Ratio (z) = 0.28943 0.34746
#
# Static dielectric constant tensor:
#      x y z
#    x 2.006070 0.000000 -0.020470 
#    y 0.000000 1.939230 0.000000 
#    z -0.020470 0.000000 1.938190 
# 
# From -- ./inp_files/11410.got.cif
#   From: 2010.05.17/outbox.cif.g08.bks.cpg/sg8_6_cif.got.tgz:11410.got - 2010.06.03 19:46:02.
