data_PCOD9132928
_publ_section_title
;
Structure prediction by ZEFSAII (Michael W. Deem and Ramdas Pophale) SiO2 
 PCOD9132928
Probable space group: C M
;
_chemical_formula_sum "Si O2"
_cell_formula_units_Z 28
_cell_length_a 7.725638
_cell_length_b 22.567111
_cell_length_c 8.727481
_cell_angle_alpha 90.000000
_cell_angle_beta 107.518826
_cell_angle_gamma 90.000000
_cell_volume 1451.021056
_symmetry_space_group_name_H-M "C M"
_symmetry_group_IT_number 8
_symmetry_cell_setting 'monoclinic'
loop_
_space_group_symop_operation_xyz
x,y,z
x,-y,z
1/2+x,1/2+y,z
1/2+x,1/2-y,z
loop_
_atom_site_type_symbol
_atom_site_label
_atom_site_fract_x
_atom_site_fract_y
_atom_site_fract_z
Si Si1 0.168940 0.175007 0.184570
Si Si2 0.113574 0.933067 0.376594
Si Si3 0.334315 0.378538 0.529573
Si Si4 0.576542 0.194356 0.245336
Si Si5 0.462876 0.698030 0.835818
Si Si6 0.078295 0.327832 0.888397
Si Si7 0.505514 0.068686 0.642801
O O1 0.091061 0.116227 0.239773
O O2 0.383945 0.176850 0.264170
O O3 0.088129 0.234563 0.237518
O O4 0.126480 0.180742 0.992607
O O5 0.314540 0.926220 0.502698
O O6 0.964473 0.920836 0.467342
O O7 0.096184 0.000000 0.313264
O O8 0.234845 0.333388 0.388005
O O9 0.452375 0.340097 0.680131
O O10 0.174909 0.412167 0.580135
O O11 0.582590 0.170605 0.072889
O O12 0.281960 0.683185 0.882797
O O13 0.470688 0.768392 0.810560
O O14 0.005835 0.386145 0.785567
O O15 0.527286 0.000000 0.694329
#
# Coordination Sequence:
#
# PCOD9132928 Si02
#       7
#     4   4   4   4   4   4   4
#     4  11  22  41  60  93 127 161 207 254 305 378
#     4  11  24  41  64  89 126 168 207 252 301 367
#     4  11  23  40  65  93 119 163 205 262 306 358
#     4  11  22  38  65  92 126 159 203 261 314 357
#     4  10  22  36  62  93 123 155 203 253 315 359
#     4  10  21  38  60  90 124 161 199 254 307 368
#     4  10  23  42  60  90 126 163 208 252 298 367
#
# _framework density 19.296755999999998
#
# number of rings (size 3 to 8) (size 9 to 14) (size 15 to 20)
#    0.000    1.429    1.429    5.571    6.000    1.143 
#    0.000    8.571    0.000    0.000    0.000    0.000 
#    0.000    0.000    0.000    0.000    0.000    0.000 
#
# Total GULP energy -78249.884368 kJ/mol
# GULP energy per Si atom -5589.277455 kJ/mol
# Density = 1.925284 g / cm^3
# Si number density = 19.296756 Si / 1000 Ang^3
#
#
#
# Elastic Constant Matrix: (Units=GPa)
#
#
# Indices 1 2 3 4 5 6 
#
# 1 56.6245 23.1749 12.6457 0.0000 -1.8344 0.0000
# 2 23.1749 163.3445 73.0180 0.0000 -3.3029 0.0000
# 3 12.6457 73.0180 54.2507 0.0000 -0.6689 0.0000
# 4 0.0000 0.0000 0.0000 27.6524 0.0000 2.5298
# 5 -1.8344 -3.3029 -0.6689 0.0000 28.9579 0.0000
# 6 0.0000 0.0000 0.0000 2.5298 0.0000 27.7338
#
#
#
# Elastic Compliance Matrix: (Units=1/GPa)
#
#
# Indices 1 2 3 4 5 6 
#
# 1 0.018860 -0.001749 -0.002031 0.000000 0.000948 0.000000
# 2 -0.001749 0.015578 -0.020545 0.000000 0.001191 0.000000
# 3 -0.002031 -0.020545 0.046541 0.000000 -0.001397 0.000000
# 4 0.000000 0.000000 0.000000 0.036468 0.000000 -0.003326
# 5 0.000948 0.001191 -0.001397 0.000000 0.034697 0.000000
# 6 0.000000 0.000000 0.000000 -0.003326 0.000000 0.036361
#
#
# Mechanical properties :
#
#
# Convention : Reuss Voigt Hill
#
# Bulk Modulus (GPa) = 30.93036 54.65521 42.79279
# Shear Modulus (GPa) = 20.16697 27.89423 24.03060
#
# Velocity S-wave (km/s) = 3.23630 3.80615 3.53273
# Velocity P-wave (km/s) = 5.47982 6.90657 6.23415
#
# Compressibility (1/GPa) = 0.03233069
#
# Stress axis : x y z
#
# Youngs Moduli (GPa) = 53.02168 64.19211 21.48633
#
# Poissons Ratio (x) = 0.11227 0.04363
# Poissons Ratio (y) = 0.09273 0.44144
# Poissons Ratio (z) = 0.10767 1.31882
#
# Static dielectric constant tensor:
#      x y z
#    x 1.685480 0.000000 0.003050 
#    y 0.000000 1.646100 0.000000 
#    z 0.003050 0.000000 1.658500 
# 
# From -- ./inp_files/8583.got.cif
#   From: 2010.05.17/outbox.cif.g08.bks.cpg/sg8_5_cif.got.tgz:8583.got - 2010.06.03 19:46:02.
