data_PCOD9132975
_publ_section_title
;
Structure prediction by ZEFSAII (Michael W. Deem and Ramdas Pophale) SiO2 
 PCOD9132975
Probable space group: C M
;
_chemical_formula_sum "Si O2"
_cell_formula_units_Z 24
_cell_length_a 14.795719
_cell_length_b 8.481885
_cell_length_c 18.394315
_cell_angle_alpha 90.000000
_cell_angle_beta 26.286189
_cell_angle_gamma 90.000000
_cell_volume 1022.289045
_symmetry_space_group_name_H-M "C M"
_symmetry_group_IT_number 8
_symmetry_cell_setting 'monoclinic'
loop_
_space_group_symop_operation_xyz
x,y,z
x,-y,z
1/2+x,1/2+y,z
1/2+x,1/2-y,z
loop_
_atom_site_type_symbol
_atom_site_label
_atom_site_fract_x
_atom_site_fract_y
_atom_site_fract_z
Si Si1 0.747130 0.185761 0.939950
Si Si2 0.157305 0.809488 0.470380
Si Si3 0.587318 0.188394 0.209272
Si Si4 0.206807 0.183328 0.816034
Si Si5 0.646798 0.185174 0.705027
Si Si6 0.123976 0.186350 0.332856
O O1 0.653763 0.263776 0.935716
O O2 0.990415 0.214824 0.769874
O O3 0.704937 0.000000 0.965704
O O4 0.673885 0.250744 0.070726
O O5 0.348466 0.766108 0.381993
O O6 0.950285 0.718500 0.635805
O O7 0.221144 0.774811 0.340594
O O8 0.118122 0.000000 0.502729
O O9 0.690661 0.235778 0.209892
O O10 0.596672 0.000000 0.197392
O O11 0.116277 0.277203 0.812740
O O12 0.163536 0.000000 0.836144
O O13 0.883210 0.222871 0.518743
O O14 0.613512 0.000000 0.715532
O O15 0.144606 0.000000 0.308171
#
# Coordination Sequence:
#
# PCOD9132975 Si02
#       6
#     4   4   4   4   4   4
#     4  11  23  38  55  82 118 154 188 228 277 333
#     4   9  19  38  59  80 109 147 185 227 277 331
#     4  10  22  37  55  80 112 148 185 224 275 331
#     4  11  22  37  59  87 113 145 188 234 281 332
#     4  10  21  39  61  85 111 146 189 234 281 332
#     4   9  19  35  57  82 107 138 183 231 277 327
#
# _framework density 23.476725999999999
#
# number of rings (size 3 to 8) (size 9 to 14) (size 15 to 20)
#    0.000    2.000    0.000    4.500    0.000    9.333 
#    0.000    1.667    0.000    0.000    0.000    0.000 
#    0.000    0.000    0.000    0.000    0.000    0.000 
#
# Total GULP energy -67117.380065 kJ/mol
# GULP energy per Si atom -5593.115005 kJ/mol
# Density = 2.342329 g / cm^3
# Si number density = 23.476726 Si / 1000 Ang^3
#
#
#
# Elastic Constant Matrix: (Units=GPa)
#
#
# Indices 1 2 3 4 5 6 
#
# 1 125.5197 2.1619 13.2658 -0.0037 18.3932 0.0001
# 2 2.1619 11.1851 8.5986 -0.0064 3.6913 0.0005
# 3 13.2658 8.5986 51.3376 -0.0112 18.4096 0.0016
# 4 -0.0037 -0.0064 -0.0112 20.6199 0.0021 12.8330
# 5 18.3932 3.6913 18.4096 0.0021 43.0685 0.0002
# 6 0.0001 0.0005 0.0016 12.8330 0.0002 25.1648
#
#
#
# Elastic Compliance Matrix: (Units=1/GPa)
#
#
# Indices 1 2 3 4 5 6 
#
# 1 0.008548 0.000252 -0.001103 0.000002 -0.003201 -0.000001
# 2 0.000252 0.102732 -0.016624 0.000034 -0.001807 -0.000018
# 3 -0.001103 -0.016624 0.025827 0.000015 -0.009144 -0.000009
# 4 0.000002 0.000034 0.000015 0.071045 -0.000014 -0.036230
# 5 -0.003201 -0.001807 -0.009144 -0.000014 0.028649 0.000007
# 6 -0.000001 -0.000018 -0.000009 -0.036230 0.000007 0.058214
#
#
# Mechanical properties :
#
#
# Convention : Reuss Voigt Hill
#
# Bulk Modulus (GPa) = 9.78880 26.23277 18.01078
# Shear Modulus (GPa) = 13.73556 28.70504 21.22030
#
# Velocity S-wave (km/s) = 2.42145 3.50051 3.00973
# Velocity P-wave (km/s) = 3.46360 5.24750 4.44594
#
# Compressibility (1/GPa) = 0.10215762
#
# Stress axis : x y z
#
# Youngs Moduli (GPa) = 116.98428 9.73405 38.71862
#
# Poissons Ratio (x) = -0.00246 0.04272
# Poissons Ratio (y) = -0.02952 0.64366
# Poissons Ratio (z) = 0.12908 0.16182
#
# Static dielectric constant tensor:
#      x y z
#    x 1.865890 0.000000 0.017200 
#    y 0.000000 1.789820 0.000000 
#    z 0.017200 0.000000 1.983070 
# 
# From -- ./inp_files/12061.got.cif
#   From: 2010.05.17/outbox.cif.g08.bks.cpg/sg8_7_cif.got.tgz:12061.got - 2010.06.03 19:46:02.
