data_PCOD9132507
_publ_section_title
;
Structure prediction by ZEFSAII (Michael W. Deem and Ramdas Pophale) SiO2 
 PCOD9132507
Probable space group: C M
;
_chemical_formula_sum "Si O2"
_cell_formula_units_Z 32
_cell_length_a 8.673647
_cell_length_b 20.007671
_cell_length_c 14.115101
_cell_angle_alpha 90.000000
_cell_angle_beta 145.200343
_cell_angle_gamma 90.000000
_cell_volume 1397.966380
_symmetry_space_group_name_H-M "C M"
_symmetry_group_IT_number 8
_symmetry_cell_setting 'monoclinic'
loop_
_space_group_symop_operation_xyz
x,y,z
x,-y,z
1/2+x,1/2+y,z
1/2+x,1/2-y,z
loop_
_atom_site_type_symbol
_atom_site_label
_atom_site_fract_x
_atom_site_fract_y
_atom_site_fract_z
Si Si1 0.266930 0.580517 0.692610
Si Si2 0.663267 0.883921 0.858963
Si Si3 0.824959 0.652366 0.997468
Si Si4 0.347112 0.575816 0.266334
Si Si5 0.549048 0.150100 0.400889
Si Si6 0.118429 0.226175 0.078688
Si Si7 0.570913 0.421037 0.582441
Si Si8 0.084311 0.929519 0.202186
O O1 0.253952 0.500000 0.668679
O O2 0.181710 0.594812 0.758152
O O3 0.573964 0.608392 0.835651
O O4 0.094653 0.627802 0.533764
O O5 0.852234 0.818708 0.967602
O O6 0.358662 0.886178 0.742021
O O7 0.823833 0.934078 0.006622
O O8 0.988005 0.700722 0.008846
O O9 0.724676 0.698830 0.032679
O O10 0.063702 0.605606 0.153783
O O11 0.287470 0.500000 0.205908
O O12 0.536425 0.575357 0.452035
O O13 0.492694 0.609533 0.249881
O O14 0.831241 0.127461 0.498087
O O15 0.316313 0.098721 0.252703
O O16 0.377257 0.216593 0.282771
O O17 0.555559 0.500000 0.608031
O O18 0.193903 0.000000 0.291598
#
# Coordination Sequence:
#
# PCOD9132507 Si02
#       8
#     4   4   4   4   4   4   4   4
#     4  11  23  42  70 104 142 175 221 286 348 403
#     4  10  23  41  64  98 136 184 223 271 339 402
#     4  11  24  46  67  98 131 179 229 279 335 401
#     4  10  22  39  65  96 129 169 220 283 346 398
#     4  11  23  41  62 101 134 177 219 273 339 398
#     4  10  25  46  68  92 137 184 231 277 327 409
#     4  11  21  37  63  98 135 166 217 282 338 398
#     4  10  20  36  61  93 133 178 218 267 336 407
#
# _framework density 22.890394000000001
#
# number of rings (size 3 to 8) (size 9 to 14) (size 15 to 20)
#    0.000    1.500    1.250    3.375    5.250    1.000 
#    2.250    1.250    0.000    0.000    0.000    0.000 
#    0.000    0.000    0.000    0.000    0.000    0.000 
#
# Total GULP energy -89095.587263 kJ/mol
# GULP energy per Si atom -5568.474204 kJ/mol
# Density = 2.283829 g / cm^3
# Si number density = 22.890394 Si / 1000 Ang^3
#
#
#
# Elastic Constant Matrix: (Units=GPa)
#
#
# Indices 1 2 3 4 5 6 
#
# 1 102.5449 14.0371 44.0835 0.0016 17.3068 0.0024
# 2 14.0371 53.3722 26.3956 -0.0001 12.3071 0.0001
# 3 44.0835 26.3956 153.0853 0.0020 29.6873 0.0021
# 4 0.0016 -0.0001 0.0020 15.0361 0.0013 -5.1786
# 5 17.3068 12.3071 29.6873 0.0013 59.0346 0.0015
# 6 0.0024 0.0001 0.0021 -5.1786 0.0015 7.7020
#
#
#
# Elastic Compliance Matrix: (Units=1/GPa)
#
#
# Indices 1 2 3 4 5 6 
#
# 1 0.011385 -0.001250 -0.002733 -0.000002 -0.001703 -0.000004
# 2 -0.001250 0.021035 -0.002756 0.000002 -0.002633 0.000003
# 3 -0.002733 -0.002756 0.008341 -0.000001 -0.002819 -0.000002
# 4 -0.000002 0.000002 -0.000001 0.086549 -0.000003 0.058192
# 5 -0.001703 -0.002633 -0.002819 -0.000003 0.019405 -0.000004
# 6 -0.000004 0.000003 -0.000002 0.058192 -0.000004 0.168962
#
#
# Mechanical properties :
#
#
# Convention : Reuss Voigt Hill
#
# Bulk Modulus (GPa) = 36.65294 53.11499 44.88397
# Shear Modulus (GPa) = 14.78193 31.32028 23.05110
#
# Velocity S-wave (km/s) = 2.54396 3.70303 3.17680
# Velocity P-wave (km/s) = 4.96750 6.44497 5.75386
#
# Compressibility (1/GPa) = 0.02728294
#
# Stress axis : x y z
#
# Youngs Moduli (GPa) = 87.83373 47.53882 119.88718
#
# Poissons Ratio (x) = 0.05943 0.32762
# Poissons Ratio (y) = 0.10981 0.33047
# Poissons Ratio (z) = 0.24003 0.13104
#
# Static dielectric constant tensor:
#      x y z
#    x 1.940430 -0.000010 -0.032580 
#    y -0.000010 2.337140 -0.000010 
#    z -0.032580 -0.000010 1.868500 
# 
# From -- ./inp_files/25675.got.cif
#   From: 2010.05.17/outbox.cif.g08.bks.cpg/sg8_13_cif.got.tgz:25675.got - 2010.06.03 19:46:02.
