data_PCOD9132526
_publ_section_title
;
Structure prediction by ZEFSAII (Michael W. Deem and Ramdas Pophale) SiO2 
 PCOD9132526
Probable space group: C M
;
_chemical_formula_sum "Si O2"
_cell_formula_units_Z 26
_cell_length_a 19.048423
_cell_length_b 7.217166
_cell_length_c 12.086711
_cell_angle_alpha 90.000000
_cell_angle_beta 142.335647
_cell_angle_gamma 90.000000
_cell_volume 1015.312428
_symmetry_space_group_name_H-M "C M"
_symmetry_group_IT_number 8
_symmetry_cell_setting 'monoclinic'
loop_
_space_group_symop_operation_xyz
x,y,z
x,-y,z
1/2+x,1/2+y,z
1/2+x,1/2-y,z
loop_
_atom_site_type_symbol
_atom_site_label
_atom_site_fract_x
_atom_site_fract_y
_atom_site_fract_z
Si Si1 0.078460 0.204506 0.916890
Si Si2 0.445618 0.209986 0.166511
Si Si3 0.252929 0.277578 0.747670
Si Si4 0.824492 0.725508 0.246749
Si Si5 0.316404 0.722613 0.579989
Si Si6 0.547848 0.223135 0.637944
Si Si7 0.637520 0.500000 0.317248
O O1 0.101102 0.193216 0.813977
O O2 0.950150 0.282618 0.755153
O O3 0.067315 0.000000 0.956810
O O4 0.195300 0.294137 0.104360
O O5 0.380571 0.275100 0.197428
O O6 0.546056 0.339242 0.246425
O O7 0.488893 0.000000 0.242204
O O8 0.349351 0.204984 0.950561
O O9 0.262894 0.500000 0.763642
O O10 0.269766 0.221438 0.643333
O O11 0.127830 0.225713 0.635314
O O12 0.817655 0.500000 0.236462
O O13 0.918037 0.781912 0.453985
O O14 0.312881 0.500000 0.560578
O O15 0.232532 0.838862 0.398869
O O16 0.550625 0.000000 0.652241
#
# Coordination Sequence:
#
# PCOD9132526 Si02
#       7
#     4   4   4   4   4   4   2
#     4  10  21  42  64  91 129 172 210 263 332 391
#     4  11  22  39  65  98 135 168 216 278 326 388
#     4  10  20  40  63  97 133 175 217 270 327 386
#     4   9  19  39  63  94 129 170 210 264 332 392
#     4  10  24  44  66  92 135 175 218 271 325 395
#     4  10  20  36  65  93 127 167 216 269 324 384
#     4  12  24  42  64  96 122 176 228 264 332 384
#
# _framework density 25.607879000000001
#
# number of rings (size 3 to 8) (size 9 to 14) (size 15 to 20)
#    0.000    1.846    2.308    1.385    2.154    2.462 
#    6.923    0.000    0.000    0.000    0.000    0.000 
#    0.000    0.000    0.000    0.000    0.000    0.000 
#
# Total GULP energy -72506.028264 kJ/mol
# GULP energy per Si atom -5577.386790 kJ/mol
# Density = 2.554959 g / cm^3
# Si number density = 25.607879 Si / 1000 Ang^3
#
#
#
# Elastic Constant Matrix: (Units=GPa)
#
#
# Indices 1 2 3 4 5 6 
#
# 1 70.5229 7.5042 26.6588 0.0000 26.6730 0.0000
# 2 7.5042 156.9636 29.2472 0.0000 25.1675 0.0000
# 3 26.6588 29.2472 153.7608 0.0000 37.2146 0.0000
# 4 0.0000 0.0000 0.0000 45.9232 0.0000 32.4932
# 5 26.6730 25.1675 37.2146 0.0000 61.5224 0.0000
# 6 0.0000 0.0000 0.0000 32.4932 0.0000 38.2811
#
#
#
# Elastic Compliance Matrix: (Units=1/GPa)
#
#
# Indices 1 2 3 4 5 6 
#
# 1 0.017249 0.000538 -0.001441 0.000000 -0.006827 0.000000
# 2 0.000538 0.006905 -0.000781 0.000000 -0.002586 0.000000
# 3 -0.001441 -0.000781 0.007818 0.000000 -0.003785 0.000000
# 4 0.000000 0.000000 0.000000 0.054518 0.000000 -0.046275
# 5 -0.006827 -0.002586 -0.003785 0.000000 0.022562 0.000000
# 6 0.000000 0.000000 0.000000 -0.046275 0.000000 0.065401
#
#
# Mechanical properties :
#
#
# Convention : Reuss Voigt Hill
#
# Bulk Modulus (GPa) = 34.95743 56.45195 45.70469
# Shear Modulus (GPa) = 26.68739 50.33448 38.51094
#
# Velocity S-wave (km/s) = 3.23175 4.43830 3.88218
# Velocity P-wave (km/s) = 5.25417 6.95394 6.16294
#
# Compressibility (1/GPa) = 0.02860622
#
# Stress axis : x y z
#
# Youngs Moduli (GPa) = 57.97339 144.81643 127.90958
#
# Poissons Ratio (x) = -0.07798 0.18428
# Poissons Ratio (y) = -0.03122 0.09989
# Poissons Ratio (z) = 0.08352 0.11310
#
# Static dielectric constant tensor:
#      x y z
#    x 2.036130 0.000000 -0.015500 
#    y 0.000000 1.990810 0.000000 
#    z -0.015500 0.000000 2.009440 
# 
# From -- ./inp_files/21249.got.cif
#   From: 2010.05.17/outbox.cif.g08.bks.cpg/sg8_11_cif.got.tgz:21249.got - 2010.06.03 19:46:02.
