data_PCOD9132882
_publ_section_title
;
Structure prediction by ZEFSAII (Michael W. Deem and Ramdas Pophale) SiO2 
 PCOD9132882
Probable space group: C M
;
_chemical_formula_sum "Si O2"
_cell_formula_units_Z 32
_cell_length_a 29.484274
_cell_length_b 9.088056
_cell_length_c 5.366406
_cell_angle_alpha 90.000000
_cell_angle_beta 78.846956
_cell_angle_gamma 90.000000
_cell_volume 1410.796703
_symmetry_space_group_name_H-M "C M"
_symmetry_group_IT_number 8
_symmetry_cell_setting 'monoclinic'
loop_
_space_group_symop_operation_xyz
x,y,z
x,-y,z
1/2+x,1/2+y,z
1/2+x,1/2-y,z
loop_
_atom_site_type_symbol
_atom_site_label
_atom_site_fract_x
_atom_site_fract_y
_atom_site_fract_z
Si Si1 0.785840 0.659623 0.361380
Si Si2 0.431502 0.337498 0.288083
Si Si3 0.335783 0.657925 0.651038
Si Si4 0.661064 0.677520 0.790477
Si Si5 0.062695 0.674019 0.937243
Si Si6 0.383389 0.841904 0.991040
Si Si7 0.503946 0.173195 0.505022
Si Si8 0.203922 0.676753 0.242317
O O1 0.762639 0.500000 0.390153
O O2 0.797135 0.724256 0.620806
O O3 0.757031 0.777024 0.236605
O O4 0.836854 0.638732 0.200091
O O5 0.448200 0.500000 0.193708
O O6 0.376937 0.353036 0.404442
O O7 0.460618 0.277078 0.488814
O O8 0.428921 0.205318 0.091694
O O9 0.313612 0.500000 0.706538
O O10 0.367126 0.708217 0.842405
O O11 0.666015 0.500000 0.783617
O O12 0.607778 0.725545 0.874043
O O13 0.679175 0.750916 0.512669
O O14 0.686488 0.748949 0.004728
O O15 0.075618 0.500000 0.906163
O O16 0.030092 0.706536 0.734392
O O17 0.037245 0.694892 0.228818
O O18 0.390371 0.000000 0.852715
O O19 0.491300 0.000000 0.521352
O O20 0.197680 0.500000 0.243471
#
# Coordination Sequence:
#
# PCOD9132882 Si02
#       8
#     4   4   4   4   4   4   4   4
#     4  10  22  40  60  89 124 164 214 268 323 382
#     4  10  22  38  56  85 122 162 210 264 316 375
#     4  10  21  37  58  85 122 165 209 261 320 382
#     4  12  26  46  72 103 137 174 219 277 338 400
#     4  10  22  42  66  94 129 169 213 263 326 396
#     4  10  21  37  60  85 119 164 209 262 320 380
#     4  10  22  39  63  94 127 168 214 264 317 385
#     4  12  26  45  71 101 136 180 224 273 332 402
#
# _framework density 22.682217000000001
#
# number of rings (size 3 to 8) (size 9 to 14) (size 15 to 20)
#    0.000    1.500    0.000    4.500    3.500    5.000 
#    0.000    0.000    0.000    0.000    0.000    0.000 
#    0.000    0.000    0.000    0.000    0.000    0.000 
#
# Total GULP energy -89291.984359 kJ/mol
# GULP energy per Si atom -5580.749022 kJ/mol
# Density = 2.263059 g / cm^3
# Si number density = 22.682217 Si / 1000 Ang^3
#
#
#
# Elastic Constant Matrix: (Units=GPa)
#
#
# Indices 1 2 3 4 5 6 
#
# 1 94.8777 42.6669 35.9666 0.0000 11.0591 0.0000
# 2 42.6669 138.4450 30.3585 0.0000 1.3941 0.0000
# 3 35.9666 30.3585 101.6193 0.0000 6.2038 0.0000
# 4 0.0000 0.0000 0.0000 20.6316 0.0000 0.9666
# 5 11.0591 1.3941 6.2038 0.0000 32.7373 0.0000
# 6 0.0000 0.0000 0.0000 0.9666 0.0000 36.7428
#
#
#
# Elastic Compliance Matrix: (Units=1/GPa)
#
#
# Indices 1 2 3 4 5 6 
#
# 1 0.013931 -0.003451 -0.003664 0.000000 -0.003865 0.000000
# 2 -0.003451 0.008585 -0.001408 0.000000 0.001067 0.000000
# 3 -0.003664 -0.001408 0.011613 0.000000 -0.000903 0.000000
# 4 0.000000 0.000000 0.000000 0.048529 0.000000 -0.001277
# 5 -0.003865 0.001067 -0.000903 0.000000 0.031978 0.000000
# 6 0.000000 0.000000 0.000000 -0.001277 0.000000 0.027250
#
#
# Mechanical properties :
#
#
# Convention : Reuss Voigt Hill
#
# Bulk Modulus (GPa) = 58.53855 61.43623 59.98739
# Shear Modulus (GPa) = 30.37177 33.08566 31.72871
#
# Velocity S-wave (km/s) = 3.66322 3.82339 3.74416
# Velocity P-wave (km/s) = 6.61486 6.82902 6.72279
#
# Compressibility (1/GPa) = 0.01708276
#
# Stress axis : x y z
#
# Youngs Moduli (GPa) = 71.78103 116.48562 86.10841
#
# Poissons Ratio (x) = 0.40200 0.31548
# Poissons Ratio (y) = 0.24772 0.12127
# Poissons Ratio (z) = 0.26299 0.16405
#
# Static dielectric constant tensor:
#      x y z
#    x 1.836130 0.000000 -0.085200 
#    y 0.000000 1.875870 0.000000 
#    z -0.085200 0.000000 1.928090 
# 
# From -- ./inp_files/6416.got.cif
#   From: 2010.05.17/outbox.cif.g08.bks.cpg/sg8_4_cif.got.tgz:6416.got - 2010.06.03 19:46:02.
