data_PCOD9132674
_publ_section_title
;
Structure prediction by ZEFSAII (Michael W. Deem and Ramdas Pophale) SiO2 
 PCOD9132674
Probable space group: C M
;
_chemical_formula_sum "Si O2"
_cell_formula_units_Z 26
_cell_length_a 7.200593
_cell_length_b 15.997507
_cell_length_c 10.036630
_cell_angle_alpha 90.000000
_cell_angle_beta 86.344071
_cell_angle_gamma 90.000000
_cell_volume 1153.782055
_symmetry_space_group_name_H-M "C M"
_symmetry_group_IT_number 8
_symmetry_cell_setting 'monoclinic'
loop_
_space_group_symop_operation_xyz
x,y,z
x,-y,z
1/2+x,1/2+y,z
1/2+x,1/2-y,z
loop_
_atom_site_type_symbol
_atom_site_label
_atom_site_fract_x
_atom_site_fract_y
_atom_site_fract_z
Si Si1 0.363160 0.364228 0.832690
Si Si2 0.152100 0.092374 0.613233
Si Si3 0.142043 0.333392 0.433143
Si Si4 0.811619 0.500000 0.178282
Si Si5 0.225102 0.500000 0.288804
Si Si6 0.001479 0.683287 0.731615
Si Si7 0.728341 0.659413 0.350510
Si Si8 0.494288 0.500000 0.029730
O O1 0.469070 0.410797 0.709313
O O2 0.141223 0.363893 0.824579
O O3 0.436608 0.269048 0.805911
O O4 0.427746 0.415971 0.957764
O O5 0.315740 0.135826 0.691980
O O6 0.095547 0.138536 0.480187
O O7 0.219020 0.000000 0.572704
O O8 0.131004 0.308045 0.590434
O O9 0.204148 0.258030 0.332159
O O10 0.233849 0.419149 0.382884
O O11 0.927730 0.348855 0.409749
O O12 0.029555 0.500000 0.211213
O O13 0.729607 0.587209 0.241984
O O14 0.718906 0.500000 0.036244
O O15 0.389602 0.500000 0.175417
#
# Coordination Sequence:
#
# PCOD9132674 Si02
#       8
#     4   4   4   2   2   4   4   2
#     4  12  24  44  64 100 133 178 229 270 329 410
#     4  11  22  39  67 102 140 170 208 282 352 409
#     4  10  21  39  69 103 135 163 216 281 354 409
#     4  10  24  47  63  87 137 180 231 279 323 391
#     4  10  26  49  63  99 135 178 228 272 335 404
#     4  11  23  41  69 103 137 163 216 289 354 393
#     4  10  20  38  67 102 131 171 216 277 353 399
#     4  12  30  46  64  90 136 188 245 257 314 403
#
# _framework density 22.534586000000001
#
# number of rings (size 3 to 8) (size 9 to 14) (size 15 to 20)
#    0.000    1.231    4.615    0.923    6.462    1.231 
#    2.769    0.000    0.000    0.000    0.000    0.000 
#    0.000    0.000    0.000    0.000    0.000    0.000 
#
# Total GULP energy -72489.940144 kJ/mol
# GULP energy per Si atom -5576.149242 kJ/mol
# Density = 2.248330 g / cm^3
# Si number density = 22.534586 Si / 1000 Ang^3
#
#
#
# Elastic Constant Matrix: (Units=GPa)
#
#
# Indices 1 2 3 4 5 6 
#
# 1 84.2785 16.2351 17.3849 0.0000 25.3985 0.0000
# 2 16.2351 157.9258 15.9849 0.0000 13.9116 0.0000
# 3 17.3849 15.9849 26.7970 0.0000 19.8458 0.0000
# 4 0.0000 0.0000 0.0000 -12.2763 0.0000 -1.8370
# 5 25.3985 13.9116 19.8458 0.0000 43.1624 0.0000
# 6 0.0000 0.0000 0.0000 -1.8370 0.0000 16.5420
#
#
#
# Elastic Compliance Matrix: (Units=1/GPa)
#
#
# Indices 1 2 3 4 5 6 
#
# 1 0.014853 -0.000496 -0.004527 0.000000 -0.006499 0.000000
# 2 -0.000496 0.006762 -0.003509 0.000000 -0.000274 0.000000
# 3 -0.004527 -0.003509 0.059953 0.000000 -0.023771 0.000000
# 4 0.000000 0.000000 0.000000 -0.080127 0.000000 -0.008898
# 5 -0.006499 -0.000274 -0.023771 0.000000 0.038010 0.000000
# 6 0.000000 0.000000 0.000000 -0.008898 0.000000 0.059464
#
#
# Mechanical properties :
#
#
# Convention : Reuss Voigt Hill
#
# Bulk Modulus (GPa) = 15.50307 40.91234 28.20771
# Shear Modulus (GPa) = 36.36824 24.11204 30.24014
#
# Velocity S-wave (km/s) = 4.02168 3.27464 3.66723
# Velocity P-wave (km/s) = 5.33477 5.70021 5.52052
#
# Compressibility (1/GPa) = 0.06450335
#
# Stress axis : x y z
#
# Youngs Moduli (GPa) = 67.32464 147.87611 16.67986
#
# Poissons Ratio (x) = 0.07338 0.07552
# Poissons Ratio (y) = 0.03341 0.05853
# Poissons Ratio (z) = 0.30480 0.51888
#
# Static dielectric constant tensor:
#      x y z
#    x 1.863040 0.000000 -0.011820 
#    y 0.000000 2.048810 0.000000 
#    z -0.011820 0.000000 1.854850 
# 
# From -- ./inp_files/8342.got.cif
#   From: 2010.05.17/outbox.cif.g08.bks.cpg/sg8_5_cif.got.tgz:8342.got - 2010.06.03 19:46:02.
