data_PCOD9132678
_publ_section_title
;
Structure prediction by ZEFSAII (Michael W. Deem and Ramdas Pophale) SiO2 
 PCOD9132678
Probable space group: C M
;
_chemical_formula_sum "Si O2"
_cell_formula_units_Z 32
_cell_length_a 9.094871
_cell_length_b 27.492894
_cell_length_c 5.897583
_cell_angle_alpha 90.000000
_cell_angle_beta 84.308438
_cell_angle_gamma 90.000000
_cell_volume 1467.387371
_symmetry_space_group_name_H-M "C M"
_symmetry_group_IT_number 8
_symmetry_cell_setting 'monoclinic'
loop_
_space_group_symop_operation_xyz
x,y,z
x,-y,z
1/2+x,1/2+y,z
1/2+x,1/2-y,z
loop_
_atom_site_type_symbol
_atom_site_label
_atom_site_fract_x
_atom_site_fract_y
_atom_site_fract_z
Si Si1 0.174670 0.116209 0.646990
Si Si2 0.093203 0.624121 0.934672
Si Si3 0.374408 0.816158 0.290814
Si Si4 0.848976 0.863942 0.562853
Si Si5 0.420170 0.052664 0.658733
Si Si6 0.920776 0.761272 0.628519
Si Si7 0.668479 0.291598 0.928861
Si Si8 0.685729 0.944829 0.288046
O O1 0.276398 0.144901 0.446788
O O2 0.249299 0.063909 0.653281
O O3 0.003306 0.113058 0.615014
O O4 0.178969 0.151035 0.866928
O O5 0.168324 0.578013 0.045442
O O6 0.998466 0.658528 0.113487
O O7 0.226956 0.647495 0.774968
O O8 0.977634 0.599016 0.785889
O O9 0.466123 0.781570 0.448799
O O10 0.249124 0.787931 0.160235
O O11 0.898854 0.809864 0.482255
O O12 0.774064 0.903353 0.411419
O O13 0.521101 0.053045 0.419821
O O14 0.444466 0.000000 0.765321
O O15 0.771393 0.738763 0.744907
O O16 0.012171 0.774825 0.843636
O O17 0.744944 0.000000 0.288224
#
# Coordination Sequence:
#
# PCOD9132678 Si02
#       8
#     4   4   4   4   4   4   4   4
#     4  10  21  43  61  93 130 172 213 272 338 394
#     4  11  22  40  70  95 125 175 227 272 332 396
#     4  11  23  41  73  89 131 178 229 276 327 404
#     4  10  25  42  63  92 140 167 212 278 341 389
#     4  10  20  38  67  98 131 168 218 276 329 395
#     4  10  25  41  61  98 131 173 224 270 336 398
#     4  10  23  40  63  89 131 167 224 272 321 391
#     4  10  22  41  67  98 130 172 224 272 330 407
#
# _framework density 21.807469000000001
#
# number of rings (size 3 to 8) (size 9 to 14) (size 15 to 20)
#    0.000    1.750    2.500    0.375    3.500    7.000 
#    0.000    0.000    0.000    0.000    0.000    0.000 
#    0.000    0.000    0.000    0.000    0.000    0.000 
#
# Total GULP energy -89145.789954 kJ/mol
# GULP energy per Si atom -5571.611872 kJ/mol
# Density = 2.175783 g / cm^3
# Si number density = 21.807469 Si / 1000 Ang^3
#
#
#
# Elastic Constant Matrix: (Units=GPa)
#
#
# Indices 1 2 3 4 5 6 
#
# 1 93.6238 13.8188 -1.4235 0.0000 1.4150 0.0000
# 2 13.8188 68.3052 4.2120 0.0000 1.2598 0.0000
# 3 -1.4235 4.2120 40.5715 0.0000 6.2139 0.0000
# 4 0.0000 0.0000 0.0000 24.7997 0.0000 -1.4927
# 5 1.4150 1.2598 6.2139 0.0000 20.8843 0.0000
# 6 0.0000 0.0000 0.0000 -1.4927 0.0000 20.6672
#
#
#
# Elastic Compliance Matrix: (Units=1/GPa)
#
#
# Indices 1 2 3 4 5 6 
#
# 1 0.011039 -0.002264 0.000750 0.000000 -0.000835 0.000000
# 2 -0.002264 0.015203 -0.001614 0.000000 -0.000283 0.000000
# 3 0.000750 -0.001614 0.026020 0.000000 -0.007696 0.000000
# 4 0.000000 0.000000 0.000000 0.040499 0.000000 0.002925
# 5 -0.000835 -0.000283 -0.007696 0.000000 0.050246 0.000000
# 6 0.000000 0.000000 0.000000 0.002925 0.000000 0.048597
#
#
# Mechanical properties :
#
#
# Convention : Reuss Voigt Hill
#
# Bulk Modulus (GPa) = 21.73632 26.19055 23.96344
# Shear Modulus (GPa) = 23.45245 25.66311 24.55778
#
# Velocity S-wave (km/s) = 3.28294 3.43418 3.35941
# Velocity P-wave (km/s) = 4.93551 5.26885 5.10490
#
# Compressibility (1/GPa) = 0.04600594
#
# Stress axis : x y z
#
# Youngs Moduli (GPa) = 90.58575 65.77645 38.43138
#
# Poissons Ratio (x) = 0.14893 -0.02883
# Poissons Ratio (y) = 0.20511 0.06204
# Poissons Ratio (z) = -0.06796 0.10619
#
# Static dielectric constant tensor:
#      x y z
#    x 1.842660 0.000000 0.037060 
#    y 0.000000 1.826590 0.000000 
#    z 0.037060 0.000000 1.848260 
# 
# From -- ./inp_files/2008.got.cif
#   From: 2010.05.17/outbox.cif.g08.bks.cpg/sg8_2_cif.got.tgz:2008.got - 2010.06.03 19:46:02.
