data_PCOD9132455
_publ_section_title
;
Structure prediction by ZEFSAII (Michael W. Deem and Ramdas Pophale) SiO2 
 PCOD9132455
Probable space group: C M
;
_chemical_formula_sum "Si O2"
_cell_formula_units_Z 26
_cell_length_a 19.244220
_cell_length_b 7.420455
_cell_length_c 6.987928
_cell_angle_alpha 90.000000
_cell_angle_beta 106.621084
_cell_angle_gamma 90.000000
_cell_volume 956.188056
_symmetry_space_group_name_H-M "C M"
_symmetry_group_IT_number 8
_symmetry_cell_setting 'monoclinic'
loop_
_space_group_symop_operation_xyz
x,y,z
x,-y,z
1/2+x,1/2+y,z
1/2+x,1/2-y,z
loop_
_atom_site_type_symbol
_atom_site_label
_atom_site_fract_x
_atom_site_fract_y
_atom_site_fract_z
Si Si1 0.649090 0.212108 0.418470
Si Si2 0.211368 0.000000 0.886212
Si Si3 0.300809 0.288212 0.585966
Si Si4 0.455547 0.796082 0.741133
Si Si5 0.111581 0.285215 0.968986
Si Si6 0.828268 0.781889 0.150944
Si Si7 0.485438 0.697782 0.349733
O O1 0.721905 0.297661 0.567835
O O2 0.647540 0.272279 0.196526
O O3 0.565796 0.223027 0.414279
O O4 0.664947 0.000000 0.429873
O O5 0.145709 0.157844 0.838465
O O6 0.271996 0.159856 0.992347
O O7 0.302305 0.500000 0.628829
O O8 0.373226 0.217797 0.743303
O O9 0.310576 0.261546 0.364864
O O10 0.463867 0.684075 0.555257
O O11 0.466164 0.000000 0.682516
O O12 0.525056 0.757820 0.925079
O O13 0.124271 0.500000 0.946328
O O14 0.912815 0.722174 0.198326
O O15 0.822602 0.000000 0.107773
O O16 0.493652 0.500000 0.271457
#
# Coordination Sequence:
#
# PCOD9132455 Si02
#       7
#     4   2   4   4   4   4   4
#     4  10  20  36  58  83 116 149 189 240 285 330
#     4  12  20  30  66  80 112 152 192 228 294 338
#     4   9  18  33  55  81 112 145 189 240 273 330
#     4  10  21  37  59  81 115 152 187 231 289 340
#     4  10  23  38  56  91 118 145 191 242 282 339
#     4   9  19  34  51  85 114 142 191 242 275 330
#     4  10  22  35  56  85 118 147 190 240 281 341
#
# _framework density 27.191303999999999
#
# number of rings (size 3 to 8) (size 9 to 14) (size 15 to 20)
#    0.000    2.154    1.538    2.308    8.615    0.615 
#    0.000    0.000    3.385    0.000    0.000    0.000 
#    0.000    0.000    0.000    0.000    0.000    0.000 
#
# Total GULP energy -72449.160734 kJ/mol
# GULP energy per Si atom -5573.012364 kJ/mol
# Density = 2.712942 g / cm^3
# Si number density = 27.191304 Si / 1000 Ang^3
#
#
#
# Elastic Constant Matrix: (Units=GPa)
#
#
# Indices 1 2 3 4 5 6 
#
# 1 217.5473 31.8569 62.4172 0.0000 44.4165 0.0000
# 2 31.8569 120.0111 3.5025 0.0000 20.5542 0.0000
# 3 62.4172 3.5025 103.1157 0.0000 37.0945 0.0000
# 4 0.0000 0.0000 0.0000 -22.6523 0.0000 12.5234
# 5 44.4165 20.5542 37.0945 0.0000 66.6095 0.0000
# 6 0.0000 0.0000 0.0000 12.5234 0.0000 12.0802
#
#
#
# Elastic Compliance Matrix: (Units=1/GPa)
#
#
# Indices 1 2 3 4 5 6 
#
# 1 0.006006 -0.001159 -0.002856 0.000000 -0.002057 0.000000
# 2 -0.001159 0.009081 0.001404 0.000000 -0.002812 0.000000
# 3 -0.002856 0.001404 0.013568 0.000000 -0.006085 0.000000
# 4 0.000000 0.000000 0.000000 -0.028062 0.000000 0.029092
# 5 -0.002057 -0.002812 -0.006085 0.000000 0.020640 0.000000
# 6 0.000000 0.000000 0.000000 0.029092 0.000000 0.052621
#
#
# Mechanical properties :
#
#
# Convention : Reuss Voigt Hill
#
# Bulk Modulus (GPa) = 42.67414 70.69192 56.68303
# Shear Modulus (GPa) = 57.54688 34.06731 45.80710
#
# Velocity S-wave (km/s) = 4.60539 3.54344 4.10887
# Velocity P-wave (km/s) = 6.63383 6.54184 6.58799
#
# Compressibility (1/GPa) = 0.02343340
#
# Stress axis : x y z
#
# Youngs Moduli (GPa) = 166.50754 110.12406 73.70336
#
# Poissons Ratio (x) = 0.12759 0.21051
# Poissons Ratio (y) = 0.19292 -0.10350
# Poissons Ratio (z) = 0.47557 -0.15465
#
# Static dielectric constant tensor:
#      x y z
#    x 2.193560 0.000000 -0.033070 
#    y 0.000000 2.064550 0.000000 
#    z -0.033070 0.000000 2.187030 
# 
# From -- ./inp_files/15677.got.cif
#   From: 2010.05.17/outbox.cif.g08.bks.cpg/sg8_8_cif.got.tgz:15677.got - 2010.06.03 19:46:02.
