data_PCOD9132328
_publ_section_title
;
Structure prediction by ZEFSAII (Michael W. Deem and Ramdas Pophale) SiO2 
 PCOD9132328
Probable space group: C M
;
_chemical_formula_sum "Si O2"
_cell_formula_units_Z 32
_cell_length_a 25.248554
_cell_length_b 8.778244
_cell_length_c 14.726483
_cell_angle_alpha 90.000000
_cell_angle_beta 149.536067
_cell_angle_gamma 90.000000
_cell_volume 1654.808060
_symmetry_space_group_name_H-M "C M"
_symmetry_group_IT_number 8
_symmetry_cell_setting 'monoclinic'
loop_
_space_group_symop_operation_xyz
x,y,z
x,-y,z
1/2+x,1/2+y,z
1/2+x,1/2-y,z
loop_
_atom_site_type_symbol
_atom_site_label
_atom_site_fract_x
_atom_site_fract_y
_atom_site_fract_z
Si Si1 0.309720 0.674566 0.047810
Si Si2 0.755401 0.318391 0.320757
Si Si3 0.680649 0.815888 0.022740
Si Si4 0.711325 0.816107 0.631778
Si Si5 0.908080 0.681037 0.026150
Si Si6 0.644400 0.815799 0.332450
Si Si7 0.981550 0.818977 0.624222
Si Si8 0.585209 0.175576 0.611310
O O1 0.345937 0.500000 0.105977
O O2 0.277753 0.729866 0.100539
O O3 0.386406 0.769672 0.097986
O O4 0.197713 0.674377 0.829416
O O5 0.752350 0.500000 0.308800
O O6 0.699589 0.242989 0.151353
O O7 0.699517 0.263175 0.329678
O O8 0.874230 0.259563 0.494270
O O9 0.674325 0.000000 0.010213
O O10 0.576222 0.745474 0.825187
O O11 0.695755 0.773009 0.504729
O O12 0.615588 0.767367 0.556068
O O13 0.712468 0.000000 0.639399
O O14 0.818048 0.754336 0.831619
O O15 0.899513 0.500000 0.008418
O O16 0.022498 0.725604 0.161207
O O17 0.651660 0.000000 0.333503
O O18 0.009993 0.774838 0.562426
O O19 0.973731 0.000000 0.621674
O O20 0.548244 0.000000 0.553629
#
# Coordination Sequence:
#
# PCOD9132328 Si02
#       8
#     4   4   4   4   4   4   4   4
#     4   8  16  32  56  85 117 149 182 224 280 341
#     4  12  26  42  60  84 113 152 200 247 291 342
#     4  10  21  40  63  88 119 154 191 238 290 343
#     4   9  19  37  60  82 112 153 189 226 281 341
#     4  10  20  34  57  87 117 147 183 232 286 335
#     4  10  23  42  58  78 111 151 194 240 286 338
#     4  11  22  38  61  89 120 155 191 235 290 347
#     4   8  15  31  55  85 117 149 186 230 280 339
#
# _framework density 19.337589999999999
#
# number of rings (size 3 to 8) (size 9 to 14) (size 15 to 20)
#    0.000    2.250    0.000    4.500    0.000    8.500 
#    0.000    3.750    0.000    0.000    0.000    0.000 
#    0.000    0.000    0.000    0.000    0.000    0.000 
#
# Total GULP energy -89361.337855 kJ/mol
# GULP energy per Si atom -5585.083616 kJ/mol
# Density = 1.929358 g / cm^3
# Si number density = 19.337590 Si / 1000 Ang^3
#
#
#
# Elastic Constant Matrix: (Units=GPa)
#
#
# Indices 1 2 3 4 5 6 
#
# 1 185.3797 52.1534 66.3949 0.0000 -4.8246 0.0000
# 2 52.1534 59.6724 25.0190 0.0000 0.8111 0.0000
# 3 66.3949 25.0190 87.6343 0.0000 -1.7421 0.0000
# 4 0.0000 0.0000 0.0000 9.0700 0.0000 12.5318
# 5 -4.8246 0.8111 -1.7421 0.0000 31.9559 0.0000
# 6 0.0000 0.0000 0.0000 12.5318 0.0000 29.5604
#
#
#
# Elastic Compliance Matrix: (Units=1/GPa)
#
#
# Indices 1 2 3 4 5 6 
#
# 1 0.008810 -0.005598 -0.005053 0.000000 0.001197 0.000000
# 2 -0.005598 0.022613 -0.002246 0.000000 -0.001542 0.000000
# 3 -0.005053 -0.002246 0.015884 0.000000 0.000160 0.000000
# 4 0.000000 0.000000 0.000000 0.266150 0.000000 -0.112831
# 5 0.001197 -0.001542 0.000160 0.000000 0.031522 0.000000
# 6 0.000000 0.000000 0.000000 -0.112831 0.000000 0.081662
#
#
# Mechanical properties :
#
#
# Convention : Reuss Voigt Hill
#
# Bulk Modulus (GPa) = 46.48052 68.86902 57.67477
# Shear Modulus (GPa) = 10.87892 26.72520 18.80206
#
# Velocity S-wave (km/s) = 2.37445 3.72160 3.12157
# Velocity P-wave (km/s) = 5.62191 7.35925 6.54845
#
# Compressibility (1/GPa) = 0.02151439
#
# Stress axis : x y z
#
# Youngs Moduli (GPa) = 113.50735 44.22255 62.95808
#
# Poissons Ratio (x) = 0.24754 0.31812
# Poissons Ratio (y) = 0.63537 0.14137
# Poissons Ratio (z) = 0.57354 0.09930
#
# Static dielectric constant tensor:
#      x y z
#    x 1.674870 0.000000 -0.013600 
#    y 0.000000 1.644670 0.000000 
#    z -0.013600 0.000000 1.684060 
# 
# From -- ./inp_files/28215.got.cif
#   From: 2010.05.17/outbox.cif.g08.bks.cpg/sg8_15_cif.got.tgz:28215.got - 2010.06.03 19:46:02.
