data_PCOD9132422
_publ_section_title
;
Structure prediction by ZEFSAII (Michael W. Deem and Ramdas Pophale) SiO2 
 PCOD9132422
Probable space group: C M
;
_chemical_formula_sum "Si O2"
_cell_formula_units_Z 32
_cell_length_a 15.547930
_cell_length_b 8.888715
_cell_length_c 23.140854
_cell_angle_alpha 90.000000
_cell_angle_beta 31.293149
_cell_angle_gamma 90.000000
_cell_volume 1661.143108
_symmetry_space_group_name_H-M "C M"
_symmetry_group_IT_number 8
_symmetry_cell_setting 'monoclinic'
loop_
_space_group_symop_operation_xyz
x,y,z
x,-y,z
1/2+x,1/2+y,z
1/2+x,1/2-y,z
loop_
_atom_site_type_symbol
_atom_site_label
_atom_site_fract_x
_atom_site_fract_y
_atom_site_fract_z
Si Si1 0.496180 0.679763 0.165920
Si Si2 0.315470 0.318595 0.039142
Si Si3 0.030560 0.679483 0.019327
Si Si4 0.326434 0.678223 0.765639
Si Si5 0.208428 0.820854 0.531550
Si Si6 0.194408 0.818519 0.405786
Si Si7 0.114937 0.177684 0.786441
Si Si8 0.333523 0.678218 0.568236
O O1 0.508167 0.500000 0.158631
O O2 0.638597 0.749994 0.125084
O O3 0.516506 0.744223 0.089557
O O4 0.321472 0.734757 0.291534
O O5 0.307316 0.500000 0.049260
O O6 0.402435 0.249455 0.046164
O O7 0.436842 0.281463 0.915300
O O8 0.003031 0.500000 0.039764
O O9 0.214246 0.701778 0.886620
O O10 0.313913 0.500000 0.757586
O O11 0.519219 0.714539 0.658418
O O12 0.242834 0.773243 0.762912
O O13 0.229938 0.782214 0.452198
O O14 0.328336 0.736513 0.506107
O O15 0.230394 0.000000 0.525153
O O16 0.005304 0.776952 0.499927
O O17 0.210255 0.000000 0.389645
O O18 0.178722 0.255579 0.692219
O O19 0.117480 0.000000 0.776042
O O20 0.323200 0.500000 0.575834
#
# Coordination Sequence:
#
# PCOD9132422 Si02
#       8
#     4   4   4   4   4   4   4   4
#     4  12  26  42  64  92 124 165 213 259 307 369
#     4  10  22  41  63  91 126 165 208 255 310 368
#     4  10  21  39  64  93 127 164 205 255 309 367
#     4   9  18  36  61  89 125 162 198 246 307 365
#     4  10  21  39  62  90 122 160 203 249 306 366
#     4  10  23  45  65  83 121 167 207 256 310 364
#     4  10  20  35  60  91 126 162 200 249 304 364
#     4  11  23  39  61  91 123 161 204 251 305 365
#
# _framework density 19.263842
#
# number of rings (size 3 to 8) (size 9 to 14) (size 15 to 20)
#    0.000    1.750    1.250    2.625    1.750    5.000 
#    0.000    2.500    0.000    0.000    0.000    0.000 
#    0.000    0.000    0.000    0.000    0.000    0.000 
#
# Total GULP energy -89399.918296 kJ/mol
# GULP energy per Si atom -5587.494893 kJ/mol
# Density = 1.922000 g / cm^3
# Si number density = 19.263842 Si / 1000 Ang^3
#
#
#
# Elastic Constant Matrix: (Units=GPa)
#
#
# Indices 1 2 3 4 5 6 
#
# 1 55.3442 20.5272 11.0029 0.0000 18.2855 0.0000
# 2 20.5272 48.6358 30.6494 -0.0002 9.3762 0.0000
# 3 11.0029 30.6494 58.0340 -0.0002 16.1328 0.0000
# 4 0.0000 -0.0002 -0.0002 23.7508 0.0001 2.1541
# 5 18.2855 9.3762 16.1328 0.0001 20.0325 0.0000
# 6 0.0000 0.0000 0.0000 2.1541 0.0000 35.2809
#
#
#
# Elastic Compliance Matrix: (Units=1/GPa)
#
#
# Indices 1 2 3 4 5 6 
#
# 1 0.030863 -0.013219 0.009330 0.000000 -0.029498 0.000000
# 2 -0.013219 0.036524 -0.019823 0.000000 0.010935 0.000000
# 3 0.009330 -0.019823 0.033138 0.000000 -0.025926 0.000000
# 4 0.000000 0.000000 0.000000 0.042338 0.000000 -0.002585
# 5 -0.029498 0.010935 -0.025926 0.000000 0.092605 0.000000
# 6 0.000000 0.000000 0.000000 -0.002585 0.000000 0.028502
#
#
# Mechanical properties :
#
#
# Convention : Reuss Voigt Hill
#
# Bulk Modulus (GPa) = 18.83183 31.81924 25.32553
# Shear Modulus (GPa) = 15.19322 22.46846 18.83084
#
# Velocity S-wave (km/s) = 2.81141 3.41890 3.12993
# Velocity P-wave (km/s) = 4.50951 5.66909 5.12222
#
# Compressibility (1/GPa) = 0.05310159
#
# Stress axis : x y z
#
# Youngs Moduli (GPa) = 32.40163 27.37926 30.17639
#
# Poissons Ratio (x) = 0.36192 -0.28154
# Poissons Ratio (y) = 0.42830 0.59819
# Poissons Ratio (z) = -0.30230 0.54274
#
# Static dielectric constant tensor:
#      x y z
#    x 1.659690 0.000000 0.001130 
#    y 0.000000 1.640590 0.000000 
#    z 0.001130 0.000000 1.664590 
# 
# From -- ./inp_files/31985.got.cif
#   From: 2010.05.17/outbox.cif.g08.bks.cpg/sg8_16_cif.got.tgz:31985.got - 2010.06.03 19:46:02.
