data_PCOD9132419
_publ_section_title
;
Structure prediction by ZEFSAII (Michael W. Deem and Ramdas Pophale) SiO2 
 PCOD9132419
Probable space group: C M
;
_chemical_formula_sum "Si O2"
_cell_formula_units_Z 32
_cell_length_a 15.292819
_cell_length_b 8.671052
_cell_length_c 23.026303
_cell_angle_alpha 90.000000
_cell_angle_beta 31.716796
_cell_angle_gamma 90.000000
_cell_volume 1605.236080
_symmetry_space_group_name_H-M "C M"
_symmetry_group_IT_number 8
_symmetry_cell_setting 'monoclinic'
loop_
_space_group_symop_operation_xyz
x,y,z
x,-y,z
1/2+x,1/2+y,z
1/2+x,1/2-y,z
loop_
_atom_site_type_symbol
_atom_site_label
_atom_site_fract_x
_atom_site_fract_y
_atom_site_fract_z
Si Si1 0.405630 0.185363 0.500000
Si Si2 0.693879 0.817142 0.254078
Si Si3 0.919169 0.680986 0.031982
Si Si4 0.911238 0.317988 0.233979
Si Si5 0.656209 0.813302 0.461831
Si Si6 0.076395 0.685506 0.638168
Si Si7 0.795851 0.819678 0.988976
Si Si8 0.254488 0.817137 0.889547
O O1 0.517644 0.231941 0.380883
O O2 0.510106 0.229048 0.498438
O O3 0.224159 0.254387 0.595431
O O4 0.395634 0.000000 0.505436
O O5 0.761372 0.731006 0.159847
O O6 0.823422 0.779531 0.232711
O O7 0.690986 0.000000 0.244412
O O8 0.914927 0.500000 0.024399
O O9 0.915405 0.769481 0.973238
O O10 0.083618 0.728550 0.974128
O O11 0.877721 0.500000 0.243624
O O12 0.823890 0.263466 0.342515
O O13 0.107860 0.295301 0.118660
O O14 0.610804 0.764756 0.552543
O O15 0.673704 0.000000 0.450120
O O16 0.079677 0.500000 0.636979
O O17 0.897274 0.732589 0.763870
O O18 0.815397 0.722051 0.919746
O O19 0.815577 0.000000 0.964251
O O20 0.224739 0.000000 0.900735
#
# Coordination Sequence:
#
# PCOD9132419 Si02
#       8
#     4   4   4   4   4   4   4   4
#     4   9  20  37  59  88 121 160 202 245 298 360
#     4  10  20  37  61  89 127 165 200 248 311 369
#     4  12  25  40  62  93 124 162 209 256 313 372
#     4  10  20  35  59  91 125 158 203 253 304 363
#     4   9  20  39  59  85 122 163 200 242 305 367
#     4  10  23  41  63  90 120 159 206 251 302 365
#     4  11  24  41  62  91 125 163 209 257 309 369
#     4  11  24  44  65  89 126 166 209 260 310 365
#
# _framework density 19.934764000000001
#
# number of rings (size 3 to 8) (size 9 to 14) (size 15 to 20)
#    0.000    1.750    1.250    3.375    1.750    6.500 
#    0.000    1.250    0.000    0.000    0.000    0.000 
#    0.000    0.000    0.000    0.000    0.000    0.000 
#
# Total GULP energy -89418.830200 kJ/mol
# GULP energy per Si atom -5588.676887 kJ/mol
# Density = 1.988939 g / cm^3
# Si number density = 19.934764 Si / 1000 Ang^3
#
#
#
# Elastic Constant Matrix: (Units=GPa)
#
#
# Indices 1 2 3 4 5 6 
#
# 1 41.6869 -11.4365 -0.4750 0.0000 13.0030 0.0000
# 2 -11.4365 24.5863 16.0606 0.0000 0.3514 0.0000
# 3 -0.4750 16.0606 62.6831 -0.0002 12.8011 0.0000
# 4 0.0000 0.0000 -0.0002 27.8771 0.0000 -2.6857
# 5 13.0030 0.3514 12.8011 0.0000 26.6242 0.0000
# 6 0.0000 0.0000 0.0000 -2.6857 0.0000 25.1757
#
#
#
# Elastic Compliance Matrix: (Units=1/GPa)
#
#
# Indices 1 2 3 4 5 6 
#
# 1 0.033510 0.016189 -0.000563 0.000000 -0.016309 0.000000
# 2 0.016189 0.057537 -0.014249 0.000000 -0.001815 0.000000
# 3 -0.000563 -0.014249 0.021629 0.000000 -0.009936 0.000000
# 4 0.000000 0.000000 0.000000 0.036244 0.000000 0.003866
# 5 -0.016309 -0.001815 -0.009936 0.000000 0.050326 0.000000
# 6 0.000000 0.000000 0.000000 0.003866 0.000000 0.040133
#
#
# Mechanical properties :
#
#
# Convention : Reuss Voigt Hill
#
# Bulk Modulus (GPa) = 8.66332 15.25050 11.95691
# Shear Modulus (GPa) = 18.17498 24.25589 21.21543
#
# Velocity S-wave (km/s) = 3.02275 3.49200 3.26581
# Velocity P-wave (km/s) = 4.06669 4.89137 4.49797
#
# Compressibility (1/GPa) = 0.11542919
#
# Stress axis : x y z
#
# Youngs Moduli (GPa) = 29.84167 17.38007 46.23429
#
# Poissons Ratio (x) = -0.28136 0.02605
# Poissons Ratio (y) = -0.48310 0.65879
# Poissons Ratio (z) = 0.01681 0.24765
#
# Static dielectric constant tensor:
#      x y z
#    x 1.693320 0.000000 0.010470 
#    y 0.000000 1.666370 0.000000 
#    z 0.010470 0.000000 1.695620 
# 
# From -- ./inp_files/28202.got.cif
#   From: 2010.05.17/outbox.cif.g08.bks.cpg/sg8_15_cif.got.tgz:28202.got - 2010.06.03 19:46:02.
