data_PCOD9132806
_publ_section_title
;
Structure prediction by ZEFSAII (Michael W. Deem and Ramdas Pophale) SiO2 
 PCOD9132806
Probable space group: C M
;
_chemical_formula_sum "Si O2"
_cell_formula_units_Z 32
_cell_length_a 10.854207
_cell_length_b 28.146398
_cell_length_c 5.339100
_cell_angle_alpha 90.000000
_cell_angle_beta 98.579941
_cell_angle_gamma 90.000000
_cell_volume 1612.876989
_symmetry_space_group_name_H-M "C M"
_symmetry_group_IT_number 8
_symmetry_cell_setting 'monoclinic'
loop_
_space_group_symop_operation_xyz
x,y,z
x,-y,z
1/2+x,1/2+y,z
1/2+x,1/2-y,z
loop_
_atom_site_type_symbol
_atom_site_label
_atom_site_fract_x
_atom_site_fract_y
_atom_site_fract_z
Si Si1 0.899010 0.355069 0.215910
Si Si2 0.048669 0.800960 0.299117
Si Si3 0.724979 0.054627 0.802417
Si Si4 0.559407 0.946070 0.254369
Si Si5 0.110121 0.287343 0.049338
Si Si6 0.260063 0.826537 0.685182
Si Si7 0.904590 0.240110 0.634679
Si Si8 0.346792 0.346794 0.922067
O O1 0.843794 0.344136 0.474079
O O2 0.950496 0.408162 0.229439
O O3 0.017111 0.322008 0.176929
O O4 0.798536 0.348582 0.961030
O O5 0.141218 0.762727 0.197664
O O6 0.119896 0.827251 0.543927
O O7 0.940219 0.765046 0.358489
O O8 0.974627 0.838317 0.111878
O O9 0.634438 0.058422 0.016430
O O10 0.818839 0.098564 0.859395
O O11 0.774017 0.000000 0.815616
O O12 0.649578 0.061772 0.520685
O O13 0.513118 0.000000 0.258205
O O14 0.226326 0.320762 0.012248
O O15 0.024143 0.265842 0.798795
O O16 0.293743 0.771085 0.706915
O O17 0.870992 0.186267 0.690863
#
# Coordination Sequence:
#
# PCOD9132806 Si02
#       8
#     4   4   4   4   4   4   4   4
#     4  11  22  39  61  88 117 159 191 247 309 354
#     4  11  23  37  54  83 123 169 206 245 279 366
#     4  10  22  39  62  94 124 151 194 257 314 366
#     4  10  21  39  64  93 121 147 192 257 318 368
#     4  10  21  35  55  86 120 155 202 244 303 353
#     4  11  24  38  58  84 123 162 204 242 289 357
#     4  10  22  35  55  84 118 165 203 249 295 350
#     4  11  23  36  61  86 120 168 198 253 303 364
#
# _framework density 19.840323000000001
#
# number of rings (size 3 to 8) (size 9 to 14) (size 15 to 20)
#    0.000    1.500    2.500    2.250   10.500    1.000 
#    0.000    0.000    0.000    1.500    0.000    0.000 
#    0.000    0.000    0.000    0.000    0.000    0.000 
#
# Total GULP energy -89210.509962 kJ/mol
# GULP energy per Si atom -5575.656873 kJ/mol
# Density = 1.979517 g / cm^3
# Si number density = 19.840323 Si / 1000 Ang^3
#
#
#
# Elastic Constant Matrix: (Units=GPa)
#
#
# Indices 1 2 3 4 5 6 
#
# 1 61.7283 27.2647 3.5732 0.0000 -3.1879 0.0000
# 2 27.2647 135.0400 25.0006 0.0000 14.7605 0.0000
# 3 3.5732 25.0006 74.4082 0.0000 0.9464 0.0000
# 4 0.0000 0.0000 0.0000 14.0726 0.0000 7.4921
# 5 -3.1879 14.7605 0.9464 0.0000 27.4886 0.0000
# 6 0.0000 0.0000 0.0000 7.4921 0.0000 30.2688
#
#
#
# Elastic Compliance Matrix: (Units=1/GPa)
#
#
# Indices 1 2 3 4 5 6 
#
# 1 0.018281 -0.004263 0.000499 0.000000 0.004392 0.000000
# 2 -0.004263 0.009394 -0.002882 0.000000 -0.005440 0.000000
# 3 0.000499 -0.002882 0.014370 0.000000 0.001111 0.000000
# 4 0.000000 0.000000 0.000000 0.081845 0.000000 -0.020258
# 5 0.004392 -0.005440 0.001111 0.000000 0.039771 0.000000
# 6 0.000000 0.000000 0.000000 -0.020258 0.000000 0.038052
#
#
# Mechanical properties :
#
#
# Convention : Reuss Voigt Hill
#
# Bulk Modulus (GPa) = 34.78163 42.53927 38.66045
# Shear Modulus (GPa) = 22.26275 28.72188 25.49231
#
# Velocity S-wave (km/s) = 3.35340 3.80893 3.58840
# Velocity P-wave (km/s) = 5.70636 6.38994 6.05780
#
# Compressibility (1/GPa) = 0.02875081
#
# Stress axis : x y z
#
# Youngs Moduli (GPa) = 54.70142 106.44854 69.59044
#
# Poissons Ratio (x) = 0.45383 -0.03471
# Poissons Ratio (y) = 0.23321 0.20059
# Poissons Ratio (z) = -0.02728 0.30683
#
# Static dielectric constant tensor:
#      x y z
#    x 1.766210 0.000000 -0.013720 
#    y 0.000000 1.692790 0.000000 
#    z -0.013720 0.000000 1.780930 
# 
# From -- ./inp_files/3155.got.cif
#   From: 2010.05.17/outbox.cif.g08.bks.cpg/sg8_2_cif.got.tgz:3155.got - 2010.06.03 19:46:02.
