data_PCOD9132428
_publ_section_title
;
Structure prediction by ZEFSAII (Michael W. Deem and Ramdas Pophale) SiO2 
 PCOD9132428
Probable space group: C M
;
_chemical_formula_sum "Si O2"
_cell_formula_units_Z 32
_cell_length_a 10.563088
_cell_length_b 16.138891
_cell_length_c 14.294025
_cell_angle_alpha 90.000000
_cell_angle_beta 148.725061
_cell_angle_gamma 90.000000
_cell_volume 1265.051106
_symmetry_space_group_name_H-M "C M"
_symmetry_group_IT_number 8
_symmetry_cell_setting 'monoclinic'
loop_
_space_group_symop_operation_xyz
x,y,z
x,-y,z
1/2+x,1/2+y,z
1/2+x,1/2-y,z
loop_
_atom_site_type_symbol
_atom_site_label
_atom_site_fract_x
_atom_site_fract_y
_atom_site_fract_z
Si Si1 0.385000 0.148181 0.848450
Si Si2 0.513993 0.133629 0.121525
Si Si3 0.394574 0.095013 0.649951
Si Si4 0.866495 0.178558 0.989271
Si Si5 0.846653 0.821568 0.488395
Si Si6 0.587107 0.406463 0.284603
Si Si7 0.012380 0.154776 0.894997
Si Si8 0.043040 0.332338 0.484485
O O1 0.347916 0.097644 0.729980
O O2 0.481027 0.242841 0.883413
O O3 0.098965 0.155569 0.698887
O O4 0.526822 0.103772 0.023112
O O5 0.481494 0.232403 0.078826
O O6 0.720710 0.119936 0.329508
O O7 0.252810 0.117766 0.002123
O O8 0.176873 0.120300 0.443751
O O9 0.466534 0.000000 0.669366
O O10 0.602126 0.165666 0.775834
O O11 0.874286 0.139192 0.095910
O O12 0.016856 0.129993 0.006056
O O13 0.641115 0.811939 0.441328
O O14 0.939095 0.746499 0.478345
O O15 0.517325 0.500000 0.248138
O O16 0.820351 0.394469 0.363324
O O17 0.775963 0.131679 0.686620
#
# Coordination Sequence:
#
# PCOD9132428 Si02
#       8
#     4   4   4   4   4   4   4   4
#     4  10  23  37  57  90 124 163 204 256 310 374
#     4  11  21  36  60  96 123 161 191 257 323 376
#     4  11  24  42  63  88 126 171 213 259 308 370
#     4  11  21  37  61  91 124 157 204 256 307 372
#     4  11  24  36  64  93 131 161 202 262 324 368
#     4  11  24  41  63  89 125 171 218 257 301 373
#     4  10  20  35  61  88 125 152 198 258 317 367
#     4  11  22  40  61  95 125 168 204 259 320 374
#
# _framework density 25.295423
#
# number of rings (size 3 to 8) (size 9 to 14) (size 15 to 20)
#    0.000    1.250    5.000    1.125    5.250    1.000 
#    0.000    0.625    0.000    3.750    0.000    0.000 
#    0.000    0.000    0.000    0.000    0.000    0.000 
#
# Total GULP energy -89187.037330 kJ/mol
# GULP energy per Si atom -5574.189833 kJ/mol
# Density = 2.523785 g / cm^3
# Si number density = 25.295423 Si / 1000 Ang^3
#
#
#
# Elastic Constant Matrix: (Units=GPa)
#
#
# Indices 1 2 3 4 5 6 
#
# 1 144.7530 -3.8856 4.4656 0.0038 -27.0248 0.0009
# 2 -3.8856 29.9930 17.0164 0.0039 -13.3266 0.0013
# 3 4.4656 17.0164 122.6981 0.0097 -32.7546 0.0047
# 4 0.0038 0.0039 0.0097 9.9598 0.0055 -4.9379
# 5 -27.0248 -13.3266 -32.7546 0.0055 50.4622 0.0010
# 6 0.0009 0.0013 0.0047 -4.9379 0.0010 8.3379
#
#
#
# Elastic Compliance Matrix: (Units=1/GPa)
#
#
# Indices 1 2 3 4 5 6 
#
# 1 0.008015 0.003091 0.000778 -0.000013 0.005614 -0.000010
# 2 0.003091 0.039977 -0.002899 -0.000032 0.010332 -0.000025
# 3 0.000778 -0.002899 0.010198 -0.000022 0.006271 -0.000019
# 4 -0.000013 -0.000032 -0.000022 0.142138 -0.000047 0.084177
# 5 0.005614 0.010332 0.006271 -0.000047 0.029622 -0.000037
# 6 -0.000010 -0.000025 -0.000019 0.084177 -0.000037 0.169785
#
#
# Mechanical properties :
#
#
# Convention : Reuss Voigt Hill
#
# Bulk Modulus (GPa) = 16.63010 36.95965 26.79487
# Shear Modulus (GPa) = 11.96641 32.40849 22.18745
#
# Velocity S-wave (km/s) = 2.17737 3.58327 2.96486
# Velocity P-wave (km/s) = 3.59303 5.63584 4.72613
#
# Compressibility (1/GPa) = 0.06013194
#
# Stress axis : x y z
#
# Youngs Moduli (GPa) = 124.75905 25.01457 98.06141
#
# Poissons Ratio (x) = -0.07733 -0.07632
# Poissons Ratio (y) = -0.38568 0.28424
# Poissons Ratio (z) = -0.09710 0.07251
#
# Static dielectric constant tensor:
#      x y z
#    x 2.165170 0.000000 0.002670 
#    y 0.000000 2.040770 0.000000 
#    z 0.002670 0.000000 2.016380 
# 
# From -- ./inp_files/26287.got.cif
#   From: 2010.05.17/outbox.cif.g08.bks.cpg/sg8_14_cif.got.tgz:26287.got - 2010.06.03 19:46:02.
