data_PCOD9132444
_publ_section_title
;
Structure prediction by ZEFSAII (Michael W. Deem and Ramdas Pophale) SiO2 
 PCOD9132444
Probable space group: C M
;
_chemical_formula_sum "Si O2"
_cell_formula_units_Z 32
_cell_length_a 14.441944
_cell_length_b 9.043454
_cell_length_c 28.466645
_cell_angle_alpha 90.000000
_cell_angle_beta 152.595908
_cell_angle_gamma 90.000000
_cell_volume 1711.206887
_symmetry_space_group_name_H-M "C M"
_symmetry_group_IT_number 8
_symmetry_cell_setting 'monoclinic'
loop_
_space_group_symop_operation_xyz
x,y,z
x,-y,z
1/2+x,1/2+y,z
1/2+x,1/2-y,z
loop_
_atom_site_type_symbol
_atom_site_label
_atom_site_fract_x
_atom_site_fract_y
_atom_site_fract_z
Si Si1 0.323140 0.323988 0.189080
Si Si2 0.507401 0.177562 0.179841
Si Si3 0.620816 0.172709 0.825459
Si Si4 0.370006 0.669130 0.557189
Si Si5 0.750682 0.175105 0.699382
Si Si6 0.964018 0.173945 0.356823
Si Si7 0.227359 0.169863 0.782942
Si Si8 0.420831 0.326174 0.045435
O O1 0.298218 0.500000 0.170895
O O2 0.424519 0.249320 0.189871
O O3 0.449462 0.302791 0.294043
O O4 0.109854 0.248942 0.104514
O O5 0.744809 0.211878 0.279021
O O6 0.396988 0.244773 0.084443
O O7 0.485659 0.000000 0.170697
O O8 0.402002 0.244605 0.732525
O O9 0.743953 0.258958 0.841033
O O10 0.606068 0.000000 0.806495
O O11 0.734943 0.186042 0.926334
O O12 0.366595 0.500000 0.539082
O O13 0.521412 0.765677 0.593069
O O14 0.490876 0.669798 0.661026
O O15 0.149422 0.734601 0.460206
O O16 0.816178 0.230527 0.781194
O O17 0.760595 0.000000 0.699798
O O18 0.997684 0.000000 0.380418
O O19 0.298630 0.000000 0.812636
O O20 0.461099 0.500000 0.071732
#
# Coordination Sequence:
#
# PCOD9132444 Si02
#       8
#     4   4   4   4   4   4   4   4
#     4  10  21  38  59  85 114 146 185 229 277 332
#     4  10  21  38  59  85 114 146 186 228 276 334
#     4  11  22  37  58  84 111 147 190 230 278 332
#     4   9  19  36  57  82 113 148 185 229 278 326
#     4  10  20  36  57  79 110 148 185 229 275 323
#     4   9  19  36  57  82 112 147 186 228 277 329
#     4   9  20  37  55  80 111 145 186 228 274 325
#     4  10  22  38  58  83 113 147 185 231 281 331
#
# _framework density 18.700251000000002
#
# number of rings (size 3 to 8) (size 9 to 14) (size 15 to 20)
#    0.750    1.500    0.000    3.750    0.000    6.000 
#    2.250    0.000    0.000    0.000    0.000    0.000 
#    0.000    0.000    0.000    0.000    0.000    0.000 
#
# Total GULP energy -89191.960862 kJ/mol
# GULP energy per Si atom -5574.497554 kJ/mol
# Density = 1.865769 g / cm^3
# Si number density = 18.700251 Si / 1000 Ang^3
#
#
#
# Elastic Constant Matrix: (Units=GPa)
#
#
# Indices 1 2 3 4 5 6 
#
# 1 77.4235 20.2962 -2.6969 0.0000 -10.9794 0.0000
# 2 20.2962 97.9161 25.7645 0.0001 -1.5695 0.0000
# 3 -2.6969 25.7645 24.6648 -0.0007 0.2230 0.0001
# 4 0.0000 0.0001 -0.0007 28.1925 0.0000 -1.2502
# 5 -10.9794 -1.5695 0.2230 0.0000 10.1129 0.0000
# 6 0.0000 0.0000 0.0001 -1.2502 0.0000 32.5726
#
#
#
# Elastic Compliance Matrix: (Units=1/GPa)
#
#
# Indices 1 2 3 4 5 6 
#
# 1 0.016971 -0.005081 0.007005 0.000000 0.017482 0.000000
# 2 -0.005081 0.015669 -0.016899 0.000000 -0.002712 0.000000
# 3 0.007005 -0.016899 0.058929 0.000001 0.003683 0.000000
# 4 0.000000 0.000000 0.000001 0.035531 0.000000 0.001364
# 5 0.017482 -0.002712 0.003683 0.000000 0.117361 0.000000
# 6 0.000000 0.000000 0.000000 0.001364 0.000000 0.030753
#
#
# Mechanical properties :
#
#
# Convention : Reuss Voigt Hill
#
# Bulk Modulus (GPa) = 16.22867 31.85911 24.04389
# Shear Modulus (GPa) = 15.35143 24.61830 19.98487
#
# Velocity S-wave (km/s) = 2.86828 3.63225 3.27264
# Velocity P-wave (km/s) = 4.43470 5.88768 5.21207
#
# Compressibility (1/GPa) = 0.06161934
#
# Stress axis : x y z
#
# Youngs Moduli (GPa) = 58.92405 63.82006 16.96971
#
# Poissons Ratio (x) = 0.32425 -0.11887
# Poissons Ratio (y) = 0.29938 0.28677
# Poissons Ratio (z) = -0.41275 1.07848
#
# Static dielectric constant tensor:
#      x y z
#    x 1.639200 0.000000 0.000390 
#    y 0.000000 1.625840 0.000000 
#    z 0.000390 0.000000 1.655250 
# 
# From -- ./inp_files/26433.got.cif
#   From: 2010.05.17/outbox.cif.g08.bks.cpg/sg8_14_cif.got.tgz:26433.got - 2010.06.03 19:46:02.
