data_PCOD9132563
_publ_section_title
;
Structure prediction by ZEFSAII (Michael W. Deem and Ramdas Pophale) SiO2 
 PCOD9132563
Probable space group: C M
;
_chemical_formula_sum "Si O2"
_cell_formula_units_Z 32
_cell_length_a 15.829406
_cell_length_b 8.547490
_cell_length_c 23.199353
_cell_angle_alpha 90.000000
_cell_angle_beta 32.084723
_cell_angle_gamma 90.000000
_cell_volume 1667.304145
_symmetry_space_group_name_H-M "C M"
_symmetry_group_IT_number 8
_symmetry_cell_setting 'monoclinic'
loop_
_space_group_symop_operation_xyz
x,y,z
x,-y,z
1/2+x,1/2+y,z
1/2+x,1/2-y,z
loop_
_atom_site_type_symbol
_atom_site_label
_atom_site_fract_x
_atom_site_fract_y
_atom_site_fract_z
Si Si1 0.117850 0.809109 0.334940
Si Si2 0.444671 0.811446 0.206363
Si Si3 0.469458 0.311455 0.732819
Si Si4 0.304503 0.689119 0.583505
Si Si5 0.151740 0.688693 0.977877
Si Si6 0.278472 0.311658 0.729607
Si Si7 0.143905 0.813730 0.187858
Si Si8 0.478935 0.684738 0.965244
O O1 0.274026 0.762782 0.280258
O O2 0.132815 0.757095 0.260166
O O3 0.955839 0.756901 0.458984
O O4 0.116951 0.000000 0.334634
O O5 0.491444 0.735686 0.239421
O O6 0.445856 0.000000 0.211286
O O7 0.578011 0.768193 0.081696
O O8 0.481806 0.500000 0.724405
O O9 0.638824 0.242641 0.651545
O O10 0.334139 0.270337 0.858481
O O11 0.396947 0.259313 0.712724
O O12 0.306389 0.500000 0.583017
O O13 0.317455 0.742697 0.642605
O O14 0.137038 0.500000 0.980291
O O15 0.046682 0.765138 0.988479
O O16 0.283493 0.500000 0.727381
O O17 0.101094 0.260061 0.849516
O O18 0.160926 0.000000 0.178909
O O19 0.299030 0.743019 0.067618
O O20 0.483275 0.500000 0.955710
#
# Coordination Sequence:
#
# PCOD9132563 Si02
#       8
#     4   4   4   4   4   4   4   4
#     4   9  20  40  61  80 114 155 190 234 289 341
#     4  10  20  37  60  86 113 151 193 236 287 342
#     4   9  19  35  55  83 117 150 182 229 292 340
#     4  10  21  38  61  85 109 150 201 235 273 340
#     4   9  18  36  59  82 117 155 185 230 295 345
#     4   9  20  38  57  81 115 153 189 231 288 343
#     4  11  22  38  58  84 117 154 190 234 293 342
#     4  11  21  34  57  87 118 150 192 237 283 341
#
# _framework density 19.192658999999999
#
# number of rings (size 3 to 8) (size 9 to 14) (size 15 to 20)
#    0.000    2.250    1.250    2.250    1.750    4.000 
#    0.000    3.125    0.000    0.000    0.000    0.000 
#    0.000    0.000    0.000    0.000    0.000    0.000 
#
# Total GULP energy -89318.373950 kJ/mol
# GULP energy per Si atom -5582.398372 kJ/mol
# Density = 1.914898 g / cm^3
# Si number density = 19.192659 Si / 1000 Ang^3
#
#
#
# Elastic Constant Matrix: (Units=GPa)
#
#
# Indices 1 2 3 4 5 6 
#
# 1 94.4189 8.9238 61.6967 0.0000 -19.2723 0.0000
# 2 8.9238 0.1814 10.5296 0.0000 -1.9157 0.0000
# 3 61.6967 10.5296 122.6623 -0.0001 -16.6034 0.0000
# 4 0.0000 0.0000 -0.0001 15.8260 0.0000 -12.4757
# 5 -19.2723 -1.9157 -16.6034 0.0000 21.9421 0.0000
# 6 0.0000 0.0000 0.0000 -12.4757 0.0000 25.7165
#
#
#
# Elastic Compliance Matrix: (Units=1/GPa)
#
#
# Indices 1 2 3 4 5 6 
#
# 1 0.013763 0.062860 -0.011074 0.000000 0.009197 0.000000
# 2 0.062860 -1.073964 0.061673 -0.000001 0.008114 0.000000
# 3 -0.011074 0.061673 0.008735 0.000000 0.002268 0.000000
# 4 0.000000 -0.000001 0.000000 0.102315 0.000000 0.049636
# 5 0.009197 0.008114 0.002268 0.000000 0.056077 0.000000
# 6 0.000000 0.000000 0.000000 0.049636 0.000000 0.062965
#
#
# Mechanical properties :
#
#
# Convention : Reuss Voigt Hill
#
# Bulk Modulus (GPa) = -1.21279 42.17363 20.48042
# Shear Modulus (GPa) = -3.75411 21.77109 9.00849
#
# Velocity S-wave (km/s) = -1.40009 3.37166 2.16885
# Velocity P-wave (km/s) = 1.80193 6.09746 4.11898
#
# Compressibility (1/GPa) = -0.82454741
#
# Stress axis : x y z
#
# Youngs Moduli (GPa) = 72.65639 -0.93113 114.47893
#
# Poissons Ratio (x) = 0.05853 1.26772
# Poissons Ratio (y) = -4.56719 -7.06021
# Poissons Ratio (z) = 0.80458 0.05743
#
# Static dielectric constant tensor:
#      x y z
#    x 1.675480 0.000000 0.008670 
#    y 0.000000 1.657490 0.000000 
#    z 0.008670 0.000000 1.658120 
# 
# From -- ./inp_files/21513.got.cif
#   From: 2010.05.17/outbox.cif.g08.bks.cpg/sg8_11_cif.got.tgz:21513.got - 2010.06.03 19:46:02.
