data_PCOD9132002
_publ_section_title
;
Structure prediction by ZEFSAII (Michael W. Deem and Ramdas Pophale) SiO2 
 PCOD9132002
Probable space group: C M
;
_chemical_formula_sum "Si O2"
_cell_formula_units_Z 32
_cell_length_a 11.027752
_cell_length_b 20.895908
_cell_length_c 5.650518
_cell_angle_alpha 90.000000
_cell_angle_beta 95.680920
_cell_angle_gamma 90.000000
_cell_volume 1295.681468
_symmetry_space_group_name_H-M "C M"
_symmetry_group_IT_number 8
_symmetry_cell_setting 'monoclinic'
loop_
_space_group_symop_operation_xyz
x,y,z
x,-y,z
1/2+x,1/2+y,z
1/2+x,1/2-y,z
loop_
_atom_site_type_symbol
_atom_site_label
_atom_site_fract_x
_atom_site_fract_y
_atom_site_fract_z
Si Si1 0.866910 0.067985 0.545750
Si Si2 0.480634 0.921305 0.947358
Si Si3 0.133559 0.072479 0.121039
Si Si4 0.677853 0.690654 0.825402
Si Si5 0.260645 0.602038 0.015900
Si Si6 0.881113 0.573264 0.427643
Si Si7 0.414124 0.267584 0.006304
Si Si8 0.020313 0.825864 0.411436
O O1 0.788727 0.075358 0.287483
O O2 0.943009 0.133440 0.581056
O O3 0.935897 0.000000 0.530439
O O4 0.801449 0.065036 0.786277
O O5 0.415217 0.900557 0.690687
O O6 0.474408 0.000000 0.952660
O O7 0.616720 0.896101 0.962787
O O8 0.433387 0.898277 0.194351
O O9 0.174693 0.116894 0.912520
O O10 0.238717 0.069569 0.338478
O O11 0.033719 0.117429 0.220512
O O12 0.100357 0.000000 0.049978
O O13 0.550925 0.725158 0.908644
O O14 0.810920 0.717824 0.908182
O O15 0.648883 0.693421 0.542333
O O16 0.327022 0.669695 0.001610
O O17 0.927972 0.500000 0.444155
O O18 0.454811 0.265089 0.289558
#
# Coordination Sequence:
#
# PCOD9132002 Si02
#       8
#     4   4   4   4   4   4   4   4
#     4  11  21  37  65 100 140 183 231 299 380 450
#     4  10  19  34  56  89 134 188 237 288 355 435
#     4  10  23  42  67 105 143 185 240 307 380 452
#     4  11  24  48  74 103 143 194 248 309 375 445
#     4  11  22  40  62  98 140 187 248 308 370 439
#     4   9  20  36  56  88 136 180 231 288 350 436
#     4  10  25  47  68 102 142 188 253 309 367 443
#     4  10  23  44  68 101 143 187 241 306 377 442
#
# _framework density 24.697427999999999
#
# number of rings (size 3 to 8) (size 9 to 14) (size 15 to 20)
#    0.000    1.750    1.250    2.250    1.750    5.000 
#    2.250    0.000    0.000    0.000    0.000    3.500 
#    0.000    0.000    0.000    0.000    0.000    0.000 
#
# Total GULP energy -89108.792011 kJ/mol
# GULP energy per Si atom -5569.299501 kJ/mol
# Density = 2.464122 g / cm^3
# Si number density = 24.697428 Si / 1000 Ang^3
#
#
#
# Elastic Constant Matrix: (Units=GPa)
#
#
# Indices 1 2 3 4 5 6 
#
# 1 90.8673 34.2841 53.3852 0.0000 12.5943 0.0000
# 2 34.2841 87.9060 55.5829 0.0000 16.2625 0.0000
# 3 53.3852 55.5829 176.5018 0.0000 25.9194 0.0000
# 4 0.0000 0.0000 0.0000 18.6626 0.0000 8.7056
# 5 12.5943 16.2625 25.9194 0.0000 43.6837 0.0000
# 6 0.0000 0.0000 0.0000 8.7056 0.0000 22.2738
#
#
#
# Elastic Compliance Matrix: (Units=1/GPa)
#
#
# Indices 1 2 3 4 5 6 
#
# 1 0.014247 -0.003420 -0.003085 0.000000 -0.001004 0.000000
# 2 -0.003420 0.015365 -0.003406 0.000000 -0.002713 0.000000
# 3 -0.003085 -0.003406 0.008056 0.000000 -0.002623 0.000000
# 4 0.000000 0.000000 0.000000 0.065531 0.000000 -0.025612
# 5 -0.001004 -0.002713 -0.002623 0.000000 0.025748 0.000000
# 6 0.000000 0.000000 0.000000 -0.025612 0.000000 0.054906
#
#
# Mechanical properties :
#
#
# Convention : Reuss Voigt Hill
#
# Bulk Modulus (GPa) = 56.03162 71.30883 63.67023
# Shear Modulus (GPa) = 23.85233 31.05889 27.45561
#
# Velocity S-wave (km/s) = 3.11107 3.55008 3.33780
# Velocity P-wave (km/s) = 5.97005 6.76312 6.37892
#
# Compressibility (1/GPa) = 0.01784706
#
# Stress axis : x y z
#
# Youngs Moduli (GPa) = 70.19059 65.08244 124.12565
#
# Poissons Ratio (x) = 0.22260 0.38288
# Poissons Ratio (y) = 0.24007 0.42274
# Poissons Ratio (z) = 0.21651 0.22165
#
# Static dielectric constant tensor:
#      x y z
#    x 2.039670 0.000000 -0.059470 
#    y 0.000000 2.023030 0.000000 
#    z -0.059470 0.000000 2.047630 
# 
# From -- ./inp_files/3184.got.cif
#   From: 2010.05.17/outbox.cif.g08.bks.cpg/sg8_2_cif.got.tgz:3184.got - 2010.06.03 19:46:02.
