data_PCOD9132974
_publ_section_title
;
Structure prediction by ZEFSAII (Michael W. Deem and Ramdas Pophale) SiO2 
 PCOD9132974
Probable space group: C M
;
_chemical_formula_sum "Si O2"
_cell_formula_units_Z 32
_cell_length_a 20.041307
_cell_length_b 7.713416
_cell_length_c 12.266481
_cell_angle_alpha 90.000000
_cell_angle_beta 52.423911
_cell_angle_gamma 90.000000
_cell_volume 1502.852228
_symmetry_space_group_name_H-M "C M"
_symmetry_group_IT_number 8
_symmetry_cell_setting 'monoclinic'
loop_
_space_group_symop_operation_xyz
x,y,z
x,-y,z
1/2+x,1/2+y,z
1/2+x,1/2-y,z
loop_
_atom_site_type_symbol
_atom_site_label
_atom_site_fract_x
_atom_site_fract_y
_atom_site_fract_z
Si Si1 0.806550 0.288695 0.630120
Si Si2 0.051678 0.206151 0.605837
Si Si3 0.738452 0.712166 0.473545
Si Si4 0.259002 0.787126 0.919817
Si Si5 0.904091 0.705835 0.178153
Si Si6 0.912078 0.290368 0.921357
Si Si7 0.993594 0.700419 0.428295
Si Si8 0.071718 0.196736 0.141013
O O1 0.807799 0.500000 0.632069
O O2 0.746441 0.235680 0.592056
O O3 0.785988 0.231835 0.771993
O O4 0.899730 0.231466 0.504932
O O5 0.147667 0.268398 0.521580
O O6 0.993563 0.241203 0.768637
O O7 0.012420 0.287806 0.536828
O O8 0.053303 0.000000 0.587219
O O9 0.739476 0.500000 0.470286
O O10 0.820464 0.772309 0.324102
O O11 0.328350 0.731565 0.939368
O O12 0.258802 0.000000 0.923921
O O13 0.163709 0.724141 0.031312
O O14 0.891038 0.500000 0.181787
O O15 0.989650 0.729445 0.162055
O O16 0.913396 0.773280 0.045003
O O17 0.910206 0.500000 0.925458
O O18 0.996360 0.500000 0.391085
O O19 0.055544 0.798239 0.286394
O O20 0.076725 0.000000 0.096227
#
# Coordination Sequence:
#
# PCOD9132974 Si02
#       8
#     4   4   4   4   4   4   4   4
#     4   9  16  33  61  82 101 146 204 239 271 339
#     4  11  23  37  60  90 120 149 193 249 296 338
#     4   9  19  35  58  84 111 153 200 237 281 350
#     4   9  19  35  58  84 111 153 200 237 281 350
#     4  10  21  39  61  83 115 159 202 236 283 354
#     4  10  21  39  61  83 115 159 202 236 283 354
#     4  11  21  39  65  84 113 154 198 241 289 353
#     4  11  23  37  60  90 120 149 193 249 296 338
#
# _framework density 21.292845
#
# number of rings (size 3 to 8) (size 9 to 14) (size 15 to 20)
#    0.000    2.000    2.500    1.125    3.500    0.500 
#    0.000    2.500    0.000    0.000    0.000    0.000 
#    0.000    0.000    0.000    0.000    0.000    0.000 
#
# Total GULP energy -89326.350599 kJ/mol
# GULP energy per Si atom -5582.896912 kJ/mol
# Density = 2.124438 g / cm^3
# Si number density = 21.292845 Si / 1000 Ang^3
#
#
#
# Elastic Constant Matrix: (Units=GPa)
#
#
# Indices 1 2 3 4 5 6 
#
# 1 86.3367 1.9174 39.8780 0.0000 -7.3734 0.0000
# 2 1.9174 35.4268 0.2246 0.0000 -2.5573 0.0000
# 3 39.8780 0.2246 121.8917 0.0000 -3.8837 0.0000
# 4 0.0000 0.0000 0.0000 16.6591 0.0000 -2.5823
# 5 -7.3734 -2.5573 -3.8837 0.0000 42.7485 0.0000
# 6 0.0000 0.0000 0.0000 -2.5823 0.0000 11.1081
#
#
#
# Elastic Compliance Matrix: (Units=1/GPa)
#
#
# Indices 1 2 3 4 5 6 
#
# 1 0.013821 -0.000579 -0.004459 0.000000 0.001944 0.000000
# 2 -0.000579 0.028374 0.000189 0.000000 0.001615 0.000000
# 3 -0.004459 0.000189 0.009666 0.000000 0.000120 0.000000
# 4 0.000000 0.000000 0.000000 0.062271 0.000000 0.014476
# 5 0.001944 0.001615 0.000120 0.000000 0.023835 0.000000
# 6 0.000000 0.000000 0.000000 0.014476 0.000000 0.093389
#
#
# Mechanical properties :
#
#
# Convention : Reuss Voigt Hill
#
# Bulk Modulus (GPa) = 23.71786 36.41057 30.06421
# Shear Modulus (GPa) = 19.59944 27.54550 23.57247
#
# Velocity S-wave (km/s) = 3.03722 3.60064 3.33086
# Velocity P-wave (km/s) = 4.84383 5.86712 5.37986
#
# Compressibility (1/GPa) = 0.04216232
#
# Stress axis : x y z
#
# Youngs Moduli (GPa) = 72.35445 35.24363 103.45362
#
# Poissons Ratio (x) = 0.02042 0.46126
# Poissons Ratio (y) = 0.04192 -0.01952
# Poissons Ratio (z) = 0.32260 -0.00665
#
# Static dielectric constant tensor:
#      x y z
#    x 1.738260 0.000000 -0.009960 
#    y 0.000000 1.803570 0.000000 
#    z -0.009960 0.000000 1.740770 
# 
# From -- ./inp_files/23839.got.cif
#   From: 2010.05.17/outbox.cif.g08.bks.cpg/sg8_12_cif.got.tgz:23839.got - 2010.06.03 19:46:02.
