data_PCOD9132909
_publ_section_title
;
Structure prediction by ZEFSAII (Michael W. Deem and Ramdas Pophale) SiO2 
 PCOD9132909
Probable space group: C M
;
_chemical_formula_sum "Si O2"
_cell_formula_units_Z 26
_cell_length_a 15.200020
_cell_length_b 7.699749
_cell_length_c 22.316571
_cell_angle_alpha 90.000000
_cell_angle_beta 31.022819
_cell_angle_gamma 90.000000
_cell_volume 1346.093604
_symmetry_space_group_name_H-M "C M"
_symmetry_group_IT_number 8
_symmetry_cell_setting 'monoclinic'
loop_
_space_group_symop_operation_xyz
x,y,z
x,-y,z
1/2+x,1/2+y,z
1/2+x,1/2-y,z
loop_
_atom_site_type_symbol
_atom_site_label
_atom_site_fract_x
_atom_site_fract_y
_atom_site_fract_z
Si Si1 0.094548 0.500000 0.835908
Si Si2 0.460175 0.208846 0.203558
Si Si3 0.719886 0.800166 0.238436
Si Si4 0.355158 0.697819 0.491754
Si Si5 0.820231 0.689734 0.646120
Si Si6 0.695664 0.296141 0.459517
Si Si7 0.326524 0.288964 0.040493
O O1 0.217210 0.347491 0.734537
O O2 0.971862 0.655981 0.935935
O O3 0.377246 0.281690 0.191842
O O4 0.342972 0.266585 0.328019
O O5 0.657103 0.249364 0.100157
O O6 0.448477 0.000000 0.207616
O O7 0.557141 0.700955 0.359582
O O8 0.774512 0.751878 0.139776
O O9 0.662557 0.000000 0.269185
O O10 0.298846 0.500000 0.532441
O O11 0.319745 0.794047 0.574337
O O12 0.260243 0.773195 0.489341
O O13 0.752228 0.500000 0.703256
O O14 0.017335 0.704086 0.551319
O O15 0.668428 0.500000 0.463373
O O16 0.362173 0.500000 0.015582
#
# Coordination Sequence:
#
# PCOD9132909 Si02
#       7
#     2   4   4   4   4   4   4
#     4  12  26  48  72  90 130 188 242 270 328 392
#     4  10  21  37  64 100 137 168 210 274 346 402
#     4  11  22  37  64 102 137 172 216 275 348 405
#     4  12  23  38  65 104 139 176 220 278 351 408
#     4  12  25  46  70  98 135 182 229 282 335 402
#     4  11  21  39  66 104 139 171 215 277 345 408
#     4  10  24  45  68  96 133 180 224 278 333 400
#
# _framework density 19.315149000000002
#
# number of rings (size 3 to 8) (size 9 to 14) (size 15 to 20)
#    0.000    0.923    4.615    2.769    3.231    0.615 
#    0.000    1.538    0.000    0.000    0.000    0.000 
#    0.000    0.000    0.000    0.000    0.000    0.000 
#
# Total GULP energy -72377.888485 kJ/mol
# GULP energy per Si atom -5567.529883 kJ/mol
# Density = 1.927119 g / cm^3
# Si number density = 19.315149 Si / 1000 Ang^3
#
#
#
# Elastic Constant Matrix: (Units=GPa)
#
#
# Indices 1 2 3 4 5 6 
#
# 1 67.2205 -6.4476 -10.8435 0.0001 3.7608 -0.0001
# 2 -6.4476 117.3434 36.2520 0.0000 0.7797 -0.0001
# 3 -10.8435 36.2520 59.6185 0.0000 1.6747 0.0000
# 4 0.0001 0.0000 0.0000 41.2907 0.0000 2.8235
# 5 3.7608 0.7797 1.6747 0.0000 -4.1774 0.0000
# 6 -0.0001 -0.0001 0.0000 2.8235 0.0000 8.9492
#
#
#
# Elastic Compliance Matrix: (Units=1/GPa)
#
#
# Indices 1 2 3 4 5 6 
#
# 1 0.014459 0.000013 0.002231 0.000000 0.013914 0.000000
# 2 0.000013 0.010492 -0.006361 0.000000 -0.000580 0.000000
# 3 0.002231 -0.006361 0.020790 0.000000 0.009156 0.000000
# 4 0.000000 0.000000 0.000000 0.024753 0.000000 -0.007810
# 5 0.013914 -0.000580 0.009156 0.000000 -0.223296 0.000001
# 6 0.000000 0.000000 0.000000 -0.007810 0.000001 0.114206
#
#
# Mechanical properties :
#
#
# Convention : Reuss Voigt Hill
#
# Bulk Modulus (GPa) = 26.66201 31.34490 29.00346
# Shear Modulus (GPa) = -279.96151 24.22726 -127.86713
#
# Velocity S-wave (km/s) = -12.05233 3.54547 -8.14519
# Velocity P-wave (km/s) = 13.41061 5.74664 8.56798
#
# Compressibility (1/GPa) = 0.03750655
#
# Stress axis : x y z
#
# Youngs Moduli (GPa) = 69.16057 95.31318 48.10031
#
# Poissons Ratio (x) = -0.00121 -0.10732
# Poissons Ratio (y) = -0.00088 0.30597
# Poissons Ratio (z) = -0.15432 0.60629
#
# Static dielectric constant tensor:
#      x y z
#    x 1.661380 0.000000 -0.000950 
#    y 0.000000 1.701110 0.000000 
#    z -0.000950 0.000000 1.633100 
# 
# From -- ./inp_files/27800.got.cif
#   From: 2010.05.17/outbox.cif.g08.bks.cpg/sg8_14_cif.got.tgz:27800.got - 2010.06.03 19:46:02.
