data_PCOD9132298
_publ_section_title
;
Structure prediction by ZEFSAII (Michael W. Deem and Ramdas Pophale) SiO2 
 PCOD9132298
Probable space group: C M
;
_chemical_formula_sum "Si O2"
_cell_formula_units_Z 32
_cell_length_a 25.313280
_cell_length_b 7.689499
_cell_length_c 24.073374
_cell_angle_alpha 90.000000
_cell_angle_beta 161.425458
_cell_angle_gamma 90.000000
_cell_volume 1492.605019
_symmetry_space_group_name_H-M "C M"
_symmetry_group_IT_number 8
_symmetry_cell_setting 'monoclinic'
loop_
_space_group_symop_operation_xyz
x,y,z
x,-y,z
1/2+x,1/2+y,z
1/2+x,1/2-y,z
loop_
_atom_site_type_symbol
_atom_site_label
_atom_site_fract_x
_atom_site_fract_y
_atom_site_fract_z
Si Si1 0.766240 0.704454 0.312970
Si Si2 0.148308 0.700023 0.313151
Si Si3 0.796255 0.285938 0.945999
Si Si4 0.148217 0.789502 0.685458
Si Si5 0.138054 0.209284 0.550212
Si Si6 0.977406 0.797120 0.693443
Si Si7 0.253953 0.207527 0.175050
Si Si8 0.451268 0.204671 0.792845
O O1 0.726183 0.500000 0.275589
O O2 0.680319 0.796346 0.278960
O O3 0.729289 0.772402 0.213988
O O4 0.963661 0.728506 0.516826
O O5 0.138765 0.500000 0.322999
O O6 0.306166 0.782559 0.500436
O O7 0.968205 0.779219 0.142301
O O8 0.801364 0.500000 0.951857
O O9 0.770715 0.234168 0.856391
O O10 0.639362 0.224744 0.824899
O O11 0.181438 0.728405 0.655971
O O12 0.146047 0.000000 0.682515
O O13 0.280370 0.273071 0.650231
O O14 0.944017 0.251289 0.346527
O O15 0.149238 0.000000 0.561684
O O16 0.986252 0.787323 0.768200
O O17 0.973977 0.000000 0.672735
O O18 0.242452 0.000000 0.165494
O O19 0.108469 0.272361 0.990176
O O20 0.429023 0.000000 0.760869
#
# Coordination Sequence:
#
# PCOD9132298 Si02
#       8
#     4   4   4   4   4   4   4   4
#     4  10  20  34  54  85 122 151 183 231 291 347
#     4  10  20  35  59  84 111 150 193 237 282 335
#     4   9  18  33  57  87 111 143 194 236 275 334
#     4   9  16  33  58  83 114 150 189 233 280 337
#     4   9  20  37  59  88 119 153 194 241 293 344
#     4  10  21  39  57  81 116 154 197 240 283 339
#     4  10  22  39  59  86 120 158 195 238 291 349
#     4  11  24  40  61  88 117 155 199 244 293 349
#
# _framework density 21.439026999999999
#
# number of rings (size 3 to 8) (size 9 to 14) (size 15 to 20)
#    0.000    2.250    1.250    1.125    1.750    4.000 
#    0.000    2.500    0.000    0.000    0.000    0.000 
#    0.000    0.000    0.000    0.000    0.000    0.000 
#
# Total GULP energy -89321.028348 kJ/mol
# GULP energy per Si atom -5582.564272 kJ/mol
# Density = 2.139023 g / cm^3
# Si number density = 21.439027 Si / 1000 Ang^3
#
#
#
# Elastic Constant Matrix: (Units=GPa)
#
#
# Indices 1 2 3 4 5 6 
#
# 1 51.8331 -12.8725 39.4122 0.0002 -6.4970 0.0000
# 2 -12.8725 41.2386 -8.0338 0.0001 2.6223 0.0000
# 3 39.4122 -8.0338 135.6516 0.0005 -11.7784 0.0000
# 4 0.0002 0.0001 0.0005 -34.4542 0.0002 -3.4793
# 5 -6.4970 2.6223 -11.7784 0.0002 17.1099 0.0000
# 6 0.0000 0.0000 0.0000 -3.4793 0.0000 18.2534
#
#
#
# Elastic Compliance Matrix: (Units=1/GPa)
#
#
# Indices 1 2 3 4 5 6 
#
# 1 0.026851 0.006737 -0.007027 0.000000 0.004326 0.000000
# 2 0.006737 0.026362 -0.000558 0.000000 -0.001866 0.000000
# 3 -0.007027 -0.000558 0.009738 0.000000 0.004121 0.000000
# 4 0.000000 0.000000 0.000000 -0.028476 0.000001 -0.005428
# 5 0.004326 -0.001866 0.004121 0.000001 0.063211 0.000000
# 6 0.000000 0.000000 0.000000 -0.005428 0.000000 0.053750
#
#
# Mechanical properties :
#
#
# Convention : Reuss Voigt Hill
#
# Bulk Modulus (GPa) = 16.32483 29.52614 22.92548
# Shear Modulus (GPa) = 28.81014 14.19631 21.50323
#
# Velocity S-wave (km/s) = 3.66979 2.57606 3.17044
# Velocity P-wave (km/s) = 5.05841 4.75922 4.91109
#
# Compressibility (1/GPa) = 0.06125638
#
# Stress axis : x y z
#
# Youngs Moduli (GPa) = 37.24252 37.93318 102.68935
#
# Poissons Ratio (x) = -0.25557 0.72156
# Poissons Ratio (y) = -0.25092 0.05733
# Poissons Ratio (z) = 0.26169 0.02118
#
# Static dielectric constant tensor:
#      x y z
#    x 1.756880 0.000000 0.008020 
#    y 0.000000 1.796200 0.000000 
#    z 0.008020 0.000000 1.784030 
# 
# From -- ./inp_files/17257.got.cif
#   From: 2010.05.17/outbox.cif.g08.bks.cpg/sg8_9_cif.got.tgz:17257.got - 2010.06.03 19:46:02.
