data_PCOD9132937
_publ_section_title
;
Structure prediction by ZEFSAII (Michael W. Deem and Ramdas Pophale) SiO2 
 PCOD9132937
Probable space group: C M
;
_chemical_formula_sum "Si O2"
_cell_formula_units_Z 32
_cell_length_a 10.880370
_cell_length_b 23.519833
_cell_length_c 6.435842
_cell_angle_alpha 90.000000
_cell_angle_beta 80.929903
_cell_angle_gamma 90.000000
_cell_volume 1626.367592
_symmetry_space_group_name_H-M "C M"
_symmetry_group_IT_number 8
_symmetry_cell_setting 'monoclinic'
loop_
_space_group_symop_operation_xyz
x,y,z
x,-y,z
1/2+x,1/2+y,z
1/2+x,1/2-y,z
loop_
_atom_site_type_symbol
_atom_site_label
_atom_site_fract_x
_atom_site_fract_y
_atom_site_fract_z
Si Si1 0.843930 0.237833 0.393870
Si Si2 0.616726 0.565416 0.426790
Si Si3 0.428567 0.352829 0.690322
Si Si4 0.159015 0.218948 0.778372
Si Si5 0.226321 0.321071 0.040257
Si Si6 0.867049 0.436421 0.638866
Si Si7 0.773169 0.375667 0.048525
Si Si8 0.485440 0.154303 0.325287
O O1 0.869665 0.180608 0.512836
O O2 0.735695 0.271855 0.545159
O O3 0.803046 0.219675 0.176183
O O4 0.962892 0.279140 0.378534
O O5 0.591352 0.500000 0.379579
O O6 0.505288 0.594129 0.583782
O O7 0.739087 0.566804 0.540854
O O8 0.656882 0.601568 0.214008
O O9 0.527569 0.309084 0.764881
O O10 0.320644 0.360673 0.888047
O O11 0.156853 0.279105 0.896485
O O12 0.231991 0.174985 0.907527
O O13 0.122410 0.353256 0.199527
O O14 0.918438 0.500000 0.599207
O O15 0.955081 0.387159 0.524401
O O16 0.829220 0.424023 0.884832
O O17 0.881072 0.357791 0.178399
#
# Coordination Sequence:
#
# PCOD9132937 Si02
#       8
#     4   4   4   4   4   4   4   4
#     4  11  22  37  59  91 121 158 195 244 296 356
#     4  10  22  39  61  90 118 151 201 253 298 350
#     4  11  24  38  59  89 124 159 197 243 294 358
#     4  11  21  36  58  91 119 152 195 240 302 352
#     4  11  25  37  57  87 127 167 194 232 293 364
#     4  10  21  38  61  89 118 150 197 252 301 344
#     4  11  20  36  63  90 115 152 191 248 308 341
#     4  11  22  37  60  87 122 157 197 240 290 361
#
# _framework density 19.675750000000001
#
# number of rings (size 3 to 8) (size 9 to 14) (size 15 to 20)
#    0.000    1.250    3.750    2.625    5.250    2.500 
#    0.000    0.625    0.000    2.250    0.000    0.000 
#    0.000    0.000    0.000    0.000    0.000    0.000 
#
# Total GULP energy -89407.318430 kJ/mol
# GULP energy per Si atom -5587.957402 kJ/mol
# Density = 1.963097 g / cm^3
# Si number density = 19.675750 Si / 1000 Ang^3
#
#
#
# Elastic Constant Matrix: (Units=GPa)
#
#
# Indices 1 2 3 4 5 6 
#
# 1 45.0458 10.9035 15.4812 0.0000 -26.8666 0.0000
# 2 10.9035 67.7652 27.8240 0.0000 -19.9944 0.0000
# 3 15.4812 27.8240 93.2231 0.0000 -27.9614 0.0000
# 4 0.0000 0.0000 0.0000 13.0069 0.0000 -1.2307
# 5 -26.8666 -19.9944 -27.9614 0.0000 43.8712 0.0000
# 6 0.0000 0.0000 0.0000 -1.2307 0.0000 16.0973
#
#
#
# Elastic Compliance Matrix: (Units=1/GPa)
#
#
# Indices 1 2 3 4 5 6 
#
# 1 0.035040 0.000638 0.000636 0.000000 0.022154 0.000000
# 2 0.000638 0.017985 -0.003583 0.000000 0.006304 0.000000
# 3 0.000636 -0.003583 0.013993 0.000000 0.007675 0.000000
# 4 0.000000 0.000000 0.000000 0.077443 0.000000 0.005921
# 5 0.022154 0.006304 0.007675 0.000000 0.044125 0.000000
# 6 0.000000 0.000000 0.000000 0.005921 0.000000 0.062575
#
#
# Mechanical properties :
#
#
# Convention : Reuss Voigt Hill
#
# Bulk Modulus (GPa) = 16.02604 34.93907 25.48256
# Shear Modulus (GPa) = 18.07792 24.71677 21.39734
#
# Velocity S-wave (km/s) = 3.03445 3.54814 3.30130
# Velocity P-wave (km/s) = 4.52105 5.88062 5.24508
#
# Compressibility (1/GPa) = 0.06239845
#
# Stress axis : x y z
#
# Youngs Moduli (GPa) = 28.53866 55.60070 71.46546
#
# Poissons Ratio (x) = -0.03545 -0.04542
# Poissons Ratio (y) = -0.01820 0.25608
# Poissons Ratio (z) = -0.01814 0.19923
#
# Static dielectric constant tensor:
#      x y z
#    x 1.680970 0.000000 -0.004950 
#    y 0.000000 1.696450 0.000000 
#    z -0.004950 0.000000 1.716840 
# 
# From -- ./inp_files/3153.got.cif
#   From: 2010.05.17/outbox.cif.g08.bks.cpg/sg8_2_cif.got.tgz:3153.got - 2010.06.03 19:46:02.
