data_PCOD9132386
_publ_section_title
;
Structure prediction by ZEFSAII (Michael W. Deem and Ramdas Pophale) SiO2 
 PCOD9132386
Probable space group: C M
;
_chemical_formula_sum "Si O2"
_cell_formula_units_Z 32
_cell_length_a 15.091459
_cell_length_b 7.765809
_cell_length_c 11.198567
_cell_angle_alpha 90.000000
_cell_angle_beta 79.052590
_cell_angle_gamma 90.000000
_cell_volume 1288.558848
_symmetry_space_group_name_H-M "C M"
_symmetry_group_IT_number 8
_symmetry_cell_setting 'monoclinic'
loop_
_space_group_symop_operation_xyz
x,y,z
x,-y,z
1/2+x,1/2+y,z
1/2+x,1/2-y,z
loop_
_atom_site_type_symbol
_atom_site_label
_atom_site_fract_x
_atom_site_fract_y
_atom_site_fract_z
Si Si1 0.725760 0.302915 0.051250
Si Si2 0.656564 0.706579 0.452142
Si Si3 0.994461 0.706337 0.351603
Si Si4 0.840296 0.796950 0.796143
Si Si5 0.541856 0.700333 0.703761
Si Si6 0.061563 0.300376 0.948221
Si Si7 0.895364 0.288108 0.137985
Si Si8 0.828754 0.708700 0.537756
O O1 0.704790 0.500000 0.086715
O O2 0.632882 0.215143 0.037294
O O3 0.794014 0.231071 0.133905
O O4 0.785626 0.295025 0.914425
O O5 0.659948 0.500000 0.456302
O O6 0.597714 0.748438 0.351234
O O7 0.598851 0.775227 0.580424
O O8 0.758519 0.762514 0.452353
O O9 0.990182 0.500000 0.348902
O O10 0.944622 0.769022 0.245622
O O11 0.929020 0.766970 0.475744
O O12 0.942138 0.726170 0.753000
O O13 0.800027 0.776429 0.673856
O O14 0.841773 0.000000 0.826248
O O15 0.527999 0.500000 0.678488
O O16 0.591159 0.710757 0.818869
O O17 0.053080 0.500000 0.921264
O O18 0.964838 0.233379 0.016765
O O19 0.892814 0.500000 0.139117
O O20 0.828753 0.500000 0.544138
#
# Coordination Sequence:
#
# PCOD9132386 Si02
#       8
#     4   4   4   4   4   4   4   4
#     4  11  22  39  61  86 117 153 189 234 291 348
#     4  10  21  38  57  84 117 149 184 235 290 339
#     4  10  21  39  60  83 111 151 198 239 280 336
#     4  11  21  35  59  89 119 150 190 237 284 341
#     4  10  20  35  57  85 120 153 186 234 289 343
#     4  11  22  38  60  87 116 151 194 239 285 341
#     4   9  21  40  59  80 114 154 193 237 287 340
#     4  10  21  36  59  86 116 153 192 231 284 346
#
# _framework density 24.833945
#
# number of rings (size 3 to 8) (size 9 to 14) (size 15 to 20)
#    0.000    1.750    2.500    1.875    0.000    3.500 
#    0.000    3.750    0.000    0.000    0.000    0.000 
#    0.000    0.000    0.000    0.000    0.000    0.000 
#
# Total GULP energy -89456.150825 kJ/mol
# GULP energy per Si atom -5591.009427 kJ/mol
# Density = 2.477742 g / cm^3
# Si number density = 24.833945 Si / 1000 Ang^3
#
#
#
# Elastic Constant Matrix: (Units=GPa)
#
#
# Indices 1 2 3 4 5 6 
#
# 1 124.3245 2.2095 7.9420 0.0000 32.8704 0.0000
# 2 2.2095 48.0240 -6.3670 0.0000 -0.0611 0.0000
# 3 7.9420 -6.3670 71.1012 0.0000 30.7636 0.0000
# 4 0.0000 0.0000 0.0000 16.0929 0.0000 11.5226
# 5 32.8704 -0.0611 30.7636 0.0000 46.3975 0.0000
# 6 0.0000 0.0000 0.0000 11.5226 0.0000 20.2508
#
#
#
# Elastic Compliance Matrix: (Units=1/GPa)
#
#
# Indices 1 2 3 4 5 6 
#
# 1 0.010283 -0.000114 0.002795 0.000000 -0.009139 0.000000
# 2 -0.000114 0.021172 0.002611 0.000000 -0.001622 0.000000
# 3 0.002795 0.002611 0.020812 0.000000 -0.015776 0.000000
# 4 0.000000 0.000000 0.000000 0.104859 0.000000 -0.059664
# 5 -0.009139 -0.001622 -0.015776 0.000000 0.038485 0.000000
# 6 0.000000 0.000000 0.000000 -0.059664 0.000000 0.083329
#
#
# Mechanical properties :
#
#
# Convention : Reuss Voigt Hill
#
# Bulk Modulus (GPa) = 15.91083 27.89100 21.90092
# Shear Modulus (GPa) = 17.28263 32.52593 24.90428
#
# Velocity S-wave (km/s) = 2.64091 3.62295 3.17019
# Velocity P-wave (km/s) = 3.96484 5.36250 4.71574
#
# Compressibility (1/GPa) = 0.06285026
#
# Stress axis : x y z
#
# Youngs Moduli (GPa) = 97.24708 47.23175 48.04948
#
# Poissons Ratio (x) = 0.00539 -0.13431
# Poissons Ratio (y) = 0.01110 -0.12544
# Poissons Ratio (z) = -0.27182 -0.12330
#
# Static dielectric constant tensor:
#      x y z
#    x 1.993840 0.000000 0.030310 
#    y 0.000000 1.901410 0.000000 
#    z 0.030310 0.000000 2.011280 
# 
# From -- ./inp_files/21346.got.cif
#   From: 2010.05.17/outbox.cif.g08.bks.cpg/sg8_11_cif.got.tgz:21346.got - 2010.06.03 19:46:02.
