data_PCOD9132412
_publ_section_title
;
Structure prediction by ZEFSAII (Michael W. Deem and Ramdas Pophale) SiO2 
 PCOD9132412
Probable space group: C M
;
_chemical_formula_sum "Si O2"
_cell_formula_units_Z 28
_cell_length_a 23.804287
_cell_length_b 10.911469
_cell_length_c 5.110169
_cell_angle_alpha 90.000000
_cell_angle_beta 73.832546
_cell_angle_gamma 90.000000
_cell_volume 1274.821363
_symmetry_space_group_name_H-M "C M"
_symmetry_group_IT_number 8
_symmetry_cell_setting 'monoclinic'
loop_
_space_group_symop_operation_xyz
x,y,z
x,-y,z
1/2+x,1/2+y,z
1/2+x,1/2-y,z
loop_
_atom_site_type_symbol
_atom_site_label
_atom_site_fract_x
_atom_site_fract_y
_atom_site_fract_z
Si Si1 0.144900 0.857020 0.329910
Si Si2 0.454445 0.365919 0.435918
Si Si3 0.976128 0.718214 0.907677
Si Si4 0.346572 0.135183 0.084378
Si Si5 0.207428 0.633256 0.021707
Si Si6 0.599276 0.234690 0.904098
Si Si7 0.824104 0.784829 0.612552
O O1 0.117644 0.822140 0.642314
O O2 0.161341 0.000000 0.292127
O O3 0.196371 0.756656 0.207873
O O4 0.098591 0.820506 0.163077
O O5 0.476620 0.500000 0.474487
O O6 0.477573 0.265396 0.609317
O O7 0.383966 0.360718 0.559246
O O8 0.467212 0.331151 0.120469
O O9 0.038939 0.668627 0.912004
O O10 0.917381 0.640196 0.019485
O O11 0.321958 0.232628 0.322957
O O12 0.324914 0.000000 0.173075
O O13 0.332055 0.173663 0.808363
O O14 0.206811 0.500000 0.157568
O O15 0.151864 0.642616 0.899788
O O16 0.266585 0.646764 0.781426
#
# Coordination Sequence:
#
# PCOD9132412 Si02
#       7
#     4   4   4   4   4   4   4
#     4  10  23  41  62  92 128 167 215 260 313 372
#     4  10  20  35  59  87 117 154 196 250 307 366
#     4  10  21  37  59  89 120 155 205 244 310 370
#     4  10  22  40  62  89 123 161 205 259 313 371
#     4  10  25  45  66  93 129 170 214 262 318 380
#     4  10  23  40  62  92 126 167 209 260 313 373
#     4  10  22  40  60  90 118 158 208 255 311 370
#
# _framework density 21.96386
#
# number of rings (size 3 to 8) (size 9 to 14) (size 15 to 20)
#    0.857    1.143    0.000    2.571    2.000    5.714 
#    0.000    1.429    0.000    0.000    0.000    0.000 
#    0.000    0.000    0.000    0.000    0.000    0.000 
#
# Total GULP energy -78092.384761 kJ/mol
# GULP energy per Si atom -5578.027483 kJ/mol
# Density = 2.191387 g / cm^3
# Si number density = 21.963860 Si / 1000 Ang^3
#
#
#
# Elastic Constant Matrix: (Units=GPa)
#
#
# Indices 1 2 3 4 5 6 
#
# 1 99.2575 -1.9385 0.4381 0.0000 -16.3004 0.0000
# 2 -1.9385 94.1380 6.8421 0.0000 -1.4827 0.0000
# 3 0.4381 6.8421 85.8614 0.0000 6.1444 0.0000
# 4 0.0000 0.0000 0.0000 8.3269 0.0000 2.3804
# 5 -16.3004 -1.4827 6.1444 0.0000 30.9495 0.0000
# 6 0.0000 0.0000 0.0000 2.3804 0.0000 2.9425
#
#
#
# Elastic Compliance Matrix: (Units=1/GPa)
#
#
# Indices 1 2 3 4 5 6 
#
# 1 0.011060 0.000358 -0.000510 0.000000 0.005944 0.000000
# 2 0.000358 0.010711 -0.000919 0.000000 0.000884 0.000000
# 3 -0.000510 -0.000919 0.011914 0.000000 -0.002678 0.000000
# 4 0.000000 0.000000 0.000000 0.156220 0.000000 -0.126378
# 5 0.005944 0.000884 -0.002678 0.000000 0.036015 0.000000
# 6 0.000000 0.000000 0.000000 -0.126378 0.000000 0.442079
#
#
# Mechanical properties :
#
#
# Convention : Reuss Voigt Hill
#
# Bulk Modulus (GPa) = 31.70171 32.21560 31.95865
# Shear Modulus (GPa) = 7.34587 26.70481 17.02534
#
# Velocity S-wave (km/s) = 1.83079 3.49069 2.78718
# Velocity P-wave (km/s) = 4.35132 5.56291 4.99399
#
# Compressibility (1/GPa) = 0.03154404
#
# Stress axis : x y z
#
# Youngs Moduli (GPa) = 90.41476 93.36393 83.93390
#
# Poissons Ratio (x) = -0.03347 0.04283
# Poissons Ratio (y) = -0.03241 0.07710
# Poissons Ratio (z) = 0.04614 0.08577
#
# Static dielectric constant tensor:
#      x y z
#    x 1.845010 0.000000 -0.024910 
#    y 0.000000 1.776810 0.000000 
#    z -0.024910 0.000000 1.755920 
# 
# From -- ./inp_files/5454.got.cif
#   From: 2010.05.17/outbox.cif.g08.bks.cpg/sg8_3_cif.got.tgz:5454.got - 2010.06.03 19:46:02.
