data_PCOD9132778
_publ_section_title
;
Structure prediction by ZEFSAII (Michael W. Deem and Ramdas Pophale) SiO2 
 PCOD9132778
Probable space group: C M
;
_chemical_formula_sum "Si O2"
_cell_formula_units_Z 26
_cell_length_a 14.679160
_cell_length_b 7.768969
_cell_length_c 9.331378
_cell_angle_alpha 90.000000
_cell_angle_beta 70.503307
_cell_angle_gamma 90.000000
_cell_volume 1003.149827
_symmetry_space_group_name_H-M "C M"
_symmetry_group_IT_number 8
_symmetry_cell_setting 'monoclinic'
loop_
_space_group_symop_operation_xyz
x,y,z
x,-y,z
1/2+x,1/2+y,z
1/2+x,1/2-y,z
loop_
_atom_site_type_symbol
_atom_site_label
_atom_site_fract_x
_atom_site_fract_y
_atom_site_fract_z
Si Si1 0.400530 0.694570 0.688400
Si Si2 0.858360 0.793599 0.231369
Si Si3 0.503008 0.704456 0.919674
Si Si4 0.251510 0.803471 0.563557
Si Si5 0.681056 0.308377 0.123371
Si Si6 0.637083 0.000000 0.923273
Si Si7 0.082601 0.307916 0.440057
O O1 0.434034 0.500000 0.646621
O O2 0.418506 0.729637 0.845554
O O3 0.293414 0.705703 0.680079
O O4 0.476395 0.805519 0.560604
O O5 0.835411 0.719867 0.398981
O O6 0.775486 0.719974 0.171730
O O7 0.850611 0.000000 0.243495
O O8 0.958217 0.753828 0.099226
O O9 0.528178 0.500000 0.900152
O O10 0.584321 0.845967 0.853545
O O11 0.156552 0.749892 0.525916
O O12 0.241405 0.000000 0.610982
O O13 0.682877 0.500000 0.057446
O O14 0.596787 0.300719 0.288877
O O15 0.673096 0.153334 0.016641
O O16 0.111335 0.500000 0.383452
#
# Coordination Sequence:
#
# PCOD9132778 Si02
#       7
#     4   4   4   4   4   2   4
#     4  11  24  45  65  92 132 175 217 272 325 389
#     4  10  20  42  66  96 130 167 216 271 319 391
#     4  10  26  44  65  94 133 172 219 266 324 388
#     4  11  23  39  66  99 126 171 218 267 333 383
#     4  11  22  40  66 100 132 168 215 271 329 383
#     4  12  24  42  66  96 132 174 212 276 316 402
#     4  11  22  41  66  98 133 169 219 275 322 392
#
# _framework density 25.918362999999999
#
# number of rings (size 3 to 8) (size 9 to 14) (size 15 to 20)
#    0.000    1.231    1.538    6.000    6.462    0.000 
#    2.769    0.000    0.000    0.000    0.000    0.000 
#    0.000    0.000    0.000    0.000    0.000    0.000 
#
# Total GULP energy -72564.178659 kJ/mol
# GULP energy per Si atom -5581.859897 kJ/mol
# Density = 2.585937 g / cm^3
# Si number density = 25.918363 Si / 1000 Ang^3
#
#
#
# Elastic Constant Matrix: (Units=GPa)
#
#
# Indices 1 2 3 4 5 6 
#
# 1 111.3714 4.1010 43.0492 0.0000 33.0605 0.0000
# 2 4.1010 131.0463 5.5076 0.0000 22.2870 0.0000
# 3 43.0492 5.5076 105.1203 0.0000 14.2890 0.0000
# 4 0.0000 0.0000 0.0000 -6.0380 0.0000 1.0500
# 5 33.0605 22.2870 14.2890 0.0000 62.1810 0.0000
# 6 0.0000 0.0000 0.0000 1.0500 0.0000 1.0395
#
#
#
# Elastic Compliance Matrix: (Units=1/GPa)
#
#
# Indices 1 2 3 4 5 6 
#
# 1 0.012354 0.000791 -0.004304 0.000000 -0.005863 0.000000
# 2 0.000791 0.008177 -0.000307 0.000000 -0.003281 0.000000
# 3 -0.004304 -0.000307 0.011319 0.000000 -0.000203 0.000000
# 4 0.000000 0.000000 0.000000 -0.140874 0.000000 0.142291
# 5 -0.005863 -0.003281 -0.000203 0.000000 0.020422 0.000000
# 6 0.000000 0.000000 0.000000 0.142291 0.000000 0.818249
#
#
# Mechanical properties :
#
#
# Convention : Reuss Voigt Hill
#
# Bulk Modulus (GPa) = 41.30144 50.31707 45.80925
# Shear Modulus (GPa) = 6.70821 31.09518 18.90170
#
# Velocity S-wave (km/s) = 1.61054 3.46748 2.70344
# Velocity P-wave (km/s) = 4.40775 5.95710 5.24000
#
# Compressibility (1/GPa) = 0.02421223
#
# Stress axis : x y z
#
# Youngs Moduli (GPa) = 80.94703 122.29373 88.34683
#
# Poissons Ratio (x) = -0.09678 0.38022
# Poissons Ratio (y) = -0.06406 0.02708
# Poissons Ratio (z) = 0.34837 0.03748
#
# Static dielectric constant tensor:
#      x y z
#    x 2.047840 0.000000 -0.056140 
#    y 0.000000 1.931130 0.000000 
#    z -0.056140 0.000000 2.085770 
# 
# From -- ./inp_files/21169.got.cif
#   From: 2010.05.17/outbox.cif.g08.bks.cpg/sg8_11_cif.got.tgz:21169.got - 2010.06.03 19:46:02.
