data_PCOD9132952
_publ_section_title
;
Structure prediction by ZEFSAII (Michael W. Deem and Ramdas Pophale) SiO2 
 PCOD9132952
Probable space group: C M
;
_chemical_formula_sum "Si O2"
_cell_formula_units_Z 32
_cell_length_a 20.036916
_cell_length_b 8.782581
_cell_length_c 12.192007
_cell_angle_alpha 90.000000
_cell_angle_beta 51.135302
_cell_angle_gamma 90.000000
_cell_volume 1670.549421
_symmetry_space_group_name_H-M "C M"
_symmetry_group_IT_number 8
_symmetry_cell_setting 'monoclinic'
loop_
_space_group_symop_operation_xyz
x,y,z
x,-y,z
1/2+x,1/2+y,z
1/2+x,1/2-y,z
loop_
_atom_site_type_symbol
_atom_site_label
_atom_site_fract_x
_atom_site_fract_y
_atom_site_fract_z
Si Si1 0.064360 0.684453 0.697110
Si Si2 0.073120 0.317782 0.944757
Si Si3 0.398171 0.321826 0.748884
Si Si4 0.233073 0.314841 0.387848
Si Si5 0.984709 0.177408 0.432784
Si Si6 0.158730 0.678473 0.237822
Si Si7 0.423634 0.682983 0.249962
Si Si8 0.212963 0.179583 0.956517
O O1 0.059172 0.500000 0.694629
O O2 0.068730 0.725769 0.821230
O O3 0.151512 0.734549 0.544624
O O4 0.980275 0.755220 0.727758
O O5 0.073103 0.500000 0.951070
O O6 0.158715 0.257174 0.915550
O O7 0.992058 0.255227 0.096657
O O8 0.388716 0.500000 0.786558
O O9 0.416664 0.309314 0.599947
O O10 0.310401 0.235655 0.862834
O O11 0.232219 0.500000 0.393058
O O12 0.219307 0.272409 0.275134
O O13 0.326310 0.263841 0.330979
O O14 0.062904 0.288831 0.377438
O O15 0.949417 0.213341 0.348976
O O16 0.014200 0.000000 0.402331
O O17 0.171536 0.500000 0.202122
O O18 0.170525 0.771695 0.115057
O O19 0.426385 0.500000 0.231803
O O20 0.208515 0.000000 0.947166
#
# Coordination Sequence:
#
# PCOD9132952 Si02
#       8
#     4   4   4   4   4   4   4   4
#     4  10  22  42  64  89 125 166 206 253 309 365
#     4  11  24  41  63  91 124 162 207 258 309 367
#     4  11  24  41  64  94 126 163 210 256 306 368
#     4   9  20  38  63  91 120 161 203 246 302 363
#     4  10  21  38  63  91 122 160 203 257 309 363
#     4  11  21  38  65  92 122 158 206 258 307 366
#     4  10  21  39  63  89 122 164 204 247 307 367
#     4  12  26  43  63  89 125 166 209 257 315 369
#
# _framework density 19.155373000000001
#
# number of rings (size 3 to 8) (size 9 to 14) (size 15 to 20)
#    0.000    1.500    2.500    2.250    3.500    1.500 
#    0.000    1.250    0.000    0.000    0.000    0.000 
#    0.000    0.000    0.000    0.000    0.000    0.000 
#
# Total GULP energy -89388.089804 kJ/mol
# GULP energy per Si atom -5586.755613 kJ/mol
# Density = 1.911177 g / cm^3
# Si number density = 19.155373 Si / 1000 Ang^3
#
#
#
# Elastic Constant Matrix: (Units=GPa)
#
#
# Indices 1 2 3 4 5 6 
#
# 1 112.8489 24.4358 22.6249 0.0000 -0.3946 0.0000
# 2 24.4358 34.9705 16.8296 0.0000 5.6350 0.0000
# 3 22.6249 16.8296 47.0750 0.0000 6.7377 0.0000
# 4 0.0000 0.0000 0.0000 27.1551 0.0000 -2.3960
# 5 -0.3946 5.6350 6.7377 0.0000 36.3300 0.0000
# 6 0.0000 0.0000 0.0000 -2.3960 0.0000 24.3357
#
#
#
# Elastic Compliance Matrix: (Units=1/GPa)
#
#
# Indices 1 2 3 4 5 6 
#
# 1 0.010882 -0.006333 -0.003209 0.000000 0.001696 0.000000
# 2 -0.006333 0.038578 -0.010151 0.000000 -0.004170 0.000000
# 3 -0.003209 -0.010151 0.026908 0.000000 -0.003451 0.000000
# 4 0.000000 0.000000 0.000000 0.037148 0.000000 0.003657
# 5 0.001696 -0.004170 -0.003451 0.000000 0.028831 0.000000
# 6 0.000000 0.000000 0.000000 0.003657 0.000000 0.041452
#
#
# Mechanical properties :
#
#
# Convention : Reuss Voigt Hill
#
# Bulk Modulus (GPa) = 27.04020 35.85278 31.44649
# Shear Modulus (GPa) = 21.23041 26.29778 23.76410
#
# Velocity S-wave (km/s) = 3.33277 3.70924 3.52603
# Velocity P-wave (km/s) = 5.38114 6.09115 5.74712
#
# Compressibility (1/GPa) = 0.03698197
#
# Stress axis : x y z
#
# Youngs Moduli (GPa) = 91.89555 25.92163 37.16384
#
# Poissons Ratio (x) = 0.16416 0.11925
# Poissons Ratio (y) = 0.58196 0.37726
# Poissons Ratio (z) = 0.29486 0.26314
#
# Static dielectric constant tensor:
#      x y z
#    x 1.650240 0.000000 0.003640 
#    y 0.000000 1.648190 0.000000 
#    z 0.003640 0.000000 1.651160 
# 
# From -- ./inp_files/23850.got.cif
#   From: 2010.05.17/outbox.cif.g08.bks.cpg/sg8_12_cif.got.tgz:23850.got - 2010.06.03 19:46:02.
