data_PCOD9132152
_publ_section_title
;
Structure prediction by ZEFSAII (Michael W. Deem and Ramdas Pophale) SiO2 
 PCOD9132152
Probable space group: C M
;
_chemical_formula_sum "Si O2"
_cell_formula_units_Z 32
_cell_length_a 22.839773
_cell_length_b 12.214863
_cell_length_c 16.778624
_cell_angle_alpha 90.000000
_cell_angle_beta 17.801870
_cell_angle_gamma 90.000000
_cell_volume 1431.098872
_symmetry_space_group_name_H-M "C M"
_symmetry_group_IT_number 8
_symmetry_cell_setting 'monoclinic'
loop_
_space_group_symop_operation_xyz
x,y,z
x,-y,z
1/2+x,1/2+y,z
1/2+x,1/2-y,z
loop_
_atom_site_type_symbol
_atom_site_label
_atom_site_fract_x
_atom_site_fract_y
_atom_site_fract_z
Si Si1 0.531790 0.378601 0.704640
Si Si2 0.258190 0.799252 0.005827
Si Si3 0.302451 0.337001 0.163980
Si Si4 0.490906 0.123218 0.110670
Si Si5 0.623420 0.626062 0.346388
Si Si6 0.618734 0.665085 0.866690
Si Si7 0.984178 0.374386 0.302418
Si Si8 0.873375 0.667890 0.686625
O O1 0.476148 0.500000 0.746033
O O2 0.760126 0.374428 0.406908
O O3 0.450279 0.273351 0.764440
O O4 0.436303 0.366926 0.915594
O O5 0.210117 0.871158 0.144469
O O6 0.095787 0.706013 0.215358
O O7 0.267649 0.852463 0.907238
O O8 0.269994 0.204129 0.205534
O O9 0.089055 0.378615 0.419410
O O10 0.410481 0.372982 0.104592
O O11 0.529727 0.153258 0.152438
O O12 0.556897 0.000000 0.010534
O O13 0.585559 0.208089 0.928993
O O14 0.600278 0.500000 0.401705
O O15 0.432313 0.702306 0.596929
O O16 0.762031 0.641275 0.609056
O O17 0.738342 0.627036 0.789792
O O18 0.034468 0.500000 0.251163
#
# Coordination Sequence:
#
# PCOD9132152 Si02
#       8
#     4   4   4   4   4   4   4   4
#     4  10  19  36  61  88 118 158 205 253 304 359
#     4  11  20  39  61  88 121 163 201 254 309 357
#     4   9  21  37  59  88 122 158 196 251 304 358
#     4  10  22  36  59  90 116 154 206 248 298 362
#     4   9  21  40  59  84 121 161 202 249 299 358
#     4  12  20  39  62  88 126 160 190 255 311 355
#     4  11  22  38  60  89 122 158 205 255 300 363
#     4  10  22  37  60  89 118 156 206 243 300 362
#
# _framework density 22.360439
#
# number of rings (size 3 to 8) (size 9 to 14) (size 15 to 20)
#    0.750    1.000    3.750    1.125    0.000    2.000 
#    0.000    1.250    0.000    6.750    0.000    0.000 
#    0.000    0.000    0.000    0.000    0.000    0.000 
#
# Total GULP energy -89214.909167 kJ/mol
# GULP energy per Si atom -5575.931823 kJ/mol
# Density = 2.230955 g / cm^3
# Si number density = 22.360439 Si / 1000 Ang^3
#
#
#
# Elastic Constant Matrix: (Units=GPa)
#
#
# Indices 1 2 3 4 5 6 
#
# 1 131.1192 18.9710 44.3029 -0.0006 -16.1041 0.0007
# 2 18.9710 102.5714 1.7242 -0.0008 -5.7030 0.0006
# 3 44.3029 1.7242 72.7722 -0.0009 -12.4095 -0.0008
# 4 -0.0006 -0.0008 -0.0009 15.2687 0.0001 7.3495
# 5 -16.1041 -5.7030 -12.4095 0.0001 41.2217 0.0001
# 6 0.0007 0.0006 -0.0008 7.3495 0.0001 -8.3068
#
#
#
# Elastic Compliance Matrix: (Units=1/GPa)
#
#
# Indices 1 2 3 4 5 6 
#
# 1 0.010048 -0.001652 -0.005742 0.000000 0.001968 0.000001
# 2 -0.001652 0.010097 0.000943 0.000000 0.001035 0.000001
# 3 -0.005742 0.000943 0.017767 0.000001 0.003236 -0.000001
# 4 0.000000 0.000000 0.000001 0.045932 0.000000 0.040639
# 5 0.001968 0.001035 0.003236 0.000000 0.026145 0.000000
# 6 0.000001 0.000001 -0.000001 0.040639 0.000000 -0.084428
#
#
# Mechanical properties :
#
#
# Convention : Reuss Voigt Hill
#
# Bulk Modulus (GPa) = 39.98648 48.49544 44.24096
# Shear Modulus (GPa) = 106.83951 25.73437 66.28694
#
# Velocity S-wave (km/s) = 6.91985 3.39615 5.45060
# Velocity P-wave (km/s) = 9.04253 6.09210 7.70976
#
# Compressibility (1/GPa) = 0.02500845
#
# Stress axis : x y z
#
# Youngs Moduli (GPa) = 99.52627 99.04298 56.28525
#
# Poissons Ratio (x) = 0.16366 0.32320
# Poissons Ratio (y) = 0.16446 -0.05309
# Poissons Ratio (z) = 0.57149 -0.09343
#
# Static dielectric constant tensor:
#      x y z
#    x 1.861490 0.000000 -0.041540 
#    y 0.000000 1.819530 0.000000 
#    z -0.041540 0.000000 1.836070 
# 
# From -- ./inp_files/30139.got.cif
#   From: 2010.05.17/outbox.cif.g08.bks.cpg/sg8_16_cif.got.tgz:30139.got - 2010.06.03 19:46:02.
