data_PCOD9132541
_publ_section_title
;
Structure prediction by ZEFSAII (Michael W. Deem and Ramdas Pophale) SiO2 
 PCOD9132541
Probable space group: C M
;
_chemical_formula_sum "Si O2"
_cell_formula_units_Z 32
_cell_length_a 17.392780
_cell_length_b 13.961370
_cell_length_c 11.708261
_cell_angle_alpha 90.000000
_cell_angle_beta 33.037536
_cell_angle_gamma 90.000000
_cell_volume 1550.015373
_symmetry_space_group_name_H-M "C M"
_symmetry_group_IT_number 8
_symmetry_cell_setting 'monoclinic'
loop_
_space_group_symop_operation_xyz
x,y,z
x,-y,z
1/2+x,1/2+y,z
1/2+x,1/2-y,z
loop_
_atom_site_type_symbol
_atom_site_label
_atom_site_fract_x
_atom_site_fract_y
_atom_site_fract_z
Si Si1 0.086560 0.615335 0.065830
Si Si2 0.276251 0.389043 0.446522
Si Si3 0.397421 0.230392 0.129913
Si Si4 0.609458 0.885182 0.286566
Si Si5 0.113195 0.115012 0.436501
Si Si6 0.362989 0.384229 0.593880
Si Si7 0.412911 0.296308 0.876805
Si Si8 0.476915 0.890605 0.695543
O O1 0.079348 0.500000 0.070199
O O2 0.046549 0.647374 0.243504
O O3 0.988130 0.659249 0.092856
O O4 0.246137 0.644579 0.833404
O O5 0.322523 0.500000 0.377440
O O6 0.352769 0.319143 0.263821
O O7 0.310803 0.357057 0.532738
O O8 0.112600 0.388599 0.611151
O O9 0.258075 0.173047 0.262883
O O10 0.477422 0.269952 0.919525
O O11 0.531555 0.862469 0.501321
O O12 0.610599 0.000000 0.282398
O O13 0.770583 0.851824 0.083292
O O14 0.017708 0.143177 0.445626
O O15 0.018522 0.145523 0.664067
O O16 0.135785 0.000000 0.408202
O O17 0.362823 0.500000 0.594819
O O18 0.378588 0.194413 0.860312
O O19 0.422215 0.000000 0.763022
#
# Coordination Sequence:
#
# PCOD9132541 Si02
#       8
#     4   4   4   4   4   4   4   4
#     4  10  21  39  62  91 120 158 205 253 304 364
#     4  10  20  37  58  84 121 160 204 248 295 360
#     4  12  25  37  61  93 127 160 202 256 313 357
#     4  10  20  39  65  89 118 161 208 249 296 369
#     4  11  23  41  63  92 124 159 201 256 311 361
#     4   9  19  38  64  86 115 161 207 247 301 364
#     4  12  21  37  60  90 121 159 204 248 302 363
#     4  10  21  38  60  89 124 162 202 251 305 364
#
# _framework density 20.644956000000001
#
# number of rings (size 3 to 8) (size 9 to 14) (size 15 to 20)
#    0.000    1.500    3.750    1.500    0.000    4.500 
#    0.000    0.000    0.000    0.750    0.000    0.000 
#    0.000    0.000    0.000    0.000    0.000    0.000 
#
# Total GULP energy -89365.198339 kJ/mol
# GULP energy per Si atom -5585.324896 kJ/mol
# Density = 2.059797 g / cm^3
# Si number density = 20.644956 Si / 1000 Ang^3
#
#
#
# Elastic Constant Matrix: (Units=GPa)
#
#
# Indices 1 2 3 4 5 6 
#
# 1 141.5987 15.8170 24.8159 0.0000 15.1172 0.0000
# 2 15.8170 52.8001 9.5300 0.0000 10.7183 0.0000
# 3 24.8159 9.5300 38.6553 0.0000 10.4858 0.0000
# 4 0.0000 0.0000 0.0000 23.9286 0.0000 7.4377
# 5 15.1172 10.7183 10.4858 0.0000 35.6431 0.0000
# 6 0.0000 0.0000 0.0000 7.4377 0.0000 26.6099
#
#
#
# Elastic Compliance Matrix: (Units=1/GPa)
#
#
# Indices 1 2 3 4 5 6 
#
# 1 0.008175 -0.001286 -0.004451 0.000000 -0.001771 0.000000
# 2 -0.001286 0.020849 -0.003001 0.000000 -0.004841 0.000000
# 3 -0.004451 -0.003001 0.031200 0.000000 -0.006388 0.000000
# 4 0.000000 0.000000 0.000000 0.045767 0.000000 -0.012792
# 5 -0.001771 -0.004841 -0.006388 0.000000 0.032142 0.000000
# 6 0.000000 0.000000 0.000000 -0.012792 0.000000 0.041156
#
#
# Mechanical properties :
#
#
# Convention : Reuss Voigt Hill
#
# Bulk Modulus (GPa) = 23.39297 37.04222 30.21759
# Shear Modulus (GPa) = 23.69510 29.42907 26.56208
#
# Velocity S-wave (km/s) = 3.39151 3.77965 3.59083
# Velocity P-wave (km/s) = 5.16644 6.08516 5.64452
#
# Compressibility (1/GPa) = 0.04274789
#
# Stress axis : x y z
#
# Youngs Moduli (GPa) = 122.32482 47.96380 32.05154
#
# Poissons Ratio (x) = 0.06169 0.14265
# Poissons Ratio (y) = 0.15732 0.09619
# Poissons Ratio (z) = 0.54442 0.14395
#
# Static dielectric constant tensor:
#      x y z
#    x 1.770810 0.000000 0.019570 
#    y 0.000000 1.744310 0.000000 
#    z 0.019570 0.000000 1.719000 
# 
# From -- ./inp_files/23318.got.cif
#   From: 2010.05.17/outbox.cif.g08.bks.cpg/sg8_12_cif.got.tgz:23318.got - 2010.06.03 19:46:02.
