data_PCOD9132188
_publ_section_title
;
Structure prediction by ZEFSAII (Michael W. Deem and Ramdas Pophale) SiO2 
 PCOD9132188
Probable space group: C M
;
_chemical_formula_sum "Si O2"
_cell_formula_units_Z 32
_cell_length_a 20.072511
_cell_length_b 7.468171
_cell_length_c 12.426623
_cell_angle_alpha 90.000000
_cell_angle_beta 51.649247
_cell_angle_gamma 90.000000
_cell_volume 1460.867756
_symmetry_space_group_name_H-M "C M"
_symmetry_group_IT_number 8
_symmetry_cell_setting 'monoclinic'
loop_
_space_group_symop_operation_xyz
x,y,z
x,-y,z
1/2+x,1/2+y,z
1/2+x,1/2-y,z
loop_
_atom_site_type_symbol
_atom_site_label
_atom_site_fract_x
_atom_site_fract_y
_atom_site_fract_z
Si Si1 0.073410 0.719165 0.645330
Si Si2 0.064633 0.290652 0.899023
Si Si3 0.426938 0.780796 0.630896
Si Si4 0.215295 0.289787 0.334950
Si Si5 0.987324 0.282868 0.337923
Si Si6 0.179472 0.716831 0.131482
Si Si7 0.407858 0.782989 0.201930
Si Si8 0.238137 0.203882 0.844332
O O1 0.076500 0.500000 0.644537
O O2 0.075405 0.782198 0.766987
O O3 0.152650 0.779864 0.491198
O O4 0.986836 0.771890 0.670261
O O5 0.045164 0.500000 0.904739
O O6 0.152693 0.281085 0.877261
O O7 0.984571 0.217989 0.047734
O O8 0.468963 0.723283 0.476762
O O9 0.330027 0.715790 0.726497
O O10 0.424941 0.000000 0.635703
O O11 0.193439 0.500000 0.348386
O O12 0.201155 0.217230 0.228998
O O13 0.314017 0.270879 0.262095
O O14 0.984049 0.500000 0.344691
O O15 0.924947 0.222043 0.306864
O O16 0.081913 0.234889 0.208732
O O17 0.187479 0.500000 0.120138
O O18 0.231953 0.790094 0.979521
O O19 0.411130 0.000000 0.198641
O O20 0.239299 0.000000 0.804581
#
# Coordination Sequence:
#
# PCOD9132188 Si02
#       8
#     4   4   4   4   4   4   4   4
#     4   9  18  35  57  80 109 146 185 223 266 326
#     4  10  21  38  58  79 110 151 187 219 267 332
#     4   9  18  33  55  81 107 140 186 229 268 322
#     4  10  21  36  58  85 110 143 183 229 276 318
#     4   9  16  33  57  77 101 142 190 225 261 321
#     4  10  19  37  61  79 105 145 188 226 269 329
#     4  10  21  35  56  81 109 148 186 224 270 326
#     4  11  23  35  56  86 113 141 179 233 281 316
#
# _framework density 21.904789999999998
#
# number of rings (size 3 to 8) (size 9 to 14) (size 15 to 20)
#    0.000    2.250    2.500    0.375    3.500    1.000 
#    0.000    0.000    0.000    3.000    0.000    0.000 
#    0.000    0.000    0.000    0.000    0.000    0.000 
#
# Total GULP energy -89323.461988 kJ/mol
# GULP energy per Si atom -5582.716374 kJ/mol
# Density = 2.185493 g / cm^3
# Si number density = 21.904790 Si / 1000 Ang^3
#
#
#
# Elastic Constant Matrix: (Units=GPa)
#
#
# Indices 1 2 3 4 5 6 
#
# 1 102.9803 -10.8545 19.7729 0.0000 10.5085 0.0000
# 2 -10.8545 57.3796 -5.4687 0.0000 2.8122 0.0000
# 3 19.7729 -5.4687 83.7206 0.0000 7.1678 0.0000
# 4 0.0000 0.0000 0.0000 -7.6878 0.0000 -1.0110
# 5 10.5085 2.8122 7.1678 0.0000 44.2253 0.0000
# 6 0.0000 0.0000 0.0000 -1.0110 0.0000 6.9636
#
#
#
# Elastic Compliance Matrix: (Units=1/GPa)
#
#
# Indices 1 2 3 4 5 6 
#
# 1 0.010561 0.001902 -0.002175 0.000000 -0.002278 0.000000
# 2 0.001902 0.017956 0.000872 0.000000 -0.001735 0.000000
# 3 -0.002175 0.000872 0.012651 0.000000 -0.001589 0.000000
# 4 0.000000 0.000000 0.000000 -0.127639 0.000000 -0.018531
# 5 -0.002278 -0.001735 -0.001589 0.000000 0.023521 0.000000
# 6 0.000000 0.000000 0.000000 -0.018531 0.000000 0.140913
#
#
# Mechanical properties :
#
#
# Convention : Reuss Voigt Hill
#
# Bulk Modulus (GPa) = 23.60332 27.88664 25.74498
# Shear Modulus (GPa) = 55.01395 24.74229 39.87812
#
# Velocity S-wave (km/s) = 5.01693 3.36451 4.27138
# Velocity P-wave (km/s) = 6.66020 5.27747 6.00874
#
# Compressibility (1/GPa) = 0.04236692
#
# Stress axis : x y z
#
# Youngs Moduli (GPa) = 94.68654 55.69227 79.04388
#
# Poissons Ratio (x) = -0.10594 0.17192
# Poissons Ratio (y) = -0.18011 -0.06894
# Poissons Ratio (z) = 0.20595 -0.04857
#
# Static dielectric constant tensor:
#      x y z
#    x 1.754890 0.000000 0.006500 
#    y 0.000000 1.848040 0.000000 
#    z 0.006500 0.000000 1.769700 
# 
# From -- ./inp_files/23132.got.cif
#   From: 2010.05.17/outbox.cif.g08.bks.cpg/sg8_12_cif.got.tgz:23132.got - 2010.06.03 19:46:02.
