data_PCOD9132718
_publ_section_title
;
Structure prediction by ZEFSAII (Michael W. Deem and Ramdas Pophale) SiO2 
 PCOD9132718
Probable space group: C M
;
_chemical_formula_sum "Si O2"
_cell_formula_units_Z 32
_cell_length_a 24.545615
_cell_length_b 8.829451
_cell_length_c 19.873986
_cell_angle_alpha 90.000000
_cell_angle_beta 156.908042
_cell_angle_gamma 90.000000
_cell_volume 1689.308838
_symmetry_space_group_name_H-M "C M"
_symmetry_group_IT_number 8
_symmetry_cell_setting 'monoclinic'
loop_
_space_group_symop_operation_xyz
x,y,z
x,-y,z
1/2+x,1/2+y,z
1/2+x,1/2-y,z
loop_
_atom_site_type_symbol
_atom_site_label
_atom_site_fract_x
_atom_site_fract_y
_atom_site_fract_z
Si Si1 0.653480 0.318372 0.355810
Si Si2 0.518909 0.315556 0.344923
Si Si3 0.455337 0.320648 0.667161
Si Si4 0.513066 0.823507 0.589265
Si Si5 0.689639 0.317139 0.671662
Si Si6 0.709196 0.177171 0.029516
Si Si7 0.501543 0.178615 0.056628
Si Si8 0.250248 0.672904 0.235336
O O1 0.663557 0.500000 0.367480
O O2 0.589976 0.269089 0.355655
O O3 0.806757 0.251496 0.517306
O O4 0.554236 0.266333 0.182134
O O5 0.517877 0.500000 0.345015
O O6 0.607296 0.266805 0.510932
O O7 0.357588 0.269316 0.168440
O O8 0.438821 0.500000 0.646259
O O9 0.504476 0.259435 0.650683
O O10 0.577138 0.270786 0.855703
O O11 0.620952 0.751037 0.660113
O O12 0.364003 0.793385 0.386129
O O13 0.540757 0.000000 0.630486
O O14 0.678751 0.500000 0.661345
O O15 0.851577 0.275446 0.858020
O O16 0.721076 0.182971 0.123473
O O17 0.689628 0.000000 0.987951
O O18 0.614970 0.194485 0.126875
O O19 0.494501 0.000000 0.066147
O O20 0.303375 0.500000 0.308705
#
# Coordination Sequence:
#
# PCOD9132718 Si02
#       8
#     4   4   4   4   4   4   4   4
#     4  11  23  40  63  91 125 164 206 256 307 363
#     4   9  20  39  64  91 123 162 204 246 300 367
#     4  12  26  43  62  89 124 165 210 258 314 370
#     4  12  24  40  64  92 121 159 209 263 312 364
#     4  10  21  41  65  91 123 166 208 248 304 369
#     4  10  21  40  66  94 122 160 206 253 308 371
#     4  10  22  38  63  94 123 161 206 250 304 370
#     4  10  20  39  67  92 121 159 203 256 311 370
#
# _framework density 18.942658999999999
#
# number of rings (size 3 to 8) (size 9 to 14) (size 15 to 20)
#    0.000    1.500    2.500    2.625    3.500    1.000 
#    0.000    1.875    0.000    0.000    0.000    0.000 
#    0.000    0.000    0.000    0.000    0.000    0.000 
#
# Total GULP energy -89390.588916 kJ/mol
# GULP energy per Si atom -5586.911807 kJ/mol
# Density = 1.889954 g / cm^3
# Si number density = 18.942659 Si / 1000 Ang^3
#
#
#
# Elastic Constant Matrix: (Units=GPa)
#
#
# Indices 1 2 3 4 5 6 
#
# 1 87.1817 20.3544 -1.7819 0.0000 -1.1836 0.0000
# 2 20.3544 47.4250 18.1576 0.0000 -0.9398 0.0000
# 3 -1.7819 18.1576 64.1863 0.0000 3.4776 0.0000
# 4 0.0000 0.0000 0.0000 31.0282 0.0000 -5.0383
# 5 -1.1836 -0.9398 3.4776 0.0000 25.0669 0.0000
# 6 0.0000 0.0000 0.0000 -5.0383 0.0000 21.8669
#
#
#
# Elastic Compliance Matrix: (Units=1/GPa)
#
#
# Indices 1 2 3 4 5 6 
#
# 1 0.013014 -0.006416 0.002172 0.000000 0.000073 0.000000
# 2 -0.006416 0.026893 -0.007883 0.000000 0.001799 0.000000
# 3 0.002172 -0.007883 0.018016 0.000000 -0.002692 0.000000
# 4 0.000000 0.000000 0.000000 0.033481 0.000000 0.007714
# 5 0.000073 0.001799 -0.002692 0.000000 0.040338 0.000000
# 6 0.000000 0.000000 0.000000 0.007714 0.000000 0.047509
#
#
# Mechanical properties :
#
#
# Convention : Reuss Voigt Hill
#
# Bulk Modulus (GPa) = 29.70054 30.25035 29.97545
# Shear Modulus (GPa) = 23.28538 26.39660 24.84099
#
# Velocity S-wave (km/s) = 3.50988 3.73701 3.62522
# Velocity P-wave (km/s) = 5.66912 5.88425 5.77769
#
# Compressibility (1/GPa) = 0.03366942
#
# Stress axis : x y z
#
# Youngs Moduli (GPa) = 76.84316 37.18388 55.50638
#
# Poissons Ratio (x) = 0.23855 -0.12057
# Poissons Ratio (y) = 0.49299 0.43758
# Poissons Ratio (z) = -0.16692 0.29314
#
# Static dielectric constant tensor:
#      x y z
#    x 1.612430 0.000000 0.004810 
#    y 0.000000 1.664090 0.000000 
#    z 0.004810 0.000000 1.649740 
# 
# From -- ./inp_files/31669.got.cif
#   From: 2010.05.17/outbox.cif.g08.bks.cpg/sg8_16_cif.got.tgz:31669.got - 2010.06.03 19:46:02.
