data_PCOD9132469
_publ_section_title
;
Structure prediction by ZEFSAII (Michael W. Deem and Ramdas Pophale) SiO2 
 PCOD9132469
Probable space group: C M
;
_chemical_formula_sum "Si O2"
_cell_formula_units_Z 32
_cell_length_a 9.198554
_cell_length_b 27.527958
_cell_length_c 11.749553
_cell_angle_alpha 90.000000
_cell_angle_beta 145.455092
_cell_angle_gamma 90.000000
_cell_volume 1687.088230
_symmetry_space_group_name_H-M "C M"
_symmetry_group_IT_number 8
_symmetry_cell_setting 'monoclinic'
loop_
_space_group_symop_operation_xyz
x,y,z
x,-y,z
1/2+x,1/2+y,z
1/2+x,1/2-y,z
loop_
_atom_site_type_symbol
_atom_site_label
_atom_site_fract_x
_atom_site_fract_y
_atom_site_fract_z
Si Si1 0.917760 0.697832 0.302400
Si Si2 0.467278 0.700714 0.722232
Si Si3 0.804803 0.375159 0.018542
Si Si4 0.760267 0.621408 0.381884
Si Si5 0.056062 0.442395 0.759958
Si Si6 0.487446 0.233892 0.944358
Si Si7 0.658485 0.870984 0.031235
Si Si8 0.158636 0.945887 0.103922
O O1 0.854601 0.662549 0.154657
O O2 0.872157 0.670118 0.393844
O O3 0.726559 0.743530 0.167710
O O4 0.218705 0.709050 0.486453
O O5 0.546152 0.644626 0.791011
O O6 0.408080 0.726102 0.802544
O O7 0.735520 0.723356 0.854736
O O8 0.757690 0.425534 0.049227
O O9 0.031647 0.376687 0.073650
O O10 0.904517 0.592910 0.575544
O O11 0.755227 0.585587 0.271027
O O12 0.465930 0.629417 0.229299
O O13 0.973212 0.500000 0.712264
O O14 0.062765 0.413680 0.885202
O O15 0.350729 0.443237 0.908702
O O16 0.567466 0.183191 0.936703
O O17 0.245120 0.000000 0.178236
#
# Coordination Sequence:
#
# PCOD9132469 Si02
#       8
#     4   4   4   4   4   4   4   4
#     4  10  21  37  58  82 112 150 190 234 279 331
#     4  10  21  36  56  79 113 150 186 232 281 331
#     4   9  20  37  54  81 113 144 187 230 278 344
#     4  10  20  36  59  83 110 145 188 231 280 336
#     4  10  21  37  58  83 109 143 189 234 280 338
#     4  10  22  37  53  82 114 147 192 230 274 343
#     4  10  22  37  55  80 116 149 179 230 286 332
#     4   9  18  35  58  80 106 142 184 233 282 331
#
# _framework density 18.967592
#
# number of rings (size 3 to 8) (size 9 to 14) (size 15 to 20)
#    0.000    2.250    0.000    1.875    0.000   11.000 
#    0.000    0.000    0.000    0.000    0.000    0.000 
#    0.000    0.000    0.000    0.000    0.000    0.000 
#
# Total GULP energy -89157.253168 kJ/mol
# GULP energy per Si atom -5572.328323 kJ/mol
# Density = 1.892442 g / cm^3
# Si number density = 18.967592 Si / 1000 Ang^3
#
#
#
# Elastic Constant Matrix: (Units=GPa)
#
#
# Indices 1 2 3 4 5 6 
#
# 1 75.2266 33.4351 9.0302 0.0000 -0.3827 0.0000
# 2 33.4351 73.2441 18.5867 0.0000 5.7231 0.0000
# 3 9.0302 18.5867 81.5733 0.0000 3.5511 0.0000
# 4 0.0000 0.0000 0.0000 21.8807 0.0000 0.4483
# 5 -0.3827 5.7231 3.5511 0.0000 13.8683 0.0000
# 6 0.0000 0.0000 0.0000 0.4483 0.0000 26.8640
#
#
#
# Elastic Compliance Matrix: (Units=1/GPa)
#
#
# Indices 1 2 3 4 5 6 
#
# 1 0.016869 -0.007940 -0.000223 0.000000 0.003800 0.000000
# 2 -0.007940 0.018608 -0.003051 0.000000 -0.007117 0.000000
# 3 -0.000223 -0.003051 0.013070 0.000000 -0.002094 0.000000
# 4 0.000000 0.000000 0.000000 0.045718 0.000000 -0.000763
# 5 0.003800 -0.007117 -0.002094 0.000000 0.075685 0.000000
# 6 0.000000 0.000000 0.000000 -0.000763 0.000000 0.037237
#
#
# Mechanical properties :
#
#
# Convention : Reuss Voigt Hill
#
# Bulk Modulus (GPa) = 38.28992 39.12755 38.70873
# Shear Modulus (GPa) = 20.97996 23.78872 22.38434
#
# Velocity S-wave (km/s) = 3.32941 3.54528 3.43904
# Velocity P-wave (km/s) = 5.91699 6.11818 6.01842
#
# Compressibility (1/GPa) = 0.02611654
#
# Stress axis : x y z
#
# Youngs Moduli (GPa) = 59.28195 53.74009 76.51113
#
# Poissons Ratio (x) = 0.42672 0.01710
# Poissons Ratio (y) = 0.47073 0.23344
# Poissons Ratio (z) = 0.01325 0.16396
#
# Static dielectric constant tensor:
#      x y z
#    x 1.645960 0.000000 -0.001260 
#    y 0.000000 1.703950 0.000000 
#    z -0.001260 0.000000 1.663990 
# 
# From -- ./inp_files/1989.got.cif
#   From: 2010.05.17/outbox.cif.g08.bks.cpg/sg8_1_cif.got.tgz:1989.got - 2010.06.03 19:46:02.
