data_PCOD9132682
_publ_section_title
;
Structure prediction by ZEFSAII (Michael W. Deem and Ramdas Pophale) SiO2 
 PCOD9132682
Probable space group: C M
;
_chemical_formula_sum "Si O2"
_cell_formula_units_Z 28
_cell_length_a 10.455360
_cell_length_b 14.797351
_cell_length_c 9.004533
_cell_angle_alpha 90.000000
_cell_angle_beta 68.796184
_cell_angle_gamma 90.000000
_cell_volume 1298.792320
_symmetry_space_group_name_H-M "C M"
_symmetry_group_IT_number 8
_symmetry_cell_setting 'monoclinic'
loop_
_space_group_symop_operation_xyz
x,y,z
x,-y,z
1/2+x,1/2+y,z
1/2+x,1/2-y,z
loop_
_atom_site_type_symbol
_atom_site_label
_atom_site_fract_x
_atom_site_fract_y
_atom_site_fract_z
Si Si1 0.746970 0.243493 0.119270
Si Si2 0.619530 0.102092 0.710021
Si Si3 0.208288 0.895765 0.932064
Si Si4 0.448402 0.395202 0.557188
Si Si5 0.907351 0.601557 0.565178
Si Si6 0.493277 0.707100 0.835395
Si Si7 0.442623 0.748581 0.315461
O O1 0.589561 0.214542 0.197282
O O2 0.833634 0.231667 0.232074
O O3 0.749441 0.347744 0.066254
O O4 0.834217 0.200574 0.948277
O O5 0.783024 0.107331 0.645225
O O6 0.561849 0.106656 0.565202
O O7 0.552338 0.190726 0.812285
O O8 0.578330 0.000000 0.781116
O O9 0.316790 0.884262 0.751618
O O10 0.074298 0.847826 0.925204
O O11 0.185745 0.000000 0.963862
O O12 0.491806 0.500000 0.540243
O O13 0.512214 0.339112 0.667397
O O14 0.476631 0.341802 0.393857
O O15 0.880645 0.500000 0.521180
O O16 0.882973 0.678813 0.456861
#
# Coordination Sequence:
#
# PCOD9132682 Si02
#       7
#     4   4   4   4   4   4   4
#     4  12  26  42  69  95 142 184 219 270 351 401
#     4  10  20  38  68  98 126 165 222 285 330 382
#     4  11  24  44  69 100 133 178 234 283 331 397
#     4  11  25  43  70  99 130 177 230 278 332 403
#     4  10  21  41  70  95 126 174 232 285 328 391
#     4  12  22  44  68  99 135 180 229 279 331 403
#     4  12  25  44  65 100 142 180 219 280 344 413
#
# _framework density 21.558489999999999
#
# number of rings (size 3 to 8) (size 9 to 14) (size 15 to 20)
#    0.000    0.857    4.286    3.000    2.000    1.143 
#    0.000    1.429    0.000    0.857    0.000    0.000 
#    0.000    0.000    0.000    0.000    0.000    0.000 
#
# Total GULP energy -78228.503493 kJ/mol
# GULP energy per Si atom -5587.750250 kJ/mol
# Density = 2.150942 g / cm^3
# Si number density = 21.558490 Si / 1000 Ang^3
#
#
#
# Elastic Constant Matrix: (Units=GPa)
#
#
# Indices 1 2 3 4 5 6 
#
# 1 57.2009 0.8350 5.9261 0.0000 3.5716 0.0000
# 2 0.8350 92.7792 41.6691 0.0000 5.2820 0.0000
# 3 5.9261 41.6691 52.2997 0.0000 11.7381 0.0000
# 4 0.0000 0.0000 0.0000 19.1691 0.0000 0.4868
# 5 3.5716 5.2820 11.7381 0.0000 38.1347 0.0000
# 6 0.0000 0.0000 0.0000 0.4868 0.0000 27.3122
#
#
#
# Elastic Compliance Matrix: (Units=1/GPa)
#
#
# Indices 1 2 3 4 5 6 
#
# 1 0.017805 0.001093 -0.002664 0.000000 -0.000999 0.000000
# 2 0.001093 0.016984 -0.014077 0.000000 0.001878 0.000000
# 3 -0.002664 -0.014077 0.032382 0.000000 -0.007768 0.000000
# 4 0.000000 0.000000 0.000000 0.052191 0.000000 -0.000930
# 5 -0.000999 0.001878 -0.007768 0.000000 0.028447 0.000000
# 6 0.000000 0.000000 0.000000 -0.000930 0.000000 0.036630
#
#
# Mechanical properties :
#
#
# Convention : Reuss Voigt Hill
#
# Bulk Modulus (GPa) = 27.87547 33.23782 30.55664
# Shear Modulus (GPa) = 21.95941 27.17983 24.56962
#
# Velocity S-wave (km/s) = 3.19501 3.55455 3.37957
# Velocity P-wave (km/s) = 5.15451 5.68308 5.42524
#
# Compressibility (1/GPa) = 0.03587384
#
# Stress axis : x y z
#
# Youngs Moduli (GPa) = 56.16501 58.87952 30.88171
#
# Poissons Ratio (x) = -0.06437 0.08228
# Poissons Ratio (y) = -0.06140 0.43472
# Poissons Ratio (z) = 0.14964 0.82885
#
# Static dielectric constant tensor:
#      x y z
#    x 1.822440 0.000000 -0.048130 
#    y 0.000000 1.783240 0.000000 
#    z -0.048130 0.000000 1.801780 
# 
# From -- ./inp_files/10660.got.cif
#   From: 2010.05.17/outbox.cif.g08.bks.cpg/sg8_6_cif.got.tgz:10660.got - 2010.06.03 19:46:02.
