data_PCOD9132665
_publ_section_title
;
Structure prediction by ZEFSAII (Michael W. Deem and Ramdas Pophale) SiO2 
 PCOD9132665
Probable space group: C M
;
_chemical_formula_sum "Si O2"
_cell_formula_units_Z 20
_cell_length_a 8.053462
_cell_length_b 22.649831
_cell_length_c 5.218427
_cell_angle_alpha 90.000000
_cell_angle_beta 124.093263
_cell_angle_gamma 90.000000
_cell_volume 788.285873
_symmetry_space_group_name_H-M "C M"
_symmetry_group_IT_number 8
_symmetry_cell_setting 'monoclinic'
loop_
_space_group_symop_operation_xyz
x,y,z
x,-y,z
1/2+x,1/2+y,z
1/2+x,1/2-y,z
loop_
_atom_site_type_symbol
_atom_site_label
_atom_site_fract_x
_atom_site_fract_y
_atom_site_fract_z
Si Si1 0.790290 0.775151 0.772980
Si Si2 0.400751 0.066594 0.150460
Si Si3 0.548650 0.623478 0.103422
Si Si4 0.071120 0.679395 0.083001
Si Si5 0.978239 0.064650 0.547153
O O1 0.693631 0.788166 0.415670
O O2 0.657075 0.804468 0.879490
O O3 0.000312 0.810662 0.977253
O O4 0.847000 0.707633 0.876914
O O5 0.277584 0.101448 0.267845
O O6 0.556191 0.111194 0.156654
O O7 0.463594 0.000000 0.277828
O O8 0.219618 0.059868 0.791391
O O9 0.462028 0.610970 0.306899
O O10 0.424453 0.584504 0.787546
O O11 0.899489 0.000000 0.410152
#
# Coordination Sequence:
#
# PCOD9132665 Si02
#       5
#     4   4   4   4   4
#     4  12  27  45  69 100 134 175 224 281 337 390
#     4   9  22  42  68  97 134 179 219 264 332 403
#     4  10  20  38  65  93 130 167 224 266 324 394
#     4  12  27  45  70  98 136 176 224 280 332 397
#     4   9  18  34  64  94 124 171 215 257 311 394
#
# _framework density 25.371506
#
# number of rings (size 3 to 8) (size 9 to 14) (size 15 to 20)
#    1.200    0.400    0.000    4.800    5.600    0.000 
#    0.000    8.000    0.000    0.000    0.000    0.000 
#    0.000    0.000    0.000    0.000    0.000    0.000 
#
# Total GULP energy -55834.296039 kJ/mol
# GULP energy per Si atom -5583.429604 kJ/mol
# Density = 2.531376 g / cm^3
# Si number density = 25.371506 Si / 1000 Ang^3
#
#
#
# Elastic Constant Matrix: (Units=GPa)
#
#
# Indices 1 2 3 4 5 6 
#
# 1 113.9275 6.9051 1.2727 0.0000 -11.7280 0.0000
# 2 6.9051 112.0741 6.0591 0.0000 9.3770 0.0000
# 3 1.2727 6.0591 87.2990 0.0000 -21.0965 0.0000
# 4 0.0000 0.0000 0.0000 34.5791 0.0000 2.3126
# 5 -11.7280 9.3770 -21.0965 0.0000 31.9638 0.0000
# 6 0.0000 0.0000 0.0000 2.3126 0.0000 30.5978
#
#
#
# Elastic Compliance Matrix: (Units=1/GPa)
#
#
# Indices 1 2 3 4 5 6 
#
# 1 0.009273 -0.000988 0.000982 0.000000 0.004341 0.000000
# 2 -0.000988 0.009427 -0.001661 0.000000 -0.004224 0.000000
# 3 0.000982 -0.001661 0.013992 0.000000 0.010083 0.000000
# 4 0.000000 0.000000 0.000000 0.029066 0.000000 -0.002197
# 5 0.004341 -0.004224 0.010083 0.000000 0.040772 0.000000
# 6 0.000000 0.000000 0.000000 -0.002197 0.000000 0.032848
#
#
# Mechanical properties :
#
#
# Convention : Reuss Voigt Hill
#
# Bulk Modulus (GPa) = 34.05943 37.97495 36.01719
# Shear Modulus (GPa) = 33.67069 39.36572 36.51820
#
# Velocity S-wave (km/s) = 3.64690 3.94327 3.79798
# Velocity P-wave (km/s) = 5.58450 5.97767 5.78443
#
# Compressibility (1/GPa) = 0.02936044
#
# Stress axis : x y z
#
# Youngs Moduli (GPa) = 107.83732 106.08174 71.46742
#
# Poissons Ratio (x) = 0.10477 -0.07020
# Poissons Ratio (y) = 0.10650 0.11868
# Poissons Ratio (z) = -0.10593 0.17616
#
# Static dielectric constant tensor:
#      x y z
#    x 2.074570 0.000000 0.065550 
#    y 0.000000 2.025690 0.000000 
#    z 0.065550 0.000000 1.923350 
# 
# From -- ./inp_files/1508.got.cif
#   From: 2010.05.17/outbox.cif.g08.bks.cpg/sg8_1_cif.got.tgz:1508.got - 2010.06.03 19:46:02.
