data_PCOD9132410
_publ_section_title
;
Structure prediction by ZEFSAII (Michael W. Deem and Ramdas Pophale) SiO2 
 PCOD9132410
Probable space group: C M
;
_chemical_formula_sum "Si O2"
_cell_formula_units_Z 32
_cell_length_a 25.974010
_cell_length_b 8.817464
_cell_length_c 24.475384
_cell_angle_alpha 90.000000
_cell_angle_beta 17.394791
_cell_angle_gamma 90.000000
_cell_volume 1675.778582
_symmetry_space_group_name_H-M "C M"
_symmetry_group_IT_number 8
_symmetry_cell_setting 'monoclinic'
loop_
_space_group_symop_operation_xyz
x,y,z
x,-y,z
1/2+x,1/2+y,z
1/2+x,1/2-y,z
loop_
_atom_site_type_symbol
_atom_site_label
_atom_site_fract_x
_atom_site_fract_y
_atom_site_fract_z
Si Si1 0.751910 0.318223 0.535850
Si Si2 0.963005 0.675199 0.624118
Si Si3 0.469172 0.182781 0.740818
Si Si4 0.089615 0.680754 0.127606
Si Si5 0.768524 0.816240 0.638444
Si Si6 0.048920 0.174843 0.054086
Si Si7 0.457648 0.182565 0.033354
Si Si8 0.084974 0.181742 0.388760
O O1 0.736715 0.500000 0.550093
O O2 0.606167 0.247662 0.644457
O O3 0.734158 0.256194 0.614881
O O4 0.941723 0.277567 0.320566
O O5 0.016873 0.500000 0.563351
O O6 0.016104 0.729432 0.630831
O O7 0.029831 0.767626 0.505097
O O8 0.755004 0.679606 0.835050
O O9 0.467673 0.000000 0.743498
O O10 0.274813 0.240711 0.948924
O O11 0.114250 0.500000 0.103227
O O12 0.020992 0.732471 0.137689
O O13 0.949330 0.763240 0.481304
O O14 0.768757 0.000000 0.632915
O O15 0.621979 0.775207 0.830830
O O16 0.962583 0.243686 0.087990
O O17 0.998152 0.000000 0.113595
O O18 0.281949 0.228180 0.181153
O O19 0.459846 0.000000 0.037671
O O20 0.077522 0.000000 0.394626
#
# Coordination Sequence:
#
# PCOD9132410 Si02
#       8
#     4   4   4   4   4   4   4   4
#     4  11  25  42  63  90 121 162 208 254 304 361
#     4   9  19  35  56  86 121 153 191 239 295 351
#     4  10  22  40  62  91 124 160 202 251 303 362
#     4  10  22  40  61  89 124 161 202 251 305 361
#     4  10  22  41  60  83 119 160 203 252 299 352
#     4  10  20  35  58  88 122 159 198 244 299 357
#     4  10  21  37  58  87 118 154 199 244 299 360
#     4  10  21  36  58  86 115 153 197 239 294 356
#
# _framework density 19.095600000000001
#
# number of rings (size 3 to 8) (size 9 to 14) (size 15 to 20)
#    0.000    2.000    1.250    2.250    1.750    7.000 
#    0.000    1.250    0.000    0.000    0.000    0.000 
#    0.000    0.000    0.000    0.000    0.000    0.000 
#
# Total GULP energy -89361.508644 kJ/mol
# GULP energy per Si atom -5585.094290 kJ/mol
# Density = 1.905214 g / cm^3
# Si number density = 19.095600 Si / 1000 Ang^3
#
#
#
# Elastic Constant Matrix: (Units=GPa)
#
#
# Indices 1 2 3 4 5 6 
#
# 1 108.0346 15.5985 20.7961 -0.0005 -26.3161 -0.0002
# 2 15.5985 22.2762 13.1780 -0.0090 -6.3878 0.0013
# 3 20.7961 13.1780 36.1587 -0.0078 -19.4609 0.0021
# 4 -0.0005 -0.0090 -0.0078 -0.9114 0.0022 1.0168
# 5 -26.3161 -6.3878 -19.4609 0.0022 28.9562 -0.0001
# 6 -0.0002 0.0013 0.0021 1.0168 -0.0001 34.6096
#
#
#
# Elastic Compliance Matrix: (Units=1/GPa)
#
#
# Indices 1 2 3 4 5 6 
#
# 1 0.012584 -0.006200 0.000691 0.000073 0.010534 -0.000002
# 2 -0.006200 0.060372 -0.022406 -0.000409 -0.007375 0.000011
# 3 0.000691 -0.022406 0.051861 -0.000147 0.030540 0.000002
# 4 0.000073 -0.000409 -0.000147 -1.062413 -0.000042 0.031214
# 5 0.010534 -0.007375 0.030540 -0.000042 0.063007 0.000000
# 6 -0.000002 0.000011 0.000002 0.031214 0.000000 0.027977
#
#
# Mechanical properties :
#
#
# Convention : Reuss Voigt Hill
#
# Bulk Modulus (GPa) = 14.49537 29.51278 22.00408
# Shear Modulus (GPa) = -6.51224 20.32401 6.90589
#
# Velocity S-wave (km/s) = -1.84871 3.26595 1.90377
# Velocity P-wave (km/s) = 1.74655 5.45075 4.04729
#
# Compressibility (1/GPa) = 0.06898752
#
# Stress axis : x y z
#
# Youngs Moduli (GPa) = 79.46374 16.56387 19.28226
#
# Poissons Ratio (x) = 0.10270 -0.01333
# Poissons Ratio (y) = 0.49270 0.43204
# Poissons Ratio (z) = -0.05494 0.37113
#
# Static dielectric constant tensor:
#      x y z
#    x 1.627130 0.000000 -0.018240 
#    y 0.000000 1.641960 0.000000 
#    z -0.018240 0.000000 1.677120 
# 
# From -- ./inp_files/32352.got.cif
#   From: 2010.05.17/outbox.cif.g08.bks.cpg/sg8_17_cif.got.tgz:32352.got - 2010.06.03 19:46:02.
