data_PCOD9132268
_publ_section_title
;
Structure prediction by ZEFSAII (Michael W. Deem and Ramdas Pophale) SiO2 
 PCOD9132268
Probable space group: C M
;
_chemical_formula_sum "Si O2"
_cell_formula_units_Z 22
_cell_length_a 8.152678
_cell_length_b 15.025591
_cell_length_c 9.046115
_cell_angle_alpha 90.000000
_cell_angle_beta 45.480029
_cell_angle_gamma 90.000000
_cell_volume 790.109349
_symmetry_space_group_name_H-M "C M"
_symmetry_group_IT_number 8
_symmetry_cell_setting 'monoclinic'
loop_
_space_group_symop_operation_xyz
x,y,z
x,-y,z
1/2+x,1/2+y,z
1/2+x,1/2-y,z
loop_
_atom_site_type_symbol
_atom_site_label
_atom_site_fract_x
_atom_site_fract_y
_atom_site_fract_z
Si Si1 0.588210 0.714782 0.612670
Si Si2 0.960871 0.144257 0.142120
Si Si3 0.562984 0.000000 0.926062
Si Si4 0.400733 0.409166 0.503914
Si Si5 0.634860 0.837461 0.086733
Si Si6 0.387360 0.893099 0.654616
O O1 0.526636 0.672637 0.495722
O O2 0.365073 0.694474 0.854489
O O3 0.581983 0.820683 0.585801
O O4 0.778844 0.657029 0.578690
O O5 0.947962 0.090386 0.300744
O O6 0.986432 0.247885 0.172447
O O7 0.181300 0.112997 0.906751
O O8 0.739997 0.133281 0.177211
O O9 0.526950 0.079878 0.069646
O O10 0.658344 0.074325 0.743329
O O11 0.521156 0.500000 0.487972
O O12 0.438038 0.000000 0.602047
#
# Coordination Sequence:
#
# PCOD9132268 Si02
#       6
#     4   4   2   4   4   4
#     4   9  19  35  56  84 115 155 202 241 300 362
#     4  10  20  33  60  87 113 148 196 247 297 351
#     4   8  18  34  60  80 112 156 200 222 294 368
#     4   9  18  32  56  87 114 151 196 248 289 363
#     4   9  19  35  58  83 113 154 191 241 289 367
#     4  10  20  36  61  83 114 159 201 248 298 372
#
# _framework density 27.844249999999999
#
# number of rings (size 3 to 8) (size 9 to 14) (size 15 to 20)
#    0.545    2.182    0.000    1.091    8.909    1.455 
#    0.000    3.636   34.000    0.000    0.000    0.000 
#    0.000    0.000    0.000    0.000    0.000    0.000 
#
# Total GULP energy -61241.627464 kJ/mol
# GULP energy per Si atom -5567.420679 kJ/mol
# Density = 2.778087 g / cm^3
# Si number density = 27.844250 Si / 1000 Ang^3
#
#
#
# Elastic Constant Matrix: (Units=GPa)
#
#
# Indices 1 2 3 4 5 6 
#
# 1 85.0372 46.6593 63.3650 0.0004 -0.3033 0.0009
# 2 46.6593 270.4971 46.9712 0.0005 30.7419 0.0003
# 3 63.3650 46.9712 120.9398 0.0003 38.8333 0.0004
# 4 0.0004 0.0005 0.0003 117.0642 -0.0001 20.2737
# 5 -0.3033 30.7419 38.8333 -0.0001 57.9999 -0.0003
# 6 0.0009 0.0003 0.0004 20.2737 -0.0003 31.2331
#
#
#
# Elastic Compliance Matrix: (Units=1/GPa)
#
#
# Indices 1 2 3 4 5 6 
#
# 1 0.025621 -0.003025 -0.016314 0.000000 0.012661 0.000000
# 2 -0.003025 0.004408 0.000801 0.000000 -0.002888 0.000000
# 3 -0.016314 0.000801 0.021234 0.000000 -0.014727 0.000000
# 4 0.000000 0.000000 0.000000 0.009624 0.000000 -0.006247
# 5 0.012661 -0.002888 -0.014727 0.000000 0.028699 0.000000
# 6 0.000000 0.000000 0.000000 -0.006247 0.000000 0.036072
#
#
# Mechanical properties :
#
#
# Convention : Reuss Voigt Hill
#
# Bulk Modulus (GPa) = 70.49706 87.82948 79.16327
# Shear Modulus (GPa) = 29.85702 62.55799 46.20751
#
# Velocity S-wave (km/s) = 3.27813 4.74509 4.07811
# Velocity P-wave (km/s) = 6.30091 7.85066 7.11809
#
# Compressibility (1/GPa) = 0.01418499
#
# Stress axis : x y z
#
# Youngs Moduli (GPa) = 39.03024 226.85990 47.09443
#
# Poissons Ratio (x) = 0.68636 0.76830
# Poissons Ratio (y) = 0.11808 -0.03770
# Poissons Ratio (z) = 0.63674 -0.18161
#
# Static dielectric constant tensor:
#      x y z
#    x 2.302530 0.000000 -0.024000 
#    y 0.000000 1.822820 0.000000 
#    z -0.024000 0.000000 2.191000 
# 
# From -- ./inp_files/7835.got.cif
#   From: 2010.05.17/outbox.cif.g08.bks.cpg/sg8_4_cif.got.tgz:7835.got - 2010.06.03 19:46:02.
