data_PCOD9132890
_publ_section_title
;
Structure prediction by ZEFSAII (Michael W. Deem and Ramdas Pophale) SiO2 
 PCOD9132890
Probable space group: C M
;
_chemical_formula_sum "Si O2"
_cell_formula_units_Z 28
_cell_length_a 12.540367
_cell_length_b 14.343938
_cell_length_c 11.696996
_cell_angle_alpha 90.000000
_cell_angle_beta 49.157300
_cell_angle_gamma 90.000000
_cell_volume 1591.719158
_symmetry_space_group_name_H-M "C M"
_symmetry_group_IT_number 8
_symmetry_cell_setting 'monoclinic'
loop_
_space_group_symop_operation_xyz
x,y,z
x,-y,z
1/2+x,1/2+y,z
1/2+x,1/2-y,z
loop_
_atom_site_type_symbol
_atom_site_label
_atom_site_fract_x
_atom_site_fract_y
_atom_site_fract_z
Si Si1 0.091860 0.606838 0.344180
Si Si2 0.442220 0.791146 0.640939
Si Si3 0.538178 0.764134 0.174122
Si Si4 0.807882 0.102054 0.645774
Si Si5 0.756245 0.170573 0.436603
Si Si6 0.508985 0.104979 0.978101
Si Si7 0.264838 0.889053 0.965099
O O1 0.071520 0.500000 0.325291
O O2 0.109215 0.673837 0.223796
O O3 0.220509 0.615824 0.344567
O O4 0.962834 0.646141 0.512292
O O5 0.388189 0.689564 0.643559
O O6 0.603268 0.785513 0.574021
O O7 0.341706 0.842238 0.801754
O O8 0.379779 0.742111 0.324139
O O9 0.530183 0.822074 0.063508
O O10 0.625244 0.669471 0.091971
O O11 0.804412 0.111364 0.511386
O O12 0.865109 0.000000 0.638291
O O13 0.647215 0.106857 0.801861
O O14 0.497030 0.000000 0.034482
O O15 0.373294 0.122179 0.994648
O O16 0.242413 0.000000 0.963482
#
# Coordination Sequence:
#
# PCOD9132890 Si02
#       7
#     4   4   4   4   4   4   4
#     4  10  21  37  60  85 112 153 193 227 282 345
#     4  10  21  40  61  84 112 149 201 240 275 340
#     4  12  22  38  57  90 122 148 183 247 291 336
#     4  11  20  37  64  87 111 151 200 240 282 338
#     4  10  21  38  60  84 116 154 192 238 281 341
#     4  10  21  37  60  86 115 156 193 231 290 349
#     4  11  23  39  61  86 114 153 197 239 282 341
#
# _framework density 17.591042999999999
#
# number of rings (size 3 to 8) (size 9 to 14) (size 15 to 20)
#    0.857    0.571    4.286    2.143    0.000    1.143 
#    0.000    1.429    0.000    0.857    0.000    0.000 
#    0.000    0.000    0.000    0.000    0.000    0.000 
#
# Total GULP energy -78007.704817 kJ/mol
# GULP energy per Si atom -5571.978915 kJ/mol
# Density = 1.755100 g / cm^3
# Si number density = 17.591043 Si / 1000 Ang^3
#
#
#
# Elastic Constant Matrix: (Units=GPa)
#
#
# Indices 1 2 3 4 5 6 
#
# 1 50.2274 54.5008 16.9050 0.0000 6.2298 0.0000
# 2 54.5008 141.1659 37.9553 0.0000 12.4342 0.0000
# 3 16.9050 37.9553 64.7384 0.0000 16.3658 0.0000
# 4 0.0000 0.0000 0.0000 9.8549 0.0000 -1.5082
# 5 6.2298 12.4342 16.3658 0.0000 28.0596 0.0000
# 6 0.0000 0.0000 0.0000 -1.5082 0.0000 17.8362
#
#
#
# Elastic Compliance Matrix: (Units=1/GPa)
#
#
# Indices 1 2 3 4 5 6 
#
# 1 0.034412 -0.012873 -0.001113 0.000000 -0.001286 0.000000
# 2 -0.012873 0.013249 -0.004275 0.000000 -0.000520 0.000000
# 3 -0.001113 -0.004275 0.020764 0.000000 -0.009969 0.000000
# 4 0.000000 0.000000 0.000000 0.102803 0.000000 0.008693
# 5 -0.001286 -0.000520 -0.009969 0.000000 0.041969 0.000000
# 6 0.000000 0.000000 0.000000 0.008693 0.000000 0.056801
#
#
# Mechanical properties :
#
#
# Convention : Reuss Voigt Hill
#
# Bulk Modulus (GPa) = 31.34565 52.76155 42.05360
# Shear Modulus (GPa) = 15.76521 20.93485 18.35003
#
# Velocity S-wave (km/s) = 2.99692 3.45350 3.23328
# Velocity P-wave (km/s) = 5.46197 6.77944 6.15605
#
# Compressibility (1/GPa) = 0.03190236
#
# Stress axis : x y z
#
# Youngs Moduli (GPa) = 29.05967 75.47762 48.16033
#
# Poissons Ratio (x) = 0.97162 0.05363
# Poissons Ratio (y) = 0.37408 0.20588
# Poissons Ratio (z) = 0.03236 0.32265
#
# Static dielectric constant tensor:
#      x y z
#    x 1.596160 0.000000 0.008480 
#    y 0.000000 1.591770 0.000000 
#    z 0.008480 0.000000 1.595620 
# 
# From -- ./inp_files/22054.got.cif
#   From: 2010.05.17/outbox.cif.g08.bks.cpg/sg8_12_cif.got.tgz:22054.got - 2010.06.03 19:46:02.
