data_PCOD9132805
_publ_section_title
;
Structure prediction by ZEFSAII (Michael W. Deem and Ramdas Pophale) SiO2 
 PCOD9132805
Probable space group: C M
;
_chemical_formula_sum "Si O2"
_cell_formula_units_Z 32
_cell_length_a 10.840326
_cell_length_b 28.434562
_cell_length_c 5.205710
_cell_angle_alpha 90.000000
_cell_angle_beta 82.666876
_cell_angle_gamma 90.000000
_cell_volume 1591.483265
_symmetry_space_group_name_H-M "C M"
_symmetry_group_IT_number 8
_symmetry_cell_setting 'monoclinic'
loop_
_space_group_symop_operation_xyz
x,y,z
x,-y,z
1/2+x,1/2+y,z
1/2+x,1/2-y,z
loop_
_atom_site_type_symbol
_atom_site_label
_atom_site_fract_x
_atom_site_fract_y
_atom_site_fract_z
Si Si1 0.502200 0.720361 0.652920
Si Si2 0.980867 0.144949 0.024521
Si Si3 0.794343 0.795148 0.355203
Si Si4 0.064883 0.316684 0.780331
Si Si5 0.707723 0.296984 0.220918
Si Si6 0.296815 0.054256 0.367368
Si Si7 0.128362 0.054406 0.902795
Si Si8 0.450275 0.856131 0.292574
O O1 0.407931 0.734054 0.452624
O O2 0.510157 0.764256 0.838587
O O3 0.638775 0.709629 0.511615
O O4 0.452669 0.671372 0.768664
O O5 0.103897 0.174277 0.088322
O O6 0.863038 0.159158 0.225639
O O7 0.018825 0.091462 0.980732
O O8 0.694609 0.809062 0.596769
O O9 0.738893 0.758176 0.159153
O O10 0.984172 0.340214 0.571689
O O11 0.055048 0.344376 0.050457
O O12 0.828826 0.328584 0.218954
O O13 0.206907 0.068260 0.628639
O O14 0.411024 0.089599 0.315168
O O15 0.333240 0.000000 0.400525
O O16 0.217860 0.056818 0.126323
O O17 0.088358 0.000000 0.882149
#
# Coordination Sequence:
#
# PCOD9132805 Si02
#       8
#     4   4   4   4   4   4   4   4
#     4  10  22  36  57  81 117 163 202 249 294 350
#     4  11  22  36  64  83 120 166 198 255 304 360
#     4  10  23  40  52  84 122 166 209 242 286 361
#     4  11  26  37  57  84 121 165 203 243 287 353
#     4  10  21  35  55  86 119 152 200 243 301 353
#     4  10  21  39  63  92 123 149 189 255 316 369
#     4  10  21  38  63  96 123 149 194 257 317 363
#     4  12  22  39  59  88 119 156 195 244 303 359
#
# _framework density 20.107030000000002
#
# number of rings (size 3 to 8) (size 9 to 14) (size 15 to 20)
#    0.000    1.500    2.500    2.250    8.750    1.000 
#    0.000    0.000    0.000    1.500    0.000    0.000 
#    0.000    0.000    0.000    0.000    0.000    0.000 
#
# Total GULP energy -89275.226124 kJ/mol
# GULP energy per Si atom -5579.701633 kJ/mol
# Density = 2.006127 g / cm^3
# Si number density = 20.107030 Si / 1000 Ang^3
#
#
#
# Elastic Constant Matrix: (Units=GPa)
#
#
# Indices 1 2 3 4 5 6 
#
# 1 49.9172 16.1007 5.2068 0.0000 -11.8806 0.0000
# 2 16.1007 108.2426 21.5299 0.0000 -16.8784 0.0000
# 3 5.2068 21.5299 80.8782 0.0000 -9.0965 0.0000
# 4 0.0000 0.0000 0.0000 18.6997 0.0000 -14.4087
# 5 -11.8806 -16.8784 -9.0965 0.0000 32.8921 0.0000
# 6 0.0000 0.0000 0.0000 -14.4087 0.0000 21.8771
#
#
#
# Elastic Compliance Matrix: (Units=1/GPa)
#
#
# Indices 1 2 3 4 5 6 
#
# 1 0.022411 -0.002240 -0.000067 0.000000 0.006927 0.000000
# 2 -0.002240 0.010646 -0.002236 0.000000 0.004035 0.000000
# 3 -0.000067 -0.002236 0.013244 0.000000 0.002491 0.000000
# 4 0.000000 0.000000 0.000000 0.108579 0.000000 0.071513
# 5 0.006927 0.004035 0.002491 0.000000 0.035664 0.000000
# 6 0.000000 0.000000 0.000000 0.071513 0.000000 0.092810
#
#
# Mechanical properties :
#
#
# Convention : Reuss Voigt Hill
#
# Bulk Modulus (GPa) = 26.87138 36.07920 31.47529
# Shear Modulus (GPa) = 16.40175 27.77381 22.08778
#
# Velocity S-wave (km/s) = 2.85918 3.72061 3.31797
# Velocity P-wave (km/s) = 4.92880 6.03654 5.51058
#
# Compressibility (1/GPa) = 0.03721432
#
# Stress axis : x y z
#
# Youngs Moduli (GPa) = 44.62025 93.93496 75.50609
#
# Poissons Ratio (x) = 0.21042 0.00509
# Poissons Ratio (y) = 0.09995 0.16882
# Poissons Ratio (z) = 0.00301 0.21002
#
# Static dielectric constant tensor:
#      x y z
#    x 1.764350 0.000000 0.006180 
#    y 0.000000 1.710990 0.000000 
#    z 0.006180 0.000000 1.774720 
# 
# From -- ./inp_files/3290.got.cif
#   From: 2010.05.17/outbox.cif.g08.bks.cpg/sg8_2_cif.got.tgz:3290.got - 2010.06.03 19:46:02.
