data_PCOD9132325
_publ_section_title
;
Structure prediction by ZEFSAII (Michael W. Deem and Ramdas Pophale) SiO2 
 PCOD9132325
Probable space group: C M
;
_chemical_formula_sum "Si O2"
_cell_formula_units_Z 32
_cell_length_a 25.957131
_cell_length_b 7.674882
_cell_length_c 16.882438
_cell_angle_alpha 90.000000
_cell_angle_beta 154.205378
_cell_angle_gamma 90.000000
_cell_volume 1463.521625
_symmetry_space_group_name_H-M "C M"
_symmetry_group_IT_number 8
_symmetry_cell_setting 'monoclinic'
loop_
_space_group_symop_operation_xyz
x,y,z
x,-y,z
1/2+x,1/2+y,z
1/2+x,1/2-y,z
loop_
_atom_site_type_symbol
_atom_site_label
_atom_site_fract_x
_atom_site_fract_y
_atom_site_fract_z
Si Si1 0.201560 0.288296 0.096090
Si Si2 0.666031 0.296244 0.279671
Si Si3 0.310698 0.290368 0.078828
Si Si4 0.596323 0.213594 0.682126
Si Si5 0.573051 0.201324 0.472950
Si Si6 0.482892 0.202198 0.893012
Si Si7 0.713405 0.201395 0.520312
Si Si8 0.880190 0.699234 0.480413
O O1 0.207814 0.500000 0.113493
O O2 0.239423 0.244053 0.060097
O O3 0.296219 0.204910 0.286667
O O4 0.071685 0.234613 0.946591
O O5 0.665469 0.500000 0.257327
O O6 0.663133 0.280544 0.369672
O O7 0.793418 0.221852 0.426468
O O8 0.559943 0.217345 0.080626
O O9 0.325213 0.500000 0.099366
O O10 0.439316 0.208892 0.257193
O O11 0.227735 0.242099 0.891088
O O12 0.572051 0.277821 0.560036
O O13 0.501815 0.277978 0.616523
O O14 0.584429 0.000000 0.666803
O O15 0.657878 0.279992 0.523528
O O16 0.610790 0.000000 0.535745
O O17 0.355450 0.289195 0.719991
O O18 0.458257 0.000000 0.843196
O O19 0.677030 0.000000 0.467195
O O20 0.906777 0.500000 0.542410
#
# Coordination Sequence:
#
# PCOD9132325 Si02
#       8
#     4   4   4   4   4   4   4   4
#     4   9  18  32  54  84 120 149 180 230 288 345
#     4  10  21  37  60  89 118 154 197 243 296 352
#     4  10  20  34  57  86 114 147 188 233 284 345
#     4   9  18  34  57  82 110 146 185 229 283 340
#     4  10  22  41  59  79 113 153 194 239 285 337
#     4  10  21  38  60  87 122 158 193 240 295 350
#     4  11  24  40  59  84 117 160 207 247 287 345
#     4   9  17  32  58  83 112 149 188 229 284 350
#
# _framework density 21.865067
#
# number of rings (size 3 to 8) (size 9 to 14) (size 15 to 20)
#    0.000    2.250    1.250    1.125    1.750    3.000 
#    0.000    2.500    0.000    0.000    0.000    0.000 
#    0.000    0.000    0.000    0.000    0.000    0.000 
#
# Total GULP energy -89318.576778 kJ/mol
# GULP energy per Si atom -5582.411049 kJ/mol
# Density = 2.181530 g / cm^3
# Si number density = 21.865067 Si / 1000 Ang^3
#
#
#
# Elastic Constant Matrix: (Units=GPa)
#
#
# Indices 1 2 3 4 5 6 
#
# 1 73.3229 1.5567 16.7575 0.0000 14.5858 0.0000
# 2 1.5567 39.9290 -9.4060 0.0000 -0.3539 0.0000
# 3 16.7575 -9.4060 57.8920 0.0000 13.4088 0.0000
# 4 0.0000 0.0000 0.0000 22.2474 0.0000 0.3545
# 5 14.5858 -0.3539 13.4088 0.0000 20.2093 0.0000
# 6 0.0000 0.0000 0.0000 0.3545 0.0000 10.1100
#
#
#
# Elastic Compliance Matrix: (Units=1/GPa)
#
#
# Indices 1 2 3 4 5 6 
#
# 1 0.016256 -0.001335 -0.002599 0.000000 -0.010032 0.000000
# 2 -0.001335 0.026283 0.005113 0.000000 -0.001969 0.000000
# 3 -0.002599 0.005113 0.021743 0.000000 -0.012461 0.000000
# 4 0.000000 0.000000 0.000000 0.044974 0.000000 -0.001577
# 5 -0.010032 -0.001969 -0.012461 0.000000 0.064956 0.000000
# 6 0.000000 0.000000 0.000000 -0.001577 0.000000 0.098967
#
#
# Mechanical properties :
#
#
# Convention : Reuss Voigt Hill
#
# Bulk Modulus (GPa) = 15.00596 20.99561 18.00078
# Shear Modulus (GPa) = 17.06281 21.32905 19.19593
#
# Velocity S-wave (km/s) = 2.79654 3.12666 2.96620
# Velocity P-wave (km/s) = 4.15997 4.76003 4.47008
#
# Compressibility (1/GPa) = 0.06664020
#
# Stress axis : x y z
#
# Youngs Moduli (GPa) = 61.51517 38.04677 45.99246
#
# Poissons Ratio (x) = 0.05079 0.11953
# Poissons Ratio (y) = 0.08212 -0.23515
# Poissons Ratio (z) = 0.15987 -0.19452
#
# Static dielectric constant tensor:
#      x y z
#    x 1.825630 0.000000 0.005550 
#    y 0.000000 1.839720 0.000000 
#    z 0.005550 0.000000 1.758240 
# 
# From -- ./inp_files/24794.got.cif
#   From: 2010.05.17/outbox.cif.g08.bks.cpg/sg8_13_cif.got.tgz:24794.got - 2010.06.03 19:46:02.
