data_PCOD9132284
_publ_section_title
;
Structure prediction by ZEFSAII (Michael W. Deem and Ramdas Pophale) SiO2 
 PCOD9132284
Probable space group: C M
;
_chemical_formula_sum "Si O2"
_cell_formula_units_Z 32
_cell_length_a 25.437630
_cell_length_b 7.637601
_cell_length_c 16.510463
_cell_angle_alpha 90.000000
_cell_angle_beta 153.417455
_cell_angle_gamma 90.000000
_cell_volume 1435.400070
_symmetry_space_group_name_H-M "C M"
_symmetry_group_IT_number 8
_symmetry_cell_setting 'monoclinic'
loop_
_space_group_symop_operation_xyz
x,y,z
x,-y,z
1/2+x,1/2+y,z
1/2+x,1/2-y,z
loop_
_atom_site_type_symbol
_atom_site_label
_atom_site_fract_x
_atom_site_fract_y
_atom_site_fract_z
Si Si1 0.922140 0.283598 0.922350
Si Si2 0.950557 0.208778 0.392271
Si Si3 0.282578 0.292773 0.005096
Si Si4 0.996188 0.700756 0.196468
Si Si5 0.582474 0.798975 0.000583
Si Si6 0.832541 0.300420 0.395067
Si Si7 0.560802 0.215335 0.790434
Si Si8 0.155795 0.204697 0.566822
O O1 0.923535 0.500000 0.924640
O O2 0.786792 0.224579 0.738812
O O3 0.989696 0.226647 0.096897
O O4 0.988809 0.222230 0.933825
O O5 0.856581 0.228420 0.190231
O O6 0.900933 0.296028 0.403754
O O7 0.072936 0.278459 0.524029
O O8 0.959339 0.000000 0.420192
O O9 0.277594 0.500000 0.980170
O O10 0.362563 0.208352 0.046502
O O11 0.153480 0.225453 0.849832
O O12 0.033839 0.500000 0.244078
O O13 0.080754 0.784741 0.380188
O O14 0.710348 0.796057 0.216934
O O15 0.545910 0.000000 0.937520
O O16 0.593765 0.724015 0.925844
O O17 0.804553 0.500000 0.378073
O O18 0.928548 0.229801 0.589478
O O19 0.566436 0.000000 0.794813
O O20 0.168345 0.000000 0.603288
#
# Coordination Sequence:
#
# PCOD9132284 Si02
#       8
#     4   4   4   4   4   4   4   4
#     4   9  20  37  60  82 105 145 192 226 261 323
#     4   9  17  32  56  79 109 147 183 217 263 329
#     4   9  17  34  56  78 108 148 186 217 261 330
#     4  10  20  34  53  85 116 139 174 229 282 316
#     4  10  20  41  62  75 104 152 192 221 263 325
#     4  11  22  34  53  85 115 137 176 234 283 318
#     4   9  19  35  55  78 106 143 185 222 265 325
#     4   9  19  37  57  80 109 147 188 220 260 328
#
# _framework density 22.293434999999999
#
# number of rings (size 3 to 8) (size 9 to 14) (size 15 to 20)
#    0.000    2.500    1.250    1.500    1.750    3.000 
#    0.000    6.250    0.000    0.000    0.000    0.000 
#    0.000    0.000    0.000    0.000    0.000    0.000 
#
# Total GULP energy -89323.337446 kJ/mol
# GULP energy per Si atom -5582.708590 kJ/mol
# Density = 2.224269 g / cm^3
# Si number density = 22.293435 Si / 1000 Ang^3
#
#
#
# Elastic Constant Matrix: (Units=GPa)
#
#
# Indices 1 2 3 4 5 6 
#
# 1 70.0042 -4.7106 11.2381 0.0000 14.5523 0.0000
# 2 -4.7106 34.9285 -4.4700 0.0000 -0.0148 0.0000
# 3 11.2381 -4.4700 60.1277 0.0000 16.2094 0.0000
# 4 0.0000 0.0000 0.0000 10.6096 0.0000 -2.0563
# 5 14.5523 -0.0148 16.2094 0.0000 28.1119 0.0000
# 6 0.0000 0.0000 0.0000 -2.0563 0.0000 10.5164
#
#
#
# Elastic Compliance Matrix: (Units=1/GPa)
#
#
# Indices 1 2 3 4 5 6 
#
# 1 0.016198 0.002088 -0.000725 0.000000 -0.007966 0.000000
# 2 0.002088 0.029224 0.002450 0.000000 -0.002479 0.000000
# 3 -0.000725 0.002450 0.019948 0.000000 -0.011126 0.000000
# 4 0.000000 0.000000 0.000000 0.097967 0.000000 0.019156
# 5 -0.007966 -0.002479 -0.011126 0.000000 0.046109 0.000000
# 6 0.000000 0.000000 0.000000 0.019156 0.000000 0.098836
#
#
# Mechanical properties :
#
#
# Convention : Reuss Voigt Hill
#
# Bulk Modulus (GPa) = 13.69896 18.79727 16.24812
# Shear Modulus (GPa) = 15.38525 20.71444 18.04985
#
# Velocity S-wave (km/s) = 2.62987 3.05154 2.84852
# Velocity P-wave (km/s) = 3.92171 4.56792 4.25710
#
# Compressibility (1/GPa) = 0.07299822
#
# Stress axis : x y z
#
# Youngs Moduli (GPa) = 61.73735 34.21832 50.12982
#
# Poissons Ratio (x) = -0.07146 0.03633
# Poissons Ratio (y) = -0.12893 -0.12284
# Poissons Ratio (z) = 0.04474 -0.08385
#
# Static dielectric constant tensor:
#      x y z
#    x 1.805260 0.000000 -0.001090 
#    y 0.000000 1.844080 0.000000 
#    z -0.001090 0.000000 1.821030 
# 
# From -- ./inp_files/28188.got.cif
#   From: 2010.05.17/outbox.cif.g08.bks.cpg/sg8_15_cif.got.tgz:28188.got - 2010.06.03 19:46:02.
