data_PCOD9132358
_publ_section_title
;
Structure prediction by ZEFSAII (Michael W. Deem and Ramdas Pophale) SiO2 
 PCOD9132358
Probable space group: C M
;
_chemical_formula_sum "Si O2"
_cell_formula_units_Z 32
_cell_length_a 24.629566
_cell_length_b 7.477869
_cell_length_c 25.640647
_cell_angle_alpha 90.000000
_cell_angle_beta 18.241096
_cell_angle_gamma 90.000000
_cell_volume 1478.190572
_symmetry_space_group_name_H-M "C M"
_symmetry_group_IT_number 8
_symmetry_cell_setting 'monoclinic'
loop_
_space_group_symop_operation_xyz
x,y,z
x,-y,z
1/2+x,1/2+y,z
1/2+x,1/2-y,z
loop_
_atom_site_type_symbol
_atom_site_label
_atom_site_fract_x
_atom_site_fract_y
_atom_site_fract_z
Si Si1 0.090770 0.781777 0.559920
Si Si2 0.984728 0.718167 0.055160
Si Si3 0.729321 0.780589 0.736641
Si Si4 0.317224 0.786119 0.449679
Si Si5 0.209653 0.718187 0.947375
Si Si6 0.687525 0.786132 0.086360
Si Si7 0.610209 0.718236 0.422485
Si Si8 0.073866 0.289775 0.770285
O O1 0.228567 0.719703 0.477149
O O2 0.121418 0.725320 0.472746
O O3 0.899143 0.729762 0.753711
O O4 0.095173 0.000000 0.555602
O O5 0.986602 0.500000 0.053265
O O6 0.785123 0.775068 0.233820
O O7 0.107715 0.775355 0.895724
O O8 0.067088 0.774140 0.035295
O O9 0.651570 0.714558 0.752988
O O10 0.927543 0.723829 0.565136
O O11 0.730231 0.000000 0.736318
O O12 0.515130 0.720087 0.273133
O O13 0.192804 0.752732 0.611992
O O14 0.324138 0.000000 0.438572
O O15 0.206208 0.500000 0.951593
O O16 0.184684 0.780937 0.029214
O O17 0.674298 0.000000 0.095158
O O18 0.873443 0.752834 0.942318
O O19 0.608463 0.500000 0.424002
O O20 0.081791 0.500000 0.769397
#
# Coordination Sequence:
#
# PCOD9132358 Si02
#       8
#     4   4   4   4   4   4   4   4
#     4   9  14  24  46  74 102 126 155 205 264 313
#     4   9  15  24  41  66  96 127 158 199 255 309
#     4   9  18  30  41  61  95 135 170 201 244 300
#     4  10  20  35  56  80 105 135 173 216 261 309
#     4   9  14  24  46  74 102 126 155 205 264 313
#     4  10  20  35  56  80 105 135 173 216 261 309
#     4   9  15  24  41  66  96 127 158 199 255 309
#     4  11  23  36  51  73 107 145 180 215 252 300
#
# _framework density 21.648087
#
# number of rings (size 3 to 8) (size 9 to 14) (size 15 to 20)
#    0.000    2.500    2.500    1.125    0.000    4.500 
#    0.000    2.500    0.000    0.000    0.000    7.000 
#    0.000    4.000    0.000    0.000    0.000    0.000 
#
# Total GULP energy -89357.759723 kJ/mol
# GULP energy per Si atom -5584.859983 kJ/mol
# Density = 2.159882 g / cm^3
# Si number density = 21.648087 Si / 1000 Ang^3
#
#
#
# Elastic Constant Matrix: (Units=GPa)
#
#
# Indices 1 2 3 4 5 6 
#
# 1 168.9802 4.1709 86.9149 0.0026 -35.3794 0.0067
# 2 4.1709 60.0092 4.5048 0.0091 -2.2467 -0.0026
# 3 86.9149 4.5048 184.2817 0.0122 -51.4255 0.0020
# 4 0.0026 0.0091 0.0122 -10.9422 -0.0095 -5.4618
# 5 -35.3794 -2.2467 -51.4255 -0.0095 15.3731 0.0035
# 6 0.0067 -0.0026 0.0020 -5.4618 0.0035 5.8770
#
#
#
# Elastic Compliance Matrix: (Units=1/GPa)
#
#
# Indices 1 2 3 4 5 6 
#
# 1 0.177511 0.026269 0.461791 -0.000241 1.957129 -0.001756
# 2 0.026269 0.020853 0.072505 -0.000031 0.306043 -0.000259
# 3 0.461791 0.072505 1.283961 -0.000659 5.368418 -0.004791
# 4 -0.000241 -0.000031 -0.000659 -0.062429 -0.002787 -0.058016
# 5 1.957129 0.306043 5.368418 -0.002787 22.572127 -0.020168
# 6 -0.001756 -0.000259 -0.004791 -0.058016 -0.020168 0.116253
#
#
# Mechanical properties :
#
#
# Convention : Reuss Voigt Hill
#
# Bulk Modulus (GPa) = 0.38410 67.16136 33.77273
# Shear Modulus (GPa) = 0.20960 23.24029 11.72494
#
# Velocity S-wave (km/s) = 0.31150 3.28006 2.32979
# Velocity P-wave (km/s) = 0.55425 6.74067 4.78246
#
# Compressibility (1/GPa) = 2.60345506
#
# Stress axis : x y z
#
# Youngs Moduli (GPa) = 5.63344 47.95398 0.77884
#
# Poissons Ratio (x) = -1.25968 -0.35966
# Poissons Ratio (y) = -0.14798 -0.05647
# Poissons Ratio (z) = -2.60147 -3.47690
#
# Static dielectric constant tensor:
#      x y z
#    x 1.764070 0.000000 -0.008830 
#    y 0.000000 1.866950 0.000000 
#    z -0.008830 0.000000 1.740410 
# 
# From -- ./inp_files/32346.got.cif
#   From: 2010.05.17/outbox.cif.g08.bks.cpg/sg8_17_cif.got.tgz:32346.got - 2010.06.03 19:46:02.
