data_PCOD9132887
_publ_section_title
;
Structure prediction by ZEFSAII (Michael W. Deem and Ramdas Pophale) SiO2 
 PCOD9132887
Probable space group: C M
;
_chemical_formula_sum "Si O2"
_cell_formula_units_Z 24
_cell_length_a 11.683388
_cell_length_b 19.472916
_cell_length_c 7.731388
_cell_angle_alpha 90.000000
_cell_angle_beta 48.567186
_cell_angle_gamma 90.000000
_cell_volume 1318.752894
_symmetry_space_group_name_H-M "C M"
_symmetry_group_IT_number 8
_symmetry_cell_setting 'monoclinic'
loop_
_space_group_symop_operation_xyz
x,y,z
x,-y,z
1/2+x,1/2+y,z
1/2+x,1/2-y,z
loop_
_atom_site_type_symbol
_atom_site_label
_atom_site_fract_x
_atom_site_fract_y
_atom_site_fract_z
Si Si1 0.486170 0.823944 0.955780
Si Si2 0.485888 0.920474 0.637523
Si Si3 0.487496 0.329348 0.832378
Si Si4 0.353106 0.829348 0.466769
Si Si5 0.354433 0.323945 0.587518
Si Si6 0.354714 0.420474 0.268698
O O1 0.439562 0.877320 0.853395
O O2 0.440961 0.747105 0.942351
O O3 0.670301 0.825644 0.785530
O O4 0.415657 0.840168 0.211816
O O5 0.417816 0.883965 0.537445
O O6 0.670301 0.917265 0.442445
O O7 0.440815 0.000000 0.694805
O O8 0.670301 0.332004 0.647958
O O9 0.424946 0.340170 0.702526
O O10 0.422785 0.383964 0.032476
O O11 0.399641 0.752895 0.483674
O O12 0.401039 0.377320 0.391919
O O13 0.399787 0.500000 0.235832
#
# Coordination Sequence:
#
# PCOD9132887 Si02
#       6
#     4   4   4   4   4   4
#     4  10  21  37  59  87 117 154 199 239 286 348
#     4  10  22  41  62  85 118 157 196 239 288 347
#     4  11  22  36  60  90 120 152 192 244 292 343
#     4  11  22  36  60  90 120 152 192 244 292 343
#     4  10  21  37  59  87 117 154 199 239 286 348
#     4  10  22  41  62  85 118 157 196 239 288 347
#
# _framework density 18.199013000000001
#
# number of rings (size 3 to 8) (size 9 to 14) (size 15 to 20)
#    0.000    1.667    3.333    1.000    0.000    4.667 
#    0.000    3.333    0.000    0.000    0.000    0.000 
#    0.000    0.000    0.000    0.000    0.000    0.000 
#
# Total GULP energy -67051.468896 kJ/mol
# GULP energy per Si atom -5587.622408 kJ/mol
# Density = 1.815759 g / cm^3
# Si number density = 18.199013 Si / 1000 Ang^3
#
#
#
# Elastic Constant Matrix: (Units=GPa)
#
#
# Indices 1 2 3 4 5 6 
#
# 1 57.8461 44.8339 31.4323 0.0000 38.9190 0.0000
# 2 44.8339 152.8855 70.5777 0.0000 22.2927 0.0000
# 3 31.4323 70.5777 144.2773 0.0000 35.9294 0.0000
# 4 0.0000 0.0000 0.0000 30.2109 0.0000 7.0765
# 5 38.9190 22.2927 35.9294 0.0000 33.0888 0.0000
# 6 0.0000 0.0000 0.0000 7.0765 0.0000 22.0378
#
#
#
# Elastic Compliance Matrix: (Units=1/GPa)
#
#
# Indices 1 2 3 4 5 6 
#
# 1 0.158731 -0.031605 0.030250 0.000000 -0.198254 0.000000
# 2 -0.031605 0.014808 -0.009774 0.000000 0.037810 0.000000
# 3 0.030250 -0.009774 0.016917 0.000000 -0.047365 0.000000
# 4 0.000000 0.000000 0.000000 0.035793 0.000000 -0.011493
# 5 -0.198254 0.037810 -0.047365 0.000000 0.289365 0.000000
# 6 0.000000 0.000000 0.000000 -0.011493 0.000000 0.049067
#
#
# Mechanical properties :
#
#
# Convention : Reuss Voigt Hill
#
# Bulk Modulus (GPa) = 5.94534 72.07743 39.01139
# Shear Modulus (GPa) = 7.77599 30.94517 19.36058
#
# Velocity S-wave (km/s) = 2.06931 4.12804 3.26517
# Velocity P-wave (km/s) = 2.99722 7.90013 5.97475
#
# Compressibility (1/GPa) = 0.16819894
#
# Stress axis : x y z
#
# Youngs Moduli (GPa) = 6.29997 67.53167 59.11070
#
# Poissons Ratio (x) = 2.13432 -1.78812
# Poissons Ratio (y) = 0.19911 0.57776
# Poissons Ratio (z) = -0.19058 0.66007
#
# Static dielectric constant tensor:
#      x y z
#    x 1.603040 0.000000 -0.012670 
#    y 0.000000 1.612230 0.000000 
#    z -0.012670 0.000000 1.588410 
# 
# From -- ./inp_files/2720.got.cif
#   From: 2010.05.17/outbox.cif.g08.bks.cpg/sg8_2_cif.got.tgz:2720.got - 2010.06.03 19:46:02.
