data_PCOD9132366
_publ_section_title
;
Structure prediction by ZEFSAII (Michael W. Deem and Ramdas Pophale) SiO2 
 PCOD9132366
Probable space group: C M
;
_chemical_formula_sum "Si O2"
_cell_formula_units_Z 28
_cell_length_a 10.004691
_cell_length_b 23.700631
_cell_length_c 7.325151
_cell_angle_alpha 90.000000
_cell_angle_beta 46.530010
_cell_angle_gamma 90.000000
_cell_volume 1260.544340
_symmetry_space_group_name_H-M "C M"
_symmetry_group_IT_number 8
_symmetry_cell_setting 'monoclinic'
loop_
_space_group_symop_operation_xyz
x,y,z
x,-y,z
1/2+x,1/2+y,z
1/2+x,1/2-y,z
loop_
_atom_site_type_symbol
_atom_site_label
_atom_site_fract_x
_atom_site_fract_y
_atom_site_fract_z
Si Si1 0.178250 0.062577 0.038950
Si Si2 0.037862 0.326690 0.563679
Si Si3 0.512108 0.701805 0.519845
Si Si4 0.501820 0.060991 0.444895
Si Si5 0.090177 0.297729 0.917093
Si Si6 0.292850 0.115528 0.321461
Si Si7 0.593020 0.323662 0.017648
O O1 0.240627 0.085787 0.179150
O O2 0.052363 0.109204 0.054034
O O3 0.096104 0.000000 0.131299
O O4 0.364944 0.057900 0.746280
O O5 0.097257 0.264043 0.454771
O O6 0.106490 0.380077 0.384408
O O7 0.094032 0.329325 0.720257
O O8 0.814151 0.325099 0.772490
O O9 0.301005 0.702715 0.780462
O O10 0.614932 0.653084 0.535715
O O11 0.539731 0.690121 0.277982
O O12 0.370931 0.071900 0.393397
O O13 0.597008 0.000000 0.337478
O O14 0.028645 0.231883 0.967604
O O15 0.947882 0.335513 0.161364
#
# Coordination Sequence:
#
# PCOD9132366 Si02
#       7
#     4   4   4   4   4   4   4
#     4   9  18  36  59  87 116 152 202 236 279 353
#     4  10  20  35  56  87 120 151 199 243 287 357
#     4  10  22  34  57  90 118 155 191 240 304 348
#     4  10  20  36  63  88 114 160 202 237 291 351
#     4  11  21  35  58  87 124 152 191 247 299 345
#     4  11  21  39  62  91 116 155 194 245 296 354
#     4   9  19  35  51  88 113 149 197 232 290 350
#
# _framework density 22.212626
#
# number of rings (size 3 to 8) (size 9 to 14) (size 15 to 20)
#    0.000    2.000    4.286    1.286    8.000    0.000 
#    0.000    0.000    0.000   12.857    0.000    0.000 
#    0.000    0.000    0.000    0.000    0.000    0.000 
#
# Total GULP energy -77980.893423 kJ/mol
# GULP energy per Si atom -5570.063816 kJ/mol
# Density = 2.216207 g / cm^3
# Si number density = 22.212626 Si / 1000 Ang^3
#
#
#
# Elastic Constant Matrix: (Units=GPa)
#
#
# Indices 1 2 3 4 5 6 
#
# 1 57.9632 30.1981 8.7468 0.0000 2.1171 0.0000
# 2 30.1981 170.0811 8.7265 0.0000 2.6977 0.0000
# 3 8.7468 8.7265 28.7986 0.0000 -12.0465 0.0000
# 4 0.0000 0.0000 0.0000 -20.6467 0.0000 -9.5396
# 5 2.1171 2.6977 -12.0465 0.0000 28.5594 0.0000
# 6 0.0000 0.0000 0.0000 -9.5396 0.0000 20.4164
#
#
#
# Elastic Compliance Matrix: (Units=1/GPa)
#
#
# Indices 1 2 3 4 5 6 
#
# 1 0.020075 -0.003148 -0.006850 0.000000 -0.004080 0.000000
# 2 -0.003148 0.006528 -0.001435 0.000000 -0.000989 0.000000
# 3 -0.006850 -0.001435 0.045545 0.000000 0.019854 0.000000
# 4 0.000000 0.000000 0.000000 -0.039834 0.000000 -0.018613
# 5 -0.004080 -0.000989 0.019854 0.000000 0.043785 0.000000
# 6 0.000000 0.000000 0.000000 -0.018613 0.000000 0.040283
#
#
# Mechanical properties :
#
#
# Convention : Reuss Voigt Hill
#
# Bulk Modulus (GPa) = 20.29217 39.13174 29.71195
# Shear Modulus (GPa) = 32.11787 19.61059 25.86423
#
# Velocity S-wave (km/s) = 3.80666 2.97452 3.41602
# Velocity P-wave (km/s) = 5.33631 5.42698 5.38183
#
# Compressibility (1/GPa) = 0.04928009
#
# Stress axis : x y z
#
# Youngs Moduli (GPa) = 49.81265 153.18986 21.95650
#
# Poissons Ratio (x) = 0.48227 0.15041
# Poissons Ratio (y) = 0.15682 0.03152
# Poissons Ratio (z) = 0.34122 0.21990
#
# Static dielectric constant tensor:
#      x y z
#    x 1.857450 0.000000 0.012150 
#    y 0.000000 1.926660 0.000000 
#    z 0.012150 0.000000 1.825860 
# 
# From -- ./inp_files/11537.got.cif
#   From: 2010.05.17/outbox.cif.g08.bks.cpg/sg8_6_cif.got.tgz:11537.got - 2010.06.03 19:46:02.
