data_PCOD9132938
_publ_section_title
;
Structure prediction by ZEFSAII (Michael W. Deem and Ramdas Pophale) SiO2 
 PCOD9132938
Probable space group: C M
;
_chemical_formula_sum "Si O2"
_cell_formula_units_Z 28
_cell_length_a 4.926511
_cell_length_b 31.459348
_cell_length_c 7.872048
_cell_angle_alpha 90.000000
_cell_angle_beta 93.511174
_cell_angle_gamma 90.000000
_cell_volume 1217.757789
_symmetry_space_group_name_H-M "C M"
_symmetry_group_IT_number 8
_symmetry_cell_setting 'monoclinic'
loop_
_space_group_symop_operation_xyz
x,y,z
x,-y,z
1/2+x,1/2+y,z
1/2+x,1/2-y,z
loop_
_atom_site_type_symbol
_atom_site_label
_atom_site_fract_x
_atom_site_fract_y
_atom_site_fract_z
Si Si1 0.731140 0.132206 0.656110
Si Si2 0.530478 0.222715 0.123191
Si Si3 0.748366 0.000000 0.978851
Si Si4 0.990259 0.083668 0.160241
Si Si5 0.501894 0.129272 0.019985
Si Si6 0.222692 0.000000 0.754220
Si Si7 0.735758 0.415526 0.537122
Si Si8 0.556218 0.223335 0.532950
O O1 0.628235 0.120359 0.840204
O O2 0.525593 0.106594 0.527349
O O3 0.676598 0.181619 0.622874
O O4 0.033982 0.116762 0.628286
O O5 0.324638 0.261152 0.078550
O O6 0.542688 0.216551 0.328224
O O7 0.437233 0.178964 0.036370
O O8 0.846818 0.041838 0.080474
O O9 0.430830 0.000000 0.921035
O O10 0.914840 0.000000 0.809209
O O11 0.107831 0.075225 0.350039
O O12 0.753668 0.118958 0.154172
O O13 0.240000 0.101143 0.055682
O O14 0.267873 0.041857 0.645760
O O15 0.256106 0.237113 0.575367
#
# Coordination Sequence:
#
# PCOD9132938 Si02
#       8
#     4   4   2   4   4   2   4   4
#     4  12  25  42  66  97 132 170 215 269 325 377
#     4  10  21  38  61  90 126 168 213 262 318 380
#     4  12  25  44  69  98 133 166 209 266 325 378
#     4  12  25  44  68  96 130 172 218 261 316 386
#     4  12  25  42  66  97 132 170 215 269 325 377
#     4  12  25  44  69  98 133 166 209 266 325 378
#     4  12  25  44  68  96 130 172 218 261 316 386
#     4  10  21  38  61  90 126 168 213 262 318 380
#
# _framework density 22.993077
#
# number of rings (size 3 to 8) (size 9 to 14) (size 15 to 20)
#    0.000    0.571    0.000    9.857    0.000    3.429 
#    0.000    4.286    0.000    0.000    0.000    0.000 
#    0.000    0.000    0.000    0.000    0.000    0.000 
#
# Total GULP energy -78461.328804 kJ/mol
# GULP energy per Si atom -5604.380629 kJ/mol
# Density = 2.294074 g / cm^3
# Si number density = 22.993077 Si / 1000 Ang^3
#
#
#
# Elastic Constant Matrix: (Units=GPa)
#
#
# Indices 1 2 3 4 5 6 
#
# 1 57.2820 -24.4765 -6.5341 0.0000 2.6586 0.0000
# 2 -24.4765 81.2812 13.3082 0.0000 4.1562 0.0000
# 3 -6.5341 13.3082 72.9465 0.0000 6.0120 0.0000
# 4 0.0000 0.0000 0.0000 27.4358 0.0000 13.9984
# 5 2.6586 4.1562 6.0120 0.0000 31.6958 0.0000
# 6 0.0000 0.0000 0.0000 13.9984 0.0000 12.9773
#
#
#
# Elastic Compliance Matrix: (Units=1/GPa)
#
#
# Indices 1 2 3 4 5 6 
#
# 1 0.020292 0.006096 0.000926 0.000000 -0.002677 0.000000
# 2 0.006096 0.014561 -0.001941 0.000000 -0.002052 0.000000
# 3 0.000926 -0.001941 0.014356 0.000000 -0.002546 0.000000
# 4 0.000000 0.000000 0.000000 0.081064 0.000000 -0.087442
# 5 -0.002677 -0.002052 -0.002546 0.000000 0.032527 0.000000
# 6 0.000000 0.000000 0.000000 -0.087442 0.000000 0.171380
#
#
# Mechanical properties :
#
#
# Convention : Reuss Voigt Hill
#
# Bulk Modulus (GPa) = 16.84333 19.56721 18.20527
# Shear Modulus (GPa) = 14.54298 29.70258 22.12278
#
# Velocity S-wave (km/s) = 2.51767 3.59807 3.10522
# Velocity P-wave (km/s) = 3.97402 5.07838 4.55976
#
# Compressibility (1/GPa) = 0.05937067
#
# Stress axis : x y z
#
# Youngs Moduli (GPa) = 49.28010 68.67442 69.65895
#
# Poissons Ratio (x) = -0.41863 -0.06451
# Poissons Ratio (y) = -0.30041 0.13523
# Poissons Ratio (z) = -0.04564 0.13332
#
# Static dielectric constant tensor:
#      x y z
#    x 1.790920 0.000000 0.013270 
#    y 0.000000 1.831270 0.000000 
#    z 0.013270 0.000000 1.880610 
# 
# From -- ./inp_files/6993.got.cif
#   From: 2010.05.17/outbox.cif.g08.bks.cpg/sg8_4_cif.got.tgz:6993.got - 2010.06.03 19:46:02.
