data_PCOD9132971
_publ_section_title
;
Structure prediction by ZEFSAII (Michael W. Deem and Ramdas Pophale) SiO2 
 PCOD9132971
Probable space group: C M
;
_chemical_formula_sum "Si O2"
_cell_formula_units_Z 32
_cell_length_a 11.412698
_cell_length_b 14.941944
_cell_length_c 14.777140
_cell_angle_alpha 90.000000
_cell_angle_beta 142.977036
_cell_angle_gamma 90.000000
_cell_volume 1517.328925
_symmetry_space_group_name_H-M "C M"
_symmetry_group_IT_number 8
_symmetry_cell_setting 'monoclinic'
loop_
_space_group_symop_operation_xyz
x,y,z
x,-y,z
1/2+x,1/2+y,z
1/2+x,1/2-y,z
loop_
_atom_site_type_symbol
_atom_site_label
_atom_site_fract_x
_atom_site_fract_y
_atom_site_fract_z
Si Si1 0.117880 0.770200 0.695110
Si Si2 0.968879 0.400420 0.928807
Si Si3 0.510465 0.834483 0.467598
Si Si4 0.739903 0.103247 0.440283
Si Si5 0.188450 0.261425 0.150647
Si Si6 0.957824 0.263050 0.173734
Si Si7 0.680637 0.401356 0.397110
Si Si8 0.993054 0.600210 0.729283
O O1 0.289435 0.834241 0.829748
O O2 0.149856 0.723639 0.617324
O O3 0.089254 0.687155 0.744914
O O4 0.924993 0.831247 0.564529
O O5 0.915509 0.500000 0.921874
O O6 0.013140 0.397775 0.849198
O O7 0.144807 0.363248 0.097065
O O8 0.626425 0.891206 0.466029
O O9 0.365720 0.768846 0.323473
O O10 0.369005 0.889837 0.447178
O O11 0.593079 0.151096 0.279005
O O12 0.786572 0.000000 0.447340
O O13 0.002483 0.235343 0.098228
O O14 0.246109 0.220035 0.087658
O O15 0.044247 0.180179 0.285420
O O16 0.595074 0.500000 0.331099
O O17 0.771236 0.394910 0.553576
O O18 0.062473 0.500000 0.742675
#
# Coordination Sequence:
#
# PCOD9132971 Si02
#       8
#     4   4   4   4   4   4   4   4
#     4  11  20  38  62  85 121 158 204 256 308 362
#     4  11  25  39  57  88 124 164 205 249 305 370
#     4   9  19  37  58  88 117 156 205 256 309 359
#     4  11  20  33  58  92 124 156 199 253 309 370
#     4  10  22  40  61  82 124 162 207 249 309 366
#     4  10  21  39  60  92 121 161 205 258 312 368
#     4   9  16  32  60  90 119 152 199 258 307 359
#     4   9  19  36  58  85 116 153 198 249 305 358
#
# _framework density 21.089693
#
# number of rings (size 3 to 8) (size 9 to 14) (size 15 to 20)
#    0.000    2.000    3.750    1.500    3.500    1.500 
#    0.000    0.000    0.000    3.000    0.000    0.000 
#    0.000    0.000    0.000    0.000    0.000    0.000 
#
# Total GULP energy -89151.423539 kJ/mol
# GULP energy per Si atom -5571.963971 kJ/mol
# Density = 2.104169 g / cm^3
# Si number density = 21.089693 Si / 1000 Ang^3
#
#
#
# Elastic Constant Matrix: (Units=GPa)
#
#
# Indices 1 2 3 4 5 6 
#
# 1 91.8902 13.6459 4.6645 0.0005 -4.8796 0.0001
# 2 13.6459 164.7860 36.6442 0.0007 0.2142 0.0003
# 3 4.6645 36.6442 49.3703 0.0014 -5.7814 0.0008
# 4 0.0005 0.0007 0.0014 23.7907 0.0007 1.1494
# 5 -4.8796 0.2142 -5.7814 0.0007 11.9985 0.0003
# 6 0.0001 0.0003 0.0008 1.1494 0.0003 24.1642
#
#
#
# Elastic Compliance Matrix: (Units=1/GPa)
#
#
# Indices 1 2 3 4 5 6 
#
# 1 0.011268 -0.000988 0.000220 0.000000 0.004706 0.000000
# 2 -0.000988 0.007451 -0.005828 0.000000 -0.003343 0.000000
# 3 0.000220 -0.005828 0.026053 -0.000002 0.012747 -0.000001
# 4 0.000000 0.000000 -0.000002 0.042130 -0.000003 -0.002004
# 5 0.004706 -0.003343 0.012747 -0.000003 0.091460 -0.000001
# 6 0.000000 0.000000 -0.000001 -0.002004 -0.000001 0.041479
#
#
# Mechanical properties :
#
#
# Convention : Reuss Voigt Hill
#
# Bulk Modulus (GPa) = 31.66687 46.21729 38.94208
# Shear Modulus (GPa) = 20.52885 28.73012 24.62949
#
# Velocity S-wave (km/s) = 3.12333 3.69492 3.42108
# Velocity P-wave (km/s) = 5.29668 6.33762 5.84039
#
# Compressibility (1/GPa) = 0.03157875
#
# Stress axis : x y z
#
# Youngs Moduli (GPa) = 88.74660 134.21526 38.38328
#
# Poissons Ratio (x) = 0.13262 -0.00844
# Poissons Ratio (y) = 0.08769 0.22371
# Poissons Ratio (z) = -0.01952 0.78225
#
# Static dielectric constant tensor:
#      x y z
#    x 1.860450 0.000000 0.008910 
#    y 0.000000 1.751070 0.000000 
#    z 0.008910 0.000000 1.765830 
# 
# From -- ./inp_files/10751.got.cif
#   From: 2010.05.17/outbox.cif.g08.bks.cpg/sg8_6_cif.got.tgz:10751.got - 2010.06.03 19:46:02.
