data_PCOD9132068
_publ_section_title
;
Structure prediction by ZEFSAII (Michael W. Deem and Ramdas Pophale) SiO2 
 PCOD9132068
Probable space group: C M
;
_chemical_formula_sum "Si O2"
_cell_formula_units_Z 24
_cell_length_a 24.150464
_cell_length_b 7.753259
_cell_length_c 8.216055
_cell_angle_alpha 90.000000
_cell_angle_beta 132.007975
_cell_angle_gamma 90.000000
_cell_volume 1143.120809
_symmetry_space_group_name_H-M "C M"
_symmetry_group_IT_number 8
_symmetry_cell_setting 'monoclinic'
loop_
_space_group_symop_operation_xyz
x,y,z
x,-y,z
1/2+x,1/2+y,z
1/2+x,1/2-y,z
loop_
_atom_site_type_symbol
_atom_site_label
_atom_site_fract_x
_atom_site_fract_y
_atom_site_fract_z
Si Si1 0.789040 0.302135 0.162480
Si Si2 0.827036 0.500000 0.675120
Si Si3 0.578416 0.299368 0.202577
Si Si4 0.156293 0.200320 0.702461
Si Si5 0.558503 0.000000 0.628323
Si Si6 0.976371 0.500000 0.117442
Si Si7 0.725625 0.191931 0.367392
Si Si8 0.913664 0.500000 0.503357
O O1 0.765048 0.500000 0.158807
O O2 0.761207 0.191293 0.257576
O O3 0.877585 0.332262 0.341093
O O4 0.743242 0.262164 0.910629
O O5 0.773823 0.334020 0.559148
O O6 0.879996 0.500000 0.618129
O O7 0.886949 0.500000 0.936824
O O8 0.556595 0.500000 0.146184
O O9 0.628678 0.274755 0.464781
O O10 0.639315 0.248943 0.187587
O O11 0.510451 0.168287 0.093656
O O12 0.109415 0.331625 0.718837
O O13 0.140877 0.000000 0.708620
O O14 0.508583 0.000000 0.364054
O O15 0.501163 0.000000 0.662810
O O16 0.729282 0.000000 0.445044
#
# Coordination Sequence:
#
# PCOD9132068 Si02
#       8
#     4   2   4   4   2   2   4   2
#     4   8  17  35  54  76 107 140 178 217 267 322
#     4  10  22  40  52  78 115 146 181 230 267 324
#     4  10  19  35  57  82 111 142 179 228 270 322
#     4   9  19  34  55  81 109 138 177 223 269 320
#     4  10  20  34  56  80 109 142 179 222 267 322
#     4  10  22  36  54  82 113 144 185 218 277 324
#     4  11  20  34  57  81 109 144 184 225 272 321
#     4   8  18  36  54  72 109 142 175 218 267 316
#
# _framework density 20.995153999999999
#
# number of rings (size 3 to 8) (size 9 to 14) (size 15 to 20)
#    0.500    2.000    2.500    0.000    1.167    3.333 
#    0.000    3.333    0.000    0.000    0.000    0.000 
#    0.000    0.000    0.000    0.000    0.000    0.000 
#
# Total GULP energy -66860.051591 kJ/mol
# GULP energy per Si atom -5571.670966 kJ/mol
# Density = 2.094737 g / cm^3
# Si number density = 20.995154 Si / 1000 Ang^3
#
#
#
# Elastic Constant Matrix: (Units=GPa)
#
#
# Indices 1 2 3 4 5 6 
#
# 1 55.1883 12.8936 -18.4896 0.0000 6.2878 0.0000
# 2 12.8936 109.8182 9.0400 0.0000 3.3274 0.0000
# 3 -18.4896 9.0400 62.9929 0.0000 5.0267 0.0000
# 4 0.0000 0.0000 0.0000 8.1762 0.0000 11.4433
# 5 6.2878 3.3274 5.0267 0.0000 14.8412 0.0000
# 6 0.0000 0.0000 0.0000 11.4433 0.0000 14.1419
#
#
#
# Elastic Compliance Matrix: (Units=1/GPa)
#
#
# Indices 1 2 3 4 5 6 
#
# 1 0.022865 -0.002993 0.008079 0.000000 -0.011752 0.000000
# 2 -0.002993 0.009647 -0.002253 0.000000 -0.000132 0.000000
# 3 0.008079 -0.002253 0.019324 0.000000 -0.009463 0.000000
# 4 0.000000 0.000000 0.000000 -0.923025 0.000000 0.746889
# 5 -0.011752 -0.000132 -0.009463 0.000000 0.075593 0.000000
# 6 0.000000 0.000000 0.000000 0.746889 0.000000 -0.533653
#
#
# Mechanical properties :
#
#
# Convention : Reuss Voigt Hill
#
# Bulk Modulus (GPa) = 17.39099 26.09861 21.74480
# Shear Modulus (GPa) = -3.80012 22.40223 9.30106
#
# Velocity S-wave (km/s) = -1.34682 3.27007 2.10706
# Velocity P-wave (km/s) = 2.42544 5.16871 4.03722
#
# Compressibility (1/GPa) = 0.05750104
#
# Stress axis : x y z
#
# Youngs Moduli (GPa) = 43.73564 103.66105 51.74813
#
# Poissons Ratio (x) = 0.31030 -0.41805
# Poissons Ratio (y) = 0.13092 0.11656
# Poissons Ratio (z) = -0.35332 0.23350
#
# Static dielectric constant tensor:
#      x y z
#    x 1.763820 0.000000 -0.037360 
#    y 0.000000 1.831280 0.000000 
#    z -0.037360 0.000000 1.847390 
# 
# From -- ./inp_files/14278.got.cif
#   From: 2010.05.17/outbox.cif.g08.bks.cpg/sg8_8_cif.got.tgz:14278.got - 2010.06.03 19:46:02.
