data_PCOD9132398
_publ_section_title
;
Structure prediction by ZEFSAII (Michael W. Deem and Ramdas Pophale) SiO2 
 PCOD9132398
Probable space group: C M
;
_chemical_formula_sum "Si O2"
_cell_formula_units_Z 28
_cell_length_a 8.575385
_cell_length_b 10.983761
_cell_length_c 15.426958
_cell_angle_alpha 90.000000
_cell_angle_beta 114.593148
_cell_angle_gamma 90.000000
_cell_volume 1321.251363
_symmetry_space_group_name_H-M "C M"
_symmetry_group_IT_number 8
_symmetry_cell_setting 'monoclinic'
loop_
_space_group_symop_operation_xyz
x,y,z
x,-y,z
1/2+x,1/2+y,z
1/2+x,1/2-y,z
loop_
_atom_site_type_symbol
_atom_site_label
_atom_site_fract_x
_atom_site_fract_y
_atom_site_fract_z
Si Si1 0.974260 0.635392 0.976160
Si Si2 0.738708 0.138719 0.181298
Si Si3 0.989956 0.862018 0.585127
Si Si4 0.798978 0.199790 0.707915
Si Si5 0.657750 0.804755 0.849476
Si Si6 0.065954 0.277385 0.308305
Si Si7 0.886636 0.362699 0.437618
O O1 0.911972 0.500000 0.984895
O O2 0.814677 0.719575 0.915093
O O3 0.096879 0.626290 0.920630
O O4 0.091077 0.682652 0.081815
O O5 0.904339 0.222674 0.220294
O O6 0.671518 0.143763 0.264373
O O7 0.779492 0.000000 0.166178
O O8 0.844198 0.861451 0.626803
O O9 0.940861 0.750120 0.511051
O O10 0.177716 0.818151 0.662991
O O11 0.999303 0.000000 0.551828
O O12 0.710496 0.135175 0.769796
O O13 0.987421 0.231549 0.784947
O O14 0.998361 0.349288 0.376087
O O15 0.189953 0.168026 0.367877
O O16 0.904088 0.500000 0.477276
#
# Coordination Sequence:
#
# PCOD9132398 Si02
#       7
#     4   4   4   4   4   4   4
#     4  10  20  35  58  85 117 155 195 241 290 344
#     4  10  20  36  58  85 116 154 197 241 292 348
#     4  11  24  41  62  89 120 156 200 250 303 359
#     4   9  21  38  58  83 115 155 194 243 296 350
#     4   9  19  37  57  85 117 151 191 237 289 345
#     4  10  22  38  60  85 117 157 194 245 296 353
#     4  11  24  41  61  88 120 156 200 249 302 359
#
# _framework density 21.192032000000001
#
# number of rings (size 3 to 8) (size 9 to 14) (size 15 to 20)
#    0.000    2.000    0.000    2.571    0.000   12.571 
#    0.000    6.429    0.000   12.000    0.000    0.000 
#    0.000    0.000    0.000    0.000    0.000    0.000 
#
# Total GULP energy -78037.221973 kJ/mol
# GULP energy per Si atom -5574.087284 kJ/mol
# Density = 2.114380 g / cm^3
# Si number density = 21.192032 Si / 1000 Ang^3
#
#
#
# Elastic Constant Matrix: (Units=GPa)
#
#
# Indices 1 2 3 4 5 6 
#
# 1 80.2816 22.2629 9.3605 0.0000 1.4219 0.0000
# 2 22.2629 119.5830 37.2683 0.0000 9.2529 0.0000
# 3 9.3605 37.2683 82.7748 0.0000 4.8370 0.0000
# 4 0.0000 0.0000 0.0000 -121.7846 0.0000 -81.8506
# 5 1.4219 9.2529 4.8370 0.0000 35.2401 0.0000
# 6 0.0000 0.0000 0.0000 -81.8506 0.0000 -56.9480
#
#
#
# Elastic Compliance Matrix: (Units=1/GPa)
#
#
# Indices 1 2 3 4 5 6 
#
# 1 0.013149 -0.002318 -0.000451 0.000000 0.000140 0.000000
# 2 -0.002318 0.010273 -0.004245 0.000000 -0.002021 0.000000
# 3 -0.000451 -0.004245 0.014090 0.000000 -0.000801 0.000000
# 4 0.000000 0.000000 0.000000 -0.241436 0.000000 0.347013
# 5 0.000140 -0.002021 -0.000801 0.000000 0.029012 0.000000
# 6 0.000000 0.000000 0.000000 0.347013 0.000000 -0.516317
#
#
# Mechanical properties :
#
#
# Convention : Reuss Voigt Hill
#
# Bulk Modulus (GPa) = 42.58367 46.71364 44.64866
# Shear Modulus (GPa) = -7.46969 -14.44866 -10.95917
#
# Velocity S-wave (km/s) = -1.87947 -2.61396 -2.27653
# Velocity P-wave (km/s) = 3.92784 3.60285 3.76885
#
# Compressibility (1/GPa) = 0.02348318
#
# Stress axis : x y z
#
# Youngs Moduli (GPa) = 76.05053 97.33885 70.97139
#
# Poissons Ratio (x) = 0.22565 0.03204
# Poissons Ratio (y) = 0.17630 0.30129
# Poissons Ratio (z) = 0.03433 0.41322
#
# Static dielectric constant tensor:
#      x y z
#    x 1.765630 0.000000 -0.024600 
#    y 0.000000 1.821240 0.000000 
#    z -0.024600 0.000000 1.805030 
# 
# From -- ./inp_files/25214.got.cif
#   From: 2010.05.17/outbox.cif.g08.bks.cpg/sg8_13_cif.got.tgz:25214.got - 2010.06.03 19:46:02.
