data_PCOD9132399
_publ_section_title
;
Structure prediction by ZEFSAII (Michael W. Deem and Ramdas Pophale) SiO2 
 PCOD9132399
Probable space group: C M
;
_chemical_formula_sum "Si O2"
_cell_formula_units_Z 32
_cell_length_a 12.414593
_cell_length_b 24.500687
_cell_length_c 12.076521
_cell_angle_alpha 90.000000
_cell_angle_beta 24.418911
_cell_angle_gamma 90.000000
_cell_volume 1518.547218
_symmetry_space_group_name_H-M "C M"
_symmetry_group_IT_number 8
_symmetry_cell_setting 'monoclinic'
loop_
_space_group_symop_operation_xyz
x,y,z
x,-y,z
1/2+x,1/2+y,z
1/2+x,1/2-y,z
loop_
_atom_site_type_symbol
_atom_site_label
_atom_site_fract_x
_atom_site_fract_y
_atom_site_fract_z
Si Si1 0.055100 0.730171 0.251670
Si Si2 0.949283 0.655063 0.552228
Si Si3 0.836853 0.560811 0.252656
Si Si4 0.482598 0.785935 0.954307
Si Si5 0.489463 0.650825 0.509684
Si Si6 0.764041 0.133040 0.934404
Si Si7 0.997213 0.192413 0.117616
Si Si8 0.674756 0.436525 0.663434
O O1 0.363998 0.745609 0.973325
O O2 0.063745 0.675108 0.173032
O O3 0.938554 0.708022 0.477344
O O4 0.946820 0.781478 0.285170
O O5 0.853884 0.601673 0.573529
O O6 0.248617 0.657672 0.310690
O O7 0.760388 0.661152 0.835604
O O8 0.878874 0.500000 0.174499
O O9 0.599713 0.589305 0.410722
O O10 0.776966 0.560220 0.440899
O O11 0.101824 0.595062 0.002236
O O12 0.532076 0.746488 0.010757
O O13 0.222702 0.818188 0.232015
O O14 0.719766 0.826735 0.712347
O O15 0.464280 0.663478 0.665213
O O16 0.906383 0.097242 0.894499
O O17 0.643471 0.500000 0.729554
#
# Coordination Sequence:
#
# PCOD9132399 Si02
#       8
#     4   4   4   4   4   4   4   4
#     4  11  23  38  62  87 124 168 190 250 293 349
#     4  11  24  40  58  90 119 158 207 239 295 364
#     4  10  20  35  58  85 117 157 191 237 306 360
#     4  11  22  37  55  84 113 160 202 230 292 352
#     4  11  21  38  53  81 119 150 197 239 275 357
#     4  11  20  36  57  84 123 160 188 236 295 358
#     4  11  24  39  58  85 122 159 204 243 288 353
#     4  10  21  35  56  86 120 156 194 244 300 361
#
# _framework density 21.072773000000002
#
# number of rings (size 3 to 8) (size 9 to 14) (size 15 to 20)
#    0.000    1.250    3.750    3.375    1.750    3.500 
#    0.000    0.000    0.000    0.000    0.000    5.250 
#    0.000    0.000    0.000    0.000    0.000    0.000 
#
# Total GULP energy -89156.640404 kJ/mol
# GULP energy per Si atom -5572.290025 kJ/mol
# Density = 2.102481 g / cm^3
# Si number density = 21.072773 Si / 1000 Ang^3
#
#
#
# Elastic Constant Matrix: (Units=GPa)
#
#
# Indices 1 2 3 4 5 6 
#
# 1 43.3377 38.6356 17.9334 0.0066 -14.8618 0.0019
# 2 38.6356 96.1808 29.5016 0.0048 -14.6529 0.0025
# 3 17.9334 29.5016 116.2708 0.0212 -20.5025 0.0084
# 4 0.0066 0.0048 0.0212 17.6840 -0.0009 -10.0737
# 5 -14.8618 -14.6529 -20.5025 -0.0009 37.8020 -0.0008
# 6 0.0019 0.0025 0.0084 -10.0737 -0.0008 34.0367
#
#
#
# Elastic Compliance Matrix: (Units=1/GPa)
#
#
# Indices 1 2 3 4 5 6 
#
# 1 0.039199 -0.014048 -0.000801 -0.000012 0.009531 -0.000004
# 2 -0.014048 0.016651 -0.002094 0.000004 -0.000204 0.000001
# 3 -0.000801 -0.002094 0.010015 -0.000015 0.004305 -0.000007
# 4 -0.000012 0.000004 -0.000015 0.068016 -0.000009 0.020130
# 5 0.009531 -0.000204 0.004305 -0.000009 0.032456 -0.000003
# 6 -0.000004 0.000001 -0.000007 0.020130 -0.000003 0.035338
#
#
# Mechanical properties :
#
#
# Convention : Reuss Voigt Hill
#
# Bulk Modulus (GPa) = 31.27155 47.54784 39.40970
# Shear Modulus (GPa) = 20.30698 29.21911 24.76304
#
# Velocity S-wave (km/s) = 3.10765 3.72772 3.43172
# Velocity P-wave (km/s) = 5.26770 6.41409 5.86895
#
# Compressibility (1/GPa) = 0.03197795
#
# Stress axis : x y z
#
# Youngs Moduli (GPa) = 25.51118 60.05471 99.85406
#
# Poissons Ratio (x) = 0.84367 0.07996
# Poissons Ratio (y) = 0.35839 0.20912
# Poissons Ratio (z) = 0.02043 0.12577
#
# Static dielectric constant tensor:
#      x y z
#    x 1.830700 0.000000 -0.012090 
#    y 0.000000 1.811310 0.000000 
#    z -0.012090 0.000000 1.862690 
# 
# From -- ./inp_files/20888.got.cif
#   From: 2010.05.17/outbox.cif.g08.bks.cpg/sg8_11_cif.got.tgz:20888.got - 2010.06.03 19:46:02.
