data_PCOD9132614
_publ_section_title
;
Structure prediction by ZEFSAII (Michael W. Deem and Ramdas Pophale) SiO2 
 PCOD9132614
Probable space group: C M
;
_chemical_formula_sum "Si O2"
_cell_formula_units_Z 22
_cell_length_a 10.288867
_cell_length_b 14.611319
_cell_length_c 8.703464
_cell_angle_alpha 90.000000
_cell_angle_beta 134.493055
_cell_angle_gamma 90.000000
_cell_volume 933.346476
_symmetry_space_group_name_H-M "C M"
_symmetry_group_IT_number 8
_symmetry_cell_setting 'monoclinic'
loop_
_space_group_symop_operation_xyz
x,y,z
x,-y,z
1/2+x,1/2+y,z
1/2+x,1/2-y,z
loop_
_atom_site_type_symbol
_atom_site_label
_atom_site_fract_x
_atom_site_fract_y
_atom_site_fract_z
Si Si1 0.761860 0.334317 0.376720
Si Si2 0.142409 0.304487 0.846642
Si Si3 0.630532 0.149082 0.201888
Si Si4 0.215908 0.500000 0.931164
Si Si5 0.257458 0.898238 0.021456
Si Si6 0.772435 0.500000 0.598968
Si Si7 0.909693 0.000000 0.421493
O O1 0.631952 0.247627 0.282493
O O2 0.765496 0.372096 0.208037
O O3 0.713175 0.412026 0.455041
O O4 0.962387 0.305821 0.595499
O O5 0.247176 0.399352 0.879565
O O6 0.121160 0.328207 0.011695
O O7 0.197477 0.197608 0.890584
O O8 0.457787 0.094022 0.114768
O O9 0.809980 0.091720 0.396319
O O10 0.994091 0.500000 0.787256
O O11 0.337331 0.500000 0.184264
O O12 0.168968 0.000000 0.947508
O O13 0.627144 0.500000 0.615221
#
# Coordination Sequence:
#
# PCOD9132614 Si02
#       7
#     4   4   4   2   4   2   2
#     4  10  22  40  63  94 122 171 222 259 327 390
#     4   9  21  41  63  93 122 172 222 259 316 403
#     4  10  22  39  62  89 129 166 216 263 327 388
#     4   8  18  38  62  92 116 160 226 262 296 382
#     4  11  22  42  64  95 137 167 206 282 337 380
#     4  10  20  37  67  88 123 164 218 268 312 387
#     4  10  20  39  59  92 119 168 214 262 316 389
#
# _framework density 23.571097000000002
#
# number of rings (size 3 to 8) (size 9 to 14) (size 15 to 20)
#    0.000    2.182    1.818    0.000    7.636    1.455 
#    8.182    0.000    0.000    0.000    0.000    0.000 
#    0.000    0.000    0.000    0.000    0.000    0.000 
#
# Total GULP energy -61272.858692 kJ/mol
# GULP energy per Si atom -5570.259881 kJ/mol
# Density = 2.351745 g / cm^3
# Si number density = 23.571097 Si / 1000 Ang^3
#
#
#
# Elastic Constant Matrix: (Units=GPa)
#
#
# Indices 1 2 3 4 5 6 
#
# 1 38.0255 17.0376 2.1555 0.0000 6.2812 0.0000
# 2 17.0376 246.1470 47.3491 0.0000 -1.5383 0.0000
# 3 2.1555 47.3491 53.5410 0.0000 -7.1835 0.0000
# 4 0.0000 0.0000 0.0000 84.3674 0.0000 -14.8267
# 5 6.2812 -1.5383 -7.1835 0.0000 18.1933 0.0000
# 6 0.0000 0.0000 0.0000 -14.8267 0.0000 33.3029
#
#
#
# Elastic Compliance Matrix: (Units=1/GPa)
#
#
# Indices 1 2 3 4 5 6 
#
# 1 0.028933 -0.001896 -0.000898 0.000000 -0.010504 0.000000
# 2 -0.001896 0.005052 -0.004484 0.000000 -0.000689 0.000000
# 3 -0.000898 -0.004484 0.023938 0.000000 0.009382 0.000000
# 4 0.000000 0.000000 0.000000 0.012859 0.000000 0.005725
# 5 -0.010504 -0.000689 0.009382 0.000000 0.062238 0.000000
# 6 0.000000 0.000000 0.000000 0.005725 0.000000 0.032576
#
#
# Mechanical properties :
#
#
# Convention : Reuss Voigt Hill
#
# Bulk Modulus (GPa) = 23.05812 52.31086 37.68449
# Shear Modulus (GPa) = 25.69278 45.25081 35.47179
#
# Velocity S-wave (km/s) = 3.30511 4.38626 3.88349
# Velocity P-wave (km/s) = 4.93646 6.92050 6.01091
#
# Compressibility (1/GPa) = 0.04336867
#
# Stress axis : x y z
#
# Youngs Moduli (GPa) = 34.56204 197.93956 41.77531
#
# Poissons Ratio (x) = 0.37523 0.03750
# Poissons Ratio (y) = 0.06552 0.18732
# Poissons Ratio (z) = 0.03103 0.88754
#
# Static dielectric constant tensor:
#      x y z
#    x 1.935690 0.000000 0.047610 
#    y 0.000000 1.982480 0.000000 
#    z 0.047610 0.000000 1.873780 
# 
# From -- ./inp_files/10293.got.cif
#   From: 2010.05.17/outbox.cif.g08.bks.cpg/sg8_6_cif.got.tgz:10293.got - 2010.06.03 19:46:02.
