data_PCOD9132470
_publ_section_title
;
Structure prediction by ZEFSAII (Michael W. Deem and Ramdas Pophale) SiO2 
 PCOD9132470
Probable space group: C M
;
_chemical_formula_sum "Si O2"
_cell_formula_units_Z 32
_cell_length_a 22.876559
_cell_length_b 8.649229
_cell_length_c 11.444907
_cell_angle_alpha 90.000000
_cell_angle_beta 130.626139
_cell_angle_gamma 90.000000
_cell_volume 1718.729202
_symmetry_space_group_name_H-M "C M"
_symmetry_group_IT_number 8
_symmetry_cell_setting 'monoclinic'
loop_
_space_group_symop_operation_xyz
x,y,z
x,-y,z
1/2+x,1/2+y,z
1/2+x,1/2-y,z
loop_
_atom_site_type_symbol
_atom_site_label
_atom_site_fract_x
_atom_site_fract_y
_atom_site_fract_z
Si Si1 0.789260 0.816108 0.270520
Si Si2 0.132572 0.814624 0.959543
Si Si3 0.514710 0.813856 0.197117
Si Si4 0.591666 0.686735 0.644256
Si Si5 0.437431 0.814626 0.337967
Si Si6 0.982029 0.687236 0.891769
Si Si7 0.167977 0.186205 0.502719
Si Si8 0.820457 0.687257 0.568873
O O1 0.708152 0.755353 0.116776
O O2 0.858466 0.758616 0.278180
O O3 0.805077 0.750492 0.420165
O O4 0.788401 0.000000 0.273816
O O5 0.136942 0.000000 0.971818
O O6 0.124934 0.769664 0.813241
O O7 0.056238 0.756928 0.925491
O O8 0.461597 0.767374 0.237769
O O9 0.599472 0.747421 0.331606
O O10 0.519847 0.000000 0.206371
O O11 0.483437 0.767693 0.030080
O O12 0.583511 0.500000 0.630879
O O13 0.508214 0.760152 0.511550
O O14 0.645997 0.733516 0.606184
O O15 0.431329 0.000000 0.334722
O O16 0.986548 0.500000 0.892028
O O17 0.903199 0.735968 0.726413
O O18 0.250716 0.236790 0.563055
O O19 0.166540 0.000000 0.497896
O O20 0.820127 0.500000 0.563557
#
# Coordination Sequence:
#
# PCOD9132470 Si02
#       8
#     4   4   4   4   4   4   4   4
#     4  12  25  39  56  79 110 145 183 229 278 326
#     4  11  23  38  57  81 110 145 185 227 273 325
#     4   9  19  35  56  82 111 145 181 221 270 321
#     4   9  19  36  58  84 114 146 181 223 270 321
#     4  10  20  36  59  84 112 145 182 223 269 325
#     4  10  21  37  57  82 113 146 182 225 272 322
#     4   9  18  34  57  83 111 145 182 221 267 320
#     4  10  21  37  58  83 111 145 184 225 271 324
#
# _framework density 18.618407999999999
#
# number of rings (size 3 to 8) (size 9 to 14) (size 15 to 20)
#    0.000    2.000    0.000    3.375    0.000    8.000 
#    0.000    3.750    0.000    1.500    0.000    0.000 
#    0.000    0.000    0.000    0.000    0.000    0.000 
#
# Total GULP energy -89377.324146 kJ/mol
# GULP energy per Si atom -5586.082759 kJ/mol
# Density = 1.857603 g / cm^3
# Si number density = 18.618408 Si / 1000 Ang^3
#
#
#
# Elastic Constant Matrix: (Units=GPa)
#
#
# Indices 1 2 3 4 5 6 
#
# 1 147.4804 37.7026 110.8776 0.0000 25.7509 0.0000
# 2 37.7026 28.4726 44.3624 0.0000 3.2874 0.0000
# 3 110.8776 44.3624 193.0583 0.0000 2.6210 0.0000
# 4 0.0000 0.0000 0.0000 21.5226 0.0000 -0.7470
# 5 25.7509 3.2874 2.6210 0.0000 31.1731 0.0000
# 6 0.0000 0.0000 0.0000 -0.7470 0.0000 21.6364
#
#
#
# Elastic Compliance Matrix: (Units=1/GPa)
#
#
# Indices 1 2 3 4 5 6 
#
# 1 0.016883 -0.009480 -0.007350 0.000000 -0.012328 0.000000
# 2 -0.009480 0.060733 -0.008540 0.000000 0.002144 0.000000
# 3 -0.007350 -0.008540 0.011282 0.000000 0.006024 0.000000
# 4 0.000000 0.000000 0.000000 0.046519 0.000000 0.001606
# 5 -0.012328 0.002144 0.006024 0.000000 0.041530 0.000000
# 6 0.000000 0.000000 0.000000 0.001606 0.000000 0.046274
#
#
# Mechanical properties :
#
#
# Convention : Reuss Voigt Hill
#
# Bulk Modulus (GPa) = 26.20761 83.87739 55.04250
# Shear Modulus (GPa) = 17.44097 26.60432 22.02265
#
# Velocity S-wave (km/s) = 3.06397 3.78421 3.44298
# Velocity P-wave (km/s) = 5.15984 8.01513 6.74041
#
# Compressibility (1/GPa) = 0.03815685
#
# Stress axis : x y z
#
# Youngs Moduli (GPa) = 59.23189 16.46543 88.63660
#
# Poissons Ratio (x) = 0.15609 0.65152
# Poissons Ratio (y) = 0.56150 0.75700
# Poissons Ratio (z) = 0.43538 0.14062
#
# Static dielectric constant tensor:
#      x y z
#    x 1.635460 0.000000 -0.018120 
#    y 0.000000 1.628590 0.000000 
#    z -0.018120 0.000000 1.612010 
# 
# From -- ./inp_files/23896.got.cif
#   From: 2010.05.17/outbox.cif.g08.bks.cpg/sg8_12_cif.got.tgz:23896.got - 2010.06.03 19:46:02.
