data_PCOD9132127
_publ_section_title
;
Structure prediction by ZEFSAII (Michael W. Deem and Ramdas Pophale) SiO2 
 PCOD9132127
Probable space group: C M
;
_chemical_formula_sum "Si O2"
_cell_formula_units_Z 28
_cell_length_a 16.838321
_cell_length_b 16.925362
_cell_length_c 10.290343
_cell_angle_alpha 90.000000
_cell_angle_beta 153.127337
_cell_angle_gamma 90.000000
_cell_volume 1325.604105
_symmetry_space_group_name_H-M "C M"
_symmetry_group_IT_number 8
_symmetry_cell_setting 'monoclinic'
loop_
_space_group_symop_operation_xyz
x,y,z
x,-y,z
1/2+x,1/2+y,z
1/2+x,1/2-y,z
loop_
_atom_site_type_symbol
_atom_site_label
_atom_site_fract_x
_atom_site_fract_y
_atom_site_fract_z
Si Si1 0.886650 0.797467 0.705470
Si Si2 0.067382 0.765621 0.702579
Si Si3 0.263068 0.131195 0.625527
Si Si4 0.695282 0.411377 0.241751
Si Si5 0.420189 0.700495 0.205516
Si Si6 0.317677 0.911780 0.144380
Si Si7 0.522535 0.138688 0.221032
O O1 0.828311 0.721703 0.702505
O O2 0.719007 0.855090 0.455758
O O3 0.941902 0.765548 0.644171
O O4 0.047566 0.844617 0.004761
O O5 0.970425 0.773088 0.424670
O O6 0.210103 0.695271 0.901119
O O7 0.183357 0.845599 0.895316
O O8 0.276420 0.094574 0.502741
O O9 0.058366 0.132709 0.369200
O O10 0.389554 0.100708 0.923324
O O11 0.619425 0.500000 0.117253
O O12 0.828203 0.400823 0.314751
O O13 0.462894 0.771357 0.167380
O O14 0.494007 0.902752 0.318135
O O15 0.247530 0.000000 0.019846
#
# Coordination Sequence:
#
# PCOD9132127 Si02
#       7
#     4   4   4   4   4   4   4
#     4  10  22  36  61  91 122 160 204 258 309 368
#     4  10  21  34  59  89 116 156 200 250 310 359
#     4  11  21  37  58  91 122 158 208 258 306 360
#     4  10  23  41  61  87 125 165 207 255 316 371
#     4  10  19  36  54  87 120 151 199 252 302 357
#     4   9  19  39  58  81 115 160 200 240 303 371
#     4  10  21  35  57  88 117 154 200 257 297 360
#
# _framework density 21.122444999999999
#
# number of rings (size 3 to 8) (size 9 to 14) (size 15 to 20)
#    0.000    2.000    2.857    1.714   10.000    1.143 
#    0.000    0.000    0.000    0.000    0.000    0.000 
#    0.000    0.000    0.000    0.000    0.000    0.000 
#
# Total GULP energy -78087.669030 kJ/mol
# GULP energy per Si atom -5577.690645 kJ/mol
# Density = 2.107437 g / cm^3
# Si number density = 21.122445 Si / 1000 Ang^3
#
#
#
# Elastic Constant Matrix: (Units=GPa)
#
#
# Indices 1 2 3 4 5 6 
#
# 1 140.2246 8.2388 58.5885 0.0000 -4.4014 0.0000
# 2 8.2388 50.3982 4.6227 0.0000 3.3683 0.0000
# 3 58.5885 4.6227 75.8486 0.0000 -9.6056 0.0000
# 4 0.0000 0.0000 0.0000 10.8576 0.0000 -0.1970
# 5 -4.4014 3.3683 -9.6056 0.0000 42.5124 0.0000
# 6 0.0000 0.0000 0.0000 -0.1970 0.0000 4.4556
#
#
#
# Elastic Compliance Matrix: (Units=1/GPa)
#
#
# Indices 1 2 3 4 5 6 
#
# 1 0.010597 -0.000933 -0.008216 0.000000 -0.000685 0.000000
# 2 -0.000933 0.020188 -0.000746 0.000000 -0.001865 0.000000
# 3 -0.008216 -0.000746 0.020049 0.000000 0.003739 0.000000
# 4 0.000000 0.000000 0.000000 0.092175 0.000000 0.004076
# 5 -0.000685 -0.001865 0.003739 0.000000 0.024444 0.000000
# 6 0.000000 0.000000 0.000000 0.004076 0.000000 0.224619
#
#
# Mechanical properties :
#
#
# Convention : Reuss Voigt Hill
#
# Bulk Modulus (GPa) = 32.21128 45.48572 38.84850
# Shear Modulus (GPa) = 11.84244 24.56655 18.20450
#
# Velocity S-wave (km/s) = 2.37039 3.41406 2.93892
# Velocity P-wave (km/s) = 4.77227 6.09279 5.47251
#
# Compressibility (1/GPa) = 0.03104502
#
# Stress axis : x y z
#
# Youngs Moduli (GPa) = 94.36228 49.53556 49.87707
#
# Poissons Ratio (x) = 0.04622 0.40978
# Poissons Ratio (y) = 0.08804 0.03720
# Poissons Ratio (z) = 0.77526 0.03694
#
# Static dielectric constant tensor:
#      x y z
#    x 1.796310 0.000000 0.028500 
#    y 0.000000 1.813970 0.000000 
#    z 0.028500 0.000000 1.767820 
# 
# From -- ./inp_files/8535.got.cif
#   From: 2010.05.17/outbox.cif.g08.bks.cpg/sg8_5_cif.got.tgz:8535.got - 2010.06.03 19:46:02.
