data_PCOD9132001
_publ_section_title
;
Structure prediction by ZEFSAII (Michael W. Deem and Ramdas Pophale) SiO2 
 PCOD9132001
Probable space group: C M
;
_chemical_formula_sum "Si O2"
_cell_formula_units_Z 32
_cell_length_a 20.805925
_cell_length_b 8.754462
_cell_length_c 25.615097
_cell_angle_alpha 90.000000
_cell_angle_beta 157.238595
_cell_angle_gamma 90.000000
_cell_volume 1805.115838
_symmetry_space_group_name_H-M "C M"
_symmetry_group_IT_number 8
_symmetry_cell_setting 'monoclinic'
loop_
_space_group_symop_operation_xyz
x,y,z
x,-y,z
1/2+x,1/2+y,z
1/2+x,1/2-y,z
loop_
_atom_site_type_symbol
_atom_site_label
_atom_site_fract_x
_atom_site_fract_y
_atom_site_fract_z
Si Si1 0.598540 0.183404 0.270200
Si Si2 0.937503 0.316661 0.260933
Si Si3 0.558563 0.316797 0.973617
Si Si4 0.256266 0.183373 0.546385
Si Si5 0.015155 0.683857 0.826788
Si Si6 0.838346 0.817364 0.997989
Si Si7 0.921432 0.683384 0.559147
Si Si8 0.778947 0.317954 0.838947
O O1 0.497124 0.227486 0.247095
O O2 0.501060 0.253705 0.148593
O O3 0.782948 0.248213 0.416943
O O4 0.601649 0.000000 0.269131
O O5 0.943828 0.500000 0.268078
O O6 0.073286 0.250249 0.402044
O O7 0.748330 0.268192 0.128022
O O8 0.548863 0.500000 0.970954
O O9 0.522264 0.267150 0.887152
O O10 0.427321 0.240131 0.913609
O O11 0.358569 0.231003 0.673900
O O12 0.360143 0.225633 0.572007
O O13 0.246253 0.000000 0.539311
O O14 0.008190 0.500000 0.829513
O O15 0.180715 0.716459 0.917193
O O16 0.848160 0.000000 0.999286
O O17 0.809321 0.742575 0.920219
O O18 0.923753 0.500000 0.557297
O O19 0.104023 0.749688 0.688338
O O20 0.770681 0.500000 0.832572
#
# Coordination Sequence:
#
# PCOD9132001 Si02
#       8
#     4   4   4   4   4   4   4   4
#     4  10  19  34  56  89 121 149 191 243 290 339
#     4   9  19  34  54  83 116 149 187 232 285 340
#     4  11  23  40  59  83 117 156 194 237 290 353
#     4   9  18  33  56  85 115 147 186 233 283 338
#     4  10  20  36  58  87 117 148 192 240 287 341
#     4  11  21  37  60  87 118 154 196 244 290 344
#     4  10  19  36  58  85 117 155 193 234 293 351
#     4  12  25  40  59  85 117 156 197 245 296 348
#
# _framework density 17.727394
#
# number of rings (size 3 to 8) (size 9 to 14) (size 15 to 20)
#    0.000    1.750    2.500    2.625    0.000    3.000 
#    0.000    1.250    0.000    3.000    0.000    0.000 
#    0.000    0.000    0.000    0.000    0.000    0.000 
#
# Total GULP energy -89364.110158 kJ/mol
# GULP energy per Si atom -5585.256885 kJ/mol
# Density = 1.768705 g / cm^3
# Si number density = 17.727394 Si / 1000 Ang^3
#
#
#
# Elastic Constant Matrix: (Units=GPa)
#
#
# Indices 1 2 3 4 5 6 
#
# 1 68.9476 37.5024 54.6636 0.0003 7.0409 -0.0002
# 2 37.5024 61.6865 48.8331 0.0004 3.3792 0.0000
# 3 54.6636 48.8331 175.5095 0.0022 1.6106 0.0001
# 4 0.0003 0.0004 0.0022 33.7800 -0.0001 -3.0974
# 5 7.0409 3.3792 1.6106 -0.0001 26.1713 0.0001
# 6 -0.0002 0.0000 0.0001 -3.0974 0.0001 28.2549
#
#
#
# Elastic Compliance Matrix: (Units=1/GPa)
#
#
# Indices 1 2 3 4 5 6 
#
# 1 0.024657 -0.011128 -0.004538 0.000000 -0.004917 0.000000
# 2 -0.011128 0.025956 -0.003755 0.000000 -0.000126 0.000000
# 3 -0.004538 -0.003755 0.008145 0.000000 0.001204 0.000000
# 4 0.000000 0.000000 0.000000 0.029904 0.000000 0.003278
# 5 -0.004917 -0.000126 0.001204 0.000000 0.039475 0.000000
# 6 0.000000 0.000000 0.000000 0.003278 0.000000 0.035751
#
#
# Mechanical properties :
#
#
# Convention : Reuss Voigt Hill
#
# Bulk Modulus (GPa) = 50.21301 65.34910 57.78106
# Shear Modulus (GPa) = 23.88137 28.65086 26.26611
#
# Velocity S-wave (km/s) = 3.67433 4.02455 3.85342
# Velocity P-wave (km/s) = 6.81084 7.65110 7.24316
#
# Compressibility (1/GPa) = 0.01991516
#
# Stress axis : x y z
#
# Youngs Moduli (GPa) = 40.55669 38.52716 122.77819
#
# Poissons Ratio (x) = 0.42874 0.55718
# Poissons Ratio (y) = 0.45133 0.46099
# Poissons Ratio (z) = 0.18405 0.14466
#
# Static dielectric constant tensor:
#      x y z
#    x 1.578020 0.000000 0.000540 
#    y 0.000000 1.591350 0.000000 
#    z 0.000540 0.000000 1.600990 
# 
# From -- ./inp_files/33046.got.cif
#   From: 2010.05.17/outbox.cif.g08.bks.cpg/sg8_17_cif.got.tgz:33046.got - 2010.06.03 19:46:02.
