data_PCOD9132918
_publ_section_title
;
Structure prediction by ZEFSAII (Michael W. Deem and Ramdas Pophale) SiO2 
 PCOD9132918
Probable space group: C M
;
_chemical_formula_sum "Si O2"
_cell_formula_units_Z 32
_cell_length_a 9.920273
_cell_length_b 7.845080
_cell_length_c 16.842577
_cell_angle_alpha 90.000000
_cell_angle_beta 89.905681
_cell_angle_gamma 90.000000
_cell_volume 1310.777426
_symmetry_space_group_name_H-M "C M"
_symmetry_group_IT_number 8
_symmetry_cell_setting 'monoclinic'
loop_
_space_group_symop_operation_xyz
x,y,z
x,-y,z
1/2+x,1/2+y,z
1/2+x,1/2-y,z
loop_
_atom_site_type_symbol
_atom_site_label
_atom_site_fract_x
_atom_site_fract_y
_atom_site_fract_z
Si Si1 0.123680 0.292543 0.683870
Si Si2 0.373408 0.200861 0.590852
Si Si3 0.220359 0.800303 0.928303
Si Si4 0.119942 0.198942 0.176024
Si Si5 0.984437 0.698434 0.336587
Si Si6 0.230531 0.207616 0.432165
Si Si7 0.474717 0.801074 0.841154
Si Si8 0.863216 0.196700 0.087168
O O1 0.129167 0.500000 0.684472
O O2 0.271589 0.225984 0.664541
O O3 0.019761 0.232642 0.615244
O O4 0.056085 0.231494 0.765778
O O5 0.296725 0.270851 0.514052
O O6 0.390299 0.000000 0.576814
O O7 0.331258 0.726434 0.866535
O O8 0.077244 0.713757 0.914877
O O9 0.199353 0.000000 0.913318
O O10 0.287227 0.781791 0.014110
O O11 0.055688 0.212123 0.262906
O O12 0.260329 0.291481 0.161250
O O13 0.006244 0.267492 0.115478
O O14 0.143946 0.000000 0.159324
O O15 0.973173 0.500000 0.315843
O O16 0.085033 0.719940 0.411159
O O17 0.837277 0.757880 0.363569
O O18 0.221871 0.000000 0.433546
O O19 0.450856 0.000000 0.824649
O O20 0.884453 0.000000 0.065439
#
# Coordination Sequence:
#
# PCOD9132918 Si02
#       8
#     4   4   4   4   4   4   4   4
#     4  10  21  38  59  85 117 152 193 240 289 343
#     4  10  21  38  59  85 117 152 193 240 289 343
#     4  11  23  39  61  87 116 153 194 237 287 342
#     4  11  24  41  62  89 119 152 192 237 286 342
#     4  11  23  39  61  87 116 153 194 237 287 342
#     4  10  22  39  59  85 118 154 192 238 290 343
#     4  10  22  39  59  85 118 154 192 238 290 343
#     4  11  24  41  62  89 119 152 192 237 286 342
#
# _framework density 24.412993
#
# number of rings (size 3 to 8) (size 9 to 14) (size 15 to 20)
#    0.000    1.500    0.000    4.500    0.000   11.500 
#    0.000    0.000    0.000    0.000    0.000    0.000 
#    0.000    0.000    0.000    0.000    0.000    0.000 
#
# Total GULP energy -89555.419293 kJ/mol
# GULP energy per Si atom -5597.213706 kJ/mol
# Density = 2.435743 g / cm^3
# Si number density = 24.412993 Si / 1000 Ang^3
#
#
#
# Elastic Constant Matrix: (Units=GPa)
#
#
# Indices 1 2 3 4 5 6 
#
# 1 101.3615 -9.9399 -14.5221 0.0000 0.4994 0.0000
# 2 -9.9399 37.4126 -8.3870 0.0000 -0.3906 0.0000
# 3 -14.5221 -8.3870 64.6365 0.0000 0.9365 0.0000
# 4 0.0000 0.0000 0.0000 24.5213 0.0000 -2.6636
# 5 0.4994 -0.3906 0.9365 0.0000 40.9746 0.0000
# 6 0.0000 0.0000 0.0000 -2.6636 0.0000 15.6097
#
#
#
# Elastic Compliance Matrix: (Units=1/GPa)
#
#
# Indices 1 2 3 4 5 6 
#
# 1 0.010611 0.003453 0.002834 0.000000 -0.000161 0.000000
# 2 0.003453 0.028655 0.004492 0.000000 0.000128 0.000000
# 3 0.002834 0.004492 0.016696 0.000000 -0.000373 0.000000
# 4 0.000000 0.000000 0.000000 0.041551 0.000000 0.007090
# 5 -0.000161 0.000128 -0.000373 0.000000 0.024417 0.000000
# 6 0.000000 0.000000 0.000000 0.007090 0.000000 0.065273
#
#
# Mechanical properties :
#
#
# Convention : Reuss Voigt Hill
#
# Bulk Modulus (GPa) = 12.89973 15.30139 14.10056
# Shear Modulus (GPa) = 26.11179 31.97177 29.04178
#
# Velocity S-wave (km/s) = 3.27400 3.62279 3.45280
# Velocity P-wave (km/s) = 4.42578 4.87656 4.65663
#
# Compressibility (1/GPa) = 0.07752101
#
# Stress axis : x y z
#
# Youngs Moduli (GPa) = 94.24027 34.89827 59.89376
#
# Poissons Ratio (x) = -0.12050 -0.16976
# Poissons Ratio (y) = -0.32541 -0.26905
# Poissons Ratio (z) = -0.26712 -0.15677
#
# Static dielectric constant tensor:
#      x y z
#    x 1.884620 0.000000 -0.001370 
#    y 0.000000 1.863430 0.000000 
#    z -0.001370 0.000000 2.013560 
# 
# From -- ./inp_files/25859.got.cif
#   From: 2010.05.17/outbox.cif.g08.bks.cpg/sg8_13_cif.got.tgz:25859.got - 2010.06.03 19:46:02.
