data_PCOD9132142
_publ_section_title
;
Structure prediction by ZEFSAII (Michael W. Deem and Ramdas Pophale) SiO2 
 PCOD9132142
Probable space group: C M
;
_chemical_formula_sum "Si O2"
_cell_formula_units_Z 32
_cell_length_a 23.080111
_cell_length_b 8.314230
_cell_length_c 28.232132
_cell_angle_alpha 90.000000
_cell_angle_beta 17.728832
_cell_angle_gamma 90.000000
_cell_volume 1649.713795
_symmetry_space_group_name_H-M "C M"
_symmetry_group_IT_number 8
_symmetry_cell_setting 'monoclinic'
loop_
_space_group_symop_operation_xyz
x,y,z
x,-y,z
1/2+x,1/2+y,z
1/2+x,1/2-y,z
loop_
_atom_site_type_symbol
_atom_site_label
_atom_site_fract_x
_atom_site_fract_y
_atom_site_fract_z
Si Si1 0.134330 0.311601 0.078610
Si Si2 0.857346 0.309987 0.466189
Si Si3 0.802113 0.694610 0.662227
Si Si4 0.375726 0.196385 0.711815
Si Si5 0.134389 0.695587 0.332052
Si Si6 0.551866 0.695316 0.037110
Si Si7 0.302765 0.690221 0.403814
Si Si8 0.047177 0.312603 0.779188
O O1 0.175318 0.500000 0.046729
O O2 0.079510 0.256175 0.068631
O O3 0.961419 0.274043 0.248446
O O4 0.325656 0.222249 0.945777
O O5 0.878777 0.500000 0.440442
O O6 0.839606 0.221233 0.430404
O O7 0.670956 0.282386 0.643721
O O8 0.033597 0.253356 0.361754
O O9 0.791478 0.500000 0.669494
O O10 0.814546 0.746999 0.706811
O O11 0.627299 0.761549 0.767976
O O12 0.993069 0.742257 0.484858
O O13 0.590020 0.248017 0.556743
O O14 0.376198 0.000000 0.711751
O O15 0.224752 0.248246 0.868853
O O16 0.135676 0.500000 0.330184
O O17 0.348622 0.749109 0.174463
O O18 0.551596 0.500000 0.038450
O O19 0.311417 0.500000 0.387083
O O20 0.085238 0.500000 0.741879
#
# Coordination Sequence:
#
# PCOD9132142 Si02
#       8
#     4   4   4   4   4   4   4   4
#     4  12  25  40  57  81 111 149 192 241 293 343
#     4  10  20  37  59  87 119 154 191 231 277 334
#     4   9  17  34  56  81 113 152 191 230 274 333
#     4   9  19  34  58  86 114 148 187 228 281 342
#     4   8  16  31  55  82 114 153 190 224 270 331
#     4  10  19  36  60  86 113 147 188 232 279 340
#     4  11  22  38  58  84 116 153 193 237 283 336
#     4  11  22  38  59  85 114 150 190 235 287 341
#
# _framework density 19.397304999999999
#
# number of rings (size 3 to 8) (size 9 to 14) (size 15 to 20)
#    0.000    2.000    0.000    5.250    0.000    4.000 
#    0.000   10.625    0.000    0.000    0.000    0.000 
#    0.000    0.000    0.000    0.000    0.000    0.000 
#
# Total GULP energy -89384.243502 kJ/mol
# GULP energy per Si atom -5586.515219 kJ/mol
# Density = 1.935316 g / cm^3
# Si number density = 19.397305 Si / 1000 Ang^3
#
#
#
# Elastic Constant Matrix: (Units=GPa)
#
#
# Indices 1 2 3 4 5 6 
#
# 1 140.4362 -7.1494 63.5354 -0.0050 -0.4199 -0.0018
# 2 -7.1494 21.9828 -11.4832 -0.0019 -3.1845 -0.0011
# 3 63.5354 -11.4832 110.2595 -0.0357 -19.2227 -0.0010
# 4 -0.0050 -0.0019 -0.0357 21.0041 0.0043 1.2271
# 5 -0.4199 -3.1845 -19.2227 0.0043 26.7110 0.0024
# 6 -0.0018 -0.0011 -0.0010 1.2271 0.0024 29.2041
#
#
#
# Elastic Compliance Matrix: (Units=1/GPa)
#
#
# Indices 1 2 3 4 5 6 
#
# 1 0.010122 -0.000945 -0.006773 -0.000008 -0.004828 0.000001
# 2 -0.000945 0.051017 0.007908 0.000016 0.011758 0.000000
# 3 -0.006773 0.007908 0.015942 0.000024 0.012309 -0.000002
# 4 -0.000008 0.000016 0.000024 0.047727 0.000011 -0.002005
# 5 -0.004828 0.011758 0.012309 0.000011 0.047622 -0.000004
# 6 0.000001 0.000000 -0.000002 -0.002005 -0.000004 0.034326
#
#
# Mechanical properties :
#
#
# Convention : Reuss Voigt Hill
#
# Bulk Modulus (GPa) = 12.90983 40.27599 26.59291
# Shear Modulus (GPa) = 21.53348 30.56889 26.05119
#
# Velocity S-wave (km/s) = 3.33547 3.97411 3.66871
# Velocity P-wave (km/s) = 4.63721 6.47046 5.62897
#
# Compressibility (1/GPa) = 0.07746034
#
# Stress axis : x y z
#
# Youngs Moduli (GPa) = 98.79193 19.60138 62.72801
#
# Poissons Ratio (x) = 0.01853 0.42485
# Poissons Ratio (y) = 0.09339 -0.49605
# Poissons Ratio (z) = 0.66911 -0.15501
#
# Static dielectric constant tensor:
#      x y z
#    x 1.647090 0.000000 -0.012210 
#    y 0.000000 1.672680 0.000010 
#    z -0.012210 0.000010 1.652340 
# 
# From -- ./inp_files/33050.got.cif
#   From: 2010.05.17/outbox.cif.g08.bks.cpg/sg8_17_cif.got.tgz:33050.got - 2010.06.03 19:46:02.
