data_PCOD9132207
_publ_section_title
;
Structure prediction by ZEFSAII (Michael W. Deem and Ramdas Pophale) SiO2 
 PCOD9132207
Probable space group: C M
;
_chemical_formula_sum "Si O2"
_cell_formula_units_Z 24
_cell_length_a 9.657256
_cell_length_b 15.529919
_cell_length_c 9.532240
_cell_angle_alpha 90.000000
_cell_angle_beta 132.877089
_cell_angle_gamma 90.000000
_cell_volume 1047.640497
_symmetry_space_group_name_H-M "C M"
_symmetry_group_IT_number 8
_symmetry_cell_setting 'monoclinic'
loop_
_space_group_symop_operation_xyz
x,y,z
x,-y,z
1/2+x,1/2+y,z
1/2+x,1/2-y,z
loop_
_atom_site_type_symbol
_atom_site_label
_atom_site_fract_x
_atom_site_fract_y
_atom_site_fract_z
Si Si1 0.329560 0.333874 0.707640
Si Si2 0.356822 0.596446 0.435731
Si Si3 0.156965 0.104314 0.137911
Si Si4 0.954544 0.395828 0.096838
Si Si5 0.915047 0.673068 0.556740
Si Si6 0.258382 0.098218 0.691579
O O1 0.349826 0.406010 0.599934
O O2 0.383276 0.252525 0.643778
O O3 0.116283 0.327682 0.618492
O O4 0.472556 0.356211 0.933319
O O5 0.352585 0.500000 0.373879
O O6 0.552251 0.637281 0.519858
O O7 0.164236 0.640603 0.255677
O O8 0.240724 0.153105 0.331487
O O9 0.133216 0.000000 0.146004
O O10 0.325199 0.116627 0.141515
O O11 0.971307 0.500000 0.094227
O O12 0.851073 0.358770 0.890120
O O13 0.898592 0.597193 0.659295
O O14 0.215408 0.000000 0.703894
#
# Coordination Sequence:
#
# PCOD9132207 Si02
#       6
#     4   4   4   4   4   4
#     4  12  26  43  68 101 143 190 232 288 358 419
#     4  10  19  37  67  97 131 179 230 280 342 414
#     4  11  24  45  75 107 137 182 241 293 344 422
#     4   9  18  35  65  97 129 172 223 276 337 405
#     4  12  28  45  68 101 145 187 237 293 355 417
#     4  10  21  39  65  99 136 176 231 292 343 409
#
# _framework density 22.908622000000001
#
# number of rings (size 3 to 8) (size 9 to 14) (size 15 to 20)
#    0.000    1.333    3.333    2.000    0.000    6.000 
#    0.000    1.667    0.000    0.000    0.000    0.000 
#    0.000    0.000    0.000    0.000    0.000    0.000 
#
# Total GULP energy -66911.851771 kJ/mol
# GULP energy per Si atom -5575.987648 kJ/mol
# Density = 2.285648 g / cm^3
# Si number density = 22.908622 Si / 1000 Ang^3
#
#
#
# Elastic Constant Matrix: (Units=GPa)
#
#
# Indices 1 2 3 4 5 6 
#
# 1 136.6601 26.9496 39.5561 0.0000 10.7485 0.0000
# 2 26.9496 90.6394 36.4211 0.0000 5.4842 0.0000
# 3 39.5561 36.4211 141.6097 0.0000 18.6781 0.0000
# 4 0.0000 0.0000 0.0000 19.6309 0.0000 -8.9230
# 5 10.7485 5.4842 18.6781 0.0000 35.3238 0.0000
# 6 0.0000 0.0000 0.0000 -8.9230 0.0000 24.8431
#
#
#
# Elastic Compliance Matrix: (Units=1/GPa)
#
#
# Indices 1 2 3 4 5 6 
#
# 1 0.008247 -0.001691 -0.001690 0.000000 -0.001353 0.000000
# 2 -0.001691 0.012653 -0.002785 0.000000 0.000023 0.000000
# 3 -0.001690 -0.002785 0.008734 0.000000 -0.003672 0.000000
# 4 0.000000 0.000000 0.000000 0.060879 0.000000 0.021866
# 5 -0.001353 0.000023 -0.003672 0.000000 0.030659 0.000000
# 6 0.000000 0.000000 0.000000 0.021866 0.000000 0.048107
#
#
# Mechanical properties :
#
#
# Convention : Reuss Voigt Hill
#
# Bulk Modulus (GPa) = 57.79689 63.86255 60.82972
# Shear Modulus (GPa) = 26.68394 33.69171 30.18782
#
# Velocity S-wave (km/s) = 3.41662 3.83913 3.63402
# Velocity P-wave (km/s) = 6.39128 6.89851 6.64974
#
# Compressibility (1/GPa) = 0.01730197
#
# Stress axis : x y z
#
# Youngs Moduli (GPa) = 121.26349 79.03148 114.49039
#
# Poissons Ratio (x) = 0.13363 0.19351
# Poissons Ratio (y) = 0.20504 0.31885
# Poissons Ratio (z) = 0.20495 0.22010
#
# Static dielectric constant tensor:
#      x y z
#    x 1.799610 0.000000 0.036680 
#    y 0.000000 2.022350 0.000000 
#    z 0.036680 0.000000 1.922670 
# 
# From -- ./inp_files/8754.got.cif
#   From: 2010.05.17/outbox.cif.g08.bks.cpg/sg8_5_cif.got.tgz:8754.got - 2010.06.03 19:46:02.
