data_PCOD9132175
_publ_section_title
;
Structure prediction by ZEFSAII (Michael W. Deem and Ramdas Pophale) SiO2 
 PCOD9132175
Probable space group: C M
;
_chemical_formula_sum "Si O2"
_cell_formula_units_Z 32
_cell_length_a 8.453302
_cell_length_b 12.270339
_cell_length_c 15.219628
_cell_angle_alpha 90.000000
_cell_angle_beta 89.444481
_cell_angle_gamma 90.000000
_cell_volume 1578.579906
_symmetry_space_group_name_H-M "C M"
_symmetry_group_IT_number 8
_symmetry_cell_setting 'monoclinic'
loop_
_space_group_symop_operation_xyz
x,y,z
x,-y,z
1/2+x,1/2+y,z
1/2+x,1/2-y,z
loop_
_atom_site_type_symbol
_atom_site_label
_atom_site_fract_x
_atom_site_fract_y
_atom_site_fract_z
Si Si1 0.063370 0.668024 0.441150
Si Si2 0.236608 0.620948 0.261036
Si Si3 0.212878 0.124667 0.493368
Si Si4 0.149319 0.124487 0.055814
Si Si5 0.202660 0.687117 0.621037
Si Si6 0.941155 0.710930 0.160807
Si Si7 0.237658 0.123912 0.853142
Si Si8 0.958994 0.213195 0.746549
O O1 0.164717 0.630319 0.358579
O O2 0.081649 0.799867 0.447197
O O3 0.144430 0.630264 0.532503
O O4 0.880895 0.634100 0.442209
O O5 0.302216 0.500000 0.246869
O O6 0.363859 0.713441 0.237027
O O7 0.085649 0.641754 0.198567
O O8 0.238595 0.189666 0.584599
O O9 0.168509 0.000000 0.503636
O O10 0.300557 0.142787 0.118062
O O11 0.015536 0.207573 0.088478
O O12 0.093960 0.000000 0.062744
O O13 0.202768 0.144331 0.955672
O O14 0.063183 0.700915 0.690812
O O15 0.354397 0.650520 0.674302
O O16 0.074787 0.136904 0.800391
O O17 0.350703 0.215883 0.812063
O O18 0.298868 0.000000 0.843442
#
# Coordination Sequence:
#
# PCOD9132175 Si02
#       8
#     4   4   4   4   4   4   4   4
#     4  10  20  37  57  82 112 153 193 234 278 334
#     4  11  22  38  58  85 119 150 189 236 282 331
#     4  10  20  37  57  77 106 151 194 235 281 324
#     4  10  20  39  61  86 114 146 189 227 283 353
#     4   9  18  35  56  77 112 149 188 233 273 330
#     4  10  22  37  61  88 114 150 185 232 287 336
#     4  10  22  38  61  85 112 151 185 230 292 341
#     4  10  19  37  56  82 117 142 186 243 275 325
#
# _framework density 20.271384000000001
#
# number of rings (size 3 to 8) (size 9 to 14) (size 15 to 20)
#    0.750    1.250    1.250    2.625    0.000    2.000 
#    0.000    9.375    0.000   10.500    0.000    0.000 
#    0.000    0.000    0.000    0.000    0.000    0.000 
#
# Total GULP energy -89263.099816 kJ/mol
# GULP energy per Si atom -5578.943739 kJ/mol
# Density = 2.022525 g / cm^3
# Si number density = 20.271384 Si / 1000 Ang^3
#
#
#
# Elastic Constant Matrix: (Units=GPa)
#
#
# Indices 1 2 3 4 5 6 
#
# 1 28.6859 -9.5997 -9.3468 0.0000 -6.7108 0.0000
# 2 -9.5997 74.2146 12.1077 0.0000 -7.8669 0.0000
# 3 -9.3468 12.1077 79.4541 0.0000 -12.4442 0.0000
# 4 0.0000 0.0000 0.0000 -1.0803 0.0000 6.2743
# 5 -6.7108 -7.8669 -12.4442 0.0000 27.7311 0.0000
# 6 0.0000 0.0000 0.0000 6.2743 0.0000 8.7802
#
#
#
# Elastic Compliance Matrix: (Units=1/GPa)
#
#
# Indices 1 2 3 4 5 6 
#
# 1 0.042433 0.006019 0.006400 0.000000 0.014848 0.000000
# 2 0.006019 0.014941 -0.000728 0.000000 0.005368 0.000000
# 3 0.006400 -0.000728 0.014693 0.000000 0.007936 0.000000
# 4 0.000000 0.000000 0.000000 -0.179729 0.000000 0.128435
# 5 0.014848 0.005368 0.007936 0.000000 0.044738 0.000000
# 6 0.000000 0.000000 0.000000 0.128435 0.000000 0.022113
#
#
# Mechanical properties :
#
#
# Convention : Reuss Voigt Hill
#
# Bulk Modulus (GPa) = 10.47687 18.74188 14.60937
# Shear Modulus (GPa) = -154.43214 19.69909 -67.36652
#
# Velocity S-wave (km/s) = -8.73772 3.12070 -5.77100
# Velocity P-wave (km/s) = 9.82942 4.71705 6.09782
#
# Compressibility (1/GPa) = 0.09544835
#
# Stress axis : x y z
#
# Youngs Moduli (GPa) = 23.56633 66.93094 68.06158
#
# Poissons Ratio (x) = -0.40283 -0.43560
# Poissons Ratio (y) = -0.14184 0.04955
# Poissons Ratio (z) = -0.15083 0.04872
#
# Static dielectric constant tensor:
#      x y z
#    x 1.721940 0.000000 0.008730 
#    y 0.000000 1.709600 0.000000 
#    z 0.008730 0.000000 1.716220 
# 
# From -- ./inp_files/25257.got.cif
#   From: 2010.05.17/outbox.cif.g08.bks.cpg/sg8_13_cif.got.tgz:25257.got - 2010.06.03 19:46:02.
