data_PCOD9132953
_publ_section_title
;
Structure prediction by ZEFSAII (Michael W. Deem and Ramdas Pophale) SiO2 
 PCOD9132953
Probable space group: C M
;
_chemical_formula_sum "Si O2"
_cell_formula_units_Z 32
_cell_length_a 17.864874
_cell_length_b 23.057503
_cell_length_c 12.496603
_cell_angle_alpha 90.000000
_cell_angle_beta 161.040032
_cell_angle_gamma 90.000000
_cell_volume 1672.491328
_symmetry_space_group_name_H-M "C M"
_symmetry_group_IT_number 8
_symmetry_cell_setting 'monoclinic'
loop_
_space_group_symop_operation_xyz
x,y,z
x,-y,z
1/2+x,1/2+y,z
1/2+x,1/2-y,z
loop_
_atom_site_type_symbol
_atom_site_label
_atom_site_fract_x
_atom_site_fract_y
_atom_site_fract_z
Si Si1 0.793050 0.350887 0.424070
Si Si2 0.293499 0.685204 0.400868
Si Si3 0.133269 0.756189 0.597787
Si Si4 0.101748 0.749045 0.316953
Si Si5 0.340009 0.628017 0.157255
Si Si6 0.213500 0.566357 0.197934
Si Si7 0.668269 0.432086 0.429426
Si Si8 0.697980 0.283025 0.097937
O O1 0.717390 0.302383 0.409760
O O2 0.692819 0.408715 0.341606
O O3 0.672863 0.332920 0.151655
O O4 0.070671 0.352322 0.780486
O O5 0.117307 0.693656 0.260138
O O6 0.323088 0.618727 0.412558
O O7 0.214033 0.724069 0.192097
O O8 0.515138 0.713299 0.756521
O O9 0.210997 0.744402 0.581046
O O10 0.004572 0.818737 0.418830
O O11 0.938300 0.710987 0.364034
O O12 0.327878 0.744961 0.949025
O O13 0.307030 0.579422 0.204763
O O14 0.478114 0.602128 0.242332
O O15 0.260438 0.500000 0.291301
O O16 0.935402 0.576325 0.829379
O O17 0.617417 0.500000 0.365332
#
# Coordination Sequence:
#
# PCOD9132953 Si02
#       8
#     4   4   4   4   4   4   4   4
#     4  10  22  38  59  87 128 160 200 261 312 372
#     4  11  22  39  59  88 124 168 200 260 314 372
#     4  12  21  34  56  91 120 160 198 251 310 375
#     4  11  22  33  56  86 125 156 197 248 315 370
#     4  11  20  36  63  90 124 161 205 264 309 370
#     4  10  22  39  62  91 125 167 214 258 312 373
#     4  10  21  38  63  92 121 162 214 265 311 367
#     4  11  23  37  59  91 128 162 205 255 317 379
#
# _framework density 19.133134999999999
#
# number of rings (size 3 to 8) (size 9 to 14) (size 15 to 20)
#    0.000    1.250    2.500    5.625    5.250    0.500 
#    0.000    0.625    0.000    0.000    0.000    0.000 
#    0.000    0.000    0.000    0.000    0.000    0.000 
#
# Total GULP energy -89140.603502 kJ/mol
# GULP energy per Si atom -5571.287719 kJ/mol
# Density = 1.908959 g / cm^3
# Si number density = 19.133135 Si / 1000 Ang^3
#
#
#
# Elastic Constant Matrix: (Units=GPa)
#
#
# Indices 1 2 3 4 5 6 
#
# 1 97.3937 38.8194 22.5185 -0.0001 11.4186 -0.0002
# 2 38.8194 88.2680 30.0419 -0.0004 -2.8227 -0.0001
# 3 22.5185 30.0419 90.3964 -0.0007 9.4667 0.0000
# 4 -0.0001 -0.0004 -0.0007 18.5750 -0.0003 1.0108
# 5 11.4186 -2.8227 9.4667 -0.0003 27.2097 -0.0002
# 6 -0.0002 -0.0001 0.0000 1.0108 -0.0002 30.4344
#
#
#
# Elastic Compliance Matrix: (Units=1/GPa)
#
#
# Indices 1 2 3 4 5 6 
#
# 1 0.013486 -0.005855 -0.000786 0.000000 -0.005993 0.000000
# 2 -0.005855 0.015542 -0.004289 0.000000 0.005562 0.000000
# 3 -0.000786 -0.004289 0.013176 0.000000 -0.004699 0.000000
# 4 0.000000 0.000000 0.000000 0.053933 0.000001 -0.001791
# 5 -0.005993 0.005562 -0.004699 0.000001 0.041479 0.000000
# 6 0.000000 0.000000 0.000000 -0.001791 0.000000 0.032917
#
#
# Mechanical properties :
#
#
# Convention : Reuss Voigt Hill
#
# Bulk Modulus (GPa) = 49.15641 50.97975 50.06808
# Shear Modulus (GPa) = 25.10379 27.55568 26.32974
#
# Velocity S-wave (km/s) = 3.62616 3.79912 3.71365
# Velocity P-wave (km/s) = 6.57873 6.77842 6.67932
#
# Compressibility (1/GPa) = 0.02034323
#
# Stress axis : x y z
#
# Youngs Moduli (GPa) = 74.15263 64.34290 75.89758
#
# Poissons Ratio (x) = 0.37673 0.05965
# Poissons Ratio (y) = 0.43417 0.32552
# Poissons Ratio (z) = 0.05828 0.27596
#
# Static dielectric constant tensor:
#      x y z
#    x 1.728920 0.000000 0.055930 
#    y 0.000000 1.687260 0.000000 
#    z 0.055930 0.000000 1.765530 
# 
# From -- ./inp_files/23465.got.cif
#   From: 2010.05.17/outbox.cif.g08.bks.cpg/sg8_12_cif.got.tgz:23465.got - 2010.06.03 19:46:02.
