data_PCOD9132172
_publ_section_title
;
Structure prediction by ZEFSAII (Michael W. Deem and Ramdas Pophale) SiO2 
 PCOD9132172
Probable space group: C M
;
_chemical_formula_sum "Si O2"
_cell_formula_units_Z 24
_cell_length_a 19.994535
_cell_length_b 7.845093
_cell_length_c 17.284074
_cell_angle_alpha 90.000000
_cell_angle_beta 22.628813
_cell_angle_gamma 90.000000
_cell_volume 1043.145570
_symmetry_space_group_name_H-M "C M"
_symmetry_group_IT_number 8
_symmetry_cell_setting 'monoclinic'
loop_
_space_group_symop_operation_xyz
x,y,z
x,-y,z
1/2+x,1/2+y,z
1/2+x,1/2-y,z
loop_
_atom_site_type_symbol
_atom_site_label
_atom_site_fract_x
_atom_site_fract_y
_atom_site_fract_z
Si Si1 0.859818 0.500000 0.884978
Si Si2 0.125732 0.303750 0.774929
Si Si3 0.556046 0.000000 0.532090
Si Si4 0.028468 0.000000 0.122244
Si Si5 0.454246 0.307215 0.540014
Si Si6 0.369798 0.192245 0.377007
Si Si7 0.940227 0.000000 0.050221
Si Si8 0.199875 0.695467 0.141081
O O1 0.031215 0.500000 0.650288
O O2 0.698512 0.500000 0.995412
O O3 0.834046 0.331064 0.963476
O O4 0.068901 0.500000 0.833554
O O5 0.281499 0.293749 0.672236
O O6 0.215095 0.249672 0.598919
O O7 0.984995 0.168175 0.953528
O O8 0.464209 0.831790 0.596072
O O9 0.749385 0.000000 0.290982
O O10 0.064415 0.000000 0.993217
O O11 0.917291 0.831883 0.262542
O O12 0.467379 0.500000 0.555378
O O13 0.611027 0.266257 0.313521
O O14 0.539591 0.189983 0.251164
O O15 0.340152 0.000000 0.379420
O O16 0.257747 0.500000 0.087384
#
# Coordination Sequence:
#
# PCOD9132172 Si02
#       8
#     2   4   2   2   4   4   2   4
#     4  10  20  36  58  86 115 148 193 248 297 340
#     4  10  19  36  65  93 114 145 195 252 298 341
#     4  12  26  40  54  82 127 170 195 230 287 352
#     4  10  20  36  58  86 115 148 193 248 297 340
#     4  10  19  36  65  93 114 145 195 252 298 341
#     4   9  16  30  59  91 113 137 183 247 301 341
#     4  12  26  40  54  82 127 170 195 230 287 352
#     4   9  16  30  59  91 113 137 183 247 301 341
#
# _framework density 23.007337
#
# number of rings (size 3 to 8) (size 9 to 14) (size 15 to 20)
#    0.000    2.000    3.333    1.500    0.000    2.000 
#    0.000    5.000    0.000    0.000    0.000    0.000 
#    0.000    0.000    0.000    0.000    0.000    0.000 
#
# Total GULP energy -67189.631457 kJ/mol
# GULP energy per Si atom -5599.135955 kJ/mol
# Density = 2.295497 g / cm^3
# Si number density = 23.007337 Si / 1000 Ang^3
#
#
#
# Elastic Constant Matrix: (Units=GPa)
#
#
# Indices 1 2 3 4 5 6 
#
# 1 53.1672 34.3133 20.7010 0.0000 -9.1931 0.0000
# 2 34.3133 225.3513 84.4533 -0.0003 8.0814 0.0000
# 3 20.7010 84.4533 133.3156 -0.0002 2.2418 0.0000
# 4 0.0000 -0.0003 -0.0002 35.4217 0.0000 4.9120
# 5 -9.1931 8.0814 2.2418 0.0000 36.9925 0.0000
# 6 0.0000 0.0000 0.0000 4.9120 0.0000 28.1291
#
#
#
# Elastic Compliance Matrix: (Units=1/GPa)
#
#
# Indices 1 2 3 4 5 6 
#
# 1 0.022517 -0.003024 -0.001688 0.000000 0.006359 0.000000
# 2 -0.003024 0.006266 -0.003468 0.000000 -0.001910 0.000000
# 3 -0.001688 -0.003468 0.009964 0.000000 -0.000266 0.000000
# 4 0.000000 0.000000 0.000000 0.028932 0.000000 -0.005052
# 5 0.006359 -0.001910 -0.000266 0.000000 0.029046 0.000000
# 6 0.000000 0.000000 0.000000 -0.005052 0.000000 0.036433
#
#
# Mechanical properties :
#
#
# Convention : Reuss Voigt Hill
#
# Bulk Modulus (GPa) = 44.66617 76.75215 60.70916
# Shear Modulus (GPa) = 31.85128 38.26642 35.05885
#
# Velocity S-wave (km/s) = 3.72478 4.08269 3.90784
# Velocity P-wave (km/s) = 6.16074 7.46035 6.84147
#
# Compressibility (1/GPa) = 0.02238831
#
# Stress axis : x y z
#
# Youngs Moduli (GPa) = 44.41114 159.58944 100.35857
#
# Poissons Ratio (x) = 0.48262 0.16936
# Poissons Ratio (y) = 0.13431 0.34802
# Poissons Ratio (z) = 0.07495 0.55342
#
# Static dielectric constant tensor:
#      x y z
#    x 1.897400 0.000000 -0.069680 
#    y 0.000000 1.816020 0.000000 
#    z -0.069680 0.000000 1.829060 
# 
# From -- ./inp_files/30078.got.cif
#   From: 2010.05.17/outbox.cif.g08.bks.cpg/sg8_16_cif.got.tgz:30078.got - 2010.06.03 19:46:02.
