data_PCOD9132100
_publ_section_title
;
Structure prediction by ZEFSAII (Michael W. Deem and Ramdas Pophale) SiO2 
 PCOD9132100
Probable space group: C M
;
_chemical_formula_sum "Si O2"
_cell_formula_units_Z 28
_cell_length_a 10.506915
_cell_length_b 21.692201
_cell_length_c 5.228349
_cell_angle_alpha 90.000000
_cell_angle_beta 97.785915
_cell_angle_gamma 90.000000
_cell_volume 1180.649953
_symmetry_space_group_name_H-M "C M"
_symmetry_group_IT_number 8
_symmetry_cell_setting 'monoclinic'
loop_
_space_group_symop_operation_xyz
x,y,z
x,-y,z
1/2+x,1/2+y,z
1/2+x,1/2-y,z
loop_
_atom_site_type_symbol
_atom_site_label
_atom_site_fract_x
_atom_site_fract_y
_atom_site_fract_z
Si Si1 0.066110 0.429287 0.800710
Si Si2 0.997332 0.074084 0.619510
Si Si3 0.650587 0.427654 0.148648
Si Si4 0.527546 0.806448 0.582953
Si Si5 0.735027 0.069785 0.333538
Si Si6 0.789833 0.749161 0.655255
Si Si7 0.325442 0.823059 0.169509
O O1 0.016502 0.500000 0.837149
O O2 0.142699 0.433790 0.553176
O O3 0.981312 0.368291 0.721358
O O4 0.159817 0.410448 0.059850
O O5 0.099966 0.081718 0.421642
O O6 0.865284 0.101129 0.469018
O O7 0.976281 0.000000 0.651220
O O8 0.049071 0.096121 0.907479
O O9 0.666455 0.500000 0.112708
O O10 0.783505 0.393138 0.142959
O O11 0.679502 0.800048 0.632009
O O12 0.445629 0.747494 0.662062
O O13 0.474337 0.814492 0.281384
O O14 0.774529 0.000000 0.268810
O O15 0.757829 0.707046 0.400714
O O16 0.777692 0.713812 0.916059
#
# Coordination Sequence:
#
# PCOD9132100 Si02
#       7
#     4   4   4   4   4   4   4
#     4  10  21  37  63  96 132 168 211 270 338 395
#     4   9  17  31  52  82 130 181 220 255 312 392
#     4  10  19  35  59  92 134 174 213 267 333 395
#     4  10  26  47  71  96 134 172 226 281 318 401
#     4   9  18  34  54  88 134 175 212 256 319 399
#     4  10  25  45  71  91 131 173 226 272 330 372
#     4  10  24  43  66  95 131 167 222 281 320 396
#
# _framework density 23.715751000000001
#
# number of rings (size 3 to 8) (size 9 to 14) (size 15 to 20)
#    0.857    1.429    0.000    1.714    4.000    4.000 
#    7.714    0.714    0.000    0.000    0.000    1.000 
#    0.000    0.000    0.000    0.000    0.000    0.000 
#
# Total GULP energy -77997.428529 kJ/mol
# GULP energy per Si atom -5571.244895 kJ/mol
# Density = 2.366177 g / cm^3
# Si number density = 23.715751 Si / 1000 Ang^3
#
#
#
# Elastic Constant Matrix: (Units=GPa)
#
#
# Indices 1 2 3 4 5 6 
#
# 1 59.7260 32.6340 -9.1399 0.0000 2.5208 0.0000
# 2 32.6340 44.8961 -33.4021 0.0000 -28.1232 0.0000
# 3 -9.1399 -33.4021 7.2835 0.0000 -85.5223 0.0000
# 4 0.0000 0.0000 0.0000 21.0352 0.0000 4.4423
# 5 2.5208 -28.1232 -85.5223 0.0000 -49.5184 0.0000
# 6 0.0000 0.0000 0.0000 4.4423 0.0000 35.7344
#
#
#
# Elastic Compliance Matrix: (Units=1/GPa)
#
#
# Indices 1 2 3 4 5 6 
#
# 1 0.024469 -0.013401 0.003442 0.000000 0.002912 0.000000
# 2 -0.013401 0.024179 -0.003533 0.000000 -0.008312 0.000000
# 3 0.003442 -0.003533 0.007098 0.000000 -0.010076 0.000000
# 4 0.000000 0.000000 0.000000 0.048821 0.000000 -0.006069
# 5 0.002912 -0.008312 -0.010076 0.000000 0.002077 0.000000
# 6 0.000000 0.000000 0.000000 -0.006069 0.000000 0.028739
#
#
# Mechanical properties :
#
#
# Convention : Reuss Voigt Hill
#
# Bulk Modulus (GPa) = 34.76915 10.23218 22.50067
# Shear Modulus (GPa) = 29.07737 9.57114 19.32425
#
# Velocity S-wave (km/s) = 3.50534 2.01110 2.85762
# Velocity P-wave (km/s) = 5.57457 3.11714 4.51622
#
# Compressibility (1/GPa) = 0.02876113
#
# Stress axis : x y z
#
# Youngs Moduli (GPa) = 40.86756 41.35781 140.89269
#
# Poissons Ratio (x) = 0.55425 -0.48495
# Poissons Ratio (y) = 0.54768 0.49780
# Poissons Ratio (z) = -0.14066 0.14613
#
# Static dielectric constant tensor:
#      x y z
#    x 1.935140 0.000000 0.015180 
#    y 0.000000 2.008860 0.000000 
#    z 0.015180 0.000000 1.906560 
# 
# From -- ./inp_files/3056.got.cif
#   From: 2010.05.17/outbox.cif.g08.bks.cpg/sg8_2_cif.got.tgz:3056.got - 2010.06.03 19:46:02.
