data_PCOD9132307
_publ_section_title
;
Structure prediction by ZEFSAII (Michael W. Deem and Ramdas Pophale) SiO2 
 PCOD9132307
Probable space group: C M
;
_chemical_formula_sum "Si O2"
_cell_formula_units_Z 32
_cell_length_a 24.510965
_cell_length_b 8.409720
_cell_length_c 25.790124
_cell_angle_alpha 90.000000
_cell_angle_beta 161.944743
_cell_angle_gamma 90.000000
_cell_volume 1647.648962
_symmetry_space_group_name_H-M "C M"
_symmetry_group_IT_number 8
_symmetry_cell_setting 'monoclinic'
loop_
_space_group_symop_operation_xyz
x,y,z
x,-y,z
1/2+x,1/2+y,z
1/2+x,1/2-y,z
loop_
_atom_site_type_symbol
_atom_site_label
_atom_site_fract_x
_atom_site_fract_y
_atom_site_fract_z
Si Si1 0.891240 0.692207 0.714440
Si Si2 0.528756 0.188406 0.351831
Si Si3 0.907266 0.805360 0.036003
Si Si4 0.293268 0.309431 0.232465
Si Si5 0.293408 0.807873 0.349586
Si Si6 0.782921 0.807742 0.037118
Si Si7 0.899578 0.308073 0.840751
Si Si8 0.163183 0.308488 0.720999
O O1 0.889910 0.500000 0.712765
O O2 0.729058 0.751629 0.533942
O O3 0.865713 0.743870 0.751201
O O4 0.083775 0.745389 0.869545
O O5 0.435218 0.246332 0.320128
O O6 0.415413 0.254153 0.201636
O O7 0.526108 0.000000 0.347848
O O8 0.846724 0.754360 0.038200
O O9 0.104667 0.752710 0.200182
O O10 0.907204 0.000000 0.035569
O O11 0.773155 0.751188 0.869997
O O12 0.303221 0.500000 0.241887
O O13 0.318019 0.246201 0.312690
O O14 0.098125 0.262911 0.036465
O O15 0.461736 0.753079 0.534743
O O16 0.291093 0.000000 0.348152
O O17 0.780862 0.000000 0.035545
O O18 0.888736 0.500000 0.832385
O O19 0.764934 0.239968 0.760793
O O20 0.161040 0.500000 0.721672
#
# Coordination Sequence:
#
# PCOD9132307 Si02
#       8
#     4   4   4   4   4   4   4   4
#     4  10  21  39  62  87 116 151 199 246 290 350
#     4  12  25  39  59  89 122 155 192 241 303 356
#     4   9  19  36  59  85 114 149 194 243 286 334
#     4  11  21  37  60  86 116 154 197 237 288 350
#     4  10  20  35  57  89 120 150 187 233 292 347
#     4  10  21  41  65  87 113 155 205 248 290 341
#     4  10  20  35  57  85 113 147 190 237 287 342
#     4  10  20  34  55  84 116 149 186 229 284 346
#
# _framework density 19.421613000000001
#
# number of rings (size 3 to 8) (size 9 to 14) (size 15 to 20)
#    0.000    1.750    2.500    2.250    0.000    5.000 
#    0.000    5.000    0.000    1.500    0.000    0.000 
#    0.000    0.000    0.000    0.000    0.000    0.000 
#
# Total GULP energy -89399.513587 kJ/mol
# GULP energy per Si atom -5587.469599 kJ/mol
# Density = 1.937741 g / cm^3
# Si number density = 19.421613 Si / 1000 Ang^3
#
#
#
# Elastic Constant Matrix: (Units=GPa)
#
#
# Indices 1 2 3 4 5 6 
#
# 1 163.5388 16.2474 100.9062 0.0004 -5.3408 0.0002
# 2 16.2474 9.1683 24.6353 0.0024 2.7060 0.0011
# 3 100.9062 24.6353 207.3015 0.0035 8.3253 0.0014
# 4 0.0004 0.0024 0.0035 16.5031 0.0004 -2.8498
# 5 -5.3408 2.7060 8.3253 0.0004 -0.7146 0.0004
# 6 0.0002 0.0011 0.0014 -2.8498 0.0004 21.6149
#
#
#
# Elastic Compliance Matrix: (Units=1/GPa)
#
#
# Indices 1 2 3 4 5 6 
#
# 1 0.005409 0.006644 -0.001914 0.000000 -0.037562 0.000001
# 2 0.006644 0.118658 -0.022744 -0.000017 0.134691 -0.000010
# 3 -0.001914 -0.022744 0.007727 0.000001 0.018202 0.000001
# 4 0.000000 -0.000017 0.000001 0.062006 -0.000012 0.008175
# 5 -0.037562 0.134691 0.018202 -0.000012 -0.396526 -0.000002
# 6 0.000001 -0.000010 0.000001 0.008175 -0.000002 0.047342
#
#
# Mechanical properties :
#
#
# Convention : Reuss Voigt Hill
#
# Bulk Modulus (GPa) = 10.44221 73.73183 42.08702
# Shear Modulus (GPa) = -57.18683 23.36198 -16.91243
#
# Velocity S-wave (km/s) = -5.43221 3.47203 -2.95414
# Velocity P-wave (km/s) = 5.82725 7.35660 3.17511
#
# Compressibility (1/GPa) = 0.09576518
#
# Stress axis : x y z
#
# Youngs Moduli (GPa) = 184.87907 8.42762 129.40958
#
# Poissons Ratio (x) = -0.05599 0.24768
# Poissons Ratio (y) = -1.22830 2.94332
# Poissons Ratio (z) = 0.35384 0.19168
#
# Static dielectric constant tensor:
#      x y z
#    x 1.646150 0.000000 0.006320 
#    y 0.000000 1.669760 0.000000 
#    z 0.006320 0.000000 1.684420 
# 
# From -- ./inp_files/32367.got.cif
#   From: 2010.05.17/outbox.cif.g08.bks.cpg/sg8_17_cif.got.tgz:32367.got - 2010.06.03 19:46:02.
