data_PCOD9132165
_publ_section_title
;
Structure prediction by ZEFSAII (Michael W. Deem and Ramdas Pophale) SiO2 
 PCOD9132165
Probable space group: C M
;
_chemical_formula_sum "Si O2"
_cell_formula_units_Z 26
_cell_length_a 22.814039
_cell_length_b 7.879311
_cell_length_c 7.483964
_cell_angle_alpha 90.000000
_cell_angle_beta 73.643143
_cell_angle_gamma 90.000000
_cell_volume 1290.859561
_symmetry_space_group_name_H-M "C M"
_symmetry_group_IT_number 8
_symmetry_cell_setting 'monoclinic'
loop_
_space_group_symop_operation_xyz
x,y,z
x,-y,z
1/2+x,1/2+y,z
1/2+x,1/2-y,z
loop_
_atom_site_type_symbol
_atom_site_label
_atom_site_fract_x
_atom_site_fract_y
_atom_site_fract_z
Si Si1 0.317340 0.799155 0.497180
Si Si2 0.456382 0.195106 0.472208
Si Si3 0.658177 0.500000 0.986703
Si Si4 0.065532 0.000000 0.766969
Si Si5 0.046230 0.000000 0.356088
Si Si6 0.980172 0.686163 0.877124
Si Si7 0.250105 0.693933 0.889243
Si Si8 0.350302 0.701158 0.090748
O O1 0.387301 0.752647 0.485674
O O2 0.270338 0.706259 0.666036
O O3 0.311477 0.756025 0.294990
O O4 0.310707 0.000000 0.533380
O O5 0.504353 0.333292 0.361595
O O6 0.463106 0.194992 0.681351
O O7 0.466424 0.000000 0.402315
O O8 0.603469 0.500000 0.176016
O O9 0.629780 0.500000 0.811672
O O10 0.699029 0.332210 0.973470
O O11 0.027761 0.835924 0.864647
O O12 0.066013 0.000000 0.549846
O O13 0.005577 0.500000 0.894595
O O14 0.916297 0.711694 0.033412
O O15 0.233279 0.500000 0.949283
O O16 0.310924 0.740734 0.949377
O O17 0.361176 0.500000 0.084881
#
# Coordination Sequence:
#
# PCOD9132165 Si02
#       8
#     4   4   2   2   2   4   4   4
#     4  11  22  37  65 101 135 169 214 274 340 399
#     4   9  20  36  61  97 133 165 207 272 339 388
#     4  12  28  46  68  90 132 188 232 262 316 410
#     4  10  24  44  62  96 128 178 220 269 328 388
#     4  10  24  42  66  90 130 180 214 273 320 392
#     4  10  19  36  63  95 135 167 207 275 339 390
#     4  11  26  46  66  94 133 182 223 276 327 391
#     4  11  23  37  63 101 137 170 216 276 339 399
#
# _framework density 20.141615999999999
#
# number of rings (size 3 to 8) (size 9 to 14) (size 15 to 20)
#    0.000    1.538    3.077    0.923    6.462    2.462 
#    0.000    0.000    0.000    0.000    0.000    0.000 
#    0.000    0.000    0.000    0.000    0.000    0.000 
#
# Total GULP energy -72679.777717 kJ/mol
# GULP energy per Si atom -5590.752132 kJ/mol
# Density = 2.009577 g / cm^3
# Si number density = 20.141616 Si / 1000 Ang^3
#
#
#
# Elastic Constant Matrix: (Units=GPa)
#
#
# Indices 1 2 3 4 5 6 
#
# 1 42.8327 41.5791 -0.4710 0.0000 -10.7162 0.0000
# 2 41.5791 109.4827 17.5489 0.0000 -20.4595 0.0000
# 3 -0.4710 17.5489 81.6247 0.0000 -19.1929 0.0000
# 4 0.0000 0.0000 0.0000 18.2191 0.0000 -4.6700
# 5 -10.7162 -20.4595 -19.1929 0.0000 29.7615 0.0000
# 6 0.0000 0.0000 0.0000 -4.6700 0.0000 28.1028
#
#
#
# Elastic Compliance Matrix: (Units=1/GPa)
#
#
# Indices 1 2 3 4 5 6 
#
# 1 0.039141 -0.014265 0.005070 0.000000 0.007556 0.000000
# 2 -0.014265 0.015710 -0.002509 0.000000 0.004045 0.000000
# 3 0.005070 -0.002509 0.015139 0.000000 0.009864 0.000000
# 4 0.000000 0.000000 0.000000 0.057329 0.000000 0.009527
# 5 0.007556 0.004045 0.009864 0.000000 0.045463 0.000000
# 6 0.000000 0.000000 0.000000 0.009527 0.000000 0.037167
#
#
# Mechanical properties :
#
#
# Convention : Reuss Voigt Hill
#
# Bulk Modulus (GPa) = 21.46821 39.02823 30.24822
# Shear Modulus (GPa) = 20.08964 26.90221 23.49592
#
# Velocity S-wave (km/s) = 3.16162 3.65862 3.41916
# Velocity P-wave (km/s) = 4.89996 6.10462 5.53516
#
# Compressibility (1/GPa) = 0.04658051
#
# Stress axis : x y z
#
# Youngs Moduli (GPa) = 25.54888 63.65549 66.05390
#
# Poissons Ratio (x) = 0.90807 -0.33486
# Poissons Ratio (y) = 0.36446 0.16570
# Poissons Ratio (z) = -0.12952 0.15969
#
# Static dielectric constant tensor:
#      x y z
#    x 1.674450 0.000000 0.029170 
#    y 0.000000 1.728110 0.000000 
#    z 0.029170 0.000000 1.717910 
# 
# From -- ./inp_files/15634.got.cif
#   From: 2010.05.17/outbox.cif.g08.bks.cpg/sg8_8_cif.got.tgz:15634.got - 2010.06.03 19:46:02.
