data_PCOD9132921
_publ_section_title
;
Structure prediction by ZEFSAII (Michael W. Deem and Ramdas Pophale) SiO2 
 PCOD9132921
Probable space group: C M
;
_chemical_formula_sum "Si O2"
_cell_formula_units_Z 32
_cell_length_a 22.973191
_cell_length_b 8.711851
_cell_length_c 11.442392
_cell_angle_alpha 90.000000
_cell_angle_beta 48.946103
_cell_angle_gamma 90.000000
_cell_volume 1726.923018
_symmetry_space_group_name_H-M "C M"
_symmetry_group_IT_number 8
_symmetry_cell_setting 'monoclinic'
loop_
_space_group_symop_operation_xyz
x,y,z
x,-y,z
1/2+x,1/2+y,z
1/2+x,1/2-y,z
loop_
_atom_site_type_symbol
_atom_site_label
_atom_site_fract_x
_atom_site_fract_y
_atom_site_fract_z
Si Si1 0.562550 0.182794 0.131190
Si Si2 0.975804 0.183508 0.599612
Si Si3 0.786116 0.686917 0.207916
Si Si4 0.136024 0.184975 0.263683
Si Si5 0.094453 0.815992 0.835709
Si Si6 0.259034 0.185665 0.510937
Si Si7 0.407014 0.316163 0.441966
Si Si8 0.949669 0.683489 0.886344
O O1 0.617051 0.238915 0.164974
O O2 0.477132 0.244821 0.275024
O O3 0.560683 0.000000 0.128985
O O4 0.589224 0.249434 0.972649
O O5 0.923870 0.222962 0.555295
O O6 0.952636 0.269487 0.747097
O O7 0.063803 0.218450 0.444601
O O8 0.971009 0.000000 0.625497
O O9 0.785155 0.500000 0.208870
O O10 0.715656 0.735361 0.217706
O O11 0.771883 0.735363 0.359984
O O12 0.869160 0.735961 0.050429
O O13 0.137050 0.000000 0.246368
O O14 0.174598 0.770293 0.668317
O O15 0.021988 0.756879 0.857186
O O16 0.091991 0.000000 0.844027
O O17 0.326262 0.254630 0.501973
O O18 0.264343 0.000000 0.507454
O O19 0.411147 0.500000 0.426349
O O20 0.954166 0.500000 0.891762
#
# Coordination Sequence:
#
# PCOD9132921 Si02
#       8
#     4   4   4   4   4   4   4   4
#     4  11  22  37  58  85 117 149 186 234 284 335
#     4   9  19  36  57  80 110 148 185 224 275 338
#     4   9  19  36  57  81 109 143 184 231 283 337
#     4   9  18  37  61  81 107 147 192 232 276 334
#     4  11  23  39  59  82 111 151 194 234 284 341
#     4  10  21  38  60  83 110 147 190 237 287 337
#     4  10  21  38  60  85 114 150 190 232 281 337
#     4  11  22  35  56  85 114 145 185 236 288 337
#
# _framework density 18.530069000000001
#
# number of rings (size 3 to 8) (size 9 to 14) (size 15 to 20)
#    0.000    2.000    0.000    4.500    0.000    7.500 
#    0.000    6.250    0.000    0.000    0.000    0.000 
#    0.000    0.000    0.000    0.000    0.000    0.000 
#
# Total GULP energy -89391.957650 kJ/mol
# GULP energy per Si atom -5586.997353 kJ/mol
# Density = 1.848789 g / cm^3
# Si number density = 18.530069 Si / 1000 Ang^3
#
#
#
# Elastic Constant Matrix: (Units=GPa)
#
#
# Indices 1 2 3 4 5 6 
#
# 1 172.9192 51.6287 119.9161 0.0000 -21.9573 0.0000
# 2 51.6287 48.7566 59.2912 0.0000 -0.4399 0.0000
# 3 119.9161 59.2912 177.8207 0.0000 5.2270 0.0000
# 4 0.0000 0.0000 0.0000 27.0824 0.0000 2.0657
# 5 -21.9573 -0.4399 5.2270 0.0000 28.5703 0.0000
# 6 0.0000 0.0000 0.0000 2.0657 0.0000 31.4018
#
#
#
# Elastic Compliance Matrix: (Units=1/GPa)
#
#
# Indices 1 2 3 4 5 6 
#
# 1 0.015164 -0.005097 -0.008915 0.000000 0.013207 0.000000
# 2 -0.005097 0.036412 -0.008651 0.000000 -0.001774 0.000000
# 3 -0.008915 -0.008651 0.014805 0.000000 -0.009693 0.000000
# 4 0.000000 0.000000 0.000000 0.037111 0.000000 -0.002441
# 5 0.013207 -0.001774 -0.009693 0.000000 0.046897 0.000000
# 6 0.000000 0.000000 0.000000 -0.002441 0.000000 0.032006
#
#
# Mechanical properties :
#
#
# Convention : Reuss Voigt Hill
#
# Bulk Modulus (GPa) = 47.49589 95.68538 71.59063
# Shear Modulus (GPa) = 21.30009 28.65493 24.97751
#
# Velocity S-wave (km/s) = 3.39409 3.93670 3.67542
# Velocity P-wave (km/s) = 6.40681 8.50961 7.53195
#
# Compressibility (1/GPa) = 0.02105446
#
# Stress axis : x y z
#
# Youngs Moduli (GPa) = 65.94475 27.46322 67.54444
#
# Poissons Ratio (x) = 0.13999 0.60215
# Poissons Ratio (y) = 0.33614 0.58436
# Poissons Ratio (z) = 0.58788 0.23760
#
# Static dielectric constant tensor:
#      x y z
#    x 1.616130 0.000000 -0.002490 
#    y 0.000000 1.625280 0.000000 
#    z -0.002490 0.000000 1.615670 
# 
# From -- ./inp_files/23851.got.cif
#   From: 2010.05.17/outbox.cif.g08.bks.cpg/sg8_12_cif.got.tgz:23851.got - 2010.06.03 19:46:02.
