data_PCOD9132416
_publ_section_title
;
Structure prediction by ZEFSAII (Michael W. Deem and Ramdas Pophale) SiO2 
 PCOD9132416
Probable space group: C M
;
_chemical_formula_sum "Si O2"
_cell_formula_units_Z 32
_cell_length_a 20.860224
_cell_length_b 8.762940
_cell_length_c 12.401803
_cell_angle_alpha 90.000000
_cell_angle_beta 127.824530
_cell_angle_gamma 90.000000
_cell_volume 1790.695097
_symmetry_space_group_name_H-M "C M"
_symmetry_group_IT_number 8
_symmetry_cell_setting 'monoclinic'
loop_
_space_group_symop_operation_xyz
x,y,z
x,-y,z
1/2+x,1/2+y,z
1/2+x,1/2-y,z
loop_
_atom_site_type_symbol
_atom_site_label
_atom_site_fract_x
_atom_site_fract_y
_atom_site_fract_z
Si Si1 0.103320 0.182176 0.582300
Si Si2 0.293155 0.817779 0.741179
Si Si3 0.580449 0.681071 0.993832
Si Si4 0.528194 0.181160 0.720523
Si Si5 0.436913 0.682303 0.017257
Si Si6 0.696578 0.682953 0.306955
Si Si7 0.349843 0.317794 0.571253
Si Si8 0.054521 0.317751 0.309522
O O1 0.199212 0.214762 0.668222
O O2 0.070810 0.245080 0.661247
O O3 0.058011 0.260312 0.435272
O O4 0.092355 0.000000 0.565244
O O5 0.319722 0.739329 0.657088
O O6 0.303249 0.000000 0.740929
O O7 0.352226 0.754478 0.894543
O O8 0.580383 0.500000 0.969625
O O9 0.574565 0.773298 0.878088
O O10 0.501170 0.711802 0.986178
O O11 0.656968 0.715020 0.149603
O O12 0.437624 0.247951 0.638554
O O13 0.524799 0.000000 0.705794
O O14 0.431021 0.500000 0.023552
O O15 0.477013 0.755827 0.164121
O O16 0.701324 0.500000 0.325261
O O17 0.782884 0.758287 0.417876
O O18 0.632688 0.747299 0.328545
O O19 0.354404 0.500000 0.575630
O O20 0.058111 0.500000 0.307791
#
# Coordination Sequence:
#
# PCOD9132416 Si02
#       8
#     4   4   4   4   4   4   4   4
#     4  11  24  42  62  85 122 161 199 245 302 359
#     4  11  22  37  61  90 119 153 199 251 299 350
#     4   9  19  36  58  85 119 156 194 240 297 351
#     4  12  25  40  61  87 121 159 202 246 297 360
#     4  10  20  35  59  88 121 156 196 245 297 349
#     4  10  20  36  59  88 120 153 197 249 299 347
#     4  12  23  37  60  89 122 156 199 248 299 353
#     4  11  21  35  58  88 122 156 198 244 298 355
#
# _framework density 17.870156000000001
#
# number of rings (size 3 to 8) (size 9 to 14) (size 15 to 20)
#    0.000    1.250    2.500    5.625    0.000    4.000 
#    0.000    1.250    0.000    4.500    0.000    0.000 
#    0.000    0.000    0.000    0.000    0.000    0.000 
#
# Total GULP energy -89447.059448 kJ/mol
# GULP energy per Si atom -5590.441216 kJ/mol
# Density = 1.782948 g / cm^3
# Si number density = 17.870156 Si / 1000 Ang^3
#
#
#
# Elastic Constant Matrix: (Units=GPa)
#
#
# Indices 1 2 3 4 5 6 
#
# 1 78.7046 46.5610 47.5801 0.0000 -6.2297 0.0000
# 2 46.5610 90.0903 53.5685 0.0000 -4.3574 0.0000
# 3 47.5801 53.5685 128.3776 0.0000 -1.2522 0.0000
# 4 0.0000 0.0000 0.0000 36.9746 0.0000 0.9507
# 5 -6.2297 -4.3574 -1.2522 0.0000 22.8917 0.0000
# 6 0.0000 0.0000 0.0000 0.9507 0.0000 25.2028
#
#
#
# Elastic Compliance Matrix: (Units=1/GPa)
#
#
# Indices 1 2 3 4 5 6 
#
# 1 0.020104 -0.007713 -0.004196 0.000000 0.003773 0.000000
# 2 -0.007713 0.017863 -0.004585 0.000000 0.001051 0.000000
# 3 -0.004196 -0.004585 0.011244 0.000000 -0.001400 0.000000
# 4 0.000000 0.000000 0.000000 0.027072 0.000000 -0.001021
# 5 0.003773 0.001051 -0.001400 0.000000 0.044834 0.000000
# 6 0.000000 0.000000 0.000000 -0.001021 0.000000 0.039717
#
#
# Mechanical properties :
#
#
# Convention : Reuss Voigt Hill
#
# Bulk Modulus (GPa) = 61.63753 65.84352 63.74053
# Shear Modulus (GPa) = 25.09673 26.97802 26.03738
#
# Velocity S-wave (km/s) = 3.75159 3.88966 3.82125
# Velocity P-wave (km/s) = 7.30292 7.55633 7.43071
#
# Compressibility (1/GPa) = 0.01622388
#
# Stress axis : x y z
#
# Youngs Moduli (GPa) = 49.74194 55.98091 88.93485
#
# Poissons Ratio (x) = 0.43177 0.37316
# Poissons Ratio (y) = 0.38365 0.40777
# Poissons Ratio (z) = 0.20871 0.25668
#
# Static dielectric constant tensor:
#      x y z
#    x 1.578310 0.000000 0.006550 
#    y 0.000000 1.591760 0.000000 
#    z 0.006550 0.000000 1.617320 
# 
# From -- ./inp_files/23715.got.cif
#   From: 2010.05.17/outbox.cif.g08.bks.cpg/sg8_12_cif.got.tgz:23715.got - 2010.06.03 19:46:02.
