data_PCOD9132502
_publ_section_title
;
Structure prediction by ZEFSAII (Michael W. Deem and Ramdas Pophale) SiO2 
 PCOD9132502
Probable space group: C M
;
_chemical_formula_sum "Si O2"
_cell_formula_units_Z 24
_cell_length_a 13.111445
_cell_length_b 14.914890
_cell_length_c 7.869995
_cell_angle_alpha 90.000000
_cell_angle_beta 139.223207
_cell_angle_gamma 90.000000
_cell_volume 1005.157276
_symmetry_space_group_name_H-M "C M"
_symmetry_group_IT_number 8
_symmetry_cell_setting 'monoclinic'
loop_
_space_group_symop_operation_xyz
x,y,z
x,-y,z
1/2+x,1/2+y,z
1/2+x,1/2-y,z
loop_
_atom_site_type_symbol
_atom_site_label
_atom_site_fract_x
_atom_site_fract_y
_atom_site_fract_z
Si Si1 0.283080 0.674952 0.871850
Si Si2 0.547448 0.826106 0.897017
Si Si3 0.984606 0.000000 0.063747
Si Si4 0.489503 0.807251 0.307110
Si Si5 0.363259 0.000000 0.190240
Si Si6 0.359613 0.309242 0.457586
Si Si7 0.843344 0.500000 0.577414
Si Si8 0.008514 0.000000 0.684700
O O1 0.164257 0.660755 0.880975
O O2 0.385284 0.586678 0.985505
O O3 0.170898 0.698773 0.574964
O O4 0.401790 0.755565 0.049598
O O5 0.450503 0.736347 0.729677
O O6 0.431702 0.911273 0.756671
O O7 0.672559 0.817740 0.207229
O O8 0.996299 0.000000 0.874146
O O9 0.155927 0.000000 0.366243
O O10 0.450719 0.910916 0.249247
O O11 0.406671 0.759567 0.366143
O O12 0.356051 0.000000 0.386999
O O13 0.193523 0.000000 0.890115
O O14 0.429891 0.408654 0.519736
#
# Coordination Sequence:
#
# PCOD9132502 Si02
#       8
#     4   4   2   4   2   4   2   2
#     4  10  20  41  60  92 119 162 205 247 309 365
#     4  10  20  37  69  92 118 151 209 264 301 356
#     4  11  26  40  59  86 131 175 199 239 318 370
#     4  10  20  36  69  91 118 154 209 260 302 352
#     4  11  17  34  60  97 120 152 200 259 308 346
#     4  10  20  36  61 100 116 153 203 265 305 345
#     4  11  20  36  60  91 120 161 198 252 302 369
#     4  11  23  36  55  92 135 156 203 252 308 365
#
# _framework density 23.876860000000001
#
# number of rings (size 3 to 8) (size 9 to 14) (size 15 to 20)
#    0.000    1.667    3.333    4.500    2.333    2.000 
#    3.000    0.833    3.667    0.000    0.000    0.000 
#    0.000    0.000    0.000    0.000    0.000    0.000 
#
# Total GULP energy -67171.399123 kJ/mol
# GULP energy per Si atom -5597.616594 kJ/mol
# Density = 2.382252 g / cm^3
# Si number density = 23.876860 Si / 1000 Ang^3
#
#
#
# Elastic Constant Matrix: (Units=GPa)
#
#
# Indices 1 2 3 4 5 6 
#
# 1 56.6819 -0.5634 28.4211 0.0000 8.0755 0.0000
# 2 -0.5634 185.1913 88.4423 0.0000 12.0677 0.0000
# 3 28.4211 88.4423 254.2859 0.0000 19.5496 0.0000
# 4 0.0000 0.0000 0.0000 58.9969 0.0000 9.0439
# 5 8.0755 12.0677 19.5496 0.0000 45.5477 0.0000
# 6 0.0000 0.0000 0.0000 9.0439 0.0000 16.8786
#
#
#
# Elastic Compliance Matrix: (Units=1/GPa)
#
#
# Indices 1 2 3 4 5 6 
#
# 1 0.019265 0.001397 -0.002428 0.000000 -0.002744 0.000000
# 2 0.001397 0.006603 -0.002378 0.000000 -0.000977 0.000000
# 3 -0.002428 -0.002378 0.005118 0.000000 -0.001136 0.000000
# 4 0.000000 0.000000 0.000000 0.018467 0.000000 -0.009895
# 5 -0.002744 -0.000977 -0.001136 0.000000 0.023188 0.000000
# 6 0.000000 0.000000 0.000000 -0.009895 0.000000 0.064549
#
#
# Mechanical properties :
#
#
# Convention : Reuss Voigt Hill
#
# Bulk Modulus (GPa) = 41.37624 80.97324 61.17474
# Shear Modulus (GPa) = 32.88100 49.60856 41.24478
#
# Velocity S-wave (km/s) = 3.71497 4.56311 4.16070
# Velocity P-wave (km/s) = 5.98063 7.85806 6.98273
#
# Compressibility (1/GPa) = 0.02416846
#
# Stress axis : x y z
#
# Youngs Moduli (GPa) = 51.90871 151.44072 195.37666
#
# Poissons Ratio (x) = -0.21156 0.47440
# Poissons Ratio (y) = -0.07252 0.46455
# Poissons Ratio (z) = 0.12604 0.36008
#
# Static dielectric constant tensor:
#      x y z
#    x 2.026070 0.000000 -0.067020 
#    y 0.000000 1.804080 0.000000 
#    z -0.067020 0.000000 1.901500 
# 
# From -- ./inp_files/23204.got.cif
#   From: 2010.05.17/outbox.cif.g08.bks.cpg/sg8_12_cif.got.tgz:23204.got - 2010.06.03 19:46:02.
