data_PCOD9132925
_publ_section_title
;
Structure prediction by ZEFSAII (Michael W. Deem and Ramdas Pophale) SiO2 
 PCOD9132925
Probable space group: C M
;
_chemical_formula_sum "Si O2"
_cell_formula_units_Z 32
_cell_length_a 11.620339
_cell_length_b 23.177168
_cell_length_c 11.524016
_cell_angle_alpha 90.000000
_cell_angle_beta 26.919699
_cell_angle_gamma 90.000000
_cell_volume 1405.183775
_symmetry_space_group_name_H-M "C M"
_symmetry_group_IT_number 8
_symmetry_cell_setting 'monoclinic'
loop_
_space_group_symop_operation_xyz
x,y,z
x,-y,z
1/2+x,1/2+y,z
1/2+x,1/2-y,z
loop_
_atom_site_type_symbol
_atom_site_label
_atom_site_fract_x
_atom_site_fract_y
_atom_site_fract_z
Si Si1 0.982330 0.323981 0.705670
Si Si2 0.757194 0.319043 0.370751
Si Si3 0.318344 0.714619 0.938540
Si Si4 0.104432 0.433358 0.748422
Si Si5 0.629572 0.381929 0.276168
Si Si6 0.385288 0.597342 0.010844
Si Si7 0.960428 0.850220 0.166631
Si Si8 0.329262 0.936804 0.436934
O O1 0.944683 0.277820 0.843121
O O2 0.038924 0.388002 0.703795
O O3 0.207070 0.313431 0.412909
O O4 0.710949 0.321318 0.888087
O O5 0.497296 0.302245 0.668832
O O6 0.700676 0.325645 0.286033
O O7 0.797787 0.385307 0.375054
O O8 0.018315 0.287483 0.175788
O O9 0.355943 0.665033 0.000094
O O10 0.112781 0.500000 0.705064
O O11 0.378100 0.413436 0.550338
O O12 0.875934 0.422195 0.043252
O O13 0.548414 0.365808 0.217598
O O14 0.628520 0.574065 0.722257
O O15 0.410742 0.596613 0.126556
O O16 0.121489 0.567453 0.214827
O O17 0.278263 0.000000 0.434050
#
# Coordination Sequence:
#
# PCOD9132925 Si02
#       8
#     4   4   4   4   4   4   4   4
#     4  10  21  40  59  89 122 159 215 250 318 370
#     4  10  21  39  63  92 126 165 208 258 315 373
#     4  10  21  40  63  88 122 162 211 261 309 374
#     4  10  21  38  60  86 126 167 208 257 309 376
#     4  10  21  39  60  89 131 161 208 250 316 381
#     4  10  21  40  61  87 124 163 208 260 318 371
#     4  10  21  40  60  88 125 157 206 256 310 376
#     4  10  21  38  63  91 121 162 214 264 313 371
#
# _framework density 22.772822000000001
#
# number of rings (size 3 to 8) (size 9 to 14) (size 15 to 20)
#    0.000    2.000    0.000    3.000    0.000    1.000 
#   13.500   15.000    0.000    0.000    0.000    0.000 
#    0.000    0.000    0.000    0.000    0.000    0.000 
#
# Total GULP energy -89178.198032 kJ/mol
# GULP energy per Si atom -5573.637377 kJ/mol
# Density = 2.272099 g / cm^3
# Si number density = 22.772822 Si / 1000 Ang^3
#
#
#
# Elastic Constant Matrix: (Units=GPa)
#
#
# Indices 1 2 3 4 5 6 
#
# 1 53.2720 -9.5652 28.2310 -0.0138 8.4943 -0.0047
# 2 -9.5652 73.6015 13.3578 -0.0019 0.5275 -0.0005
# 3 28.2310 13.3578 179.3034 -0.0133 -33.5441 -0.0041
# 4 -0.0138 -0.0019 -0.0133 -6.0307 0.0103 -10.6907
# 5 8.4943 0.5275 -33.5441 0.0103 30.1001 0.0037
# 6 -0.0047 -0.0005 -0.0041 -10.6907 0.0037 10.4363
#
#
#
# Elastic Compliance Matrix: (Units=1/GPa)
#
#
# Indices 1 2 3 4 5 6 
#
# 1 0.026063 0.004842 -0.007399 -0.000035 -0.015685 -0.000021
# 2 0.004842 0.014746 -0.002735 -0.000008 -0.004673 -0.000005
# 3 -0.007399 -0.002735 0.009280 0.000009 0.012478 0.000005
# 4 -0.000035 -0.000008 0.000009 -0.058886 0.000048 -0.060321
# 5 -0.015685 -0.004673 0.012478 0.000048 0.051636 0.000028
# 6 -0.000021 -0.000005 0.000005 -0.060321 0.000028 0.034028
#
#
# Mechanical properties :
#
#
# Convention : Reuss Voigt Hill
#
# Bulk Modulus (GPa) = 25.31273 41.13601 33.22437
# Shear Modulus (GPa) = 49.69241 25.17801 37.43521
#
# Velocity S-wave (km/s) = 4.67636 3.32869 4.05885
# Velocity P-wave (km/s) = 6.34801 5.73380 6.04870
#
# Compressibility (1/GPa) = 0.03950581
#
# Stress axis : x y z
#
# Youngs Moduli (GPa) = 38.36873 67.81558 107.75672
#
# Poissons Ratio (x) = -0.32838 0.79725
# Poissons Ratio (y) = -0.18579 0.29473
# Poissons Ratio (z) = 0.28388 0.18549
#
# Static dielectric constant tensor:
#      x y z
#    x 1.865130 0.000000 -0.006550 
#    y 0.000000 1.941790 0.000000 
#    z -0.006550 0.000000 1.938810 
# 
# From -- ./inp_files/20894.got.cif
#   From: 2010.05.17/outbox.cif.g08.bks.cpg/sg8_11_cif.got.tgz:20894.got - 2010.06.03 19:46:02.
