data_PCOD9132321
_publ_section_title
;
Structure prediction by ZEFSAII (Michael W. Deem and Ramdas Pophale) SiO2 
 PCOD9132321
Probable space group: C M
;
_chemical_formula_sum "Si O2"
_cell_formula_units_Z 32
_cell_length_a 26.225478
_cell_length_b 7.616503
_cell_length_c 17.328931
_cell_angle_alpha 90.000000
_cell_angle_beta 154.209246
_cell_angle_gamma 90.000000
_cell_volume 1506.002589
_symmetry_space_group_name_H-M "C M"
_symmetry_group_IT_number 8
_symmetry_cell_setting 'monoclinic'
loop_
_space_group_symop_operation_xyz
x,y,z
x,-y,z
1/2+x,1/2+y,z
1/2+x,1/2-y,z
loop_
_atom_site_type_symbol
_atom_site_label
_atom_site_fract_x
_atom_site_fract_y
_atom_site_fract_z
Si Si1 0.908940 0.791287 0.756970
Si Si2 0.058192 0.284725 0.653911
Si Si3 0.533930 0.212344 0.370803
Si Si4 0.468900 0.289040 0.007719
Si Si5 0.736594 0.787841 0.770404
Si Si6 0.861597 0.288716 0.264249
Si Si7 0.148294 0.289608 0.373163
Si Si8 0.591968 0.207355 0.873730
O O1 0.779767 0.720635 0.561798
O O2 0.000931 0.767387 0.814124
O O3 0.895013 0.000000 0.748125
O O4 0.953194 0.721659 0.899609
O O5 0.058170 0.500000 0.654069
O O6 0.172829 0.227191 0.761396
O O7 0.065005 0.221473 0.751034
O O8 0.943910 0.230490 0.448092
O O9 0.646742 0.249800 0.578143
O O10 0.422379 0.276514 0.267516
O O11 0.563541 0.279120 0.326056
O O12 0.523267 0.000000 0.351998
O O13 0.457975 0.500000 0.990973
O O14 0.591544 0.247839 0.213892
O O15 0.363643 0.221038 0.919032
O O16 0.743334 0.000000 0.785191
O O17 0.869848 0.500000 0.275189
O O18 0.725613 0.243394 0.080561
O O19 0.152325 0.500000 0.387724
O O20 0.578445 0.000000 0.849586
#
# Coordination Sequence:
#
# PCOD9132321 Si02
#       8
#     4   4   4   4   4   4   4   4
#     4  10  22  41  58  75 107 151 192 223 261 326
#     4   8  17  33  54  80 109 142 179 220 267 322
#     4   8  14  29  55  82 110 143 180 219 262 323
#     4  10  20  34  57  84 107 141 185 226 269 325
#     4   8  13  28  54  80 107 140 178 217 261 322
#     4   9  18  35  58  82 109 146 185 219 263 327
#     4  10  20  35  56  83 112 143 180 225 276 323
#     4  11  23  37  56  82 111 144 183 231 277 316
#
# _framework density 21.248304999999998
#
# number of rings (size 3 to 8) (size 9 to 14) (size 15 to 20)
#    0.000    2.750    1.250    1.875    1.750    2.000 
#    0.000    5.000    0.000    3.000    0.000    0.000 
#    0.000    0.000    0.000    0.000    0.000    0.000 
#
# Total GULP energy -89287.794253 kJ/mol
# GULP energy per Si atom -5580.487141 kJ/mol
# Density = 2.119994 g / cm^3
# Si number density = 21.248305 Si / 1000 Ang^3
#
#
#
# Elastic Constant Matrix: (Units=GPa)
#
#
# Indices 1 2 3 4 5 6 
#
# 1 156.5835 2.2574 105.0704 0.0000 -14.7570 0.0000
# 2 2.2574 42.6691 2.3803 0.0000 -2.0858 0.0000
# 3 105.0704 2.3803 127.7212 0.0000 -18.6269 0.0000
# 4 0.0000 0.0000 0.0000 10.2403 0.0000 -7.9072
# 5 -14.7570 -2.0858 -18.6269 0.0000 22.7895 0.0000
# 6 0.0000 0.0000 0.0000 -7.9072 0.0000 2.1628
#
#
#
# Elastic Compliance Matrix: (Units=1/GPa)
#
#
# Indices 1 2 3 4 5 6 
#
# 1 0.014260 -0.000117 -0.011789 0.000000 -0.000413 0.000000
# 2 -0.000117 0.023545 -0.000045 0.000000 0.002043 0.000000
# 3 -0.011789 -0.000045 0.018636 0.000000 0.007594 0.000000
# 4 0.000000 0.000000 0.000000 -0.053567 0.000000 -0.195841
# 5 -0.000413 0.002043 0.007594 0.000000 0.050007 0.000000
# 6 0.000000 0.000000 0.000000 -0.195841 0.000000 -0.253627
#
#
# Mechanical properties :
#
#
# Convention : Reuss Voigt Hill
#
# Bulk Modulus (GPa) = 30.73176 60.70999 45.72088
# Shear Modulus (GPa) = -30.12051 21.52290 -4.29880
#
# Velocity S-wave (km/s) = -3.76912 3.18610 -1.42391
# Velocity P-wave (km/s) = 2.10882 6.49374 4.34290
#
# Compressibility (1/GPa) = 0.03253962
#
# Stress axis : x y z
#
# Youngs Moduli (GPa) = 70.12803 42.47240 53.65961
#
# Poissons Ratio (x) = 0.00497 0.63258
# Poissons Ratio (y) = 0.00820 0.00240
# Poissons Ratio (z) = 0.82672 0.00190
#
# Static dielectric constant tensor:
#      x y z
#    x 1.779170 0.000000 -0.000560 
#    y 0.000000 1.808730 0.000000 
#    z -0.000560 0.000000 1.760270 
# 
# From -- ./inp_files/24789.got.cif
#   From: 2010.05.17/outbox.cif.g08.bks.cpg/sg8_13_cif.got.tgz:24789.got - 2010.06.03 19:46:02.
