data_PCOD9132464
_publ_section_title
;
Structure prediction by ZEFSAII (Michael W. Deem and Ramdas Pophale) SiO2 
 PCOD9132464
Probable space group: C M
;
_chemical_formula_sum "Si O2"
_cell_formula_units_Z 26
_cell_length_a 22.436098
_cell_length_b 8.044464
_cell_length_c 14.411310
_cell_angle_alpha 90.000000
_cell_angle_beta 27.855134
_cell_angle_gamma 90.000000
_cell_volume 1215.306200
_symmetry_space_group_name_H-M "C M"
_symmetry_group_IT_number 8
_symmetry_cell_setting 'monoclinic'
loop_
_space_group_symop_operation_xyz
x,y,z
x,-y,z
1/2+x,1/2+y,z
1/2+x,1/2-y,z
loop_
_atom_site_type_symbol
_atom_site_label
_atom_site_fract_x
_atom_site_fract_y
_atom_site_fract_z
Si Si1 0.572230 0.192728 0.355340
Si Si2 0.923808 0.000000 0.061260
Si Si3 0.299817 0.313250 0.678014
Si Si4 0.486211 0.815941 0.737658
Si Si5 0.294313 0.186334 0.180346
Si Si6 0.210453 0.000000 0.688239
Si Si7 0.103004 0.000000 0.643860
Si Si8 0.242397 0.801633 0.953777
O O1 0.446548 0.297025 0.507256
O O2 0.662544 0.261389 0.312268
O O3 0.656398 0.208567 0.146575
O O4 0.538528 0.000000 0.418735
O O5 0.844940 0.169160 0.178103
O O6 0.972555 0.000000 0.886626
O O7 0.060014 0.000000 0.924739
O O8 0.271579 0.500000 0.684384
O O9 0.272032 0.166908 0.643542
O O10 0.224910 0.269117 0.875517
O O11 0.588143 0.670641 0.609450
O O12 0.541968 0.000000 0.649344
O O13 0.395982 0.822604 0.953943
O O14 0.387975 0.781156 0.789351
O O15 0.289906 0.000000 0.225977
O O16 0.208460 0.000000 0.579012
O O17 0.216938 0.000000 0.991165
#
# Coordination Sequence:
#
# PCOD9132464 Si02
#       8
#     4   2   4   4   4   2   2   4
#     4  11  20  35  59  88 123 156 196 248 310 357
#     4   8  16  29  49  76 106 148 188 241 277 340
#     4  12  24  39  56  87 126 162 203 245 297 358
#     4   8  15  26  48  81 109 136 181 234 289 342
#     4   9  15  27  49  82 111 138 187 238 294 347
#     4  10  22  37  51  82 119 161 202 245 283 358
#     4   8  16  28  50  74 107 141 192 236 278 334
#     4  10  20  36  58  89 123 151 194 245 304 363
#
# _framework density 21.393785000000001
#
# number of rings (size 3 to 8) (size 9 to 14) (size 15 to 20)
#    0.462    1.846    2.308    2.769    4.308    1.231 
#    0.000    0.000    0.000    0.000    4.000    0.000 
#    0.000    0.000    0.000    0.000    0.000    0.000 
#
# Total GULP energy -72594.849176 kJ/mol
# GULP energy per Si atom -5584.219167 kJ/mol
# Density = 2.134509 g / cm^3
# Si number density = 21.393785 Si / 1000 Ang^3
#
#
#
# Elastic Constant Matrix: (Units=GPa)
#
#
# Indices 1 2 3 4 5 6 
#
# 1 56.7976 47.7053 7.6729 0.0000 -0.7518 0.0000
# 2 47.7053 169.1229 12.4958 0.0002 -13.5196 0.0000
# 3 7.6729 12.4958 46.5565 0.0001 -3.9240 0.0000
# 4 0.0000 0.0002 0.0001 31.0282 0.0000 -2.8341
# 5 -0.7518 -13.5196 -3.9240 0.0000 29.0033 0.0000
# 6 0.0000 0.0000 0.0000 -2.8341 0.0000 18.3450
#
#
#
# Elastic Compliance Matrix: (Units=1/GPa)
#
#
# Indices 1 2 3 4 5 6 
#
# 1 0.023494 -0.006681 -0.002316 0.000000 -0.002819 0.000000
# 2 -0.006681 0.008136 -0.000787 0.000000 0.003513 0.000000
# 3 -0.002316 -0.000787 0.022290 0.000000 0.002589 0.000000
# 4 0.000000 0.000000 0.000000 0.032690 0.000000 0.005050
# 5 -0.002819 0.003513 0.002589 0.000000 0.036394 0.000000
# 6 0.000000 0.000000 0.000000 0.005050 0.000000 0.055291
#
#
# Mechanical properties :
#
#
# Convention : Reuss Voigt Hill
#
# Bulk Modulus (GPa) = 29.11013 45.35833 37.23423
# Shear Modulus (GPa) = 23.88757 29.31550 26.60154
#
# Velocity S-wave (km/s) = 3.34513 3.70575 3.53005
# Velocity P-wave (km/s) = 5.34380 6.28949 5.83584
#
# Compressibility (1/GPa) = 0.03435230
#
# Stress axis : x y z
#
# Youngs Moduli (GPa) = 42.56484 122.90465 44.86241
#
# Poissons Ratio (x) = 0.82114 0.10391
# Poissons Ratio (y) = 0.28438 0.03529
# Poissons Ratio (z) = 0.09859 0.09668
#
# Static dielectric constant tensor:
#      x y z
#    x 1.731970 0.000000 0.038980 
#    y 0.000000 1.772460 0.000000 
#    z 0.038980 0.000000 1.828710 
# 
# From -- ./inp_files/27741.got.cif
#   From: 2010.05.17/outbox.cif.g08.bks.cpg/sg8_14_cif.got.tgz:27741.got - 2010.06.03 19:46:02.
