data_PCOD9132112
_publ_section_title
;
Structure prediction by ZEFSAII (Michael W. Deem and Ramdas Pophale) SiO2 
 PCOD9132112
Probable space group: C M
;
_chemical_formula_sum "Si O2"
_cell_formula_units_Z 24
_cell_length_a 21.513056
_cell_length_b 7.728038
_cell_length_c 10.767617
_cell_angle_alpha 90.000000
_cell_angle_beta 45.773772
_cell_angle_gamma 90.000000
_cell_volume 1282.810614
_symmetry_space_group_name_H-M "C M"
_symmetry_group_IT_number 8
_symmetry_cell_setting 'monoclinic'
loop_
_space_group_symop_operation_xyz
x,y,z
x,-y,z
1/2+x,1/2+y,z
1/2+x,1/2-y,z
loop_
_atom_site_type_symbol
_atom_site_label
_atom_site_fract_x
_atom_site_fract_y
_atom_site_fract_z
Si Si1 0.970960 0.794008 0.579600
Si Si2 0.889598 0.803629 0.437464
Si Si3 0.456148 0.000000 0.802220
Si Si4 0.585311 0.696667 0.048359
Si Si5 0.658167 0.798247 0.204075
Si Si6 0.535862 0.000000 0.948709
Si Si7 0.767069 0.500000 0.179547
Si Si8 0.839832 0.500000 0.339994
O O1 0.901891 0.758727 0.565475
O O2 0.959619 0.670191 0.712091
O O3 0.063916 0.743222 0.392802
O O4 0.969084 0.000000 0.608302
O O5 0.835745 0.667393 0.433551
O O6 0.987956 0.801143 0.244070
O O7 0.857522 0.000000 0.471569
O O8 0.527075 0.000000 0.812994
O O9 0.364568 0.000000 0.996847
O O10 0.604145 0.500000 0.985207
O O11 0.648783 0.754789 0.071004
O O12 0.582362 0.831766 0.940681
O O13 0.721701 0.668832 0.185855
O O14 0.679064 0.000000 0.190875
O O15 0.437519 0.000000 0.143713
O O16 0.772183 0.500000 0.321675
#
# Coordination Sequence:
#
# PCOD9132112 Si02
#       8
#     4   4   2   4   4   2   2   2
#     4  10  19  35  61  86 108 143 193 235 270 323
#     4   8  15  27  51  81 101 132 185 230 263 310
#     4  11  23  36  54  84 124 148 177 225 289 337
#     4   9  15  28  52  80 105 131 184 241 267 307
#     4  11  19  34  60  85 107 144 192 233 272 325
#     4   9  18  30  48  78 107 144 179 221 279 325
#     4  11  24  36  50  90 120 144 179 225 290 339
#     4   9  17  30  48  72 117 140 165 223 282 325
#
# _framework density 18.708919999999999
#
# number of rings (size 3 to 8) (size 9 to 14) (size 15 to 20)
#    0.000    2.333    3.333    1.500    2.333    2.000 
#    0.000    3.333    0.000    4.000    0.000    0.000 
#    0.000    0.000    0.000    0.000    0.000    0.000 
#
# Total GULP energy -66930.410801 kJ/mol
# GULP energy per Si atom -5577.534233 kJ/mol
# Density = 1.866634 g / cm^3
# Si number density = 18.708920 Si / 1000 Ang^3
#
#
#
# Elastic Constant Matrix: (Units=GPa)
#
#
# Indices 1 2 3 4 5 6 
#
# 1 125.3827 97.1315 35.2921 0.0000 51.6287 0.0000
# 2 97.1315 196.6685 48.0591 0.0000 54.9161 0.0000
# 3 35.2921 48.0591 46.9429 0.0000 37.0248 0.0000
# 4 0.0000 0.0000 0.0000 14.6564 0.0000 11.5632
# 5 51.6287 54.9161 37.0248 0.0000 39.3415 0.0000
# 6 0.0000 0.0000 0.0000 11.5632 0.0000 31.5522
#
#
#
# Elastic Compliance Matrix: (Units=1/GPa)
#
#
# Indices 1 2 3 4 5 6 
#
# 1 0.025459 -0.004513 0.026628 0.000000 -0.052170 0.000000
# 2 -0.004513 0.009209 -0.002202 0.000000 -0.004859 0.000000
# 3 0.026628 -0.002202 0.111259 0.000000 -0.136577 0.000000
# 4 0.000000 0.000000 0.000000 0.095981 0.000000 -0.035175
# 5 -0.052170 -0.004859 -0.136577 0.000000 0.229199 0.000000
# 6 0.000000 0.000000 0.000000 -0.035175 0.000000 0.044585
#
#
# Mechanical properties :
#
#
# Convention : Reuss Voigt Hill
#
# Bulk Modulus (GPa) = 5.38355 81.10660 43.24508
# Shear Modulus (GPa) = 9.29743 29.67745 19.48744
#
# Velocity S-wave (km/s) = 2.23166 3.98712 3.23090
# Velocity P-wave (km/s) = 3.08613 8.04004 6.08960
#
# Compressibility (1/GPa) = 0.18575111
#
# Stress axis : x y z
#
# Youngs Moduli (GPa) = 39.27941 108.59494 8.98802
#
# Poissons Ratio (x) = 0.49009 -0.23933
# Poissons Ratio (y) = 0.17727 0.01979
# Poissons Ratio (z) = -1.04592 0.23915
#
# Static dielectric constant tensor:
#      x y z
#    x 1.649200 0.000000 -0.005990 
#    y 0.000000 1.627800 0.000000 
#    z -0.005990 0.000000 1.658600 
# 
# From -- ./inp_files/15590.got.cif
#   From: 2010.05.17/outbox.cif.g08.bks.cpg/sg8_8_cif.got.tgz:15590.got - 2010.06.03 19:46:02.
