data_PCOD9132662
_publ_section_title
;
Structure prediction by ZEFSAII (Michael W. Deem and Ramdas Pophale) SiO2 
 PCOD9132662
Probable space group: C M
;
_chemical_formula_sum "Si O2"
_cell_formula_units_Z 28
_cell_length_a 19.590822
_cell_length_b 8.474458
_cell_length_c 14.705078
_cell_angle_alpha 90.000000
_cell_angle_beta 29.593449
_cell_angle_gamma 90.000000
_cell_volume 1205.647472
_symmetry_space_group_name_H-M "C M"
_symmetry_group_IT_number 8
_symmetry_cell_setting 'monoclinic'
loop_
_space_group_symop_operation_xyz
x,y,z
x,-y,z
1/2+x,1/2+y,z
1/2+x,1/2-y,z
loop_
_atom_site_type_symbol
_atom_site_label
_atom_site_fract_x
_atom_site_fract_y
_atom_site_fract_z
Si Si1 0.886760 0.825825 0.362130
Si Si2 0.063408 0.684543 0.478906
Si Si3 0.279183 0.822019 0.759380
Si Si4 0.362673 0.305504 0.176933
Si Si5 0.937207 0.682718 0.827779
Si Si6 0.664130 0.181441 0.073612
Si Si7 0.112556 0.749848 0.780113
O O1 0.858284 0.782721 0.290287
O O2 0.740269 0.833091 0.581995
O O3 0.002525 0.716552 0.272771
O O4 0.951125 0.000000 0.286541
O O5 0.079077 0.500000 0.436761
O O6 0.218361 0.746068 0.299303
O O7 0.934144 0.747174 0.570907
O O8 0.007495 0.696677 0.647277
O O9 0.201100 0.836037 0.755319
O O10 0.291917 0.000000 0.782902
O O11 0.197539 0.723329 0.929371
O O12 0.384045 0.500000 0.138666
O O13 0.485085 0.202297 0.992762
O O14 0.957162 0.500000 0.834683
O O15 0.018335 0.797747 0.802617
O O16 0.775910 0.721225 0.002266
O O17 0.693202 0.000000 0.057672
#
# Coordination Sequence:
#
# PCOD9132662 Si02
#       7
#     4   4   4   4   4   4   4
#     4  11  23  44  69  97 137 184 225 273 345 411
#     4   8  16  36  65  90 122 177 229 267 323 406
#     4  10  21  40  67  98 138 184 227 274 341 409
#     4  10  20  38  64  97 135 180 226 275 337 402
#     4  10  21  41  68  97 132 176 225 279 344 408
#     4  11  24  42  67  98 135 178 230 285 337 399
#     4  12  23  35  68 109 133 167 234 285 321 399
#
# _framework density 23.224035000000001
#
# number of rings (size 3 to 8) (size 9 to 14) (size 15 to 20)
#    0.000    1.714    2.857    3.000    0.000    4.571 
#    0.000    1.429    0.000    6.857    0.000    0.000 
#    0.000    0.000    0.000    0.000    0.000    0.000 
#
# Total GULP energy -77968.151024 kJ/mol
# GULP energy per Si atom -5569.153645 kJ/mol
# Density = 2.317118 g / cm^3
# Si number density = 23.224035 Si / 1000 Ang^3
#
#
#
# Elastic Constant Matrix: (Units=GPa)
#
#
# Indices 1 2 3 4 5 6 
#
# 1 146.5811 20.1640 47.2249 0.0000 -29.3036 0.0000
# 2 20.1640 31.6816 25.5135 -0.0001 -3.3315 0.0000
# 3 47.2249 25.5135 152.0218 0.0000 -29.3906 0.0000
# 4 0.0000 -0.0001 0.0000 -4.3239 0.0000 -3.9400
# 5 -29.3036 -3.3315 -29.3906 0.0000 52.7925 0.0000
# 6 0.0000 0.0000 0.0000 -3.9400 0.0000 10.0080
#
#
#
# Elastic Compliance Matrix: (Units=1/GPa)
#
#
# Indices 1 2 3 4 5 6 
#
# 1 0.008535 -0.004034 -0.001241 0.000000 0.003792 0.000000
# 2 -0.004034 0.038476 -0.005791 -0.000001 -0.003035 0.000000
# 3 -0.001241 -0.005791 0.008664 0.000000 0.003769 0.000000
# 4 0.000000 -0.000001 0.000000 -0.170213 0.000000 -0.067010
# 5 0.003792 -0.003035 0.003769 0.000000 0.022954 0.000000
# 6 0.000000 0.000000 0.000000 -0.067010 0.000000 0.073540
#
#
# Mechanical properties :
#
#
# Convention : Reuss Voigt Hill
#
# Bulk Modulus (GPa) = 29.81259 57.34327 43.57793
# Shear Modulus (GPa) = 327.45756 27.52078 177.48917
#
# Velocity S-wave (km/s) = 11.88720 3.44614 8.75161
# Velocity P-wave (km/s) = 14.18704 6.37020 10.99663
#
# Compressibility (1/GPa) = 0.03354287
#
# Stress axis : x y z
#
# Youngs Moduli (GPa) = 117.16411 25.99031 115.41778
#
# Poissons Ratio (x) = 0.10484 0.14327
# Poissons Ratio (y) = 0.47262 0.66838
# Poissons Ratio (z) = 0.14543 0.15051
#
# Static dielectric constant tensor:
#      x y z
#    x 1.877660 0.000000 -0.011610 
#    y 0.000000 1.893520 0.000000 
#    z -0.011610 0.000000 1.882620 
# 
# From -- ./inp_files/27825.got.cif
#   From: 2010.05.17/outbox.cif.g08.bks.cpg/sg8_14_cif.got.tgz:27825.got - 2010.06.03 19:46:02.
