data_PCOD9132477
_publ_section_title
;
Structure prediction by ZEFSAII (Michael W. Deem and Ramdas Pophale) SiO2 
 PCOD9132477
Probable space group: C M
;
_chemical_formula_sum "Si O2"
_cell_formula_units_Z 24
_cell_length_a 8.313440
_cell_length_b 22.989380
_cell_length_c 7.528025
_cell_angle_alpha 90.000000
_cell_angle_beta 52.636636
_cell_angle_gamma 90.000000
_cell_volume 1143.532418
_symmetry_space_group_name_H-M "C M"
_symmetry_group_IT_number 8
_symmetry_cell_setting 'monoclinic'
loop_
_space_group_symop_operation_xyz
x,y,z
x,-y,z
1/2+x,1/2+y,z
1/2+x,1/2-y,z
loop_
_atom_site_type_symbol
_atom_site_label
_atom_site_fract_x
_atom_site_fract_y
_atom_site_fract_z
Si Si1 0.420260 0.432278 0.437280
Si Si2 0.260583 0.839390 0.246842
Si Si3 0.498415 0.567658 0.972802
Si Si4 0.532763 0.269930 0.673545
Si Si5 0.717935 0.128070 0.869147
Si Si6 0.737831 0.678036 0.860625
O O1 0.447170 0.500000 0.459296
O O2 0.614725 0.395084 0.371566
O O3 0.408598 0.426089 0.232371
O O4 0.233849 0.406878 0.673838
O O5 0.213705 0.792636 0.429614
O O6 0.491571 0.858718 0.079771
O O7 0.198311 0.814609 0.095892
O O8 0.548247 0.500000 0.910829
O O9 0.339631 0.590721 0.934466
O O10 0.690527 0.611485 0.841331
O O11 0.344001 0.312508 0.759254
O O12 0.589157 0.284398 0.837488
O O13 0.460367 0.204859 0.685149
#
# Coordination Sequence:
#
# PCOD9132477 Si02
#       6
#     4   4   4   4   4   4
#     4   9  19  36  57  84 120 159 201 248 297 357
#     4  10  22  38  59  89 121 158 205 252 304 360
#     4   9  19  37  62  92 126 163 203 248 299 361
#     4  10  22  38  57  87 121 158 205 253 302 360
#     4  10  20  36  59  86 119 160 203 252 305 356
#     4  10  21  39  62  88 124 162 199 251 307 356
#
# _framework density 20.987598999999999
#
# number of rings (size 3 to 8) (size 9 to 14) (size 15 to 20)
#    0.000    2.333    0.000    1.500    0.000    5.333 
#    0.000    5.000    0.000    8.000    0.000    0.000 
#    0.000    0.000    0.000    0.000    0.000    0.000 
#
# Total GULP energy -66997.900582 kJ/mol
# GULP energy per Si atom -5583.158382 kJ/mol
# Density = 2.093983 g / cm^3
# Si number density = 20.987599 Si / 1000 Ang^3
#
#
#
# Elastic Constant Matrix: (Units=GPa)
#
#
# Indices 1 2 3 4 5 6 
#
# 1 63.5739 58.2961 32.9983 0.0000 6.4033 0.0000
# 2 58.2961 136.7692 72.5518 0.0000 0.8970 0.0000
# 3 32.9983 72.5518 96.7517 0.0000 -18.3453 0.0000
# 4 0.0000 0.0000 0.0000 24.3515 0.0000 -6.3954
# 5 6.4033 0.8970 -18.3453 0.0000 27.2893 0.0000
# 6 0.0000 0.0000 0.0000 -6.3954 0.0000 25.6206
#
#
#
# Elastic Compliance Matrix: (Units=1/GPa)
#
#
# Indices 1 2 3 4 5 6 
#
# 1 0.027367 -0.009612 -0.003764 0.000000 -0.008636 0.000000
# 2 -0.009612 0.017010 -0.010493 0.000000 -0.005358 0.000000
# 3 -0.003764 -0.010493 0.022602 0.000000 0.016422 0.000000
# 4 0.000000 0.000000 0.000000 0.043946 0.000000 0.010970
# 5 -0.008636 -0.005358 0.016422 0.000000 0.049887 0.000000
# 6 0.000000 0.000000 0.000000 0.010970 0.000000 0.041769
#
#
# Mechanical properties :
#
#
# Convention : Reuss Voigt Hill
#
# Bulk Modulus (GPa) = 51.97056 69.42081 60.69568
# Shear Modulus (GPa) = 19.47567 24.33551 21.90559
#
# Velocity S-wave (km/s) = 3.04955 3.40886 3.23420
# Velocity P-wave (km/s) = 6.10049 6.97443 6.55205
#
# Compressibility (1/GPa) = 0.01924166
#
# Stress axis : x y z
#
# Youngs Moduli (GPa) = 36.54076 58.79006 44.24461
#
# Poissons Ratio (x) = 0.56506 0.16652
# Poissons Ratio (y) = 0.35121 0.46426
# Poissons Ratio (z) = 0.13753 0.61688
#
# Static dielectric constant tensor:
#      x y z
#    x 1.758710 0.000000 0.017830 
#    y 0.000000 1.770260 0.000000 
#    z 0.017830 0.000000 1.760410 
# 
# From -- ./inp_files/1622.got.cif
#   From: 2010.05.17/outbox.cif.g08.bks.cpg/sg8_1_cif.got.tgz:1622.got - 2010.06.03 19:46:02.
