data_PCOD9132848
_publ_section_title
;
Structure prediction by ZEFSAII (Michael W. Deem and Ramdas Pophale) SiO2 
 PCOD9132848
Probable space group: C M
;
_chemical_formula_sum "Si O2"
_cell_formula_units_Z 32
_cell_length_a 9.716565
_cell_length_b 16.889667
_cell_length_c 12.445674
_cell_angle_alpha 90.000000
_cell_angle_beta 117.633905
_cell_angle_gamma 90.000000
_cell_volume 1809.469709
_symmetry_space_group_name_H-M "C M"
_symmetry_group_IT_number 8
_symmetry_cell_setting 'monoclinic'
loop_
_space_group_symop_operation_xyz
x,y,z
x,-y,z
1/2+x,1/2+y,z
1/2+x,1/2-y,z
loop_
_atom_site_type_symbol
_atom_site_label
_atom_site_fract_x
_atom_site_fract_y
_atom_site_fract_z
Si Si1 0.829690 0.829268 0.263650
Si Si2 0.062340 0.688983 0.318472
Si Si3 0.815966 0.407133 0.107849
Si Si4 0.092771 0.905382 0.746717
Si Si5 0.001554 0.828420 0.939305
Si Si6 0.328345 0.590684 0.479321
Si Si7 0.265219 0.591359 0.011408
Si Si8 0.427992 0.142419 0.912077
O O1 0.669233 0.792956 0.252589
O O2 0.863118 0.896444 0.365200
O O3 0.804156 0.862380 0.135815
O O4 0.965238 0.764898 0.316139
O O5 0.185972 0.651519 0.445942
O O6 0.940263 0.621680 0.239627
O O7 0.779581 0.500000 0.103352
O O8 0.661430 0.353917 0.056042
O O9 0.892054 0.389694 0.018990
O O10 0.267875 0.874770 0.791935
O O11 0.026259 0.861451 0.827921
O O12 0.976697 0.891685 0.605991
O O13 0.099667 0.000000 0.770372
O O14 0.968601 0.735247 0.928633
O O15 0.861576 0.870740 0.949910
O O16 0.281809 0.500000 0.481624
O O17 0.307602 0.500000 0.039789
O O18 0.081338 0.599520 0.925431
#
# Coordination Sequence:
#
# PCOD9132848 Si02
#       8
#     4   4   4   4   4   4   4   4
#     4  10  22  36  58  86 111 146 184 228 282 331
#     4  10  21  36  59  84 113 145 183 231 279 329
#     4  11  21  36  56  80 114 153 191 222 270 343
#     4  10  21  40  61  80 108 151 194 230 269 333
#     4  11  23  36  53  86 116 149 181 231 281 326
#     4   9  20  39  63  81 106 147 196 231 269 331
#     4  12  22  34  55  85 118 146 178 229 282 331
#     4  11  20  35  57  80 112 149 189 226 274 330
#
# _framework density 17.684737999999999
#
# number of rings (size 3 to 8) (size 9 to 14) (size 15 to 20)
#    0.750    0.750    1.250    6.750    1.750    1.000 
#    0.000    0.000    0.000    0.000    0.000    0.000 
#    0.000    0.000    0.000    0.000    0.000    0.000 
#
# Total GULP energy -89233.357594 kJ/mol
# GULP energy per Si atom -5577.084850 kJ/mol
# Density = 1.764449 g / cm^3
# Si number density = 17.684738 Si / 1000 Ang^3
#
#
#
# Elastic Constant Matrix: (Units=GPa)
#
#
# Indices 1 2 3 4 5 6 
#
# 1 47.5021 10.6255 21.7496 0.0000 -0.3421 0.0000
# 2 10.6255 92.7454 14.4077 0.0000 10.7491 0.0000
# 3 21.7496 14.4077 78.0065 0.0000 22.0933 0.0000
# 4 0.0000 0.0000 0.0000 11.3100 0.0000 -5.1830
# 5 -0.3421 10.7491 22.0933 0.0000 19.0506 0.0000
# 6 0.0000 0.0000 0.0000 -5.1830 0.0000 5.0098
#
#
#
# Elastic Compliance Matrix: (Units=1/GPa)
#
#
# Indices 1 2 3 4 5 6 
#
# 1 0.027042 -0.003122 -0.011317 0.000000 0.015371 0.000000
# 2 -0.003122 0.011907 0.000878 0.000000 -0.007793 0.000000
# 3 -0.011317 0.000878 0.023841 0.000000 -0.028348 0.000000
# 4 0.000000 0.000000 0.000000 0.168130 0.000000 0.173943
# 5 0.015371 -0.007793 -0.028348 0.000000 0.090041 0.000000
# 6 0.000000 0.000000 0.000000 0.173943 0.000000 0.379565
#
#
# Mechanical properties :
#
#
# Convention : Reuss Voigt Hill
#
# Bulk Modulus (GPa) = 28.03474 34.64663 31.34069
# Shear Modulus (GPa) = 6.76100 18.50549 12.63325
#
# Velocity S-wave (km/s) = 1.95739 3.23834 2.67565
# Velocity P-wave (km/s) = 4.58208 5.79795 5.22550
#
# Compressibility (1/GPa) = 0.03567002
#
# Stress axis : x y z
#
# Youngs Moduli (GPa) = 36.97916 83.98722 41.94383
#
# Poissons Ratio (x) = 0.26218 0.47467
# Poissons Ratio (y) = 0.11543 -0.03684
# Poissons Ratio (z) = 0.41849 -0.07377
#
# Static dielectric constant tensor:
#      x y z
#    x 1.597310 0.000000 0.017760 
#    y 0.000000 1.608190 0.000000 
#    z 0.017760 0.000000 1.604400 
# 
# From -- ./inp_files/25378.got.cif
#   From: 2010.05.17/outbox.cif.g08.bks.cpg/sg8_13_cif.got.tgz:25378.got - 2010.06.03 19:46:02.
