data_PCOD9132912
_publ_section_title
;
Structure prediction by ZEFSAII (Michael W. Deem and Ramdas Pophale) SiO2 
 PCOD9132912
Probable space group: C M
;
_chemical_formula_sum "Si O2"
_cell_formula_units_Z 30
_cell_length_a 14.490951
_cell_length_b 12.189683
_cell_length_c 9.162925
_cell_angle_alpha 90.000000
_cell_angle_beta 110.182379
_cell_angle_gamma 90.000000
_cell_volume 1519.160286
_symmetry_space_group_name_H-M "C M"
_symmetry_group_IT_number 8
_symmetry_cell_setting 'monoclinic'
loop_
_space_group_symop_operation_xyz
x,y,z
x,-y,z
1/2+x,1/2+y,z
1/2+x,1/2-y,z
loop_
_atom_site_type_symbol
_atom_site_label
_atom_site_fract_x
_atom_site_fract_y
_atom_site_fract_z
Si Si1 0.320680 0.717574 0.189110
Si Si2 0.506064 0.708232 0.087975
Si Si3 0.164067 0.623149 0.299531
Si Si4 0.645428 0.876232 0.614759
Si Si5 0.912185 0.374039 0.479852
Si Si6 0.203345 0.818976 0.858596
Si Si7 0.901632 0.374903 0.810982
Si Si8 0.078127 0.000000 0.940687
O O1 0.415655 0.682387 0.148036
O O2 0.255241 0.629760 0.238842
O O3 0.357671 0.800669 0.333272
O O4 0.249456 0.778855 0.036530
O O5 0.588405 0.781091 0.214693
O O6 0.464704 0.789592 0.939213
O O7 0.545044 0.597538 0.037734
O O8 0.119492 0.500000 0.268563
O O9 0.196068 0.640391 0.485197
O O10 0.529182 0.870247 0.518984
O O11 0.671158 0.786039 0.747537
O O12 0.667938 0.000000 0.679273
O O13 0.879307 0.500000 0.445399
O O14 0.896334 0.341603 0.639178
O O15 0.293276 0.873491 0.820362
O O16 0.118381 0.903985 0.848714
O O17 0.941681 0.500000 0.839038
#
# Coordination Sequence:
#
# PCOD9132912 Si02
#       8
#     4   4   4   4   4   4   4   2
#     4  11  24  40  67  97 132 174 220 275 334 398
#     4  11  24  42  66  96 139 177 226 275 337 400
#     4  11  23  42  69 100 133 174 225 279 337 399
#     4  10  22  43  68 100 134 176 225 279 338 400
#     4  10  21  37  67  99 132 169 222 280 330 391
#     4  11  23  41  67  95 135 176 225 274 336 398
#     4  10  21  40  66  99 131 173 228 276 333 403
#     4  12  24  44  62  98 136 180 224 278 336 402
#
# _framework density 19.747752999999999
#
# number of rings (size 3 to 8) (size 9 to 14) (size 15 to 20)
#    0.000    1.333    3.333    2.000    1.867    1.067 
#    3.600    0.667   11.733    0.000    0.000    0.000 
#    0.000    0.000    0.000    0.000    0.000    0.000 
#
# Total GULP energy -83507.494016 kJ/mol
# GULP energy per Si atom -5567.166268 kJ/mol
# Density = 1.970281 g / cm^3
# Si number density = 19.747753 Si / 1000 Ang^3
#
#
#
# Elastic Constant Matrix: (Units=GPa)
#
#
# Indices 1 2 3 4 5 6 
#
# 1 61.9415 42.5994 31.8813 0.0000 -24.5371 0.0000
# 2 42.5994 147.5429 69.3556 0.0000 -5.1205 0.0000
# 3 31.8813 69.3556 109.2812 0.0000 -22.3425 0.0000
# 4 0.0000 0.0000 0.0000 32.0615 0.0000 -11.4233
# 5 -24.5371 -5.1205 -22.3425 0.0000 35.5544 0.0000
# 6 0.0000 0.0000 0.0000 -11.4233 0.0000 23.5615
#
#
#
# Elastic Compliance Matrix: (Units=1/GPa)
#
#
# Indices 1 2 3 4 5 6 
#
# 1 0.028908 -0.007919 0.000502 0.000000 0.019126 0.000000
# 2 -0.007919 0.012082 -0.007021 0.000000 -0.008137 0.000000
# 3 0.000502 -0.007021 0.015289 0.000000 0.008943 0.000000
# 4 0.000000 0.000000 0.000000 0.037703 0.000000 0.018280
# 5 0.019126 -0.008137 0.008943 0.000000 0.045773 0.000000
# 6 0.000000 0.000000 0.000000 0.018280 0.000000 0.051305
#
#
# Mechanical properties :
#
#
# Convention : Reuss Voigt Hill
#
# Bulk Modulus (GPa) = 36.49218 67.38201 51.93709
# Shear Modulus (GPa) = 21.82740 29.89742 25.86241
#
# Velocity S-wave (km/s) = 3.32823 3.89519 3.62282
# Velocity P-wave (km/s) = 5.76964 7.37736 6.62247
#
# Compressibility (1/GPa) = 0.02740314
#
# Stress axis : x y z
#
# Youngs Moduli (GPa) = 34.59237 82.76590 65.40775
#
# Poissons Ratio (x) = 0.65542 -0.03286
# Poissons Ratio (y) = 0.27393 0.45926
# Poissons Ratio (z) = -0.01738 0.58114
#
# Static dielectric constant tensor:
#      x y z
#    x 1.742670 0.000000 -0.015690 
#    y 0.000000 1.668350 0.000000 
#    z -0.015690 0.000000 1.670440 
# 
# From -- ./inp_files/12736.got.cif
#   From: 2010.05.17/outbox.cif.g08.bks.cpg/sg8_7_cif.got.tgz:12736.got - 2010.06.03 19:46:02.
