data_PCOD9132219
_publ_section_title
;
Structure prediction by ZEFSAII (Michael W. Deem and Ramdas Pophale) SiO2 
 PCOD9132219
Probable space group: C M
;
_chemical_formula_sum "Si O2"
_cell_formula_units_Z 28
_cell_length_a 7.103691
_cell_length_b 17.267402
_cell_length_c 12.139079
_cell_angle_alpha 90.000000
_cell_angle_beta 48.618000
_cell_angle_gamma 90.000000
_cell_volume 1117.230085
_symmetry_space_group_name_H-M "C M"
_symmetry_group_IT_number 8
_symmetry_cell_setting 'monoclinic'
loop_
_space_group_symop_operation_xyz
x,y,z
x,-y,z
1/2+x,1/2+y,z
1/2+x,1/2-y,z
loop_
_atom_site_type_symbol
_atom_site_label
_atom_site_fract_x
_atom_site_fract_y
_atom_site_fract_z
Si Si1 0.857270 0.304217 0.117610
Si Si2 0.024321 0.907755 0.368275
Si Si3 0.084237 0.363517 0.680126
Si Si4 0.440243 0.304217 0.831454
Si Si5 0.213275 0.363517 0.268938
Si Si6 0.273191 0.907755 0.580789
Si Si7 0.648756 0.377021 0.974532
O O1 0.785991 0.367013 0.237695
O O2 0.741874 0.223778 0.209529
O O3 0.731582 0.329360 0.050799
O O4 0.148756 0.306118 0.974532
O O5 0.867941 0.884247 0.537150
O O6 0.856763 0.877434 0.329689
O O7 0.042813 0.000000 0.357736
O O8 0.055638 0.276222 0.739534
O O9 0.940749 0.377434 0.619375
O O10 0.910692 0.413162 0.831644
O O11 0.565931 0.329360 0.898265
O O12 0.511521 0.367013 0.711368
O O13 0.929572 0.384247 0.411913
O O14 0.386821 0.413162 0.117419
O O15 0.254697 0.000000 0.591327
#
# Coordination Sequence:
#
# PCOD9132219 Si02
#       7
#     4   4   4   4   4   4   4
#     4  11  23  41  70 106 136 174 231 288 340 400
#     4  10  23  42  66 101 142 183 225 278 348 416
#     4  10  19  38  66  99 132 175 229 281 328 404
#     4  11  23  41  70 106 136 174 231 288 340 400
#     4  10  19  38  66  99 132 175 229 281 328 404
#     4  10  23  42  66 101 142 183 225 278 348 416
#     4  10  22  38  67 104 137 168 224 292 336 392
#
# _framework density 25.061979000000001
#
# number of rings (size 3 to 8) (size 9 to 14) (size 15 to 20)
#    0.000    1.714    1.429    3.429    4.000    0.571 
#    0.000   17.857    0.000    1.714    0.000    4.000 
#    0.000    0.000    0.000    0.000    0.000    0.000 
#
# Total GULP energy -78050.775165 kJ/mol
# GULP energy per Si atom -5575.055369 kJ/mol
# Density = 2.500494 g / cm^3
# Si number density = 25.061979 Si / 1000 Ang^3
#
#
#
# Elastic Constant Matrix: (Units=GPa)
#
#
# Indices 1 2 3 4 5 6 
#
# 1 61.0611 45.8006 46.9343 0.0000 2.6856 0.0000
# 2 45.8006 189.5914 121.8819 0.0000 -5.6715 0.0000
# 3 46.9343 121.8819 312.1283 0.0000 -41.0941 0.0000
# 4 0.0000 0.0000 0.0000 52.8667 0.0000 93.0385
# 5 2.6856 -5.6715 -41.0941 0.0000 67.0047 0.0000
# 6 0.0000 0.0000 0.0000 93.0385 0.0000 40.6823
#
#
#
# Elastic Compliance Matrix: (Units=1/GPa)
#
#
# Indices 1 2 3 4 5 6 
#
# 1 0.020870 -0.003866 -0.001938 0.000000 -0.002352 0.000000
# 2 -0.003866 0.007846 -0.002583 0.000000 -0.000765 0.000000
# 3 -0.001938 -0.002583 0.004879 0.000000 0.002852 0.000000
# 4 0.000000 0.000000 0.000000 -0.006254 0.000000 0.014302
# 5 -0.002352 -0.000765 0.002852 0.000000 0.016703 0.000000
# 6 0.000000 0.000000 0.000000 0.014302 0.000000 -0.008127
#
#
# Mechanical properties :
#
#
# Convention : Reuss Voigt Hill
#
# Bulk Modulus (GPa) = 59.45072 110.22384 84.83728
# Shear Modulus (GPa) = 85.76250 55.32169 70.54209
#
# Velocity S-wave (km/s) = 5.85615 4.70339 5.31114
# Velocity P-wave (km/s) = 8.33660 8.57740 8.45786
#
# Compressibility (1/GPa) = 0.01682065
#
# Stress axis : x y z
#
# Youngs Moduli (GPa) = 47.91524 127.44959 204.94136
#
# Poissons Ratio (x) = 0.49272 0.39724
# Poissons Ratio (y) = 0.18524 0.52942
# Poissons Ratio (z) = 0.09288 0.32924
#
# Static dielectric constant tensor:
#      x y z
#    x 2.274510 0.000000 -0.131730 
#    y 0.000000 2.006240 0.000000 
#    z -0.131730 0.000000 2.065980 
# 
# From -- ./inp_files/26087.got.cif
#   From: 2010.05.17/outbox.cif.g08.bks.cpg/sg8_14_cif.got.tgz:26087.got - 2010.06.03 19:46:02.
