data_PCOD9132266
_publ_section_title
;
Structure prediction by ZEFSAII (Michael W. Deem and Ramdas Pophale) SiO2 
 PCOD9132266
Probable space group: C M
;
_chemical_formula_sum "Si O2"
_cell_formula_units_Z 32
_cell_length_a 25.611834
_cell_length_b 8.492986
_cell_length_c 24.652213
_cell_angle_alpha 90.000000
_cell_angle_beta 162.114020
_cell_angle_gamma 90.000000
_cell_volume 1646.912066
_symmetry_space_group_name_H-M "C M"
_symmetry_group_IT_number 8
_symmetry_cell_setting 'monoclinic'
loop_
_space_group_symop_operation_xyz
x,y,z
x,-y,z
1/2+x,1/2+y,z
1/2+x,1/2-y,z
loop_
_atom_site_type_symbol
_atom_site_label
_atom_site_fract_x
_atom_site_fract_y
_atom_site_fract_z
Si Si1 0.482130 0.690580 0.918970
Si Si2 0.612415 0.685720 0.279512
Si Si3 0.291994 0.809814 0.026559
Si Si4 0.115127 0.687729 0.536457
Si Si5 0.989871 0.183307 0.525155
Si Si6 0.794920 0.307107 0.153486
Si Si7 0.581881 0.817772 0.132091
Si Si8 0.494747 0.690789 0.651493
O O1 0.484128 0.500000 0.922210
O O2 0.306582 0.746067 0.718615
O O3 0.643421 0.743488 0.043451
O O4 0.492469 0.749800 0.990746
O O5 0.620521 0.500000 0.294142
O O6 0.553131 0.727915 0.159738
O O7 0.803020 0.754191 0.474668
O O8 0.472610 0.756400 0.181508
O O9 0.136681 0.756245 0.834552
O O10 0.288876 0.000000 0.022879
O O11 0.270881 0.757246 0.067797
O O12 0.118628 0.500000 0.532693
O O13 0.060563 0.723524 0.544102
O O14 0.972305 0.749666 0.354470
O O15 0.784672 0.190694 0.321572
O O16 0.040740 0.241444 0.635412
O O17 0.040145 0.000000 0.569435
O O18 0.795275 0.500000 0.154222
O O19 0.534959 0.000000 0.093627
O O20 0.490867 0.500000 0.646680
#
# Coordination Sequence:
#
# PCOD9132266 Si02
#       8
#     4   4   4   4   4   4   4   4
#     4  10  20  34  54  84 115 148 189 235 289 344
#     4  11  23  38  58  87 121 155 190 240 297 350
#     4  10  21  39  64  88 113 156 203 244 286 341
#     4  10  20  33  54  84 114 148 186 229 285 343
#     4   9  18  33  53  80 113 147 186 233 284 337
#     4   9  19  37  58  82 115 150 192 240 284 333
#     4  10  20  36  58  83 114 153 193 236 286 345
#     4   9  20  38  59  86 117 153 197 241 287 345
#
# _framework density 19.430304
#
# number of rings (size 3 to 8) (size 9 to 14) (size 15 to 20)
#    0.000    2.250    1.250    2.250    1.750    4.000 
#    0.000    5.000    0.000    1.500    0.000    0.000 
#    0.000    0.000    0.000    0.000    0.000    0.000 
#
# Total GULP energy -89317.249696 kJ/mol
# GULP energy per Si atom -5582.328106 kJ/mol
# Density = 1.938608 g / cm^3
# Si number density = 19.430304 Si / 1000 Ang^3
#
#
#
# Elastic Constant Matrix: (Units=GPa)
#
#
# Indices 1 2 3 4 5 6 
#
# 1 62.1311 -4.5159 35.4387 -0.0012 -25.1123 -0.0007
# 2 -4.5159 6.8099 7.9822 -0.0007 -5.2702 -0.0005
# 3 35.4387 7.9822 106.5471 -0.0046 -30.5476 -0.0018
# 4 -0.0012 -0.0007 -0.0046 15.1309 -0.0010 -0.2850
# 5 -25.1123 -5.2702 -30.5476 -0.0010 25.8997 -0.0002
# 6 -0.0007 -0.0005 -0.0018 -0.2850 -0.0002 19.8283
#
#
#
# Elastic Compliance Matrix: (Units=1/GPa)
#
#
# Indices 1 2 3 4 5 6 
#
# 1 0.048708 0.083600 -0.006114 0.000010 0.057028 0.000004
# 2 0.083600 0.319132 -0.014893 0.000025 0.128432 0.000011
# 3 -0.006114 -0.014893 0.015058 0.000004 0.008802 0.000001
# 4 0.000010 0.000025 0.000004 0.066108 0.000022 0.000950
# 5 0.057028 0.128432 0.008802 0.000022 0.130421 0.000008
# 6 0.000004 0.000011 0.000001 0.000950 0.000008 0.050447
#
#
# Mechanical properties :
#
#
# Convention : Reuss Voigt Hill
#
# Bulk Modulus (GPa) = 1.96817 28.14424 15.05620
# Shear Modulus (GPa) = 7.41786 21.27732 14.34759
#
# Velocity S-wave (km/s) = 1.95601 3.31276 2.72032
# Velocity P-wave (km/s) = 2.47314 5.39895 4.19911
#
# Compressibility (1/GPa) = 0.50808684
#
# Stress axis : x y z
#
# Youngs Moduli (GPa) = 20.53034 3.13350 66.40786
#
# Poissons Ratio (x) = -0.26196 0.40600
# Poissons Ratio (y) = -1.71634 0.98899
# Poissons Ratio (z) = 0.12552 0.04667
#
# Static dielectric constant tensor:
#      x y z
#    x 1.647910 0.000000 -0.005740 
#    y 0.000000 1.667040 0.000000 
#    z -0.005740 0.000000 1.695830 
# 
# From -- ./inp_files/32387.got.cif
#   From: 2010.05.17/outbox.cif.g08.bks.cpg/sg8_17_cif.got.tgz:32387.got - 2010.06.03 19:46:02.
