data_PCOD9132595
_publ_section_title
;
Structure prediction by ZEFSAII (Michael W. Deem and Ramdas Pophale) SiO2 
 PCOD9132595
Probable space group: C M
;
_chemical_formula_sum "Si O2"
_cell_formula_units_Z 32
_cell_length_a 11.947254
_cell_length_b 30.517554
_cell_length_c 8.589511
_cell_angle_alpha 90.000000
_cell_angle_beta 34.163314
_cell_angle_gamma 90.000000
_cell_volume 1758.642419
_symmetry_space_group_name_H-M "C M"
_symmetry_group_IT_number 8
_symmetry_cell_setting 'monoclinic'
loop_
_space_group_symop_operation_xyz
x,y,z
x,-y,z
1/2+x,1/2+y,z
1/2+x,1/2-y,z
loop_
_atom_site_type_symbol
_atom_site_label
_atom_site_fract_x
_atom_site_fract_y
_atom_site_fract_z
Si Si1 0.296060 0.366419 0.059520
Si Si2 0.281616 0.378107 0.709927
Si Si3 0.901024 0.339765 0.681675
Si Si4 0.529077 0.289855 0.970091
Si Si5 0.678602 0.205189 0.617935
Si Si6 0.536056 0.048892 0.836879
Si Si7 0.864684 0.951146 0.188790
Si Si8 0.659218 0.420203 0.104074
O O1 0.357351 0.411391 0.076136
O O2 0.068916 0.355232 0.367576
O O3 0.309803 0.370789 0.859520
O O4 0.430415 0.327171 0.974351
O O5 0.239061 0.332756 0.669620
O O6 0.105704 0.412673 0.871734
O O7 0.479925 0.399299 0.408717
O O8 0.735299 0.308611 0.799010
O O9 0.019976 0.315677 0.681947
O O10 0.787384 0.381349 0.881764
O O11 0.580158 0.246139 0.817389
O O12 0.372025 0.282374 0.291485
O O13 0.675092 0.053641 0.522918
O O14 0.573039 0.000000 0.857713
O O15 0.309881 0.053602 0.040407
O O16 0.054806 0.946386 0.083969
O O17 0.859916 0.000000 0.125199
#
# Coordination Sequence:
#
# PCOD9132595 Si02
#       8
#     4   4   4   4   4   4   4   4
#     4  11  24  41  60  93 125 163 196 246 311 354
#     4  11  24  39  61  91 129 156 198 254 302 354
#     4  11  21  42  66  83 123 159 200 247 295 360
#     4  11  25  42  63  89 124 158 204 252 295 363
#     4  11  25  41  61  93 118 161 204 247 304 356
#     4  10  20  38  64  91 118 162 207 245 299 362
#     4  10  20  37  63  91 121 157 204 251 296 361
#     4  11  18  40  65  87 116 160 204 246 295 356
#
# _framework density 18.195853
#
# number of rings (size 3 to 8) (size 9 to 14) (size 15 to 20)
#    0.000    1.250    5.000    1.875    3.500    4.000 
#    0.000    0.000    0.000    0.000    0.000    0.000 
#    0.000    0.000    0.000    0.000    0.000    0.000 
#
# Total GULP energy -89372.780613 kJ/mol
# GULP energy per Si atom -5585.798788 kJ/mol
# Density = 1.815444 g / cm^3
# Si number density = 18.195853 Si / 1000 Ang^3
#
#
#
# Elastic Constant Matrix: (Units=GPa)
#
#
# Indices 1 2 3 4 5 6 
#
# 1 93.0182 48.6181 57.9470 0.0000 5.3712 0.0000
# 2 48.6181 135.2715 53.5193 0.0000 14.2463 0.0000
# 3 57.9470 53.5193 78.8465 0.0000 -7.4232 0.0000
# 4 0.0000 0.0000 0.0000 34.0031 0.0000 10.8485
# 5 5.3712 14.2463 -7.4232 0.0000 34.0974 0.0000
# 6 0.0000 0.0000 0.0000 10.8485 0.0000 34.0788
#
#
#
# Elastic Compliance Matrix: (Units=1/GPa)
#
#
# Indices 1 2 3 4 5 6 
#
# 1 0.021360 -0.000738 -0.015809 0.000000 -0.006498 0.000000
# 2 -0.000738 0.011414 -0.007803 0.000000 -0.006351 0.000000
# 3 -0.015809 -0.007803 0.030770 0.000000 0.012449 0.000000
# 4 0.000000 0.000000 0.000000 0.032734 0.000000 -0.010420
# 5 -0.006498 -0.006351 0.012449 0.000000 0.035715 0.000000
# 6 0.000000 0.000000 0.000000 -0.010420 0.000000 0.032661
#
#
# Mechanical properties :
#
#
# Convention : Reuss Voigt Hill
#
# Bulk Modulus (GPa) = 67.36827 69.70053 68.53440
# Shear Modulus (GPa) = 22.90401 30.23931 26.57166
#
# Velocity S-wave (km/s) = 3.55173 4.08104 3.82555
# Velocity P-wave (km/s) = 7.34330 7.78430 7.56702
#
# Compressibility (1/GPa) = 0.01484378
#
# Stress axis : x y z
#
# Youngs Moduli (GPa) = 46.81649 87.61216 32.49897
#
# Poissons Ratio (x) = 0.06465 0.51378
# Poissons Ratio (y) = 0.03455 0.25360
# Poissons Ratio (z) = 0.74013 0.68365
#
# Static dielectric constant tensor:
#      x y z
#    x 1.608560 0.000000 -0.013680 
#    y 0.000000 1.633830 0.000000 
#    z -0.013680 0.000000 1.610090 
# 
# From -- ./inp_files/11692.got.cif
#   From: 2010.05.17/outbox.cif.g08.bks.cpg/sg8_6_cif.got.tgz:11692.got - 2010.06.03 19:46:02.
