data_PCOD9132056
_publ_section_title
;
Structure prediction by ZEFSAII (Michael W. Deem and Ramdas Pophale) SiO2 
 PCOD9132056
Probable space group: C M
;
_chemical_formula_sum "Si O2"
_cell_formula_units_Z 28
_cell_length_a 10.294070
_cell_length_b 24.961719
_cell_length_c 5.598430
_cell_angle_alpha 90.000000
_cell_angle_beta 83.500080
_cell_angle_gamma 90.000000
_cell_volume 1429.312558
_symmetry_space_group_name_H-M "C M"
_symmetry_group_IT_number 8
_symmetry_cell_setting 'monoclinic'
loop_
_space_group_symop_operation_xyz
x,y,z
x,-y,z
1/2+x,1/2+y,z
1/2+x,1/2-y,z
loop_
_atom_site_type_symbol
_atom_site_label
_atom_site_fract_x
_atom_site_fract_y
_atom_site_fract_z
Si Si1 0.542450 0.342424 0.385170
Si Si2 0.439246 0.244693 0.712307
Si Si3 0.295877 0.209818 0.346798
Si Si4 0.533466 0.841330 0.016945
Si Si5 0.308927 0.679288 0.130646
Si Si6 0.340982 0.061753 0.025798
Si Si7 0.680304 0.561604 0.564998
O O1 0.505897 0.286278 0.518739
O O2 0.684092 0.325962 0.252311
O O3 0.424325 0.353820 0.230964
O O4 0.571763 0.392527 0.549073
O O5 0.322595 0.208549 0.623691
O O6 0.538301 0.201826 0.801804
O O7 0.375582 0.285861 0.909890
O O8 0.264986 0.271771 0.308904
O O9 0.434942 0.190262 0.215549
O O10 0.458238 0.896052 0.980817
O O11 0.678841 0.850655 0.080570
O O12 0.250398 0.070026 0.807574
O O13 0.385596 0.000000 0.001321
O O14 0.271809 0.066296 0.304497
O O15 0.632152 0.500000 0.573776
#
# Coordination Sequence:
#
# PCOD9132056 Si02
#       7
#     4   4   4   4   4   4   4
#     4  11  21  36  58  85 122 158 207 253 311 366
#     4  10  21  33  55  84 121 163 206 246 305 373
#     4  10  19  35  55  80 112 159 207 250 296 360
#     4  11  21  36  58  84 121 160 206 253 312 364
#     4  10  22  34  49  85 124 158 195 243 310 378
#     4  10  22  41  66  94 119 156 214 268 308 358
#     4  10  22  41  67  94 119 156 213 269 310 355
#
# _framework density 19.589839000000001
#
# number of rings (size 3 to 8) (size 9 to 14) (size 15 to 20)
#    0.000    1.714    1.429    4.286    2.000    3.429 
#    0.000    0.714    0.000    0.857    0.000    0.000 
#    0.000    0.000    0.000    0.000    0.000    0.000 
#
# Total GULP energy -77942.333318 kJ/mol
# GULP energy per Si atom -5567.309523 kJ/mol
# Density = 1.954525 g / cm^3
# Si number density = 19.589839 Si / 1000 Ang^3
#
#
#
# Elastic Constant Matrix: (Units=GPa)
#
#
# Indices 1 2 3 4 5 6 
#
# 1 107.6835 38.3559 29.4683 0.0000 32.0761 0.0000
# 2 38.3559 101.8915 15.2780 0.0000 20.2533 0.0000
# 3 29.4683 15.2780 69.4343 0.0000 13.0842 0.0000
# 4 0.0000 0.0000 0.0000 18.7490 0.0000 6.3618
# 5 32.0761 20.2533 13.0842 0.0000 27.7286 0.0000
# 6 0.0000 0.0000 0.0000 6.3618 0.0000 26.7135
#
#
#
# Elastic Compliance Matrix: (Units=1/GPa)
#
#
# Indices 1 2 3 4 5 6 
#
# 1 0.015341 -0.002415 -0.003257 0.000000 -0.014445 0.000000
# 2 -0.002415 0.011930 -0.000532 0.000000 -0.005669 0.000000
# 3 -0.003257 -0.000532 0.016594 0.000000 -0.003674 0.000000
# 4 0.000000 0.000000 0.000000 0.058025 0.000000 -0.013819
# 5 -0.014445 -0.005669 -0.003674 0.000000 0.058648 0.000000
# 6 0.000000 0.000000 0.000000 -0.013819 0.000000 0.040725
#
#
# Mechanical properties :
#
#
# Convention : Reuss Voigt Hill
#
# Bulk Modulus (GPa) = 31.78999 49.46817 40.62908
# Shear Modulus (GPa) = 22.30576 27.69869 25.00222
#
# Velocity S-wave (km/s) = 3.37803 3.76431 3.57639
# Velocity P-wave (km/s) = 5.61051 6.64832 6.15134
#
# Compressibility (1/GPa) = 0.03145644
#
# Stress axis : x y z
#
# Youngs Moduli (GPa) = 65.18486 83.82128 60.26352
#
# Poissons Ratio (x) = 0.20245 0.19630
# Poissons Ratio (y) = 0.15743 0.03204
# Poissons Ratio (z) = 0.21233 0.04457
#
# Static dielectric constant tensor:
#      x y z
#    x 1.752080 0.000000 0.002400 
#    y 0.000000 1.676980 0.000000 
#    z 0.002400 0.000000 1.838300 
# 
# From -- ./inp_files/1747.got.cif
#   From: 2010.05.17/outbox.cif.g08.bks.cpg/sg8_1_cif.got.tgz:1747.got - 2010.06.03 19:46:02.
