data_PCOD9132792
_publ_section_title
;
Structure prediction by ZEFSAII (Michael W. Deem and Ramdas Pophale) SiO2 
 PCOD9132792
Probable space group: C M
;
_chemical_formula_sum "Si O2"
_cell_formula_units_Z 22
_cell_length_a 13.553055
_cell_length_b 11.812302
_cell_length_c 7.633008
_cell_angle_alpha 90.000000
_cell_angle_beta 52.592023
_cell_angle_gamma 90.000000
_cell_volume 970.662950
_symmetry_space_group_name_H-M "C M"
_symmetry_group_IT_number 8
_symmetry_cell_setting 'monoclinic'
loop_
_space_group_symop_operation_xyz
x,y,z
x,-y,z
1/2+x,1/2+y,z
1/2+x,1/2-y,z
loop_
_atom_site_type_symbol
_atom_site_label
_atom_site_fract_x
_atom_site_fract_y
_atom_site_fract_z
Si Si1 0.714520 0.244928 0.482940
Si Si2 0.083984 0.500000 0.010393
Si Si3 0.365046 0.500000 0.720646
Si Si4 0.956114 0.754218 0.734603
Si Si5 0.733261 0.000000 0.507248
Si Si6 0.707296 0.366585 0.131199
Si Si7 0.482832 0.210154 0.323276
O O1 0.579718 0.250736 0.720480
O O2 0.734856 0.115290 0.399037
O O3 0.706775 0.336545 0.338120
O O4 0.836941 0.264408 0.463286
O O5 0.014824 0.608954 0.158743
O O6 0.223126 0.500000 0.940531
O O7 0.113959 0.500000 0.769903
O O8 0.428479 0.384346 0.712585
O O9 0.345049 0.500000 0.530854
O O10 0.996729 0.686937 0.515132
O O11 0.831535 0.696477 0.934322
O O12 0.711334 0.500000 0.096425
O O13 0.583404 0.309738 0.183931
#
# Coordination Sequence:
#
# PCOD9132792 Si02
#       7
#     4   2   2   4   2   4   4
#     4  11  27  38  72 102 131 180 229 273 341 400
#     4  10  22  40  77  95 136 181 224 277 337 407
#     4  10  20  46  71  89 135 185 213 283 332 406
#     4  11  25  43  70  99 136 177 230 272 345 396
#     4  10  22  46  70  94 139 184 221 276 341 403
#     4  11  27  45  68  99 142 177 226 283 336 399
#     4  11  24  44  69 103 134 180 226 273 342 404
#
# _framework density 22.664919000000001
#
# number of rings (size 3 to 8) (size 9 to 14) (size 15 to 20)
#    0.545    0.727    3.636    0.000   12.727    2.909 
#    0.000    0.000    4.000    0.000    0.000    0.000 
#    0.000    0.000    0.000    0.000    0.000    0.000 
#
# Total GULP energy -61393.107576 kJ/mol
# GULP energy per Si atom -5581.191598 kJ/mol
# Density = 2.261333 g / cm^3
# Si number density = 22.664919 Si / 1000 Ang^3
#
#
#
# Elastic Constant Matrix: (Units=GPa)
#
#
# Indices 1 2 3 4 5 6 
#
# 1 139.8248 44.4527 24.0593 0.0000 -51.3584 0.0000
# 2 44.4527 128.8487 16.9564 0.0000 -12.6521 0.0000
# 3 24.0593 16.9564 80.9100 0.0000 -23.3420 0.0000
# 4 0.0000 0.0000 0.0000 22.0474 0.0000 8.1272
# 5 -51.3584 -12.6521 -23.3420 0.0000 42.4613 0.0000
# 6 0.0000 0.0000 0.0000 8.1272 0.0000 17.7761
#
#
#
# Elastic Compliance Matrix: (Units=1/GPa)
#
#
# Indices 1 2 3 4 5 6 
#
# 1 0.014228 -0.003426 0.001376 0.000000 0.016945 0.000000
# 2 -0.003426 0.008915 -0.001520 0.000000 -0.002323 0.000000
# 3 0.001376 -0.001520 0.014997 0.000000 0.009455 0.000000
# 4 0.000000 0.000000 0.000000 0.054550 0.000000 -0.024940
# 5 0.016945 -0.002323 0.009455 0.000000 0.048552 0.000000
# 6 0.000000 0.000000 0.000000 -0.024940 0.000000 0.067658
#
#
# Mechanical properties :
#
#
# Convention : Reuss Voigt Hill
#
# Bulk Modulus (GPa) = 32.25845 57.83558 45.04701
# Shear Modulus (GPa) = 22.08745 34.06465 28.07605
#
# Velocity S-wave (km/s) = 3.12512 3.88102 3.52340
# Velocity P-wave (km/s) = 5.22355 6.75693 6.03911
#
# Compressibility (1/GPa) = 0.03099963
#
# Stress axis : x y z
#
# Youngs Moduli (GPa) = 70.28297 112.17209 66.68204
#
# Poissons Ratio (x) = 0.38429 -0.09173
# Poissons Ratio (y) = 0.24078 0.10134
# Poissons Ratio (z) = -0.09668 0.17047
#
# Static dielectric constant tensor:
#      x y z
#    x 1.885110 0.000000 -0.038680 
#    y 0.000000 1.825030 0.000000 
#    z -0.038680 0.000000 1.877040 
# 
# From -- ./inp_files/12398.got.cif
#   From: 2010.05.17/outbox.cif.g08.bks.cpg/sg8_7_cif.got.tgz:12398.got - 2010.06.03 19:46:02.
