data_PCOD9132545
_publ_section_title
;
Structure prediction by ZEFSAII (Michael W. Deem and Ramdas Pophale) SiO2 
 PCOD9132545
Probable space group: C M
;
_chemical_formula_sum "Si O2"
_cell_formula_units_Z 24
_cell_length_a 8.195795
_cell_length_b 16.759506
_cell_length_c 7.267929
_cell_angle_alpha 90.000000
_cell_angle_beta 92.323134
_cell_angle_gamma 90.000000
_cell_volume 997.483883
_symmetry_space_group_name_H-M "C M"
_symmetry_group_IT_number 8
_symmetry_cell_setting 'monoclinic'
loop_
_space_group_symop_operation_xyz
x,y,z
x,-y,z
1/2+x,1/2+y,z
1/2+x,1/2-y,z
loop_
_atom_site_type_symbol
_atom_site_label
_atom_site_fract_x
_atom_site_fract_y
_atom_site_fract_z
Si Si1 0.297460 0.500000 0.650920
Si Si2 0.408638 0.000000 0.566065
Si Si3 0.712530 0.500000 0.172190
Si Si4 0.876253 0.336790 0.146407
Si Si5 0.347807 0.334849 0.687663
Si Si6 0.325832 0.500000 0.098233
Si Si7 0.227058 0.330310 0.075200
Si Si8 0.471191 0.164917 0.571647
O O1 0.401649 0.420584 0.613437
O O2 0.277998 0.500000 0.875946
O O3 0.111738 0.500000 0.559176
O O4 0.294206 0.000000 0.379900
O O5 0.381452 0.912719 0.653622
O O6 0.777691 0.416399 0.092649
O O7 0.518192 0.500000 0.144621
O O8 0.770266 0.256092 0.158650
O O9 0.951660 0.346851 0.352837
O O10 0.034266 0.327610 0.023755
O O11 0.413989 0.253102 0.615812
O O12 0.157924 0.336420 0.632741
O O13 0.350001 0.334500 0.907900
O O14 0.255844 0.416254 0.172343
#
# Coordination Sequence:
#
# PCOD9132545 Si02
#       8
#     2   2   2   4   4   2   4   4
#     4   8  18  37  59  81 113 154 196 240 295 361
#     4   8  18  37  59  81 113 154 196 240 295 361
#     4  10  21  37  60  91 124 158 201 252 306 367
#     4  11  22  38  60  89 123 163 203 251 306 364
#     4  10  20  37  59  83 113 152 197 245 295 356
#     4  10  21  37  60  91 124 158 201 252 306 367
#     4  11  22  38  60  89 123 163 203 251 306 364
#     4  10  20  37  59  83 113 152 197 245 295 356
#
# _framework density 24.06054
#
# number of rings (size 3 to 8) (size 9 to 14) (size 15 to 20)
#    0.000    2.000    0.000    3.500    0.000    2.667 
#    0.000    5.833    0.000    0.000    0.000    0.000 
#    0.000    0.000    0.000    0.000    0.000    0.000 
#
# Total GULP energy -66917.490267 kJ/mol
# GULP energy per Si atom -5576.457522 kJ/mol
# Density = 2.400578 g / cm^3
# Si number density = 24.060540 Si / 1000 Ang^3
#
#
#
# Elastic Constant Matrix: (Units=GPa)
#
#
# Indices 1 2 3 4 5 6 
#
# 1 78.4369 73.5972 -5.8022 0.0000 19.5663 0.0000
# 2 73.5972 249.9335 26.0360 0.0000 0.6570 0.0000
# 3 -5.8022 26.0360 47.4414 0.0000 8.6680 0.0000
# 4 0.0000 0.0000 0.0000 24.2887 0.0000 1.7455
# 5 19.5663 0.6570 8.6680 0.0000 28.9301 0.0000
# 6 0.0000 0.0000 0.0000 1.7455 0.0000 42.7910
#
#
#
# Elastic Compliance Matrix: (Units=1/GPa)
#
#
# Indices 1 2 3 4 5 6 
#
# 1 0.028551 -0.009703 0.013017 0.000000 -0.022990 0.000000
# 2 -0.009703 0.007552 -0.006876 0.000000 0.008451 0.000000
# 3 0.013017 -0.006876 0.029647 0.000000 -0.017531 0.000000
# 4 0.000000 0.000000 0.000000 0.041292 0.000000 -0.001684
# 5 -0.022990 0.008451 -0.017531 0.000000 0.055176 0.000000
# 6 0.000000 0.000000 0.000000 -0.001684 0.000000 0.023438
#
#
# Mechanical properties :
#
#
# Convention : Reuss Voigt Hill
#
# Bulk Modulus (GPa) = 17.05657 62.60821 39.83239
# Shear Modulus (GPa) = 23.54916 38.00068 30.77492
#
# Velocity S-wave (km/s) = 3.13189 3.97845 3.58028
# Velocity P-wave (km/s) = 4.49252 6.86889 5.80364
#
# Compressibility (1/GPa) = 0.05862842
#
# Stress axis : x y z
#
# Youngs Moduli (GPa) = 35.02465 132.40991 33.73023
#
# Poissons Ratio (x) = 1.28478 -0.43908
# Poissons Ratio (y) = 0.33985 0.23191
# Poissons Ratio (z) = -0.45593 0.91038
#
# Static dielectric constant tensor:
#      x y z
#    x 1.863900 0.000000 -0.068650 
#    y 0.000000 2.137430 0.000000 
#    z -0.068650 0.000000 2.044020 
# 
# From -- ./inp_files/7862.got.cif
#   From: 2010.05.17/outbox.cif.g08.bks.cpg/sg8_4_cif.got.tgz:7862.got - 2010.06.03 19:46:02.
