data_PCOD9132414
_publ_section_title
;
Structure prediction by ZEFSAII (Michael W. Deem and Ramdas Pophale) SiO2 
 PCOD9132414
Probable space group: C M
;
_chemical_formula_sum "Si O2"
_cell_formula_units_Z 32
_cell_length_a 9.817137
_cell_length_b 18.510254
_cell_length_c 13.050317
_cell_angle_alpha 90.000000
_cell_angle_beta 42.264824
_cell_angle_gamma 90.000000
_cell_volume 1594.954240
_symmetry_space_group_name_H-M "C M"
_symmetry_group_IT_number 8
_symmetry_cell_setting 'monoclinic'
loop_
_space_group_symop_operation_xyz
x,y,z
x,-y,z
1/2+x,1/2+y,z
1/2+x,1/2-y,z
loop_
_atom_site_type_symbol
_atom_site_label
_atom_site_fract_x
_atom_site_fract_y
_atom_site_fract_z
Si Si1 0.361200 0.181493 0.775380
Si Si2 0.115789 0.151159 0.416181
Si Si3 0.421869 0.085914 0.930239
Si Si4 0.877175 0.913836 0.739299
Si Si5 0.519855 0.349067 0.251508
Si Si6 0.094947 0.325456 0.432513
Si Si7 0.946117 0.183098 0.884778
Si Si8 0.037994 0.674736 0.236972
O O1 0.395934 0.112967 0.828611
O O2 0.491628 0.166913 0.600378
O O3 0.416157 0.248623 0.822261
O O4 0.136618 0.194041 0.854101
O O5 0.004392 0.125455 0.376763
O O6 0.106663 0.238139 0.420932
O O7 0.355870 0.137222 0.277350
O O8 0.007540 0.120128 0.575225
O O9 0.640947 0.108721 0.853875
O O10 0.409996 0.000000 0.944802
O O11 0.229416 0.121529 0.092462
O O12 0.965399 0.883332 0.795829
O O13 0.885846 0.000000 0.730335
O O14 0.311838 0.365099 0.310466
O O15 0.524227 0.261976 0.244582
O O16 0.000732 0.347268 0.376101
O O17 0.753524 0.164724 0.063410
#
# Coordination Sequence:
#
# PCOD9132414 Si02
#       8
#     4   4   4   4   4   4   4   4
#     4  12  24  39  66  95 127 167 211 268 323 373
#     4  10  20  35  59  87 125 161 204 260 310 374
#     4  11  24  42  64  93 131 173 215 261 317 380
#     4  11  24  42  64  93 131 173 215 261 317 380
#     4  10  20  35  59  87 125 161 204 260 310 374
#     4  10  21  35  59  91 123 158 203 260 318 370
#     4  12  24  39  66  95 127 167 211 268 323 373
#     4  10  21  35  59  91 123 158 203 260 318 370
#
# _framework density 20.063272000000001
#
# number of rings (size 3 to 8) (size 9 to 14) (size 15 to 20)
#    0.000    1.250    2.500    3.750    7.000    1.000 
#    0.000    1.250    0.000    3.000    0.000    0.000 
#    0.000    0.000    0.000    0.000    0.000    0.000 
#
# Total GULP energy -89207.680998 kJ/mol
# GULP energy per Si atom -5575.480062 kJ/mol
# Density = 2.001761 g / cm^3
# Si number density = 20.063272 Si / 1000 Ang^3
#
#
#
# Elastic Constant Matrix: (Units=GPa)
#
#
# Indices 1 2 3 4 5 6 
#
# 1 74.1099 22.3527 -17.9970 -0.0007 -5.1413 0.0002
# 2 22.3527 27.2281 -5.7251 -0.0002 -4.9056 0.0000
# 3 -17.9970 -5.7251 55.9807 -0.0010 0.9926 0.0004
# 4 -0.0007 -0.0002 -0.0010 11.3164 0.0008 -4.2814
# 5 -5.1413 -4.9056 0.9926 0.0008 36.5189 -0.0003
# 6 0.0002 0.0000 0.0004 -4.2814 -0.0003 19.0454
#
#
#
# Elastic Compliance Matrix: (Units=1/GPa)
#
#
# Indices 1 2 3 4 5 6 
#
# 1 0.019049 -0.014557 0.004625 0.000001 0.000601 0.000000
# 2 -0.014557 0.049571 0.000308 -0.000001 0.004601 0.000000
# 3 0.004625 0.000308 0.019379 0.000002 0.000166 0.000000
# 4 0.000001 -0.000001 0.000002 0.096581 -0.000002 0.021711
# 5 0.000601 0.004601 0.000166 -0.000002 0.028081 0.000000
# 6 0.000000 0.000000 0.000000 0.021711 0.000000 0.057387
#
#
# Mechanical properties :
#
#
# Convention : Reuss Voigt Hill
#
# Bulk Modulus (GPa) = 14.54568 17.17554 15.86061
# Shear Modulus (GPa) = 16.01465 23.95535 19.98500
#
# Velocity S-wave (km/s) = 2.82832 3.45917 3.15953
# Velocity P-wave (km/s) = 4.23456 4.95315 4.60789
#
# Compressibility (1/GPa) = 0.06874896
#
# Stress axis : x y z
#
# Youngs Moduli (GPa) = 52.49644 20.17297 51.60334
#
# Poissons Ratio (x) = 0.29367 -0.23864
# Poissons Ratio (y) = 0.76421 -0.01589
# Poissons Ratio (z) = -0.24277 -0.00621
#
# Static dielectric constant tensor:
#      x y z
#    x 1.740150 0.000000 -0.013450 
#    y 0.000000 1.690490 0.000000 
#    z -0.013450 0.000000 1.754620 
# 
# From -- ./inp_files/19257.got.cif
#   From: 2010.05.17/outbox.cif.g08.bks.cpg/sg8_10_cif.got.tgz:19257.got - 2010.06.03 19:46:02.
