data_PCOD9132465
_publ_section_title
;
Structure prediction by ZEFSAII (Michael W. Deem and Ramdas Pophale) SiO2 
 PCOD9132465
Probable space group: C M
;
_chemical_formula_sum "Si O2"
_cell_formula_units_Z 32
_cell_length_a 8.342626
_cell_length_b 23.406128
_cell_length_c 15.659390
_cell_angle_alpha 90.000000
_cell_angle_beta 151.201833
_cell_angle_gamma 90.000000
_cell_volume 1473.014264
_symmetry_space_group_name_H-M "C M"
_symmetry_group_IT_number 8
_symmetry_cell_setting 'monoclinic'
loop_
_space_group_symop_operation_xyz
x,y,z
x,-y,z
1/2+x,1/2+y,z
1/2+x,1/2-y,z
loop_
_atom_site_type_symbol
_atom_site_label
_atom_site_fract_x
_atom_site_fract_y
_atom_site_fract_z
Si Si1 0.483270 0.434928 0.615610
Si Si2 0.344327 0.702626 0.700587
Si Si3 0.141589 0.815555 0.656799
Si Si4 0.670256 0.412288 0.880806
Si Si5 0.265346 0.931257 0.234631
Si Si6 0.746646 0.647763 0.525708
Si Si7 0.917635 0.934592 0.246746
Si Si8 0.791811 0.065224 0.867347
O O1 0.563901 0.500000 0.629852
O O2 0.731814 0.381478 0.721005
O O3 0.432824 0.434707 0.694187
O O4 0.153355 0.415825 0.410829
O O5 0.405388 0.763937 0.773448
O O6 0.392863 0.700589 0.619601
O O7 0.607212 0.655372 0.854433
O O8 0.982814 0.683119 0.569666
O O9 0.067562 0.818676 0.519899
O O10 0.568180 0.437676 0.922660
O O11 0.044588 0.429985 0.037683
O O12 0.155401 0.919397 0.279342
O O13 0.259016 0.000000 0.221043
O O14 0.993481 0.909023 0.041533
O O15 0.484346 0.609839 0.352413
O O16 0.006666 0.603862 0.692059
O O17 0.981866 0.000000 0.303820
O O18 0.683052 0.000000 0.834473
#
# Coordination Sequence:
#
# PCOD9132465 Si02
#       8
#     4   4   4   4   4   4   4   4
#     4  10  21  38  64  97 129 174 216 266 339 394
#     4  10  22  44  69  91 126 172 226 273 329 382
#     4  11  22  40  72  93 125 171 219 278 323 388
#     4  10  22  38  64  91 129 175 215 270 323 393
#     4   9  20  36  58  91 137 172 208 262 324 397
#     4  11  24  40  66  95 128 174 221 268 327 388
#     4  11  22  38  61  97 138 173 215 270 330 395
#     4  10  20  36  58  93 133 171 211 263 327 393
#
# _framework density 21.724160999999999
#
# number of rings (size 3 to 8) (size 9 to 14) (size 15 to 20)
#    0.000    1.750    1.250    3.750    5.250    2.000 
#    0.000    0.000    8.250    0.000    0.000    0.000 
#    0.000    0.000    0.000    0.000    0.000    0.000 
#
# Total GULP energy -89087.259837 kJ/mol
# GULP energy per Si atom -5567.953740 kJ/mol
# Density = 2.167472 g / cm^3
# Si number density = 21.724161 Si / 1000 Ang^3
#
#
#
# Elastic Constant Matrix: (Units=GPa)
#
#
# Indices 1 2 3 4 5 6 
#
# 1 120.9960 23.0116 14.5317 0.0005 -4.2372 0.0009
# 2 23.0116 113.4428 10.5509 -0.0001 4.1936 -0.0004
# 3 14.5317 10.5509 81.1673 0.0009 -7.4102 0.0023
# 4 0.0005 -0.0001 0.0009 17.7196 0.0007 -8.4070
# 5 -4.2372 4.1936 -7.4102 0.0007 17.9756 0.0021
# 6 0.0009 -0.0004 0.0023 -8.4070 0.0021 26.3047
#
#
#
# Elastic Compliance Matrix: (Units=1/GPa)
#
#
# Indices 1 2 3 4 5 6 
#
# 1 0.008808 -0.001752 -0.001166 -0.000001 0.002004 -0.000001
# 2 -0.001752 0.009396 -0.001190 0.000001 -0.003096 0.000001
# 3 -0.001166 -0.001190 0.013180 -0.000002 0.005436 -0.000002
# 4 -0.000001 0.000001 -0.000002 0.066522 -0.000006 0.021260
# 5 0.002004 -0.003096 0.005436 -0.000006 0.059067 -0.000007
# 6 -0.000001 0.000001 -0.000002 0.021260 -0.000007 0.044811
#
#
# Mechanical properties :
#
#
# Convention : Reuss Voigt Hill
#
# Bulk Modulus (GPa) = 43.16610 45.75494 44.46052
# Shear Modulus (GPa) = 22.96500 30.23410 26.59955
#
# Velocity S-wave (km/s) = 3.25486 3.73463 3.50297
# Velocity P-wave (km/s) = 5.83427 6.30112 6.07219
#
# Compressibility (1/GPa) = 0.02316633
#
# Stress axis : x y z
#
# Youngs Moduli (GPa) = 113.52979 106.43267 75.87239
#
# Poissons Ratio (x) = 0.18651 0.08848
# Poissons Ratio (y) = 0.19894 0.09030
# Poissons Ratio (z) = 0.13240 0.12668
#
# Static dielectric constant tensor:
#      x y z
#    x 1.904390 0.000000 -0.006840 
#    y 0.000000 1.884100 0.000000 
#    z -0.006840 0.000000 1.743660 
# 
# From -- ./inp_files/9026.got.cif
#   From: 2010.05.17/outbox.cif.g08.bks.cpg/sg8_5_cif.got.tgz:9026.got - 2010.06.03 19:46:02.
