data_PCOD9132498
_publ_section_title
;
Structure prediction by ZEFSAII (Michael W. Deem and Ramdas Pophale) SiO2 
 PCOD9132498
Probable space group: C M
;
_chemical_formula_sum "Si O2"
_cell_formula_units_Z 32
_cell_length_a 15.608888
_cell_length_b 8.554573
_cell_length_c 23.383426
_cell_angle_alpha 90.000000
_cell_angle_beta 148.272617
_cell_angle_gamma 90.000000
_cell_volume 1641.963965
_symmetry_space_group_name_H-M "C M"
_symmetry_group_IT_number 8
_symmetry_cell_setting 'monoclinic'
loop_
_space_group_symop_operation_xyz
x,y,z
x,-y,z
1/2+x,1/2+y,z
1/2+x,1/2-y,z
loop_
_atom_site_type_symbol
_atom_site_label
_atom_site_fract_x
_atom_site_fract_y
_atom_site_fract_z
Si Si1 0.076560 0.688342 0.776400
Si Si2 0.509868 0.815313 0.559235
Si Si3 0.414591 0.310704 0.170092
Si Si4 0.417827 0.689061 0.302410
Si Si5 0.275303 0.815089 0.535533
Si Si6 0.768946 0.688430 0.326550
Si Si7 0.619524 0.314324 0.928256
Si Si8 0.789699 0.315122 0.792853
O O1 0.074923 0.500000 0.773856
O O2 0.112014 0.744840 0.860105
O O3 0.206671 0.745171 0.802873
O O4 0.898394 0.747501 0.653553
O O5 0.374233 0.802285 0.532267
O O6 0.421851 0.757481 0.452011
O O7 0.666837 0.725244 0.670926
O O8 0.550081 0.000000 0.576852
O O9 0.405691 0.500000 0.162250
O O10 0.385657 0.262363 0.219210
O O11 0.597731 0.264314 0.256796
O O12 0.281900 0.240801 0.052534
O O13 0.422151 0.500000 0.305199
O O14 0.595168 0.749788 0.424080
O O15 0.287744 0.749094 0.273640
O O16 0.255599 0.000000 0.535905
O O17 0.774099 0.500000 0.330172
O O18 0.614793 0.500000 0.921730
O O19 0.463883 0.255557 0.875909
O O20 0.803624 0.500000 0.807263
#
# Coordination Sequence:
#
# PCOD9132498 Si02
#       8
#     4   4   4   4   4   4   4   4
#     4  10  21  40  65  93 126 162 204 254 311 369
#     4   9  17  35  60  87 123 163 200 245 304 365
#     4  10  22  43  64  83 118 165 208 249 303 367
#     4  10  20  36  60  89 119 156 201 248 301 364
#     4   8  15  32  59  87 119 156 193 238 297 362
#     4  10  21  37  60  89 120 158 201 249 305 364
#     4  12  26  43  64  90 123 164 213 261 308 367
#     4  11  23  40  62  92 126 164 208 254 309 368
#
# _framework density 19.488855999999998
#
# number of rings (size 3 to 8) (size 9 to 14) (size 15 to 20)
#    0.000    2.000    1.250    3.375    1.750    2.500 
#    0.000    5.000    0.000    0.000    0.000    0.000 
#    0.000    0.000    0.000    0.000    0.000    0.000 
#
# Total GULP energy -89358.231083 kJ/mol
# GULP energy per Si atom -5584.889443 kJ/mol
# Density = 1.944450 g / cm^3
# Si number density = 19.488856 Si / 1000 Ang^3
#
#
#
# Elastic Constant Matrix: (Units=GPa)
#
#
# Indices 1 2 3 4 5 6 
#
# 1 76.6364 17.9990 28.4130 0.0000 -31.3682 0.0000
# 2 17.9990 51.3723 21.1431 0.0000 -6.7822 0.0000
# 3 28.4130 21.1431 81.3587 0.0001 -27.7779 0.0000
# 4 0.0000 0.0000 0.0001 21.8494 0.0000 0.8058
# 5 -31.3682 -6.7822 -27.7779 0.0000 27.4566 0.0000
# 6 0.0000 0.0000 0.0000 0.8058 0.0000 29.4618
#
#
#
# Elastic Compliance Matrix: (Units=1/GPa)
#
#
# Indices 1 2 3 4 5 6 
#
# 1 0.026395 -0.006412 0.003366 0.000000 0.031977 0.000000
# 2 -0.006412 0.023359 -0.006664 0.000000 -0.008297 0.000000
# 3 0.003366 -0.006664 0.020774 0.000000 0.023217 0.000000
# 4 0.000000 0.000000 0.000000 0.045814 0.000000 -0.001253
# 5 0.031977 -0.008297 0.023217 0.000000 0.094393 0.000000
# 6 0.000000 0.000000 0.000000 -0.001253 0.000000 0.033977
#
#
# Mechanical properties :
#
#
# Convention : Reuss Voigt Hill
#
# Bulk Modulus (GPa) = 19.56583 38.27528 28.92055
# Shear Modulus (GPa) = 17.78291 25.20771 21.49531
#
# Velocity S-wave (km/s) = 3.02398 3.60035 3.32468
# Velocity P-wave (km/s) = 4.71741 6.07993 5.44148
#
# Compressibility (1/GPa) = 0.05110952
#
# Stress axis : x y z
#
# Youngs Moduli (GPa) = 37.88572 42.80917 48.13613
#
# Poissons Ratio (x) = 0.27447 -0.16203
# Poissons Ratio (y) = 0.24291 0.32079
# Poissons Ratio (z) = -0.12752 0.28529
#
# Static dielectric constant tensor:
#      x y z
#    x 1.671200 0.000000 -0.002100 
#    y 0.000000 1.660970 0.000000 
#    z -0.002100 0.000000 1.678650 
# 
# From -- ./inp_files/28190.got.cif
#   From: 2010.05.17/outbox.cif.g08.bks.cpg/sg8_15_cif.got.tgz:28190.got - 2010.06.03 19:46:02.
