data_PCOD9132468
_publ_section_title
;
Structure prediction by ZEFSAII (Michael W. Deem and Ramdas Pophale) SiO2 
 PCOD9132468
Probable space group: C M
;
_chemical_formula_sum "Si O2"
_cell_formula_units_Z 28
_cell_length_a 21.970312
_cell_length_b 13.823590
_cell_length_c 9.020752
_cell_angle_alpha 90.000000
_cell_angle_beta 34.797216
_cell_angle_gamma 90.000000
_cell_volume 1563.463135
_symmetry_space_group_name_H-M "C M"
_symmetry_group_IT_number 8
_symmetry_cell_setting 'monoclinic'
loop_
_space_group_symop_operation_xyz
x,y,z
x,-y,z
1/2+x,1/2+y,z
1/2+x,1/2-y,z
loop_
_atom_site_type_symbol
_atom_site_label
_atom_site_fract_x
_atom_site_fract_y
_atom_site_fract_z
Si Si1 0.546730 0.111504 0.262820
Si Si2 0.477690 0.798248 0.701758
Si Si3 0.477708 0.701765 0.250331
Si Si4 0.119572 0.749988 0.692294
Si Si5 0.746621 0.113647 0.657097
Si Si6 0.246597 0.886355 0.219342
Si Si7 0.546680 0.611501 0.413268
O O1 0.537071 0.143293 0.452288
O O2 0.475577 0.187154 0.311972
O O3 0.514797 0.000000 0.308218
O O4 0.665396 0.122966 0.958572
O O5 0.544466 0.799284 0.719227
O O6 0.475535 0.687164 0.648699
O O7 0.360839 0.841198 0.955848
O O8 0.360851 0.658842 0.463604
O O9 0.537038 0.643283 0.262395
O O10 0.544507 0.700720 0.965731
O O11 0.191749 0.672044 0.633233
O O12 0.191761 0.827916 0.462608
O O13 0.756802 0.000000 0.603106
O O14 0.165350 0.877044 0.242835
O O15 0.256750 0.000000 0.232707
O O16 0.514736 0.500000 0.495634
#
# Coordination Sequence:
#
# PCOD9132468 Si02
#       7
#     4   4   4   4   4   4   4
#     4   9  20  37  58  83 109 142 187 235 280 329
#     4  10  20  36  59  82 113 147 184 231 279 329
#     4  10  20  36  59  82 113 147 184 231 279 329
#     4  10  22  38  54  82 114 148 186 228 274 330
#     4  10  21  38  58  82 113 147 186 231 278 330
#     4  10  21  38  58  82 113 147 186 231 278 330
#     4   9  20  37  58  83 109 142 187 235 280 329
#
# _framework density 17.90896
#
# number of rings (size 3 to 8) (size 9 to 14) (size 15 to 20)
#    0.000    2.286    0.000    1.714    0.000   11.429 
#    0.000    7.143    0.000    1.714    0.000    0.000 
#    0.000    0.000    0.000    0.000    0.000    0.000 
#
# Total GULP energy -78117.974306 kJ/mol
# GULP energy per Si atom -5579.855308 kJ/mol
# Density = 1.786820 g / cm^3
# Si number density = 17.908960 Si / 1000 Ang^3
#
#
#
# Elastic Constant Matrix: (Units=GPa)
#
#
# Indices 1 2 3 4 5 6 
#
# 1 130.7789 77.3609 97.8131 0.0000 9.9625 0.0000
# 2 77.3609 159.8537 93.4520 0.0000 -14.4772 0.0000
# 3 97.8131 93.4520 123.1928 0.0000 -3.1768 0.0000
# 4 0.0000 0.0000 0.0000 28.4341 0.0000 -9.2701
# 5 9.9625 -14.4772 -3.1768 0.0000 22.7482 0.0000
# 6 0.0000 0.0000 0.0000 -9.2701 0.0000 18.1328
#
#
#
# Elastic Compliance Matrix: (Units=1/GPa)
#
#
# Indices 1 2 3 4 5 6 
#
# 1 0.022186 -0.002636 -0.015966 0.000000 -0.013624 0.000000
# 2 -0.002636 0.012429 -0.007127 0.000000 0.008069 0.000000
# 3 -0.015966 -0.007127 0.026359 0.000000 0.006138 0.000000
# 4 0.000000 0.000000 0.000000 0.042203 0.000000 0.021576
# 5 -0.013624 0.008069 0.006138 0.000000 0.055919 0.000000
# 6 0.000000 0.000000 0.000000 0.021576 0.000000 0.066179
#
#
# Mechanical properties :
#
#
# Convention : Reuss Voigt Hill
#
# Bulk Modulus (GPa) = 105.10820 105.67527 105.39173
# Shear Modulus (GPa) = 17.86319 23.54296 20.70308
#
# Velocity S-wave (km/s) = 3.16166 3.62966 3.40371
# Velocity P-wave (km/s) = 8.49387 8.75791 8.62690
#
# Compressibility (1/GPa) = 0.00951401
#
# Stress axis : x y z
#
# Youngs Moduli (GPa) = 45.07446 80.45740 37.93758
#
# Poissons Ratio (x) = 0.21212 0.60572
# Poissons Ratio (y) = 0.11883 0.27038
# Poissons Ratio (z) = 0.71967 0.57342
#
# Static dielectric constant tensor:
#      x y z
#    x 1.599300 0.000000 0.009480 
#    y 0.000000 1.614770 0.000000 
#    z 0.009480 0.000000 1.588770 
# 
# From -- ./inp_files/10463.got.cif
#   From: 2010.05.17/outbox.cif.g08.bks.cpg/sg8_6_cif.got.tgz:10463.got - 2010.06.03 19:46:02.
