data_PCOD9132856
_publ_section_title
;
Structure prediction by ZEFSAII (Michael W. Deem and Ramdas Pophale) SiO2 
 PCOD9132856
Probable space group: C M
;
_chemical_formula_sum "Si O2"
_cell_formula_units_Z 28
_cell_length_a 9.310405
_cell_length_b 13.693007
_cell_length_c 12.801376
_cell_angle_alpha 90.000000
_cell_angle_beta 129.069930
_cell_angle_gamma 90.000000
_cell_volume 1267.059126
_symmetry_space_group_name_H-M "C M"
_symmetry_group_IT_number 8
_symmetry_cell_setting 'monoclinic'
loop_
_space_group_symop_operation_xyz
x,y,z
x,-y,z
1/2+x,1/2+y,z
1/2+x,1/2-y,z
loop_
_atom_site_type_symbol
_atom_site_label
_atom_site_fract_x
_atom_site_fract_y
_atom_site_fract_z
Si Si1 0.787120 0.614350 0.011060
Si Si2 0.636233 0.761503 0.637131
Si Si3 0.680426 0.186379 0.250850
Si Si4 0.286196 0.615111 0.512840
Si Si5 0.054143 0.718343 0.822751
Si Si6 0.696344 0.395479 0.213927
Si Si7 0.284482 0.606350 0.097321
O O1 0.802856 0.500000 0.990841
O O2 0.732975 0.619310 0.108611
O O3 0.983534 0.671522 0.101715
O O4 0.633859 0.670917 0.872703
O O5 0.469457 0.681550 0.568973
O O6 0.669640 0.832231 0.552206
O O7 0.613440 0.819203 0.736034
O O8 0.835745 0.710047 0.733481
O O9 0.673484 0.125078 0.352805
O O10 0.738552 0.297837 0.297110
O O11 0.822598 0.149468 0.228927
O O12 0.323416 0.500000 0.550792
O O13 0.150681 0.665599 0.962528
O O14 0.778051 0.500000 0.285340
O O15 0.476809 0.401138 0.126525
O O16 0.203936 0.500000 0.078276
#
# Coordination Sequence:
#
# PCOD9132856 Si02
#       7
#     4   4   4   4   4   4   4
#     4  11  22  37  66 103 135 174 213 272 354 417
#     4  10  26  44  69  96 133 187 239 283 334 391
#     4  12  22  42  64  97 138 171 217 279 346 410
#     4  11  27  50  71  98 138 186 239 288 335 405
#     4  11  20  41  65  98 138 174 222 287 339 404
#     4  10  21  36  59  97 137 169 205 259 340 418
#     4  11  22  36  62  99 131 167 207 268 350 411
#
# _framework density 22.098419
#
# number of rings (size 3 to 8) (size 9 to 14) (size 15 to 20)
#    0.000    1.143    2.857    3.000    4.000    3.429 
#    0.000    2.143    0.000    0.000    0.000    0.000 
#    0.000    0.000    0.000    0.000    0.000    0.000 
#
# Total GULP energy -78122.599045 kJ/mol
# GULP energy per Si atom -5580.185646 kJ/mol
# Density = 2.204812 g / cm^3
# Si number density = 22.098419 Si / 1000 Ang^3
#
#
#
# Elastic Constant Matrix: (Units=GPa)
#
#
# Indices 1 2 3 4 5 6 
#
# 1 140.8053 28.4653 37.9963 0.0000 -14.1457 0.0000
# 2 28.4653 165.1011 31.1874 0.0000 -6.4757 0.0000
# 3 37.9963 31.1874 71.8917 0.0000 -12.4526 0.0000
# 4 0.0000 0.0000 0.0000 35.9888 0.0000 -8.9581
# 5 -14.1457 -6.4757 -12.4526 0.0000 30.4356 0.0000
# 6 0.0000 0.0000 0.0000 -8.9581 0.0000 27.2958
#
#
#
# Elastic Compliance Matrix: (Units=1/GPa)
#
#
# Indices 1 2 3 4 5 6 
#
# 1 0.008489 -0.000655 -0.003813 0.000000 0.002246 0.000000
# 2 -0.000655 0.006650 -0.002525 0.000000 0.000077 0.000000
# 3 -0.003813 -0.002525 0.017888 0.000000 0.005009 0.000000
# 4 0.000000 0.000000 0.000000 0.030258 0.000000 0.009930
# 5 0.002246 0.000077 0.005009 0.000000 0.035966 0.000000
# 6 0.000000 0.000000 0.000000 0.009930 0.000000 0.039895
#
#
# Mechanical properties :
#
#
# Convention : Reuss Voigt Hill
#
# Bulk Modulus (GPa) = 52.52133 63.67736 58.09934
# Shear Modulus (GPa) = 31.35179 37.42064 34.38621
#
# Velocity S-wave (km/s) = 3.77070 4.11951 3.94896
# Velocity P-wave (km/s) = 6.54035 7.17670 6.86590
#
# Compressibility (1/GPa) = 0.01903988
#
# Stress axis : x y z
#
# Youngs Moduli (GPa) = 117.79749 150.37867 55.90214
#
# Poissons Ratio (x) = 0.09853 0.21318
# Poissons Ratio (y) = 0.07718 0.14116
# Poissons Ratio (z) = 0.44922 0.37973
#
# Static dielectric constant tensor:
#      x y z
#    x 1.834910 0.000000 0.014190 
#    y 0.000000 1.904870 0.000000 
#    z 0.014190 0.000000 1.808540 
# 
# From -- ./inp_files/18801.got.cif
#   From: 2010.05.17/outbox.cif.g08.bks.cpg/sg8_10_cif.got.tgz:18801.got - 2010.06.03 19:46:02.
