data_PCOD9132622
_publ_section_title
;
Structure prediction by ZEFSAII (Michael W. Deem and Ramdas Pophale) SiO2 
 PCOD9132622
Probable space group: C M
;
_chemical_formula_sum "Si O2"
_cell_formula_units_Z 32
_cell_length_a 17.906921
_cell_length_b 22.113794
_cell_length_c 9.417733
_cell_angle_alpha 90.000000
_cell_angle_beta 27.498616
_cell_angle_gamma 90.000000
_cell_volume 1721.932004
_symmetry_space_group_name_H-M "C M"
_symmetry_group_IT_number 8
_symmetry_cell_setting 'monoclinic'
loop_
_space_group_symop_operation_xyz
x,y,z
x,-y,z
1/2+x,1/2+y,z
1/2+x,1/2-y,z
loop_
_atom_site_type_symbol
_atom_site_label
_atom_site_fract_x
_atom_site_fract_y
_atom_site_fract_z
Si Si1 0.719400 0.072977 0.559110
Si Si2 0.146504 0.929063 0.490510
Si Si3 0.098255 0.928101 0.896646
Si Si4 0.215386 0.757730 0.992112
Si Si5 0.369776 0.873037 0.631258
Si Si6 0.659164 0.860836 0.944151
Si Si7 0.964325 0.569794 0.767391
Si Si8 0.459813 0.663364 0.604518
O O1 0.645755 0.111421 0.811926
O O2 0.629404 0.089311 0.564681
O O3 0.696758 0.000000 0.618565
O O4 0.909416 0.086070 0.231840
O O5 0.150109 0.911052 0.649365
O O6 0.036787 0.883208 0.584676
O O7 0.091831 0.000000 0.574109
O O8 0.323777 0.926542 0.122225
O O9 0.210619 0.899888 0.827150
O O10 0.116175 0.000000 0.877440
O O11 0.333571 0.802378 0.708980
O O12 0.139433 0.711509 0.004370
O O13 0.331725 0.712172 0.885015
O O14 0.094788 0.798399 0.289511
O O15 0.407769 0.895240 0.724776
O O16 0.522796 0.888308 0.275692
O O17 0.841438 0.872002 0.694787
O O18 0.982506 0.500000 0.694489
#
# Coordination Sequence:
#
# PCOD9132622 Si02
#       8
#     4   4   4   4   4   4   4   4
#     4  10  22  40  59  89 129 162 201 258 314 370
#     4  10  21  39  63  92 126 162 205 258 315 371
#     4  10  23  40  61  90 127 163 203 259 318 373
#     4  10  20  38  59  89 122 159 203 255 299 364
#     4  12  21  38  64  87 121 163 208 252 306 371
#     4  10  22  37  61  87 118 163 206 253 306 358
#     4  10  22  37  60  91 124 161 203 255 309 372
#     4  10  20  39  63  91 124 165 203 260 305 369
#
# _framework density 18.583777000000001
#
# number of rings (size 3 to 8) (size 9 to 14) (size 15 to 20)
#    0.750    1.000    2.500    1.875    1.750    2.500 
#    0.000    1.250    0.000    0.000    0.000    0.000 
#    0.000    0.000    0.000    0.000    0.000    0.000 
#
# Total GULP energy -89131.208651 kJ/mol
# GULP energy per Si atom -5570.700541 kJ/mol
# Density = 1.854148 g / cm^3
# Si number density = 18.583777 Si / 1000 Ang^3
#
#
#
# Elastic Constant Matrix: (Units=GPa)
#
#
# Indices 1 2 3 4 5 6 
#
# 1 132.3251 54.5663 45.9798 0.0104 -6.7711 -0.0213
# 2 54.5663 50.6218 35.1723 0.0114 -2.2045 -0.0173
# 3 45.9798 35.1723 67.5285 0.1011 3.0458 -0.1860
# 4 0.0104 0.0114 0.1011 128.3039 -0.0002 -189.4993
# 5 -6.7711 -2.2045 3.0458 -0.0002 31.8821 0.0023
# 6 -0.0213 -0.0173 -0.1860 -189.4993 0.0023 351.6805
#
#
#
# Elastic Compliance Matrix: (Units=1/GPa)
#
#
# Indices 1 2 3 4 5 6 
#
# 1 0.014062 -0.013051 -0.002883 0.000002 0.002359 0.000000
# 2 -0.013051 0.043511 -0.013847 -0.000003 0.001560 -0.000008
# 3 -0.002883 -0.013847 0.024159 0.000000 -0.003878 0.000012
# 4 0.000002 -0.000003 0.000000 0.038176 -0.000001 0.020571
# 5 0.002359 0.001560 -0.003878 -0.000001 0.032345 -0.000003
# 6 0.000000 -0.000008 0.000012 0.020571 -0.000003 0.013928
#
#
# Mechanical properties :
#
#
# Convention : Reuss Voigt Hill
#
# Bulk Modulus (GPa) = 45.10740 57.99025 51.54883
# Shear Modulus (GPa) = 21.44697 110.02375 65.73536
#
# Velocity S-wave (km/s) = 3.40085 7.70277 5.95393
# Velocity P-wave (km/s) = 6.30445 10.50632 8.66398
#
# Compressibility (1/GPa) = 0.02216931
#
# Stress axis : x y z
#
# Youngs Moduli (GPa) = 71.11556 22.98247 41.39310
#
# Poissons Ratio (x) = 0.29995 0.11934
# Poissons Ratio (y) = 0.92816 0.57316
# Poissons Ratio (z) = 0.20503 0.31823
#
# Static dielectric constant tensor:
#      x y z
#    x 1.627550 -0.000020 -0.020350 
#    y -0.000020 1.605350 0.000010 
#    z -0.020350 0.000010 1.676790 
# 
# From -- ./inp_files/15355.got.cif
#   From: 2010.05.17/outbox.cif.g08.bks.cpg/sg8_8_cif.got.tgz:15355.got - 2010.06.03 19:46:02.
