data_PCOD9132775
_publ_section_title
;
Structure prediction by ZEFSAII (Michael W. Deem and Ramdas Pophale) SiO2 
 PCOD9132775
Probable space group: C M
;
_chemical_formula_sum "Si O2"
_cell_formula_units_Z 24
_cell_length_a 9.555655
_cell_length_b 14.559422
_cell_length_c 16.895951
_cell_angle_alpha 90.000000
_cell_angle_beta 31.426624
_cell_angle_gamma 90.000000
_cell_volume 1225.641417
_symmetry_space_group_name_H-M "C M"
_symmetry_group_IT_number 8
_symmetry_cell_setting 'monoclinic'
loop_
_space_group_symop_operation_xyz
x,y,z
x,-y,z
1/2+x,1/2+y,z
1/2+x,1/2-y,z
loop_
_atom_site_type_symbol
_atom_site_label
_atom_site_fract_x
_atom_site_fract_y
_atom_site_fract_z
Si Si1 0.804181 0.000000 0.256590
Si Si2 0.942774 0.312622 0.116369
Si Si3 0.010306 0.302565 0.591205
Si Si4 0.497361 0.689434 0.936870
Si Si5 0.516386 0.809079 0.403553
Si Si6 0.164876 0.500000 0.590834
Si Si7 0.685748 0.500000 0.925741
Si Si8 0.128760 0.000000 0.262849
O O1 0.622482 0.910074 0.329648
O O2 0.914276 0.000000 0.293853
O O3 0.063126 0.000000 0.073160
O O4 0.765816 0.257633 0.265516
O O5 0.807587 0.410360 0.169384
O O6 0.244308 0.319725 0.001772
O O7 0.930894 0.256117 0.041133
O O8 0.260960 0.234445 0.482640
O O9 0.948442 0.308816 0.528807
O O10 0.077959 0.405043 0.590292
O O11 0.751246 0.272712 0.765810
O O12 0.572410 0.590761 0.937702
O O13 0.481766 0.500000 0.419704
O O14 0.007044 0.500000 0.751100
#
# Coordination Sequence:
#
# PCOD9132775 Si02
#       8
#     2   4   4   4   4   2   2   2
#     4  12  22  40  65  98 133 165 219 273 320 375
#     4  12  24  41  67  96 129 168 216 268 320 380
#     4  11  23  42  66  92 130 170 213 260 324 384
#     4  11  24  43  64  97 131 169 216 264 321 385
#     4  12  22  40  65  95 124 173 213 265 318 380
#     4  10  20  42  62  91 127 175 200 260 323 384
#     4  10  23  38  66  93 132 170 210 261 324 376
#     4  12  23  44  65  96 130 172 215 270 323 389
#
# _framework density 19.581583999999999
#
# number of rings (size 3 to 8) (size 9 to 14) (size 15 to 20)
#    0.000    0.667    5.000    3.500    0.000    0.000 
#    0.000    3.333    0.000    0.000    0.000    0.000 
#    0.000    0.000    0.000    0.000    0.000    0.000 
#
# Total GULP energy -67038.795484 kJ/mol
# GULP energy per Si atom -5586.566290 kJ/mol
# Density = 1.953702 g / cm^3
# Si number density = 19.581584 Si / 1000 Ang^3
#
#
#
# Elastic Constant Matrix: (Units=GPa)
#
#
# Indices 1 2 3 4 5 6 
#
# 1 38.0781 17.8869 29.5970 -0.0016 6.2132 -0.0099
# 2 17.8869 135.5606 35.2445 -0.0038 -4.2941 0.0088
# 3 29.5970 35.2445 119.7627 0.0180 5.6078 -0.0326
# 4 -0.0016 -0.0038 0.0180 21.2185 -0.0031 5.5251
# 5 6.2132 -4.2941 5.6078 -0.0031 42.4412 0.0106
# 6 -0.0099 0.0088 -0.0326 5.5251 0.0106 -0.8787
#
#
#
# Elastic Compliance Matrix: (Units=1/GPa)
#
#
# Indices 1 2 3 4 5 6 
#
# 1 0.033979 -0.002694 -0.007405 0.000021 -0.004269 -0.000052
# 2 -0.002694 0.008255 -0.001833 -0.000018 0.001472 0.000082
# 3 -0.007405 -0.001833 0.010743 0.000030 -0.000521 -0.000153
# 4 0.000021 -0.000018 0.000030 0.017871 -0.000036 0.112363
# 5 -0.004269 0.001472 -0.000521 -0.000036 0.024405 0.000152
# 6 -0.000052 0.000082 -0.000153 0.112363 0.000152 -0.431518
#
#
# Mechanical properties :
#
#
# Convention : Reuss Voigt Hill
#
# Bulk Modulus (GPa) = 34.34541 50.98423 42.66482
# Shear Modulus (GPa) = -16.51813 26.60106 5.04147
#
# Velocity S-wave (km/s) = -2.90755 3.68975 1.60630
# Velocity P-wave (km/s) = 2.51116 6.65174 5.02750
#
# Compressibility (1/GPa) = 0.02911597
#
# Stress axis : x y z
#
# Youngs Moduli (GPa) = 29.42991 121.13486 93.08000
#
# Poissons Ratio (x) = 0.32628 0.68923
# Poissons Ratio (y) = 0.07927 0.17058
# Poissons Ratio (z) = 0.21792 0.22200
#
# Static dielectric constant tensor:
#      x y z
#    x 1.648850 0.000010 0.010940 
#    y 0.000010 1.631600 0.000040 
#    z 0.010940 0.000040 1.701580 
# 
# From -- ./inp_files/7857.got.cif
#   From: 2010.05.17/outbox.cif.g08.bks.cpg/sg8_4_cif.got.tgz:7857.got - 2010.06.03 19:46:02.
