data_PCOD9132830
_publ_section_title
;
Structure prediction by ZEFSAII (Michael W. Deem and Ramdas Pophale) SiO2 
 PCOD9132830
Probable space group: C M
;
_chemical_formula_sum "Si O2"
_cell_formula_units_Z 32
_cell_length_a 15.482413
_cell_length_b 7.507443
_cell_length_c 23.190370
_cell_angle_alpha 90.000000
_cell_angle_beta 147.859470
_cell_angle_gamma 90.000000
_cell_volume 1433.996569
_symmetry_space_group_name_H-M "C M"
_symmetry_group_IT_number 8
_symmetry_cell_setting 'monoclinic'
loop_
_space_group_symop_operation_xyz
x,y,z
x,-y,z
1/2+x,1/2+y,z
1/2+x,1/2-y,z
loop_
_atom_site_type_symbol
_atom_site_label
_atom_site_fract_x
_atom_site_fract_y
_atom_site_fract_z
Si Si1 0.452120 0.203895 0.566480
Si Si2 0.276990 0.713431 0.806312
Si Si3 0.850921 0.217887 0.976980
Si Si4 0.981931 0.797956 0.454599
Si Si5 0.112254 0.713594 0.943922
Si Si6 0.102168 0.219442 0.404563
Si Si7 0.873236 0.787148 0.177402
Si Si8 0.127022 0.212261 0.216389
O O1 0.605539 0.284591 0.686207
O O2 0.485336 0.202642 0.517300
O O3 0.273184 0.280669 0.475318
O O4 0.439151 0.000000 0.579563
O O5 0.262666 0.500000 0.802701
O O6 0.322151 0.779881 0.895761
O O7 0.423979 0.746888 0.845268
O O8 0.708057 0.274104 0.940760
O O9 0.852602 0.000000 0.978068
O O10 0.022400 0.273600 0.102248
O O11 0.799166 0.797619 0.326222
O O12 0.087797 0.723609 0.462354
O O13 0.033322 0.000000 0.495189
O O14 0.130035 0.500000 0.953897
O O15 0.209097 0.782992 0.055356
O O16 0.950491 0.282225 0.280039
O O17 0.095734 0.000000 0.399607
O O18 0.010302 0.760976 0.205660
O O19 0.852436 0.000000 0.172984
O O20 0.153833 0.000000 0.226740
#
# Coordination Sequence:
#
# PCOD9132830 Si02
#       8
#     4   4   4   4   4   4   4   4
#     4  10  21  40  59  72 102 152 189 213 258 325
#     4  10  21  36  56  81 107 140 183 225 263 311
#     4   8  17  34  55  80 108 142 183 217 252 317
#     4  11  22  33  53  85 111 132 174 234 276 305
#     4   9  18  33  56  82 107 141 177 217 265 316
#     4   9  18  33  54  78 104 140 181 217 258 318
#     4   8  14  29  54  78 104 140 179 206 246 324
#     4   9  16  32  57  78 107 147 178 209 260 326
#
# _framework density 22.315256000000002
#
# number of rings (size 3 to 8) (size 9 to 14) (size 15 to 20)
#    0.000    2.750    1.250    1.875    1.750    1.500 
#    0.000    6.875    0.000    0.000    0.000    0.000 
#    0.000    0.000    0.000    0.000    0.000    0.000 
#
# Total GULP energy -89313.946871 kJ/mol
# GULP energy per Si atom -5582.121679 kJ/mol
# Density = 2.226447 g / cm^3
# Si number density = 22.315256 Si / 1000 Ang^3
#
#
#
# Elastic Constant Matrix: (Units=GPa)
#
#
# Indices 1 2 3 4 5 6 
#
# 1 48.8918 0.3695 15.7922 0.0000 -14.9132 0.0000
# 2 0.3695 53.9760 -5.1150 0.0000 -1.6638 0.0000
# 3 15.7922 -5.1150 81.6711 0.0000 -11.8198 0.0000
# 4 0.0000 0.0000 0.0000 -0.9997 0.0000 13.1324
# 5 -14.9132 -1.6638 -11.8198 0.0000 23.3094 0.0000
# 6 0.0000 0.0000 0.0000 13.1324 0.0000 4.4664
#
#
#
# Elastic Compliance Matrix: (Units=1/GPa)
#
#
# Indices 1 2 3 4 5 6 
#
# 1 0.026004 0.000023 -0.002826 0.000000 0.015206 0.000000
# 2 0.000023 0.018731 0.001472 0.000000 0.002098 0.000000
# 3 -0.002826 0.001472 0.013637 0.000000 0.005212 0.000000
# 4 0.000000 0.000000 0.000000 -0.025244 0.000000 0.074226
# 5 0.015206 0.002098 0.005212 0.000000 0.055423 0.000000
# 6 0.000000 0.000000 0.000000 0.074226 0.000000 0.005650
#
#
# Mechanical properties :
#
#
# Convention : Reuss Voigt Hill
#
# Bulk Modulus (GPa) = 17.94999 22.95914 20.45457
# Shear Modulus (GPa) = 43.31537 16.92136 30.11837
#
# Velocity S-wave (km/s) = 4.41053 2.75669 3.67778
# Velocity P-wave (km/s) = 5.83081 4.52143 5.21736
#
# Compressibility (1/GPa) = 0.05571034
#
# Stress axis : x y z
#
# Youngs Moduli (GPa) = 38.45537 53.38800 73.32853
#
# Poissons Ratio (x) = -0.00122 0.20724
# Poissons Ratio (y) = -0.00088 -0.10796
# Poissons Ratio (z) = 0.10868 -0.07860
#
# Static dielectric constant tensor:
#      x y z
#    x 1.806110 0.000000 -0.000840 
#    y 0.000000 1.873270 0.000000 
#    z -0.000840 0.000000 1.810820 
# 
# From -- ./inp_files/21852.got.cif
#   From: 2010.05.17/outbox.cif.g08.bks.cpg/sg8_11_cif.got.tgz:21852.got - 2010.06.03 19:46:02.
