data_PCOD9132256
_publ_section_title
;
Structure prediction by ZEFSAII (Michael W. Deem and Ramdas Pophale) SiO2 
 PCOD9132256
Probable space group: C M
;
_chemical_formula_sum "Si O2"
_cell_formula_units_Z 32
_cell_length_a 26.389673
_cell_length_b 7.355877
_cell_length_c 17.223662
_cell_angle_alpha 90.000000
_cell_angle_beta 24.896315
_cell_angle_gamma 90.000000
_cell_volume 1407.514317
_symmetry_space_group_name_H-M "C M"
_symmetry_group_IT_number 8
_symmetry_cell_setting 'monoclinic'
loop_
_space_group_symop_operation_xyz
x,y,z
x,-y,z
1/2+x,1/2+y,z
1/2+x,1/2-y,z
loop_
_atom_site_type_symbol
_atom_site_label
_atom_site_fract_x
_atom_site_fract_y
_atom_site_fract_z
Si Si1 0.165530 0.281231 0.935700
Si Si2 0.006392 0.722383 0.293467
Si Si3 0.543398 0.711830 0.642183
Si Si4 0.737293 0.709261 0.666650
Si Si5 0.141751 0.706400 0.251592
Si Si6 0.912181 0.778601 0.675128
Si Si7 0.273647 0.280115 0.216898
Si Si8 0.039811 0.222938 0.823573
O O1 0.168277 0.500000 0.928042
O O2 0.170135 0.213206 0.842104
O O3 0.284754 0.224084 0.817254
O O4 0.051930 0.228304 0.145095
O O5 0.008546 0.500000 0.297815
O O6 0.870571 0.787247 0.494875
O O7 0.101807 0.788023 0.225307
O O8 0.513694 0.500000 0.692547
O O9 0.446393 0.783304 0.714486
O O10 0.673005 0.724307 0.419116
O O11 0.545618 0.785370 0.726117
O O12 0.758672 0.500000 0.614374
O O13 0.651681 0.787840 0.719449
O O14 0.183645 0.500000 0.177705
O O15 0.233983 0.786131 0.185946
O O16 0.016900 0.706692 0.473511
O O17 0.918455 0.000000 0.665210
O O18 0.268171 0.500000 0.222282
O O19 0.410983 0.225334 0.039196
O O20 0.042950 0.000000 0.819813
#
# Coordination Sequence:
#
# PCOD9132256 Si02
#       8
#     4   4   4   4   4   4   4   4
#     4  10  20  33  51  77 103 131 167 208 253 296
#     4   9  18  31  50  74  98 130 168 204 245 294
#     4   9  18  33  52  76 103 133 166 203 250 299
#     4  10  20  37  54  71 101 136 171 207 245 295
#     4   9  16  29  51  74 100 132 165 202 245 295
#     4   9  17  29  49  75 106 131 157 204 255 297
#     4   9  18  32  51  76 103 130 166 208 248 292
#     4   9  19  34  54  75  98 135 174 204 241 298
#
# _framework density 22.735115
#
# number of rings (size 3 to 8) (size 9 to 14) (size 15 to 20)
#    0.000    2.750    1.250    0.000    1.750    1.000 
#    0.000    4.375    0.000    0.000    0.000    0.000 
#    0.000    0.000    0.000    0.000    0.000    0.000 
#
# Total GULP energy -89325.986250 kJ/mol
# GULP energy per Si atom -5582.874141 kJ/mol
# Density = 2.268337 g / cm^3
# Si number density = 22.735115 Si / 1000 Ang^3
#
#
#
# Elastic Constant Matrix: (Units=GPa)
#
#
# Indices 1 2 3 4 5 6 
#
# 1 112.0322 -0.1637 22.2935 -0.0006 10.8395 0.0002
# 2 -0.1637 84.6899 -10.2559 -0.0017 -4.4370 0.0010
# 3 22.2935 -10.2559 42.0324 -0.0023 7.7521 0.0009
# 4 -0.0006 -0.0017 -0.0023 14.5663 0.0002 6.7958
# 5 10.8395 -4.4370 7.7521 0.0002 29.7468 0.0000
# 6 0.0002 0.0010 0.0009 6.7958 0.0000 -3.5814
#
#
#
# Elastic Compliance Matrix: (Units=1/GPa)
#
#
# Indices 1 2 3 4 5 6 
#
# 1 0.010185 -0.000731 -0.005122 0.000000 -0.002485 -0.000001
# 2 -0.000731 0.012254 0.003142 0.000000 0.001275 0.000004
# 3 -0.005122 0.003142 0.028199 0.000001 -0.005014 0.000009
# 4 0.000000 0.000000 0.000001 0.036414 0.000000 0.069098
# 5 -0.002485 0.001275 -0.005014 0.000000 0.036019 -0.000002
# 6 -0.000001 0.000004 0.000009 0.069098 -0.000002 -0.148105
#
#
# Mechanical properties :
#
#
# Convention : Reuss Voigt Hill
#
# Bulk Modulus (GPa) = 22.11555 29.16692 25.64124
# Shear Modulus (GPa) = -1100.95423 23.27173 -538.84125
#
# Velocity S-wave (km/s) = -22.02962 3.20285 -15.41178
# Velocity P-wave (km/s) = 25.24527 5.15117 17.47554
#
# Compressibility (1/GPa) = 0.04521705
#
# Stress axis : x y z
#
# Youngs Moduli (GPa) = 98.18759 81.60795 35.46217
#
# Poissons Ratio (x) = 0.05964 0.18163
# Poissons Ratio (y) = 0.07175 -0.11143
# Poissons Ratio (z) = 0.50289 -0.25644
#
# Static dielectric constant tensor:
#      x y z
#    x 1.828220 0.000000 -0.004900 
#    y 0.000000 1.965080 0.000000 
#    z -0.004900 0.000000 1.807980 
# 
# From -- ./inp_files/20215.got.cif
#   From: 2010.05.17/outbox.cif.g08.bks.cpg/sg8_11_cif.got.tgz:20215.got - 2010.06.03 19:46:02.
