data_PCOD9132481
_publ_section_title
;
Structure prediction by ZEFSAII (Michael W. Deem and Ramdas Pophale) SiO2 
 PCOD9132481
Probable space group: C M
;
_chemical_formula_sum "Si O2"
_cell_formula_units_Z 32
_cell_length_a 15.466202
_cell_length_b 8.254761
_cell_length_c 22.524905
_cell_angle_alpha 90.000000
_cell_angle_beta 147.227279
_cell_angle_gamma 90.000000
_cell_volume 1556.666408
_symmetry_space_group_name_H-M "C M"
_symmetry_group_IT_number 8
_symmetry_cell_setting 'monoclinic'
loop_
_space_group_symop_operation_xyz
x,y,z
x,-y,z
1/2+x,1/2+y,z
1/2+x,1/2-y,z
loop_
_atom_site_type_symbol
_atom_site_label
_atom_site_fract_x
_atom_site_fract_y
_atom_site_fract_z
Si Si1 0.404420 0.308701 0.058020
Si Si2 0.337148 0.806623 0.574792
Si Si3 0.562902 0.193841 0.816439
Si Si4 0.741181 0.691061 0.082420
Si Si5 0.575596 0.801562 0.615990
Si Si6 0.244233 0.313892 0.211589
Si Si7 0.522726 0.190344 0.451945
Si Si8 0.910780 0.188331 0.847454
O O1 0.431047 0.500000 0.067374
O O2 0.349698 0.270641 0.094054
O O3 0.566179 0.223894 0.131426
O O4 0.250373 0.265028 0.928549
O O5 0.472255 0.777855 0.702881
O O6 0.415955 0.756913 0.558473
O O7 0.175752 0.718751 0.499030
O O8 0.306088 0.000000 0.555926
O O9 0.474801 0.293479 0.817074
O O10 0.550636 0.000000 0.822753
O O11 0.737608 0.500000 0.066472
O O12 0.788048 0.715570 0.177409
O O13 0.558466 0.757074 0.970342
O O14 0.569681 0.747919 0.544603
O O15 0.733124 0.741254 0.741641
O O16 0.585967 0.000000 0.622247
O O17 0.256244 0.500000 0.201604
O O18 0.369716 0.274715 0.335578
O O19 0.487984 0.000000 0.436750
O O20 0.894500 0.000000 0.855788
#
# Coordination Sequence:
#
# PCOD9132481 Si02
#       8
#     4   4   4   4   4   4   4   4
#     4  10  21  39  62  92 127 164 205 250 304 364
#     4  10  20  36  59  88 120 157 198 242 299 361
#     4   9  18  32  57  88 124 158 192 241 297 358
#     4  10  21  38  63  93 125 161 203 252 309 367
#     4   9  19  35  59  87 117 155 195 238 296 360
#     4  12  26  43  63  87 120 164 214 262 308 363
#     4  11  23  42  62  84 118 158 205 255 305 363
#     4   9  17  33  59  87 121 157 194 240 296 362
#
# _framework density 20.556749
#
# number of rings (size 3 to 8) (size 9 to 14) (size 15 to 20)
#    0.000    2.000    1.250    2.250    1.750    2.000 
#    0.000    5.625    0.000    0.000    0.000    0.000 
#    0.000    0.000    0.000    0.000    0.000    0.000 
#
# Total GULP energy -89333.392935 kJ/mol
# GULP energy per Si atom -5583.337058 kJ/mol
# Density = 2.050996 g / cm^3
# Si number density = 20.556749 Si / 1000 Ang^3
#
#
#
# Elastic Constant Matrix: (Units=GPa)
#
#
# Indices 1 2 3 4 5 6 
#
# 1 38.2716 -5.8664 7.1692 0.0000 12.7545 0.0000
# 2 -5.8664 14.4454 5.3401 0.0000 1.8293 0.0000
# 3 7.1692 5.3401 58.9712 0.0000 12.4672 0.0000
# 4 0.0000 0.0000 0.0000 22.2305 0.0000 3.7085
# 5 12.7545 1.8293 12.4672 0.0000 23.9564 0.0000
# 6 0.0000 0.0000 0.0000 3.7085 0.0000 25.3620
#
#
#
# Elastic Compliance Matrix: (Units=1/GPa)
#
#
# Indices 1 2 3 4 5 6 
#
# 1 0.035619 0.017593 -0.001832 0.000000 -0.019354 0.000000
# 2 0.017593 0.080432 -0.006903 0.000000 -0.011916 0.000000
# 3 -0.001832 -0.006903 0.019649 0.000000 -0.008723 0.000000
# 4 0.000000 0.000000 0.000000 0.046108 0.000000 -0.006742
# 5 -0.019354 -0.011916 -0.008723 0.000000 0.057496 0.000000
# 6 0.000000 0.000000 0.000000 -0.006742 0.000000 0.040415
#
#
# Mechanical properties :
#
#
# Convention : Reuss Voigt Hill
#
# Bulk Modulus (GPa) = 6.51816 13.88599 10.20208
# Shear Modulus (GPa) = 15.96719 21.31280 18.63999
#
# Velocity S-wave (km/s) = 2.79002 3.22340 3.01451
# Velocity P-wave (km/s) = 3.68194 4.54129 4.13401
#
# Compressibility (1/GPa) = 0.15341748
#
# Stress axis : x y z
#
# Youngs Moduli (GPa) = 28.07492 12.43284 50.89193
#
# Poissons Ratio (x) = -0.21874 0.09322
# Poissons Ratio (y) = -0.49393 0.35132
# Poissons Ratio (z) = 0.05143 0.08583
#
# Static dielectric constant tensor:
#      x y z
#    x 1.711090 0.000000 -0.003830 
#    y 0.000000 1.731090 0.000000 
#    z -0.003830 0.000000 1.732410 
# 
# From -- ./inp_files/28176.got.cif
#   From: 2010.05.17/outbox.cif.g08.bks.cpg/sg8_15_cif.got.tgz:28176.got - 2010.06.03 19:46:02.
