data_PCOD9132730
_publ_section_title
;
Structure prediction by ZEFSAII (Michael W. Deem and Ramdas Pophale) SiO2 
 PCOD9132730
Probable space group: C M
;
_chemical_formula_sum "Si O2"
_cell_formula_units_Z 30
_cell_length_a 7.866323
_cell_length_b 12.588482
_cell_length_c 13.847197
_cell_angle_alpha 90.000000
_cell_angle_beta 57.804618
_cell_angle_gamma 90.000000
_cell_volume 1160.375536
_symmetry_space_group_name_H-M "C M"
_symmetry_group_IT_number 8
_symmetry_cell_setting 'monoclinic'
loop_
_space_group_symop_operation_xyz
x,y,z
x,-y,z
1/2+x,1/2+y,z
1/2+x,1/2-y,z
loop_
_atom_site_type_symbol
_atom_site_label
_atom_site_fract_x
_atom_site_fract_y
_atom_site_fract_z
Si Si1 0.728271 0.000000 0.923470
Si Si2 0.568954 0.621793 0.043692
Si Si3 0.254342 0.614377 0.512989
Si Si4 0.992212 0.703390 0.930570
Si Si5 0.443823 0.886297 0.302590
Si Si6 0.135229 0.884664 0.768707
Si Si7 0.109582 0.836456 0.256031
Si Si8 0.590340 0.661589 0.559292
O O1 0.568249 0.903886 0.957354
O O2 0.907876 0.910484 0.868005
O O3 0.522500 0.500000 0.031421
O O4 0.575452 0.630207 0.156982
O O5 0.436386 0.710478 0.030586
O O6 0.789939 0.660035 0.941928
O O7 0.157392 0.500000 0.534990
O O8 0.421779 0.624767 0.378311
O O9 0.385588 0.623603 0.571319
O O10 0.100397 0.710524 0.552441
O O11 0.146842 0.765419 0.811296
O O12 0.313731 0.875099 0.244184
O O13 0.593986 0.790412 0.270395
O O14 0.274810 0.877207 0.436730
O O15 0.546540 0.000000 0.273691
O O16 0.129794 0.874873 0.655148
O O17 0.241617 0.000000 0.761663
#
# Coordination Sequence:
#
# PCOD9132730 Si02
#       8
#     2   4   4   4   4   4   4   4
#     4  10  24  44  64  86 128 158 196 264 306 354
#     4  12  24  40  65  89 122 161 206 252 305 362
#     4  10  21  39  61  87 126 161 198 247 300 350
#     4  12  24  43  63  93 119 160 205 251 312 361
#     4  10  20  40  61  88 125 160 199 246 299 352
#     4  10  22  41  63  87 125 157 199 251 304 358
#     4  10  21  39  60  91 121 159 205 247 296 363
#     4  10  21  36  65  90 118 163 204 241 298 366
#
# _framework density 25.853697
#
# number of rings (size 3 to 8) (size 9 to 14) (size 15 to 20)
#    0.400    1.067    2.000    4.400    1.867    0.000 
#    1.200   14.667    0.000    0.000    0.000    0.000 
#    0.000    0.000    0.000    0.000    0.000    0.000 
#
# Total GULP energy -83665.638429 kJ/mol
# GULP energy per Si atom -5577.709229 kJ/mol
# Density = 2.579485 g / cm^3
# Si number density = 25.853697 Si / 1000 Ang^3
#
#
#
# Elastic Constant Matrix: (Units=GPa)
#
#
# Indices 1 2 3 4 5 6 
#
# 1 24.6874 2.7030 13.3856 0.0000 -6.2982 0.0000
# 2 2.7030 256.2551 25.0067 0.0000 5.2281 0.0000
# 3 13.3856 25.0067 120.7046 0.0000 38.9387 0.0000
# 4 0.0000 0.0000 0.0000 5.8713 0.0000 5.5846
# 5 -6.2982 5.2281 38.9387 0.0000 28.4942 0.0000
# 6 0.0000 0.0000 0.0000 5.5846 0.0000 11.0237
#
#
#
# Elastic Compliance Matrix: (Units=1/GPa)
#
#
# Indices 1 2 3 4 5 6 
#
# 1 0.062059 0.000486 -0.020350 0.000000 0.041438 0.000000
# 2 0.000486 0.003995 -0.001216 0.000000 0.001036 0.000000
# 3 -0.020350 -0.001216 0.021769 0.000000 -0.034024 0.000000
# 4 0.000000 0.000000 0.000000 0.328715 0.000000 -0.166527
# 5 0.041438 0.001036 -0.034024 0.000000 0.090559 0.000000
# 6 0.000000 0.000000 0.000000 -0.166527 0.000000 0.175076
#
#
# Mechanical properties :
#
#
# Convention : Reuss Voigt Hill
#
# Bulk Modulus (GPa) = 21.89969 53.75974 37.82972
# Shear Modulus (GPa) = 6.76083 33.11463 19.93773
#
# Velocity S-wave (km/s) = 1.61886 3.58278 2.78002
# Velocity P-wave (km/s) = 3.46169 6.16068 4.99686
#
# Compressibility (1/GPa) = 0.04566275
#
# Stress axis : x y z
#
# Youngs Moduli (GPa) = 16.11376 250.32991 45.93662
#
# Poissons Ratio (x) = -0.12163 0.93482
# Poissons Ratio (y) = -0.00783 0.05584
# Poissons Ratio (z) = 0.32792 0.30429
#
# Static dielectric constant tensor:
#      x y z
#    x 2.000910 0.000000 0.026610 
#    y 0.000000 2.069420 0.000000 
#    z 0.026610 0.000000 2.077260 
# 
# From -- ./inp_files/25243.got.cif
#   From: 2010.05.17/outbox.cif.g08.bks.cpg/sg8_13_cif.got.tgz:25243.got - 2010.06.03 19:46:02.
