data_PCOD9132113
_publ_section_title
;
Structure prediction by ZEFSAII (Michael W. Deem and Ramdas Pophale) SiO2 
 PCOD9132113
Probable space group: C M
;
_chemical_formula_sum "Si O2"
_cell_formula_units_Z 32
_cell_length_a 16.786169
_cell_length_b 8.935660
_cell_length_c 20.531650
_cell_angle_alpha 90.000000
_cell_angle_beta 149.077184
_cell_angle_gamma 90.000000
_cell_volume 1582.582102
_symmetry_space_group_name_H-M "C M"
_symmetry_group_IT_number 8
_symmetry_cell_setting 'monoclinic'
loop_
_space_group_symop_operation_xyz
x,y,z
x,-y,z
1/2+x,1/2+y,z
1/2+x,1/2-y,z
loop_
_atom_site_type_symbol
_atom_site_label
_atom_site_fract_x
_atom_site_fract_y
_atom_site_fract_z
Si Si1 0.035940 0.167198 0.990980
Si Si2 0.918336 0.335593 0.094820
Si Si3 0.649535 0.181321 0.440627
Si Si4 0.748325 0.671071 0.836494
Si Si5 0.345072 0.327605 0.163856
Si Si6 0.535045 0.175284 0.496464
Si Si7 0.180756 0.837179 0.234490
Si Si8 0.951940 0.320038 0.584754
O O1 0.872870 0.251997 0.875847
O O2 0.024944 0.000000 0.955059
O O3 0.177734 0.260924 0.062759
O O4 0.085613 0.151722 0.101303
O O5 0.895058 0.500000 0.108488
O O6 0.860549 0.200729 0.098030
O O7 0.100583 0.300006 0.214376
O O8 0.830451 0.334674 0.964587
O O9 0.488594 0.238186 0.296155
O O10 0.643713 0.231064 0.513475
O O11 0.793318 0.248704 0.500786
O O12 0.654527 0.000000 0.442606
O O13 0.715051 0.500000 0.793907
O O14 0.592939 0.767240 0.729026
O O15 0.355062 0.500000 0.189709
O O16 0.360093 0.185430 0.345717
O O17 0.508289 0.232714 0.551596
O O18 0.575465 0.000000 0.532881
O O19 0.169305 0.000000 0.261069
O O20 0.935594 0.500000 0.571650
#
# Coordination Sequence:
#
# PCOD9132113 Si02
#       8
#     4   4   4   4   4   4   4   4
#     4  10  19  35  61  87 116 155 193 242 302 361
#     4  10  21  36  57  85 116 156 202 248 306 369
#     4  11  22  41  65  92 125 165 207 257 310 369
#     4  10  22  42  62  85 117 159 207 256 302 360
#     4  12  23  36  57  91 127 156 194 251 312 372
#     4   9  19  37  61  88 121 161 204 246 303 369
#     4   9  16  32  57  84 115 150 188 239 301 363
#     4  11  23  41  64  92 123 166 213 259 310 367
#
# _framework density 20.220120999999999
#
# number of rings (size 3 to 8) (size 9 to 14) (size 15 to 20)
#    0.000    1.750    1.250    3.750    0.000    3.000 
#    2.250    3.125    0.000    0.000    0.000    0.000 
#    0.000    0.000    0.000    0.000    0.000    0.000 
#
# Total GULP energy -89165.769104 kJ/mol
# GULP energy per Si atom -5572.860569 kJ/mol
# Density = 2.017410 g / cm^3
# Si number density = 20.220121 Si / 1000 Ang^3
#
#
#
# Elastic Constant Matrix: (Units=GPa)
#
#
# Indices 1 2 3 4 5 6 
#
# 1 100.7441 42.5060 28.3971 0.0000 11.9981 0.0000
# 2 42.5060 93.4451 21.9208 0.0000 9.4841 0.0000
# 3 28.3971 21.9208 43.1924 0.0000 16.1194 0.0000
# 4 0.0000 0.0000 0.0000 22.4192 0.0000 7.7620
# 5 11.9981 9.4841 16.1194 0.0000 26.7357 0.0000
# 6 0.0000 0.0000 0.0000 7.7620 0.0000 32.4930
#
#
#
# Elastic Compliance Matrix: (Units=1/GPa)
#
#
# Indices 1 2 3 4 5 6 
#
# 1 0.013804 -0.004701 -0.006452 0.000000 -0.000637 0.000000
# 2 -0.004701 0.013761 -0.003689 0.000000 -0.000548 0.000000
# 3 -0.006452 -0.003689 0.035739 0.000000 -0.017344 0.000000
# 4 0.000000 0.000000 0.000000 0.048626 0.000000 -0.011616
# 5 -0.000637 -0.000548 -0.017344 0.000000 0.048340 0.000000
# 6 0.000000 0.000000 0.000000 -0.011616 0.000000 0.033551
#
#
# Mechanical properties :
#
#
# Convention : Reuss Voigt Hill
#
# Bulk Modulus (GPa) = 29.74378 47.00327 38.37353
# Shear Modulus (GPa) = 21.30281 25.96675 23.63478
#
# Velocity S-wave (km/s) = 3.24936 3.58747 3.42259
# Velocity P-wave (km/s) = 5.36840 6.36051 5.88540
#
# Compressibility (1/GPa) = 0.03362047
#
# Stress axis : x y z
#
# Youngs Moduli (GPa) = 72.44226 72.67050 27.98080
#
# Poissons Ratio (x) = 0.34162 0.18053
# Poissons Ratio (y) = 0.34055 0.10321
# Poissons Ratio (z) = 0.46739 0.26806
#
# Static dielectric constant tensor:
#      x y z
#    x 1.799440 0.000000 -0.034340 
#    y 0.000000 1.731910 0.000000 
#    z -0.034340 0.000000 1.724900 
# 
# From -- ./inp_files/22794.got.cif
#   From: 2010.05.17/outbox.cif.g08.bks.cpg/sg8_12_cif.got.tgz:22794.got - 2010.06.03 19:46:02.
