data_PCOD9132920
_publ_section_title
;
Structure prediction by ZEFSAII (Michael W. Deem and Ramdas Pophale) SiO2 
 PCOD9132920
Probable space group: C M
;
_chemical_formula_sum "Si O2"
_cell_formula_units_Z 30
_cell_length_a 12.142565
_cell_length_b 14.914720
_cell_length_c 7.699759
_cell_angle_alpha 90.000000
_cell_angle_beta 62.180005
_cell_angle_gamma 90.000000
_cell_volume 1233.276131
_symmetry_space_group_name_H-M "C M"
_symmetry_group_IT_number 8
_symmetry_cell_setting 'monoclinic'
loop_
_space_group_symop_operation_xyz
x,y,z
x,-y,z
1/2+x,1/2+y,z
1/2+x,1/2-y,z
loop_
_atom_site_type_symbol
_atom_site_label
_atom_site_fract_x
_atom_site_fract_y
_atom_site_fract_z
Si Si1 0.500000 0.753691 0.302340
Si Si2 0.619771 0.596566 0.391622
Si Si3 0.937773 0.094023 0.124729
Si Si4 0.244489 0.834121 0.624211
Si Si5 0.736186 0.149697 0.008613
Si Si6 0.816779 0.645859 0.949047
Si Si7 0.736063 0.000000 0.475117
Si Si8 0.106047 0.645082 0.762496
O O1 0.534365 0.683416 0.427766
O O2 0.500368 0.687943 0.130929
O O3 0.369087 0.797560 0.439153
O O4 0.607355 0.828042 0.203964
O O5 0.558092 0.500000 0.414460
O O6 0.678301 0.601779 0.537218
O O7 0.725409 0.607946 0.164216
O O8 0.842353 0.098710 0.034507
O O9 0.842882 0.076407 0.352578
O O10 0.012247 0.000000 0.051476
O O11 0.281075 0.880944 0.778756
O O12 0.153804 0.747023 0.708384
O O13 0.794482 0.247865 0.948032
O O14 0.691599 0.109437 0.859495
O O15 0.959283 0.635087 0.901028
O O16 0.635609 0.079880 0.583287
#
# Coordination Sequence:
#
# PCOD9132920 Si02
#       8
#     4   4   4   4   4   4   2   4
#     4  11  20  41  68  86 121 165 211 252 303 370
#     4  11  25  42  64  96 127 162 206 259 314 366
#     4  10  21  38  59  93 118 156 203 254 314 354
#     4  11  22  41  70  89 120 169 213 250 307 375
#     4  10  22  38  66  88 119 163 213 247 302 376
#     4  10  24  40  62  90 127 165 204 252 306 372
#     4  10  24  34  60  88 132 154 202 264 314 352
#     4  11  22  41  59  92 125 163 205 257 309 367
#
# _framework density 24.325451999999999
#
# number of rings (size 3 to 8) (size 9 to 14) (size 15 to 20)
#    0.400    1.067    1.333    4.400    3.733    0.533 
#    0.000    0.667    0.000    8.800    0.000    0.000 
#    0.000    0.000    0.000    0.000    0.000    0.000 
#
# Total GULP energy -83547.124702 kJ/mol
# GULP energy per Si atom -5569.808313 kJ/mol
# Density = 2.427009 g / cm^3
# Si number density = 24.325452 Si / 1000 Ang^3
#
#
#
# Elastic Constant Matrix: (Units=GPa)
#
#
# Indices 1 2 3 4 5 6 
#
# 1 94.0332 -6.1736 15.7756 0.0000 33.9513 0.0000
# 2 -6.1736 57.2679 8.7540 0.0000 12.0194 0.0000
# 3 15.7756 8.7540 34.1775 0.0000 16.7167 0.0000
# 4 0.0000 0.0000 0.0000 55.3449 0.0000 8.7645
# 5 33.9513 12.0194 16.7167 0.0000 49.2932 0.0000
# 6 0.0000 0.0000 0.0000 8.7645 0.0000 25.3094
#
#
#
# Elastic Compliance Matrix: (Units=1/GPa)
#
#
# Indices 1 2 3 4 5 6 
#
# 1 0.015215 0.004303 -0.002981 0.000000 -0.010518 0.000000
# 2 0.004303 0.019884 -0.003906 0.000000 -0.006488 0.000000
# 3 -0.002981 -0.003906 0.036164 0.000000 -0.009259 0.000000
# 4 0.000000 0.000000 0.000000 0.019117 0.000000 -0.006620
# 5 -0.010518 -0.006488 -0.009259 0.000000 0.032253 0.000000
# 6 0.000000 0.000000 0.000000 -0.006620 0.000000 0.041804
#
#
# Mechanical properties :
#
#
# Convention : Reuss Voigt Hill
#
# Bulk Modulus (GPa) = 15.12949 24.68784 19.90867
# Shear Modulus (GPa) = 26.09124 37.13099 31.61111
#
# Velocity S-wave (km/s) = 3.27859 3.91119 3.60878
# Velocity P-wave (km/s) = 4.53490 5.52879 5.05633
#
# Compressibility (1/GPa) = 0.06609608
#
# Stress axis : x y z
#
# Youngs Moduli (GPa) = 65.72626 50.29063 27.65185
#
# Poissons Ratio (x) = -0.21641 0.08242
# Poissons Ratio (y) = -0.28284 0.10801
# Poissons Ratio (z) = 0.19590 0.19644
#
# Static dielectric constant tensor:
#      x y z
#    x 1.934280 0.000000 0.075780 
#    y 0.000000 1.783950 0.000000 
#    z 0.075780 0.000000 2.010580 
# 
# From -- ./inp_files/10724.got.cif
#   From: 2010.05.17/outbox.cif.g08.bks.cpg/sg8_6_cif.got.tgz:10724.got - 2010.06.03 19:46:02.
