data_PCOD9132572
_publ_section_title
;
Structure prediction by ZEFSAII (Michael W. Deem and Ramdas Pophale) SiO2 
 PCOD9132572
Probable space group: C M
;
_chemical_formula_sum "Si O2"
_cell_formula_units_Z 32
_cell_length_a 14.185499
_cell_length_b 7.978192
_cell_length_c 12.496435
_cell_angle_alpha 90.000000
_cell_angle_beta 88.622643
_cell_angle_gamma 90.000000
_cell_volume 1413.870834
_symmetry_space_group_name_H-M "C M"
_symmetry_group_IT_number 8
_symmetry_cell_setting 'monoclinic'
loop_
_space_group_symop_operation_xyz
x,y,z
x,-y,z
1/2+x,1/2+y,z
1/2+x,1/2-y,z
loop_
_atom_site_type_symbol
_atom_site_label
_atom_site_fract_x
_atom_site_fract_y
_atom_site_fract_z
Si Si1 0.642700 0.202106 0.221020
Si Si2 0.191567 0.804693 0.817284
Si Si3 0.506354 0.202005 0.411842
Si Si4 0.294317 0.201793 0.364092
Si Si5 0.397176 0.305446 0.860952
Si Si6 0.554509 0.805537 0.003640
Si Si7 0.443916 0.698163 0.629419
Si Si8 0.734306 0.694812 0.585594
O O1 0.577602 0.265083 0.320263
O O2 0.747604 0.250534 0.253621
O O3 0.638884 0.000000 0.218467
O O4 0.602251 0.264816 0.109739
O O5 0.300511 0.795207 0.852201
O O6 0.129132 0.712242 0.905801
O O7 0.189632 0.734339 0.695679
O O8 0.161933 0.000000 0.815113
O O9 0.401516 0.257686 0.378063
O O10 0.517915 0.258031 0.534727
O O11 0.508698 0.000000 0.411247
O O12 0.232434 0.270739 0.466550
O O13 0.293944 0.000000 0.372882
O O14 0.370326 0.500000 0.854687
O O15 0.458681 0.276394 0.964030
O O16 0.461275 0.266777 0.753861
O O17 0.533239 0.000000 0.022946
O O18 0.425144 0.500000 0.620652
O O19 0.347420 0.796478 0.605654
O O20 0.705312 0.500000 0.581295
#
# Coordination Sequence:
#
# PCOD9132572 Si02
#       8
#     4   4   4   4   4   4   4   4
#     4  10  23  40  55  76 107 143 187 233 271 316
#     4  10  20  37  61  86 114 148 184 227 281 334
#     4   9  19  37  57  78 109 146 179 216 269 329
#     4   9  18  34  57  82 108 139 175 219 272 327
#     4  10  21  38  59  85 116 147 183 229 280 334
#     4  11  24  40  56  79 112 150 195 238 276 326
#     4   9  17  30  53  85 114 138 172 220 271 326
#     4   8  16  32  54  81 112 143 175 214 268 334
#
# _framework density 22.632901
#
# number of rings (size 3 to 8) (size 9 to 14) (size 15 to 20)
#    0.000    2.500    0.000    2.250    0.000    7.500 
#    0.000    5.000    0.000    0.000    0.000    0.000 
#    0.000    0.000    0.000    0.000    0.000    0.000 
#
# Total GULP energy -89324.508655 kJ/mol
# GULP energy per Si atom -5582.781791 kJ/mol
# Density = 2.258139 g / cm^3
# Si number density = 22.632901 Si / 1000 Ang^3
#
#
#
# Elastic Constant Matrix: (Units=GPa)
#
#
# Indices 1 2 3 4 5 6 
#
# 1 52.7633 -4.2404 23.0961 0.0000 13.7215 0.0000
# 2 -4.2404 30.2324 0.6731 0.0000 1.3879 0.0000
# 3 23.0961 0.6731 95.8276 0.0000 34.6251 0.0000
# 4 0.0000 0.0000 0.0000 25.3641 0.0000 1.7498
# 5 13.7215 1.3879 34.6251 0.0000 37.4729 0.0000
# 6 0.0000 0.0000 0.0000 1.7498 0.0000 20.0763
#
#
#
# Elastic Compliance Matrix: (Units=1/GPa)
#
#
# Indices 1 2 3 4 5 6 
#
# 1 0.022064 0.003399 -0.003568 0.000000 -0.004908 0.000000
# 2 0.003399 0.033664 -0.000233 0.000000 -0.002276 0.000000
# 3 -0.003568 -0.000233 0.016246 0.000000 -0.013696 0.000000
# 4 0.000000 0.000000 0.000000 0.039664 0.000000 -0.003457
# 5 -0.004908 -0.002276 -0.013696 0.000000 0.041223 0.000000
# 6 0.000000 0.000000 0.000000 -0.003457 0.000000 0.050111
#
#
# Mechanical properties :
#
#
# Convention : Reuss Voigt Hill
#
# Bulk Modulus (GPa) = 14.05107 24.20898 19.13003
# Shear Modulus (GPa) = 21.97812 27.20230 24.59021
#
# Velocity S-wave (km/s) = 3.11958 3.47059 3.29976
# Velocity P-wave (km/s) = 4.38149 5.17490 4.79463
#
# Compressibility (1/GPa) = 0.07116896
#
# Stress axis : x y z
#
# Youngs Moduli (GPa) = 45.32249 29.70567 61.55453
#
# Poissons Ratio (x) = -0.10098 0.21964
# Poissons Ratio (y) = -0.15407 0.01437
# Poissons Ratio (z) = 0.16172 0.00693
#
# Static dielectric constant tensor:
#      x y z
#    x 1.869350 0.000000 -0.002160 
#    y 0.000000 1.805050 0.000000 
#    z -0.002160 0.000000 1.862960 
# 
# From -- ./inp_files/21551.got.cif
#   From: 2010.05.17/outbox.cif.g08.bks.cpg/sg8_11_cif.got.tgz:21551.got - 2010.06.03 19:46:02.
