data_PCOD9132553
_publ_section_title
;
Structure prediction by ZEFSAII (Michael W. Deem and Ramdas Pophale) SiO2 
 PCOD9132553
Probable space group: C M
;
_chemical_formula_sum "Si O2"
_cell_formula_units_Z 32
_cell_length_a 13.086876
_cell_length_b 23.744783
_cell_length_c 5.169744
_cell_angle_alpha 90.000000
_cell_angle_beta 69.094581
_cell_angle_gamma 90.000000
_cell_volume 1500.719362
_symmetry_space_group_name_H-M "C M"
_symmetry_group_IT_number 8
_symmetry_cell_setting 'monoclinic'
loop_
_space_group_symop_operation_xyz
x,y,z
x,-y,z
1/2+x,1/2+y,z
1/2+x,1/2-y,z
loop_
_atom_site_type_symbol
_atom_site_label
_atom_site_fract_x
_atom_site_fract_y
_atom_site_fract_z
Si Si1 0.122780 0.329208 0.717940
Si Si2 0.626900 0.431586 0.687318
Si Si3 0.802969 0.062170 0.126160
Si Si4 0.390255 0.794764 0.904062
Si Si5 0.763768 0.180301 0.079624
Si Si6 0.553314 0.936610 0.524693
Si Si7 0.498113 0.433162 0.307526
Si Si8 0.355272 0.130519 0.448163
O O1 0.213506 0.323132 0.412953
O O2 0.076733 0.393147 0.736342
O O3 0.019984 0.290589 0.743675
O O4 0.167564 0.315124 0.957430
O O5 0.632366 0.500000 0.687479
O O6 0.574208 0.411890 0.004683
O O7 0.746987 0.407288 0.531259
O O8 0.545001 0.412093 0.534483
O O9 0.820160 0.120413 0.962463
O O10 0.672539 0.059631 0.283357
O O11 0.838121 0.000000 0.991179
O O12 0.872618 0.071442 0.326634
O O13 0.341995 0.825657 0.696514
O O14 0.339491 0.734003 0.990916
O O15 0.372433 0.834483 0.170396
O O16 0.460216 0.907762 0.433111
O O17 0.521423 0.000000 0.630316
O O18 0.516207 0.500000 0.302351
#
# Coordination Sequence:
#
# PCOD9132553 Si02
#       8
#     4   4   4   4   4   4   4   4
#     4  10  22  41  64  91 127 161 205 263 305 371
#     4  10  20  37  59  85 123 165 205 252 305 361
#     4   9  19  38  63  93 123 156 202 256 314 375
#     4  11  23  42  62  89 125 166 207 257 311 358
#     4  11  23  42  65  90 124 165 207 256 315 365
#     4   9  19  37  66  97 126 162 203 257 325 379
#     4   9  19  35  56  84 122 160 196 249 304 361
#     4  11  22  40  63  91 127 163 210 260 305 370
#
# _framework density 21.323107
#
# number of rings (size 3 to 8) (size 9 to 14) (size 15 to 20)
#    0.000    2.000    0.000    4.125    0.000    2.500 
#    6.750   13.125    0.000    0.000    0.000    0.000 
#    0.000    0.000    0.000    0.000    0.000    0.000 
#
# Total GULP energy -89316.685953 kJ/mol
# GULP energy per Si atom -5582.292872 kJ/mol
# Density = 2.127457 g / cm^3
# Si number density = 21.323107 Si / 1000 Ang^3
#
#
#
# Elastic Constant Matrix: (Units=GPa)
#
#
# Indices 1 2 3 4 5 6 
#
# 1 92.7911 28.5634 15.1302 0.0000 -17.5266 0.0000
# 2 28.5634 118.4389 22.3255 0.0000 -19.7416 0.0000
# 3 15.1302 22.3255 80.1149 0.0000 -2.2406 0.0000
# 4 0.0000 0.0000 0.0000 18.9054 0.0000 -3.0695
# 5 -17.5266 -19.7416 -2.2406 0.0000 24.6444 0.0000
# 6 0.0000 0.0000 0.0000 -3.0695 0.0000 19.6517
#
#
#
# Elastic Compliance Matrix: (Units=1/GPa)
#
#
# Indices 1 2 3 4 5 6 
#
# 1 0.013024 -0.001478 -0.001827 0.000000 0.007913 0.000000
# 2 -0.001478 0.010440 -0.002432 0.000000 0.007091 0.000000
# 3 -0.001827 -0.002432 0.013448 0.000000 -0.002024 0.000000
# 4 0.000000 0.000000 0.000000 0.054271 0.000000 0.008477
# 5 0.007913 0.007091 -0.002024 0.000000 0.051701 0.000000
# 6 0.000000 0.000000 0.000000 0.008477 0.000000 0.052210
#
#
# Mechanical properties :
#
#
# Convention : Reuss Voigt Hill
#
# Bulk Modulus (GPa) = 39.30863 47.04255 43.17559
# Shear Modulus (GPa) = 23.25077 27.66203 25.45640
#
# Velocity S-wave (km/s) = 3.30571 3.60568 3.45895
# Velocity P-wave (km/s) = 5.74848 6.28047 6.02035
#
# Compressibility (1/GPa) = 0.02543971
#
# Stress axis : x y z
#
# Youngs Moduli (GPa) = 76.78021 95.78659 74.35996
#
# Poissons Ratio (x) = 0.14155 0.13582
# Poissons Ratio (y) = 0.11346 0.18083
# Poissons Ratio (z) = 0.14025 0.23294
#
# Static dielectric constant tensor:
#      x y z
#    x 1.770280 0.000000 -0.009740 
#    y 0.000000 1.779330 0.000000 
#    z -0.009740 0.000000 1.793760 
# 
# From -- ./inp_files/3163.got.cif
#   From: 2010.05.17/outbox.cif.g08.bks.cpg/sg8_2_cif.got.tgz:3163.got - 2010.06.03 19:46:02.
