data_PCOD9132703
_publ_section_title
;
Structure prediction by ZEFSAII (Michael W. Deem and Ramdas Pophale) SiO2 
 PCOD9132703
Probable space group: C M
;
_chemical_formula_sum "Si O2"
_cell_formula_units_Z 24
_cell_length_a 8.960459
_cell_length_b 15.217999
_cell_length_c 15.697103
_cell_angle_alpha 90.000000
_cell_angle_beta 147.379695
_cell_angle_gamma 90.000000
_cell_volume 1153.856820
_symmetry_space_group_name_H-M "C M"
_symmetry_group_IT_number 8
_symmetry_cell_setting 'monoclinic'
loop_
_space_group_symop_operation_xyz
x,y,z
x,-y,z
1/2+x,1/2+y,z
1/2+x,1/2-y,z
loop_
_atom_site_type_symbol
_atom_site_label
_atom_site_fract_x
_atom_site_fract_y
_atom_site_fract_z
Si Si1 0.608570 0.806085 0.687290
Si Si2 0.520807 0.819177 0.993128
Si Si3 0.149308 0.500000 0.677534
Si Si4 0.579548 0.330855 0.153317
Si Si5 0.263836 0.000000 0.148734
Si Si6 0.172215 0.683010 0.522323
Si Si7 0.805522 0.500000 0.970302
Si Si8 0.691467 0.000000 0.507211
O O1 0.589995 0.909794 0.698180
O O2 0.303627 0.765225 0.539374
O O3 0.716677 0.802953 0.643158
O O4 0.801603 0.743203 0.837085
O O5 0.594843 0.760101 0.110179
O O6 0.794619 0.834189 0.068185
O O7 0.408850 0.912335 0.972916
O O8 0.474282 0.500000 0.813502
O O9 0.030107 0.500000 0.522454
O O10 0.599418 0.411491 0.095445
O O11 0.853313 0.333362 0.344441
O O12 0.511569 0.000000 0.335692
O O13 0.370019 0.000000 0.103008
O O14 0.336160 0.594064 0.575936
#
# Coordination Sequence:
#
# PCOD9132703 Si02
#       8
#     4   4   2   4   2   4   2   2
#     4  11  22  39  63  88 121 163 206 253 315 375
#     4  12  24  40  63  94 126 167 212 261 314 376
#     4  10  20  39  63  91 124 161 204 265 319 373
#     4  11  22  40  64  94 129 165 208 259 315 375
#     4  10  21  39  64  91 125 167 207 259 316 371
#     4  10  21  39  62  89 122 163 203 251 309 376
#     4  12  25  41  62  91 128 168 216 264 314 369
#     4   8  18  37  61  85 117 156 197 244 307 367
#
# _framework density 20.799810000000001
#
# number of rings (size 3 to 8) (size 9 to 14) (size 15 to 20)
#    0.000    1.333    0.000    7.500    0.000    1.333 
#    0.000    5.833    0.000    0.000    0.000    0.000 
#    0.000    0.000    0.000    0.000    0.000    0.000 
#
# Total GULP energy -66954.547218 kJ/mol
# GULP energy per Si atom -5579.545602 kJ/mol
# Density = 2.075247 g / cm^3
# Si number density = 20.799810 Si / 1000 Ang^3
#
#
#
# Elastic Constant Matrix: (Units=GPa)
#
#
# Indices 1 2 3 4 5 6 
#
# 1 74.5316 59.2283 21.5093 0.0018 -2.7818 0.0010
# 2 59.2283 213.2629 39.4016 0.0002 -0.8687 0.0002
# 3 21.5093 39.4016 98.2819 0.0072 -17.1889 0.0043
# 4 0.0018 0.0002 0.0072 28.3639 0.0030 -6.4055
# 5 -2.7818 -0.8687 -17.1889 0.0030 32.6049 0.0018
# 6 0.0010 0.0002 0.0043 -6.4055 0.0018 45.2780
#
#
#
# Elastic Compliance Matrix: (Units=1/GPa)
#
#
# Indices 1 2 3 4 5 6 
#
# 1 0.017592 -0.004519 -0.001980 -0.000001 0.000337 0.000000
# 2 -0.004519 0.006256 -0.001716 0.000001 -0.001123 0.000000
# 3 -0.001980 -0.001716 0.012402 -0.000004 0.006323 -0.000002
# 4 -0.000001 0.000001 -0.000004 0.036420 -0.000006 0.005152
# 5 0.000337 -0.001123 0.006323 -0.000006 0.034003 -0.000003
# 6 0.000000 0.000000 -0.000002 0.005152 -0.000003 0.022815
#
#
# Mechanical properties :
#
#
# Convention : Reuss Voigt Hill
#
# Bulk Modulus (GPa) = 50.44854 69.59497 60.02176
# Shear Modulus (GPa) = 32.78211 38.97851 35.88031
#
# Velocity S-wave (km/s) = 3.97429 4.33365 4.15785
# Velocity P-wave (km/s) = 6.73550 7.65328 7.20901
#
# Compressibility (1/GPa) = 0.01982218
#
# Stress axis : x y z
#
# Youngs Moduli (GPa) = 56.84480 159.83677 80.63315
#
# Poissons Ratio (x) = 0.72223 0.15962
# Poissons Ratio (y) = 0.25686 0.13835
# Poissons Ratio (z) = 0.11253 0.27424
#
# Static dielectric constant tensor:
#      x y z
#    x 1.708880 0.000000 -0.017870 
#    y 0.000000 1.789190 0.000000 
#    z -0.017870 0.000000 1.805790 
# 
# From -- ./inp_files/24140.got.cif
#   From: 2010.05.17/outbox.cif.g08.bks.cpg/sg8_13_cif.got.tgz:24140.got - 2010.06.03 19:46:02.
