data_PCOD9132659
_publ_section_title
;
Structure prediction by ZEFSAII (Michael W. Deem and Ramdas Pophale) SiO2 
 PCOD9132659
Probable space group: C M
;
_chemical_formula_sum "Si O2"
_cell_formula_units_Z 32
_cell_length_a 14.621858
_cell_length_b 8.504210
_cell_length_c 22.515896
_cell_angle_alpha 90.000000
_cell_angle_beta 150.949929
_cell_angle_gamma 90.000000
_cell_volume 1359.505564
_symmetry_space_group_name_H-M "C M"
_symmetry_group_IT_number 8
_symmetry_cell_setting 'monoclinic'
loop_
_space_group_symop_operation_xyz
x,y,z
x,-y,z
1/2+x,1/2+y,z
1/2+x,1/2-y,z
loop_
_atom_site_type_symbol
_atom_site_label
_atom_site_fract_x
_atom_site_fract_y
_atom_site_fract_z
Si Si1 0.943900 0.684356 0.115660
Si Si2 0.549131 0.321052 0.663509
Si Si3 0.914405 0.182804 0.909622
Si Si4 0.543438 0.684379 0.292582
Si Si5 0.455315 0.816401 0.492048
Si Si6 0.046168 0.183956 0.848086
Si Si7 0.773515 0.681136 0.596699
Si Si8 0.224075 0.185152 0.186228
O O1 0.928780 0.500000 0.122779
O O2 0.931719 0.786034 0.168067
O O3 0.137727 0.721863 0.192375
O O4 0.768080 0.721932 0.973083
O O5 0.550104 0.500000 0.643156
O O6 0.728438 0.288598 0.807115
O O7 0.567250 0.207120 0.617287
O O8 0.361189 0.281419 0.593117
O O9 0.992284 0.199442 0.886820
O O10 0.859944 0.000000 0.887510
O O11 0.078952 0.218124 0.049617
O O12 0.559819 0.500000 0.314961
O O13 0.750194 0.747906 0.393312
O O14 0.429144 0.765724 0.280161
O O15 0.570991 0.733069 0.506064
O O16 0.438461 0.000000 0.467810
O O17 0.917383 0.289437 0.733185
O O18 0.017087 0.000000 0.814561
O O19 0.773261 0.500000 0.578891
O O20 0.219056 0.000000 0.196547
#
# Coordination Sequence:
#
# PCOD9132659 Si02
#       8
#     4   4   4   4   4   4   4   4
#     4  11  23  41  65  95 129 167 207 254 310 369
#     4  12  25  41  65  96 127 166 208 254 312 371
#     4  10  20  38  64  94 130 167 203 251 310 370
#     4  11  25  44  67  92 121 164 212 261 314 367
#     4  11  25  46  67  90 123 162 210 265 314 367
#     4  10  20  38  64  94 130 167 203 251 310 370
#     4  12  25  41  65  96 127 166 208 254 312 371
#     4  11  23  41  65  95 129 167 207 254 310 369
#
# _framework density 23.537969
#
# number of rings (size 3 to 8) (size 9 to 14) (size 15 to 20)
#    0.000    1.000    2.500    4.500    0.000    7.000 
#    0.000    0.000    0.000    0.000    0.000    0.000 
#    0.000    0.000    0.000    0.000    0.000    0.000 
#
# Total GULP energy -89615.767972 kJ/mol
# GULP energy per Si atom -5600.985498 kJ/mol
# Density = 2.348440 g / cm^3
# Si number density = 23.537969 Si / 1000 Ang^3
#
#
#
# Elastic Constant Matrix: (Units=GPa)
#
#
# Indices 1 2 3 4 5 6 
#
# 1 91.8699 6.9163 13.8833 -0.0001 21.0720 0.0000
# 2 6.9163 32.2555 12.0295 0.0001 12.2510 0.0000
# 3 13.8833 12.0295 73.3135 0.0008 22.7592 0.0000
# 4 -0.0001 0.0001 0.0008 22.9890 0.0001 9.0773
# 5 21.0720 12.2510 22.7592 0.0001 48.5309 0.0000
# 6 0.0000 0.0000 0.0000 9.0773 0.0000 26.5605
#
#
#
# Elastic Compliance Matrix: (Units=1/GPa)
#
#
# Indices 1 2 3 4 5 6 
#
# 1 0.012134 -0.000508 -0.000724 0.000000 -0.004801 0.000000
# 2 -0.000508 0.035069 -0.003486 0.000000 -0.006997 0.000000
# 3 -0.000724 -0.003486 0.016360 -0.000001 -0.006478 0.000000
# 4 0.000000 0.000000 -0.000001 0.050285 0.000000 -0.017185
# 5 -0.004801 -0.006997 -0.006478 0.000000 0.027494 0.000000
# 6 0.000000 0.000000 0.000000 -0.017185 0.000000 0.043523
#
#
# Mechanical properties :
#
#
# Convention : Reuss Voigt Hill
#
# Bulk Modulus (GPa) = 18.47521 29.23300 23.85410
# Shear Modulus (GPa) = 23.54676 30.59006 27.06841
#
# Velocity S-wave (km/s) = 3.16630 3.60891 3.39483
# Velocity P-wave (km/s) = 4.60797 5.46005 5.05201
#
# Compressibility (1/GPa) = 0.05412658
#
# Stress axis : x y z
#
# Youngs Moduli (GPa) = 82.41473 28.51511 61.12424
#
# Poissons Ratio (x) = 0.01450 0.04426
# Poissons Ratio (y) = 0.04190 0.21306
# Poissons Ratio (z) = 0.05967 0.09940
#
# Static dielectric constant tensor:
#      x y z
#    x 1.880590 0.000000 -0.000670 
#    y 0.000000 1.793550 0.000000 
#    z -0.000670 0.000000 1.965440 
# 
# From -- ./inp_files/31981.got.cif
#   From: 2010.05.17/outbox.cif.g08.bks.cpg/sg8_16_cif.got.tgz:31981.got - 2010.06.03 19:46:02.
