data_PCOD9132062
_publ_section_title
;
Structure prediction by ZEFSAII (Michael W. Deem and Ramdas Pophale) SiO2 
 PCOD9132062
Probable space group: C M
;
_chemical_formula_sum "Si O2"
_cell_formula_units_Z 26
_cell_length_a 13.790813
_cell_length_b 7.591047
_cell_length_c 9.386766
_cell_angle_alpha 90.000000
_cell_angle_beta 74.094295
_cell_angle_gamma 90.000000
_cell_volume 945.047183
_symmetry_space_group_name_H-M "C M"
_symmetry_group_IT_number 8
_symmetry_cell_setting 'monoclinic'
loop_
_space_group_symop_operation_xyz
x,y,z
x,-y,z
1/2+x,1/2+y,z
1/2+x,1/2-y,z
loop_
_atom_site_type_symbol
_atom_site_label
_atom_site_fract_x
_atom_site_fract_y
_atom_site_fract_z
Si Si1 0.818671 0.500000 0.259580
Si Si2 0.576788 0.709797 0.404847
Si Si3 0.345729 0.695083 0.456507
Si Si4 0.156516 0.214103 0.086359
Si Si5 0.772900 0.699042 0.781702
Si Si6 0.936646 0.795026 0.030741
Si Si7 0.566358 0.797814 0.735474
O O1 0.792407 0.347183 0.391482
O O2 0.863153 0.655558 0.133660
O O3 0.594219 0.500000 0.409365
O O4 0.464133 0.726846 0.386474
O O5 0.646744 0.782401 0.250404
O O6 0.572255 0.788385 0.563083
O O7 0.315833 0.500000 0.423733
O O8 0.331483 0.706176 0.632505
O O9 0.047689 0.240219 0.057119
O O10 0.170971 0.000000 0.093612
O O11 0.243857 0.280469 0.946434
O O12 0.812298 0.500000 0.781934
O O13 0.660324 0.689586 0.757645
O O14 0.912635 0.000000 0.066620
O O15 0.963737 0.766420 0.852191
O O16 0.581118 0.000000 0.772469
#
# Coordination Sequence:
#
# PCOD9132062 Si02
#       7
#     2   4   4   4   4   4   4
#     4  12  20  34  60  90 118 154 198 242 296 350
#     4  10  20  36  59  87 119 157 195 247 300 346
#     4  11  23  38  60  91 122 155 198 248 296 351
#     4   8  16  32  58  83 110 149 197 242 287 342
#     4  10  20  38  61  85 117 156 199 245 298 355
#     4  10  19  35  56  86 116 150 197 247 287 347
#     4  11  22  35  58  89 121 156 201 245 297 353
#
# _framework density 27.511851
#
# number of rings (size 3 to 8) (size 9 to 14) (size 15 to 20)
#    0.000    1.846    3.077    3.231    1.077    0.000 
#    0.000    0.000    3.385    0.000    0.000    0.000 
#    0.000    0.000    0.000    0.000    0.000    0.000 
#
# Total GULP energy -72624.939749 kJ/mol
# GULP energy per Si atom -5586.533827 kJ/mol
# Density = 2.744923 g / cm^3
# Si number density = 27.511851 Si / 1000 Ang^3
#
#
#
# Elastic Constant Matrix: (Units=GPa)
#
#
# Indices 1 2 3 4 5 6 
#
# 1 80.9043 14.7906 27.5571 0.0000 -8.2043 0.0000
# 2 14.7906 134.2401 46.7604 0.0000 -15.3186 0.0000
# 3 27.5571 46.7604 259.5152 0.0000 -36.6241 0.0000
# 4 0.0000 0.0000 0.0000 37.7816 0.0000 -5.9261
# 5 -8.2043 -15.3186 -36.6241 0.0000 38.8744 0.0000
# 6 0.0000 0.0000 0.0000 -5.9261 0.0000 15.7087
#
#
#
# Elastic Compliance Matrix: (Units=1/GPa)
#
#
# Indices 1 2 3 4 5 6 
#
# 1 0.013019 -0.000918 -0.001015 0.000000 0.001429 0.000000
# 2 -0.000918 0.008158 -0.001091 0.000000 0.001993 0.000000
# 3 -0.001015 -0.001091 0.004690 0.000000 0.003775 0.000000
# 4 0.000000 0.000000 0.000000 0.028133 0.000000 0.010613
# 5 0.001429 0.001993 0.003775 0.000000 0.030367 0.000000
# 6 0.000000 0.000000 0.000000 0.010613 0.000000 0.067663
#
#
# Mechanical properties :
#
#
# Convention : Reuss Voigt Hill
#
# Bulk Modulus (GPa) = 50.45699 72.54175 61.49937
# Shear Modulus (GPa) = 30.36109 44.17638 37.26874
#
# Velocity S-wave (km/s) = 3.32560 4.01149 3.68454
# Velocity P-wave (km/s) = 5.75552 6.91960 6.36423
#
# Compressibility (1/GPa) = 0.01981886
#
# Stress axis : x y z
#
# Youngs Moduli (GPa) = 76.81181 122.57930 213.19770
#
# Poissons Ratio (x) = 0.11248 0.21647
# Poissons Ratio (y) = 0.07048 0.23265
# Poissons Ratio (z) = 0.07799 0.13376
#
# Static dielectric constant tensor:
#      x y z
#    x 2.322910 0.000000 0.023930 
#    y 0.000000 2.015130 0.000000 
#    z 0.023930 0.000000 2.194990 
# 
# From -- ./inp_files/15604.got.cif
#   From: 2010.05.17/outbox.cif.g08.bks.cpg/sg8_8_cif.got.tgz:15604.got - 2010.06.03 19:46:02.
