data_PCOD9132276
_publ_section_title
;
Structure prediction by ZEFSAII (Michael W. Deem and Ramdas Pophale) SiO2 
 PCOD9132276
Probable space group: C M
;
_chemical_formula_sum "Si O2"
_cell_formula_units_Z 24
_cell_length_a 15.243849
_cell_length_b 9.090327
_cell_length_c 8.953777
_cell_angle_alpha 90.000000
_cell_angle_beta 64.260457
_cell_angle_gamma 90.000000
_cell_volume 1117.629753
_symmetry_space_group_name_H-M "C M"
_symmetry_group_IT_number 8
_symmetry_cell_setting 'monoclinic'
loop_
_space_group_symop_operation_xyz
x,y,z
x,-y,z
1/2+x,1/2+y,z
1/2+x,1/2-y,z
loop_
_atom_site_type_symbol
_atom_site_label
_atom_site_fract_x
_atom_site_fract_y
_atom_site_fract_z
Si Si1 0.842250 0.837240 0.869220
Si Si2 0.026052 0.675993 0.188636
Si Si3 0.416715 0.167980 0.549847
Si Si4 0.551902 0.334748 0.862911
Si Si5 0.636184 0.170319 0.534578
Si Si6 0.211207 0.825771 0.200540
O O1 0.849006 0.771793 0.698455
O O2 0.953022 0.849776 0.841929
O O3 0.796593 0.000000 0.905978
O O4 0.791400 0.731936 0.025966
O O5 0.044472 0.500000 0.184613
O O6 0.111881 0.771758 0.196695
O O7 0.932996 0.704482 0.363792
O O8 0.024301 0.730683 0.021193
O O9 0.526826 0.172505 0.540164
O O10 0.382796 0.000000 0.588809
O O11 0.581983 0.500000 0.888329
O O12 0.627866 0.259071 0.694770
O O13 0.708023 0.246000 0.363101
O O14 0.660767 0.000000 0.540034
O O15 0.215544 0.000000 0.216097
#
# Coordination Sequence:
#
# PCOD9132276 Si02
#       6
#     4   4   4   4   4   4
#     4  10  20  34  53  77 105 136 172 213 259 309
#     4  10  20  35  55  78 106 138 172 212 260 310
#     4   8  16  31  51  74  99 132 172 210 252 305
#     4  10  20  34  54  80 107 136 173 214 256 305
#     4   9  17  32  53  75 102 136 174 211 253 308
#     4  11  21  34  54  78 105 136 175 218 258 305
#
# _framework density 21.474017
#
# number of rings (size 3 to 8) (size 9 to 14) (size 15 to 20)
#    0.000    2.333    0.000    4.500    0.000    6.667 
#    0.000    1.667    0.000    4.000    0.000    0.000 
#    0.000    0.000    0.000    0.000    0.000    0.000 
#
# Total GULP energy -66982.784241 kJ/mol
# GULP energy per Si atom -5581.898687 kJ/mol
# Density = 2.142514 g / cm^3
# Si number density = 21.474017 Si / 1000 Ang^3
#
#
#
# Elastic Constant Matrix: (Units=GPa)
#
#
# Indices 1 2 3 4 5 6 
#
# 1 17.0082 3.0387 1.6528 0.0000 -3.7693 0.0000
# 2 3.0387 158.9094 86.4250 0.0000 -10.8345 0.0000
# 3 1.6528 86.4250 179.9863 0.0000 3.2911 0.0000
# 4 0.0000 0.0000 0.0000 34.8299 0.0000 -2.1387
# 5 -3.7693 -10.8345 3.2911 0.0000 17.6038 0.0000
# 6 0.0000 0.0000 0.0000 -2.1387 0.0000 15.4174
#
#
#
# Elastic Compliance Matrix: (Units=1/GPa)
#
#
# Indices 1 2 3 4 5 6 
#
# 1 0.061849 0.000253 -0.000937 0.000000 0.013574 0.000000
# 2 0.000253 0.009207 -0.004543 0.000000 0.006570 0.000000
# 3 -0.000937 -0.004543 0.007828 0.000000 -0.004461 0.000000
# 4 0.000000 0.000000 0.000000 0.028958 0.000000 0.004017
# 5 0.013574 0.006570 -0.004461 0.000000 0.064590 0.000000
# 6 0.000000 0.000000 0.000000 0.004017 0.000000 0.065419
#
#
# Mechanical properties :
#
#
# Convention : Reuss Voigt Hill
#
# Bulk Modulus (GPa) = 14.61395 59.79298 37.20346
# Shear Modulus (GPa) = 18.44223 31.22271 24.83247
#
# Velocity S-wave (km/s) = 2.93374 3.81724 3.40427
# Velocity P-wave (km/s) = 4.27737 6.87991 5.72840
#
# Compressibility (1/GPa) = 0.06842777
#
# Stress axis : x y z
#
# Youngs Moduli (GPa) = 16.16828 108.61264 127.74979
#
# Poissons Ratio (x) = -0.02744 0.11976
# Poissons Ratio (y) = -0.00408 0.58042
# Poissons Ratio (z) = 0.01516 0.49348
#
# Static dielectric constant tensor:
#      x y z
#    x 1.830580 0.000000 -0.003220 
#    y 0.000000 1.745270 0.000000 
#    z -0.003220 0.000000 1.784450 
# 
# From -- ./inp_files/14196.got.cif
#   From: 2010.05.17/outbox.cif.g08.bks.cpg/sg8_8_cif.got.tgz:14196.got - 2010.06.03 19:46:02.
