data_PCOD9132119
_publ_section_title
;
Structure prediction by ZEFSAII (Michael W. Deem and Ramdas Pophale) SiO2 
 PCOD9132119
Probable space group: C M
;
_chemical_formula_sum "Si O2"
_cell_formula_units_Z 32
_cell_length_a 14.567107
_cell_length_b 11.205191
_cell_length_c 18.262055
_cell_angle_alpha 90.000000
_cell_angle_beta 31.695397
_cell_angle_gamma 90.000000
_cell_volume 1566.155985
_symmetry_space_group_name_H-M "C M"
_symmetry_group_IT_number 8
_symmetry_cell_setting 'monoclinic'
loop_
_space_group_symop_operation_xyz
x,y,z
x,-y,z
1/2+x,1/2+y,z
1/2+x,1/2-y,z
loop_
_atom_site_type_symbol
_atom_site_label
_atom_site_fract_x
_atom_site_fract_y
_atom_site_fract_z
Si Si1 0.392630 0.634858 0.150080
Si Si2 0.429128 0.128964 0.022747
Si Si3 0.503878 0.637609 0.662548
Si Si4 0.147838 0.193970 0.102158
Si Si5 0.389108 0.137600 0.363706
Si Si6 0.739480 0.251064 0.747440
Si Si7 0.997066 0.638611 0.460151
Si Si8 0.954048 0.128547 0.862222
O O1 0.379722 0.500000 0.124444
O O2 0.421143 0.750778 0.078201
O O3 0.548940 0.631836 0.102706
O O4 0.206667 0.654423 0.317268
O O5 0.251581 0.126132 0.095904
O O6 0.448815 0.000000 0.047972
O O7 0.595267 0.145825 0.855045
O O8 0.449965 0.500000 0.682102
O O9 0.683340 0.662781 0.499342
O O10 0.356299 0.731301 0.739882
O O11 0.541005 0.639355 0.723642
O O12 0.003445 0.275892 0.238162
O O13 0.302926 0.276075 0.967077
O O14 0.444090 0.149944 0.411209
O O15 0.418134 0.000000 0.323200
O O16 0.884437 0.269488 0.585473
O O17 0.603096 0.355934 0.821963
O O18 0.960342 0.500000 0.507888
O O19 0.870736 0.000000 0.925835
#
# Coordination Sequence:
#
# PCOD9132119 Si02
#       8
#     4   4   4   4   4   4   4   4
#     4  11  24  43  68  96 128 168 216 266 322 387
#     4  11  25  43  63  93 134 170 210 265 324 387
#     4  10  20  36  58  84 119 160 208 264 318 376
#     4  11  22  38  63  90 124 166 206 260 325 377
#     4  10  19  35  61  91 124 164 214 265 314 381
#     4  11  21  36  62  89 122 164 212 261 319 367
#     4  10  20  38  62  92 126 164 214 269 315 376
#     4  10  21  37  59  89 123 164 211 260 311 381
#
# _framework density 20.432193000000002
#
# number of rings (size 3 to 8) (size 9 to 14) (size 15 to 20)
#    0.000    1.500    2.500    3.000    0.000    4.500 
#    0.000    1.250    0.000    3.000    0.000    0.000 
#    0.000    0.000    0.000    0.000    0.000    0.000 
#
# Total GULP energy -89101.657301 kJ/mol
# GULP energy per Si atom -5568.853581 kJ/mol
# Density = 2.038569 g / cm^3
# Si number density = 20.432193 Si / 1000 Ang^3
#
#
#
# Elastic Constant Matrix: (Units=GPa)
#
#
# Indices 1 2 3 4 5 6 
#
# 1 91.3013 36.6461 13.0346 0.0000 -18.8905 0.0000
# 2 36.6461 111.5840 55.0495 0.0000 1.6490 0.0000
# 3 13.0346 55.0495 97.3379 -0.0003 -7.9631 0.0001
# 4 0.0000 0.0000 -0.0003 4.0980 0.0001 0.8804
# 5 -18.8905 1.6490 -7.9631 0.0001 29.6466 -0.0001
# 6 0.0000 0.0000 0.0001 0.8804 -0.0001 19.2409
#
#
#
# Elastic Compliance Matrix: (Units=1/GPa)
#
#
# Indices 1 2 3 4 5 6 
#
# 1 0.015434 -0.006446 0.002467 0.000000 0.010856 0.000000
# 2 -0.006446 0.015327 -0.008395 0.000000 -0.007215 0.000000
# 3 0.002467 -0.008395 0.015192 0.000001 0.006119 0.000000
# 4 0.000000 0.000000 0.000001 0.246442 -0.000001 -0.011277
# 5 0.010856 -0.007215 0.006119 -0.000001 0.042693 0.000000
# 6 0.000000 0.000000 0.000000 -0.011277 0.000000 0.052489
#
#
# Mechanical properties :
#
#
# Convention : Reuss Voigt Hill
#
# Bulk Modulus (GPa) = 47.16150 56.63150 51.89650
# Shear Modulus (GPa) = 11.92196 23.62998 17.77597
#
# Velocity S-wave (km/s) = 2.41817 3.40444 2.95277
# Velocity P-wave (km/s) = 5.56137 6.57499 6.08931
#
# Compressibility (1/GPa) = 0.02120374
#
# Stress axis : x y z
#
# Youngs Moduli (GPa) = 64.79209 65.24252 65.82492
#
# Poissons Ratio (x) = 0.42057 -0.16239
# Poissons Ratio (y) = 0.41767 0.55263
# Poissons Ratio (z) = -0.15984 0.54774
#
# Static dielectric constant tensor:
#      x y z
#    x 1.740710 0.000000 -0.009910 
#    y 0.000000 1.781770 0.000000 
#    z -0.009910 0.000000 1.738970 
# 
# From -- ./inp_files/12758.got.cif
#   From: 2010.05.17/outbox.cif.g08.bks.cpg/sg8_7_cif.got.tgz:12758.got - 2010.06.03 19:46:02.
