data_PCOD9132636
_publ_section_title
;
Structure prediction by ZEFSAII (Michael W. Deem and Ramdas Pophale) SiO2 
 PCOD9132636
Probable space group: C M
;
_chemical_formula_sum "Si O2"
_cell_formula_units_Z 32
_cell_length_a 11.889360
_cell_length_b 16.828815
_cell_length_c 9.757095
_cell_angle_alpha 90.000000
_cell_angle_beta 137.597942
_cell_angle_gamma 90.000000
_cell_volume 1316.449874
_symmetry_space_group_name_H-M "C M"
_symmetry_group_IT_number 8
_symmetry_cell_setting 'monoclinic'
loop_
_space_group_symop_operation_xyz
x,y,z
x,-y,z
1/2+x,1/2+y,z
1/2+x,1/2-y,z
loop_
_atom_site_type_symbol
_atom_site_label
_atom_site_fract_x
_atom_site_fract_y
_atom_site_fract_z
Si Si1 0.876490 0.406626 0.122690
Si Si2 0.549566 0.201318 0.455418
Si Si3 0.825786 0.094794 0.816374
Si Si4 0.140906 0.590610 0.937805
Si Si5 0.284154 0.907592 0.595651
Si Si6 0.595161 0.694455 0.222861
Si Si7 0.226973 0.639365 0.291536
Si Si8 0.584041 0.651619 0.672611
O O1 0.841309 0.500000 0.098435
O O2 0.914151 0.366475 0.302819
O O3 0.051616 0.396149 0.192260
O O4 0.719484 0.362012 0.912621
O O5 0.719777 0.148600 0.615060
O O6 0.528498 0.258737 0.302086
O O7 0.562543 0.258020 0.598825
O O8 0.710257 0.092536 0.848758
O O9 0.858083 0.000000 0.810515
O O10 0.977257 0.149122 0.009625
O O11 0.108444 0.500000 0.946255
O O12 0.962492 0.632621 0.787607
O O13 0.262497 0.615992 0.166873
O O14 0.166845 0.893771 0.619376
O O15 0.210393 0.870225 0.394852
O O16 0.300857 0.000000 0.586167
O O17 0.694657 0.766976 0.248454
O O18 0.396448 0.620735 0.525551
#
# Coordination Sequence:
#
# PCOD9132636 Si02
#       8
#     4   4   4   4   4   4   4   4
#     4  11  23  43  68  95 131 170 217 272 324 387
#     4  10  22  41  64  94 129 172 213 263 327 385
#     4  11  23  42  68  94 130 176 220 268 326 388
#     4  10  21  37  63  94 127 167 213 266 323 379
#     4  10  20  38  61  93 130 166 213 268 321 380
#     4  10  23  39  62  95 127 168 214 266 321 391
#     4  11  23  40  64 102 130 166 217 274 330 384
#     4  11  23  40  66  97 130 173 217 269 326 388
#
# _framework density 24.3078
#
# number of rings (size 3 to 8) (size 9 to 14) (size 15 to 20)
#    0.000    1.500    1.250    4.500    3.500    3.000 
#    0.000    0.000    0.000    3.000    0.000    0.000 
#    0.000    0.000    0.000    0.000    0.000    0.000 
#
# Total GULP energy -89292.992528 kJ/mol
# GULP energy per Si atom -5580.812033 kJ/mol
# Density = 2.425247 g / cm^3
# Si number density = 24.307800 Si / 1000 Ang^3
#
#
#
# Elastic Constant Matrix: (Units=GPa)
#
#
# Indices 1 2 3 4 5 6 
#
# 1 52.7978 3.1263 12.4718 0.0000 10.1305 0.0000
# 2 3.1263 117.9249 41.0731 0.0000 2.1567 0.0000
# 3 12.4718 41.0731 176.2967 0.0000 19.5167 0.0000
# 4 0.0000 0.0000 0.0000 -52.8204 0.0000 -233.4827
# 5 10.1305 2.1567 19.5167 0.0000 29.5469 0.0000
# 6 0.0000 0.0000 0.0000 -233.4827 0.0000 -537.6943
#
#
#
# Elastic Compliance Matrix: (Units=1/GPa)
#
#
# Indices 1 2 3 4 5 6 
#
# 1 0.020362 -0.000185 -0.000675 0.000000 -0.006522 0.000000
# 2 -0.000185 0.009248 -0.002237 0.000000 0.000866 0.000000
# 3 -0.000675 -0.002237 0.006687 0.000000 -0.004022 0.000000
# 4 0.000000 0.000000 0.000000 0.020591 0.000000 -0.008941
# 5 -0.006522 0.000866 -0.004022 0.000000 0.038674 0.000000
# 6 0.000000 0.000000 0.000000 -0.008941 0.000000 0.002023
#
#
# Mechanical properties :
#
#
# Convention : Reuss Voigt Hill
#
# Bulk Modulus (GPa) = 33.22182 51.15133 42.18657
# Shear Modulus (GPa) = 43.93120 -92.83701 -24.45290
#
# Velocity S-wave (km/s) = 4.25583 -6.18669 -3.17514
# Velocity P-wave (km/s) = 6.15193 5.47218 1.98766
#
# Compressibility (1/GPa) = 0.03010070
#
# Stress axis : x y z
#
# Youngs Moduli (GPa) = 49.11101 108.12751 149.55431
#
# Poissons Ratio (x) = 0.02004 0.10100
# Poissons Ratio (y) = 0.00910 0.33462
# Poissons Ratio (z) = 0.03317 0.24193
#
# Static dielectric constant tensor:
#      x y z
#    x 2.037690 0.000000 0.074490 
#    y 0.000000 1.946350 0.000000 
#    z 0.074490 0.000000 2.027330 
# 
# From -- ./inp_files/22427.got.cif
#   From: 2010.05.17/outbox.cif.g08.bks.cpg/sg8_12_cif.got.tgz:22427.got - 2010.06.03 19:46:02.
