data_PCOD9132834
_publ_section_title
;
Structure prediction by ZEFSAII (Michael W. Deem and Ramdas Pophale) SiO2 
 PCOD9132834
Probable space group: C M
;
_chemical_formula_sum "Si O2"
_cell_formula_units_Z 32
_cell_length_a 10.610574
_cell_length_b 8.154559
_cell_length_c 18.430489
_cell_angle_alpha 90.000000
_cell_angle_beta 89.756360
_cell_angle_gamma 90.000000
_cell_volume 1594.675381
_symmetry_space_group_name_H-M "C M"
_symmetry_group_IT_number 8
_symmetry_cell_setting 'monoclinic'
loop_
_space_group_symop_operation_xyz
x,y,z
x,-y,z
1/2+x,1/2+y,z
1/2+x,1/2-y,z
loop_
_atom_site_type_symbol
_atom_site_label
_atom_site_fract_x
_atom_site_fract_y
_atom_site_fract_z
Si Si1 0.332130 0.301809 0.884390
Si Si2 0.323241 0.802192 0.385088
Si Si3 0.073247 0.196394 0.468560
Si Si4 0.818342 0.802311 0.718439
Si Si5 0.569572 0.196303 0.635290
Si Si6 0.839460 0.698295 0.218886
Si Si7 0.090295 0.198024 0.134855
Si Si8 0.081047 0.801742 0.968550
O O1 0.336608 0.500000 0.882830
O O2 0.327907 0.242438 0.801278
O O3 0.207148 0.250583 0.927171
O O4 0.457154 0.243424 0.925895
O O5 0.446727 0.754462 0.429455
O O6 0.332067 0.743194 0.302067
O O7 0.196871 0.742202 0.425392
O O8 0.316784 0.000000 0.383039
O O9 0.075888 0.251041 0.551815
O O10 0.074939 0.000000 0.466899
O O11 0.691962 0.741758 0.678928
O O12 0.941847 0.756043 0.673161
O O13 0.811308 0.000000 0.720821
O O14 0.570433 0.000000 0.637851
O O15 0.836479 0.500000 0.219913
O O16 0.717858 0.755913 0.173829
O O17 0.967825 0.751403 0.180183
O O18 0.094511 0.000000 0.133243
O O19 0.081954 0.256719 0.051815
O O20 0.077304 0.000000 0.969796
#
# Coordination Sequence:
#
# PCOD9132834 Si02
#       8
#     4   4   4   4   4   4   4   4
#     4  10  21  37  57  83 114 147 187 232 276 328
#     4  10  22  39  58  83 113 145 185 230 276 330
#     4  11  23  39  60  84 112 147 183 225 278 331
#     4  10  22  39  58  83 114 147 186 231 277 328
#     4  11  23  38  58  84 112 145 186 229 275 330
#     4  10  21  37  57  82 112 146 186 231 277 328
#     4  10  21  37  56  82 115 148 187 232 276 328
#     4  10  21  36  56  83 114 149 188 230 277 329
#
# _framework density 20.066779
#
# number of rings (size 3 to 8) (size 9 to 14) (size 15 to 20)
#    0.000    1.750    0.000    3.750    0.000    7.500 
#    0.000    0.000    0.000    0.000    0.000    0.000 
#    0.000    0.000    0.000    0.000    0.000    0.000 
#
# Total GULP energy -89454.536373 kJ/mol
# GULP energy per Si atom -5590.908523 kJ/mol
# Density = 2.002111 g / cm^3
# Si number density = 20.066779 Si / 1000 Ang^3
#
#
#
# Elastic Constant Matrix: (Units=GPa)
#
#
# Indices 1 2 3 4 5 6 
#
# 1 152.8342 -9.6098 56.6959 0.0000 4.1572 0.0000
# 2 -9.6098 4.2233 -3.9040 0.0000 4.3272 0.0000
# 3 56.6959 -3.9040 154.0215 0.0000 2.7854 0.0000
# 4 0.0000 0.0000 0.0000 17.8821 0.0000 -38.1100
# 5 4.1572 4.3272 2.7854 0.0000 47.4794 0.0000
# 6 0.0000 0.0000 0.0000 -38.1100 0.0000 59.1766
#
#
#
# Elastic Compliance Matrix: (Units=1/GPa)
#
#
# Indices 1 2 3 4 5 6 
#
# 1 0.008890 0.020244 -0.002715 0.000000 -0.002464 0.000000
# 2 0.020244 0.315167 0.001089 0.000000 -0.030560 0.000000
# 3 -0.002715 0.001089 0.007525 0.000000 -0.000303 0.000000
# 4 0.000000 0.000000 0.000000 -0.150130 0.000000 -0.096684
# 5 -0.002464 -0.030560 -0.000303 0.000000 0.024080 0.000000
# 6 0.000000 0.000000 0.000000 -0.096684 0.000000 -0.045367
#
#
# Mechanical properties :
#
#
# Convention : Reuss Voigt Hill
#
# Bulk Modulus (GPa) = 2.71136 44.16035 23.43585
# Shear Modulus (GPa) = 20.33605 42.76742 31.55174
#
# Velocity S-wave (km/s) = 3.18688 4.62156 3.96957
# Velocity P-wave (km/s) = 3.85949 7.10865 5.71964
#
# Compressibility (1/GPa) = 0.36881926
#
# Stress axis : x y z
#
# Youngs Moduli (GPa) = 112.48543 3.17292 132.89026
#
# Poissons Ratio (x) = -0.06423 0.36077
# Poissons Ratio (y) = -2.27716 -0.14475
# Poissons Ratio (z) = 0.30537 -0.00346
#
# Static dielectric constant tensor:
#      x y z
#    x 1.663390 0.000000 0.017920 
#    y 0.000000 1.703650 0.000000 
#    z 0.017920 0.000000 1.687800 
# 
# From -- ./inp_files/25838.got.cif
#   From: 2010.05.17/outbox.cif.g08.bks.cpg/sg8_13_cif.got.tgz:25838.got - 2010.06.03 19:46:02.
