data_PCOD9132237
_publ_section_title
;
Structure prediction by ZEFSAII (Michael W. Deem and Ramdas Pophale) SiO2 
 PCOD9132237
Probable space group: C M
;
_chemical_formula_sum "Si O2"
_cell_formula_units_Z 18
_cell_length_a 8.678809
_cell_length_b 11.145006
_cell_length_c 9.592012
_cell_angle_alpha 90.000000
_cell_angle_beta 47.235953
_cell_angle_gamma 90.000000
_cell_volume 681.143385
_symmetry_space_group_name_H-M "C M"
_symmetry_group_IT_number 8
_symmetry_cell_setting 'monoclinic'
loop_
_space_group_symop_operation_xyz
x,y,z
x,-y,z
1/2+x,1/2+y,z
1/2+x,1/2-y,z
loop_
_atom_site_type_symbol
_atom_site_label
_atom_site_fract_x
_atom_site_fract_y
_atom_site_fract_z
Si Si1 0.058560 0.257267 0.325900
Si Si2 0.520655 0.500000 0.411847
Si Si3 0.051914 0.500000 0.760107
Si Si4 0.133022 0.862165 0.691010
Si Si5 0.251857 0.208333 0.922712
Si Si6 0.214674 0.500000 0.360139
O O1 0.174444 0.377612 0.304321
O O2 0.125553 0.130547 0.356527
O O3 0.815690 0.278527 0.515904
O O4 0.096206 0.247217 0.138647
O O5 0.436938 0.500000 0.301332
O O6 0.299936 0.500000 0.631412
O O7 0.919594 0.614534 0.885794
O O8 0.051794 0.500000 0.590157
O O9 0.148013 0.848074 0.849837
O O10 0.905536 0.816253 0.786419
O O11 0.167653 0.000000 0.628319
#
# Coordination Sequence:
#
# PCOD9132237 Si02
#       6
#     4   2   2   4   4   2
#     4  12  24  43  76 106 139 190 241 289 362 423
#     4  10  23  43  74  96 146 190 229 292 362 418
#     4  10  19  47  69  98 142 194 235 277 365 434
#     4  12  26  50  73 103 147 191 236 297 358 428
#     4  12  26  42  79 104 137 192 240 288 357 427
#     4  10  22  46  73  98 142 188 236 291 351 432
#
# _framework density 26.426152999999999
#
# number of rings (size 3 to 8) (size 9 to 14) (size 15 to 20)
#    0.667    0.000    6.667    0.667    4.667    0.000 
#    4.000    1.111    4.889    0.000    0.000    0.000 
#    0.000    0.000    0.000    0.000    0.000    0.000 
#
# Total GULP energy -50455.766929 kJ/mol
# GULP energy per Si atom -5606.196325 kJ/mol
# Density = 2.636601 g / cm^3
# Si number density = 26.426153 Si / 1000 Ang^3
#
#
#
# Elastic Constant Matrix: (Units=GPa)
#
#
# Indices 1 2 3 4 5 6 
#
# 1 70.6332 39.9194 18.7881 -0.0004 1.9837 0.0002
# 2 39.9194 210.5168 45.6190 0.0000 0.8487 0.0000
# 3 18.7881 45.6190 160.3362 -0.0003 8.7022 0.0003
# 4 -0.0004 0.0000 -0.0003 16.1176 0.0004 7.6425
# 5 1.9837 0.8487 8.7022 0.0004 25.7242 -0.0002
# 6 0.0002 0.0000 0.0003 7.6425 -0.0002 51.3787
#
#
#
# Elastic Compliance Matrix: (Units=1/GPa)
#
#
# Indices 1 2 3 4 5 6 
#
# 1 0.016047 -0.002815 -0.001036 0.000000 -0.000794 0.000000
# 2 -0.002815 0.005559 -0.001277 0.000000 0.000466 0.000000
# 3 -0.001036 -0.001277 0.006841 0.000000 -0.002192 0.000000
# 4 0.000000 0.000000 0.000000 0.066752 -0.000001 -0.009929
# 5 -0.000794 0.000466 -0.002192 -0.000001 0.039661 0.000000
# 6 0.000000 0.000000 0.000000 -0.009929 0.000000 0.020940
#
#
# Mechanical properties :
#
#
# Convention : Reuss Voigt Hill
#
# Bulk Modulus (GPa) = 54.97733 72.23769 63.60751
# Shear Modulus (GPa) = 29.04953 41.12140 35.08547
#
# Velocity S-wave (km/s) = 3.31912 3.94901 3.64769
# Velocity P-wave (km/s) = 5.96138 6.94175 6.47016
#
# Compressibility (1/GPa) = 0.01818931
#
# Stress axis : x y z
#
# Youngs Moduli (GPa) = 62.31863 179.89232 146.18510
#
# Poissons Ratio (x) = 0.50641 0.15149
# Poissons Ratio (y) = 0.17543 0.18668
# Poissons Ratio (z) = 0.06458 0.22973
#
# Static dielectric constant tensor:
#      x y z
#    x 2.092460 0.000000 0.030780 
#    y 0.000000 2.111140 0.000000 
#    z 0.030780 0.000000 2.020700 
# 
# From -- ./inp_files/10099.got.cif
#   From: 2010.05.17/outbox.cif.g08.bks.cpg/sg8_6_cif.got.tgz:10099.got - 2010.06.03 19:46:02.
