data_PCOD9132670
_publ_section_title
;
Structure prediction by ZEFSAII (Michael W. Deem and Ramdas Pophale) SiO2 
 PCOD9132670
Probable space group: C M
;
_chemical_formula_sum "Si O2"
_cell_formula_units_Z 26
_cell_length_a 14.711214
_cell_length_b 7.392677
_cell_length_c 12.128190
_cell_angle_alpha 90.000000
_cell_angle_beta 123.650575
_cell_angle_gamma 90.000000
_cell_volume 1097.982028
_symmetry_space_group_name_H-M "C M"
_symmetry_group_IT_number 8
_symmetry_cell_setting 'monoclinic'
loop_
_space_group_symop_operation_xyz
x,y,z
x,-y,z
1/2+x,1/2+y,z
1/2+x,1/2-y,z
loop_
_atom_site_type_symbol
_atom_site_label
_atom_site_fract_x
_atom_site_fract_y
_atom_site_fract_z
Si Si1 0.686330 0.211395 0.752100
Si Si2 0.945471 0.288243 0.696768
Si Si3 0.182447 0.000000 0.548928
Si Si4 0.774115 0.221218 0.197099
Si Si5 0.539532 0.792237 0.978478
Si Si6 0.739545 0.202371 0.422359
Si Si7 0.378475 0.717380 0.053059
O O1 0.563692 0.222680 0.719573
O O2 0.695173 0.341836 0.654054
O O3 0.704750 0.000000 0.735686
O O4 0.773033 0.262064 0.906114
O O5 0.905206 0.500000 0.673660
O O6 0.961990 0.215861 0.831453
O O7 0.853558 0.193513 0.565230
O O8 0.168404 0.158442 0.443619
O O9 0.773223 0.272973 0.323655
O O10 0.863769 0.279132 0.168739
O O11 0.775578 0.000000 0.198639
O O12 0.659235 0.284792 0.069213
O O13 0.554722 0.000000 0.952068
O O14 0.482185 0.787677 0.057192
O O15 0.692978 0.000000 0.380973
O O16 0.385680 0.500000 0.058392
#
# Coordination Sequence:
#
# PCOD9132670 Si02
#       7
#     4   4   2   4   4   4   4
#     4  10  22  40  66  97 134 170 214 277 330 383
#     4  10  20  40  66  97 130 170 218 273 326 385
#     4  12  24  42  62  98 126 172 228 266 322 396
#     4   9  20  44  65  87 129 176 212 261 332 392
#     4  10  20  38  66  93 124 167 213 269 328 383
#     4  11  24  43  67  92 134 178 216 270 330 390
#     4  10  20  39  63  96 127 166 214 268 329 393
#
# _framework density 23.679805000000002
#
# number of rings (size 3 to 8) (size 9 to 14) (size 15 to 20)
#    0.000    1.846    2.308    1.385    4.308    1.846 
#    5.538    0.000    0.000    0.000    0.000    0.000 
#    0.000    0.000    0.000    0.000    0.000    0.000 
#
# Total GULP energy -72444.978922 kJ/mol
# GULP energy per Si atom -5572.690686 kJ/mol
# Density = 2.362591 g / cm^3
# Si number density = 23.679805 Si / 1000 Ang^3
#
#
#
# Elastic Constant Matrix: (Units=GPa)
#
#
# Indices 1 2 3 4 5 6 
#
# 1 60.3637 21.9283 23.9953 0.0000 -29.8963 0.0000
# 2 21.9283 111.7863 10.9745 0.0000 -25.7164 0.0000
# 3 23.9953 10.9745 84.2642 0.0000 -45.7930 0.0000
# 4 0.0000 0.0000 0.0000 19.8382 0.0000 -8.4312
# 5 -29.8963 -25.7164 -45.7930 0.0000 48.6780 0.0000
# 6 0.0000 0.0000 0.0000 -8.4312 0.0000 24.7337
#
#
#
# Elastic Compliance Matrix: (Units=1/GPa)
#
#
# Indices 1 2 3 4 5 6 
#
# 1 0.024188 -0.001238 0.002028 0.000000 0.016109 0.000000
# 2 -0.001238 0.010706 0.003312 0.000000 0.008011 0.000000
# 3 0.002028 0.003312 0.025547 0.000000 0.027028 0.000000
# 4 0.000000 0.000000 0.000000 0.058948 0.000000 0.020094
# 5 0.016109 0.008011 0.027028 0.000000 0.060095 0.000000
# 6 0.000000 0.000000 0.000000 0.020094 0.000000 0.047280
#
#
# Mechanical properties :
#
#
# Convention : Reuss Voigt Hill
#
# Bulk Modulus (GPa) = 14.56769 41.13448 27.85109
# Shear Modulus (GPa) = 20.70883 31.95105 26.32994
#
# Velocity S-wave (km/s) = 2.96046 3.67726 3.33816
# Velocity P-wave (km/s) = 4.22505 5.95302 5.16186
#
# Compressibility (1/GPa) = 0.06864506
#
# Stress axis : x y z
#
# Youngs Moduli (GPa) = 41.34224 93.40222 39.14379
#
# Poissons Ratio (x) = 0.11563 -0.07938
# Poissons Ratio (y) = 0.05118 -0.12964
# Poissons Ratio (z) = -0.08383 -0.30934
#
# Static dielectric constant tensor:
#      x y z
#    x 1.954190 0.000000 0.032210 
#    y 0.000000 1.911350 0.000000 
#    z 0.032210 0.000000 1.893250 
# 
# From -- ./inp_files/21418.got.cif
#   From: 2010.05.17/outbox.cif.g08.bks.cpg/sg8_11_cif.got.tgz:21418.got - 2010.06.03 19:46:02.
