data_PCOD9132462
_publ_section_title
;
Structure prediction by ZEFSAII (Michael W. Deem and Ramdas Pophale) SiO2 
 PCOD9132462
Probable space group: C M
;
_chemical_formula_sum "Si O2"
_cell_formula_units_Z 26
_cell_length_a 25.703179
_cell_length_b 8.418151
_cell_length_c 7.041424
_cell_angle_alpha 90.000000
_cell_angle_beta 137.855940
_cell_angle_gamma 90.000000
_cell_volume 1022.314741
_symmetry_space_group_name_H-M "C M"
_symmetry_group_IT_number 8
_symmetry_cell_setting 'monoclinic'
loop_
_space_group_symop_operation_xyz
x,y,z
x,-y,z
1/2+x,1/2+y,z
1/2+x,1/2-y,z
loop_
_atom_site_type_symbol
_atom_site_label
_atom_site_fract_x
_atom_site_fract_y
_atom_site_fract_z
Si Si1 0.233190 0.311507 0.802340
Si Si2 0.360941 0.000000 0.770165
Si Si3 0.909585 0.176404 0.341191
Si Si4 0.548470 0.671247 0.960604
Si Si5 0.130286 0.683780 0.834241
Si Si6 0.008411 0.500000 0.949189
Si Si7 0.279236 0.677763 0.498428
Si Si8 0.434803 0.000000 0.323366
O O1 0.223237 0.500000 0.804466
O O2 0.239717 0.287981 0.595980
O O3 0.319557 0.276914 0.118553
O O4 0.158896 0.244718 0.712132
O O5 0.328589 0.163660 0.599862
O O6 0.452236 0.000000 0.974825
O O7 0.354181 0.000000 0.980401
O O8 0.951209 0.313101 0.330480
O O9 0.956275 0.166291 0.664227
O O10 0.911753 0.000000 0.261546
O O11 0.572403 0.500000 0.103441
O O12 0.559160 0.840980 0.087485
O O13 0.585636 0.697802 0.852914
O O14 0.095576 0.500000 0.732725
O O15 0.212114 0.666298 0.163737
O O16 0.955668 0.500000 0.609701
O O17 0.316123 0.500000 0.608403
#
# Coordination Sequence:
#
# PCOD9132462 Si02
#       8
#     4   2   4   4   4   2   4   2
#     4   9  18  37  63  88 116 158 195 244 302 352
#     4  12  24  36  62 100 112 157 203 239 307 362
#     4   9  18  35  60  84 116 152 192 242 297 345
#     4  10  21  40  62  87 120 162 201 248 296 356
#     4  10  21  39  63  87 120 164 202 239 304 356
#     4  10  24  42  62  86 128 153 196 253 298 354
#     4  10  23  39  58  89 129 152 194 253 295 354
#     4  10  20  36  58  88 120 146 187 244 297 342
#
# _framework density 25.432480999999999
#
# number of rings (size 3 to 8) (size 9 to 14) (size 15 to 20)
#    0.000    2.154    2.308    0.000    5.385    0.615 
#    2.769    3.077    0.000    3.692    0.000    0.000 
#    0.000    0.000    0.000    0.000    0.000    0.000 
#
# Total GULP energy -72374.174584 kJ/mol
# GULP energy per Si atom -5567.244199 kJ/mol
# Density = 2.537460 g / cm^3
# Si number density = 25.432481 Si / 1000 Ang^3
#
#
#
# Elastic Constant Matrix: (Units=GPa)
#
#
# Indices 1 2 3 4 5 6 
#
# 1 103.5970 41.4764 -6.9285 0.0000 9.4934 0.0000
# 2 41.4764 235.5549 10.1423 0.0000 14.0153 0.0000
# 3 -6.9285 10.1423 54.2814 0.0000 -14.1547 0.0000
# 4 0.0000 0.0000 0.0000 24.8115 0.0000 7.8985
# 5 9.4934 14.0153 -14.1547 0.0000 21.3172 0.0000
# 6 0.0000 0.0000 0.0000 7.8985 0.0000 14.6362
#
#
#
# Elastic Compliance Matrix: (Units=1/GPa)
#
#
# Indices 1 2 3 4 5 6 
#
# 1 0.010687 -0.001741 0.000903 0.000000 -0.003015 0.000000
# 2 -0.001741 0.004873 -0.002136 0.000000 -0.003846 0.000000
# 3 0.000903 -0.002136 0.023218 0.000000 0.016419 0.000000
# 4 0.000000 0.000000 0.000000 0.048664 0.000000 -0.026262
# 5 -0.003015 -0.003846 0.016419 0.000000 0.061684 0.000000
# 6 0.000000 0.000000 0.000000 -0.026262 0.000000 0.082496
#
#
# Mechanical properties :
#
#
# Convention : Reuss Voigt Hill
#
# Bulk Modulus (GPa) = 30.45962 53.64597 42.05280
# Shear Modulus (GPa) = 20.11972 35.40251 27.76112
#
# Velocity S-wave (km/s) = 2.81571 3.73503 3.30746
# Velocity P-wave (km/s) = 4.75117 6.30395 5.58182
#
# Compressibility (1/GPa) = 0.03283035
#
# Stress axis : x y z
#
# Youngs Moduli (GPa) = 93.57539 205.22537 43.06947
#
# Poissons Ratio (x) = 0.35734 -0.03890
# Poissons Ratio (y) = 0.16293 0.09198
# Poissons Ratio (z) = -0.08452 0.43829
#
# Static dielectric constant tensor:
#      x y z
#    x 2.126750 0.000000 0.039360 
#    y 0.000000 2.025870 0.000000 
#    z 0.039360 0.000000 2.058840 
# 
# From -- ./inp_files/14422.got.cif
#   From: 2010.05.17/outbox.cif.g08.bks.cpg/sg8_8_cif.got.tgz:14422.got - 2010.06.03 19:46:02.
