data_PCOD9132104
_publ_section_title
;
Structure prediction by ZEFSAII (Michael W. Deem and Ramdas Pophale) SiO2 
 PCOD9132104
Probable space group: C M
;
_chemical_formula_sum "Si O2"
_cell_formula_units_Z 32
_cell_length_a 20.728926
_cell_length_b 9.061286
_cell_length_c 25.564365
_cell_angle_alpha 90.000000
_cell_angle_beta 22.705123
_cell_angle_gamma 90.000000
_cell_volume 1853.429393
_symmetry_space_group_name_H-M "C M"
_symmetry_group_IT_number 8
_symmetry_cell_setting 'monoclinic'
loop_
_space_group_symop_operation_xyz
x,y,z
x,-y,z
1/2+x,1/2+y,z
1/2+x,1/2-y,z
loop_
_atom_site_type_symbol
_atom_site_label
_atom_site_fract_x
_atom_site_fract_y
_atom_site_fract_z
Si Si1 0.678140 0.676028 0.760950
Si Si2 0.368698 0.176534 0.190022
Si Si3 0.489478 0.675439 0.792826
Si Si4 0.339939 0.176531 0.486298
Si Si5 0.639888 0.675602 0.062047
Si Si6 0.484914 0.324015 0.481546
Si Si7 0.910806 0.823886 0.046464
Si Si8 0.593154 0.824638 0.208566
O O1 0.707122 0.500000 0.739361
O O2 0.562294 0.705986 0.796596
O O3 0.851914 0.758178 0.621744
O O4 0.573972 0.715382 0.890335
O O5 0.500055 0.253899 0.129630
O O6 0.395739 0.234408 0.110938
O O7 0.177413 0.212881 0.348662
O O8 0.388528 0.000000 0.177251
O O9 0.453575 0.500000 0.817059
O O10 0.643613 0.709920 0.638875
O O11 0.322533 0.765967 0.908688
O O12 0.434309 0.257130 0.463063
O O13 0.428089 0.211139 0.365704
O O14 0.358451 0.000000 0.481080
O O15 0.633670 0.500000 0.064531
O O16 0.610672 0.733401 0.142803
O O17 0.468384 0.500000 0.491905
O O18 0.750312 0.798458 0.129406
O O19 0.915355 0.000000 0.054202
O O20 0.593003 0.000000 0.196016
#
# Coordination Sequence:
#
# PCOD9132104 Si02
#       8
#     4   4   4   4   4   4   4   4
#     4   9  18  33  56  84 113 147 182 222 275 333
#     4  11  24  40  57  80 114 152 188 231 283 335
#     4   9  17  34  56  82 113 147 185 223 276 334
#     4   9  18  33  58  85 110 145 183 224 278 334
#     4  12  25  38  56  82 113 152 192 231 278 332
#     4  10  20  33  53  83 114 145 183 230 278 324
#     4  10  19  35  60  87 113 144 187 232 275 329
#     4  10  19  36  60  85 114 146 184 231 279 331
#
# _framework density 17.265291999999999
#
# number of rings (size 3 to 8) (size 9 to 14) (size 15 to 20)
#    0.000    2.000    2.500    2.625    0.000    5.000 
#    0.000    1.250    0.000    1.500    0.000    0.000 
#    0.000    0.000    0.000    0.000    0.000    0.000 
#
# Total GULP energy -89314.518810 kJ/mol
# GULP energy per Si atom -5582.157426 kJ/mol
# Density = 1.722600 g / cm^3
# Si number density = 17.265292 Si / 1000 Ang^3
#
#
#
# Elastic Constant Matrix: (Units=GPa)
#
#
# Indices 1 2 3 4 5 6 
#
# 1 75.4497 55.3128 69.1831 -0.0012 -9.9698 -0.0002
# 2 55.3128 72.7257 80.2276 -0.0016 -10.4878 -0.0003
# 3 69.1831 80.2276 173.7211 -0.0028 -4.6873 -0.0005
# 4 -0.0012 -0.0016 -0.0028 27.6595 -0.0009 -0.7776
# 5 -9.9698 -10.4878 -4.6873 -0.0009 22.4380 -0.0001
# 6 -0.0002 -0.0003 -0.0005 -0.7776 -0.0001 26.4629
#
#
#
# Elastic Compliance Matrix: (Units=1/GPa)
#
#
# Indices 1 2 3 4 5 6 
#
# 1 0.031005 -0.019362 -0.003297 0.000000 0.004037 0.000000
# 2 -0.019362 0.042795 -0.011811 0.000001 0.008932 0.000000
# 3 -0.003297 -0.011811 0.012405 0.000000 -0.004394 0.000000
# 4 0.000000 0.000001 0.000000 0.036184 0.000002 0.001063
# 5 0.004037 0.008932 -0.004394 0.000002 0.049618 0.000000
# 6 0.000000 0.000000 0.000000 0.001063 0.000000 0.037820
#
#
# Mechanical properties :
#
#
# Convention : Reuss Voigt Hill
#
# Bulk Modulus (GPa) = 57.92394 81.26041 69.59217
# Shear Modulus (GPa) = 17.57332 23.12363 20.34847
#
# Velocity S-wave (km/s) = 3.19382 3.66363 3.43677
# Velocity P-wave (km/s) = 6.87189 8.06624 7.49290
#
# Compressibility (1/GPa) = 0.01726402
#
# Stress axis : x y z
#
# Youngs Moduli (GPa) = 32.25296 23.36744 80.61020
#
# Poissons Ratio (x) = 0.45245 0.26574
# Poissons Ratio (y) = 0.62449 0.95212
# Poissons Ratio (z) = 0.10633 0.27600
#
# Static dielectric constant tensor:
#      x y z
#    x 1.550520 0.000000 0.010090 
#    y 0.000000 1.572000 0.000000 
#    z 0.010090 0.000000 1.603790 
# 
# From -- ./inp_files/31666.got.cif
#   From: 2010.05.17/outbox.cif.g08.bks.cpg/sg8_16_cif.got.tgz:31666.got - 2010.06.03 19:46:02.
