data_PCOD9132969
_publ_section_title
;
Structure prediction by ZEFSAII (Michael W. Deem and Ramdas Pophale) SiO2 
 PCOD9132969
Probable space group: C M
;
_chemical_formula_sum "Si O2"
_cell_formula_units_Z 28
_cell_length_a 8.782587
_cell_length_b 11.683382
_cell_length_c 15.036841
_cell_angle_alpha 90.000000
_cell_angle_beta 47.902976
_cell_angle_gamma 90.000000
_cell_volume 1144.874259
_symmetry_space_group_name_H-M "C M"
_symmetry_group_IT_number 8
_symmetry_cell_setting 'monoclinic'
loop_
_space_group_symop_operation_xyz
x,y,z
x,-y,z
1/2+x,1/2+y,z
1/2+x,1/2-y,z
loop_
_atom_site_type_symbol
_atom_site_label
_atom_site_fract_x
_atom_site_fract_y
_atom_site_fract_z
Si Si1 0.895240 0.876487 0.420780
Si Si2 0.847337 0.373803 0.191210
Si Si3 0.897077 0.626197 0.457533
Si Si4 0.849173 0.123513 0.227962
Si Si5 0.372206 0.701960 0.824371
Si Si6 0.421279 0.123334 0.963409
Si Si7 0.823134 0.623334 0.685333
O O1 0.805410 0.753598 0.483404
O O2 0.872207 0.883655 0.324371
O O3 0.144592 0.871556 0.332754
O O4 0.828374 0.000000 0.486573
O O5 0.947647 0.500000 0.168262
O O6 0.939004 0.246402 0.165338
O O7 0.800112 0.374718 0.103960
O O8 0.796766 0.500000 0.480480
O O9 0.944302 0.625282 0.544782
O O10 0.099821 0.628444 0.315988
O O11 0.916039 0.000000 0.162169
O O12 0.584767 0.634526 0.749264
O O13 0.375756 0.779779 0.734788
O O14 0.368657 0.779779 0.913954
O O15 0.159645 0.634526 0.899478
O O16 0.391455 0.000000 0.932251
O O17 0.852956 0.500000 0.716493
#
# Coordination Sequence:
#
# PCOD9132969 Si02
#       7
#     4   4   4   4   4   4   4
#     4   9  18  33  53  79 110 142 182 228 275 339
#     4   9  19  34  53  78 111 145 183 230 283 340
#     4   9  19  34  53  78 111 145 183 230 283 340
#     4   9  18  33  53  79 110 142 182 228 275 339
#     4  10  22  38  60  84 114 150 192 244 292 346
#     4  10  21  39  60  85 115 151 193 241 292 345
#     4  10  21  39  60  85 115 151 193 241 292 345
#
# _framework density 24.456834000000001
#
# number of rings (size 3 to 8) (size 9 to 14) (size 15 to 20)
#    0.000    2.571    0.000    0.857    4.000    0.571 
#    0.000    7.143    0.000    0.000    0.000    0.000 
#    0.000    0.000    0.000    0.000    0.000    0.000 
#
# Total GULP energy -78041.560152 kJ/mol
# GULP energy per Si atom -5574.397154 kJ/mol
# Density = 2.440117 g / cm^3
# Si number density = 24.456834 Si / 1000 Ang^3
#
#
#
# Elastic Constant Matrix: (Units=GPa)
#
#
# Indices 1 2 3 4 5 6 
#
# 1 56.1803 21.6418 21.3930 0.0000 -17.1785 0.0000
# 2 21.6418 263.0075 32.2328 0.0000 7.1787 0.0000
# 3 21.3930 32.2328 83.9732 0.0000 -15.6078 0.0000
# 4 0.0000 0.0000 0.0000 -49.9081 0.0000 -120.3467
# 5 -17.1785 7.1787 -15.6078 0.0000 39.8277 0.0000
# 6 0.0000 0.0000 0.0000 -120.3467 0.0000 -339.1564
#
#
#
# Elastic Compliance Matrix: (Units=1/GPa)
#
#
# Indices 1 2 3 4 5 6 
#
# 1 0.022385 -0.001651 -0.003472 0.000000 0.008592 0.000000
# 2 -0.001651 0.004188 -0.001574 0.000000 -0.002084 0.000000
# 3 -0.003472 -0.001574 0.014207 0.000000 0.004353 0.000000
# 4 0.000000 0.000000 0.000000 -0.138810 0.000000 0.049256
# 5 0.008592 -0.002084 0.004353 0.000000 0.030896 0.000000
# 6 0.000000 0.000000 0.000000 0.049256 0.000000 -0.020426
#
#
# Mechanical properties :
#
#
# Convention : Reuss Voigt Hill
#
# Bulk Modulus (GPa) = 36.51642 61.52182 49.01912
# Shear Modulus (GPa) = -76.87781 -47.98779 -62.43280
#
# Velocity S-wave (km/s) = -5.61269 -4.43441 -5.05798
# Velocity P-wave (km/s) = 5.19997 1.00440 3.74490
#
# Compressibility (1/GPa) = 0.02738494
#
# Stress axis : x y z
#
# Youngs Moduli (GPa) = 44.67224 238.78736 70.39020
#
# Poissons Ratio (x) = 0.39423 0.24441
# Poissons Ratio (y) = 0.07375 0.11081
# Poissons Ratio (z) = 0.15511 0.37590
#
# Static dielectric constant tensor:
#      x y z
#    x 2.021890 0.000000 -0.097770 
#    y 0.000000 1.986090 0.000000 
#    z -0.097770 0.000000 1.902610 
# 
# From -- ./inp_files/25213.got.cif
#   From: 2010.05.17/outbox.cif.g08.bks.cpg/sg8_13_cif.got.tgz:25213.got - 2010.06.03 19:46:02.
