data_PCOD9132042
_publ_section_title
;
Structure prediction by ZEFSAII (Michael W. Deem and Ramdas Pophale) SiO2 
 PCOD9132042
Probable space group: C M
;
_chemical_formula_sum "Si O2"
_cell_formula_units_Z 28
_cell_length_a 18.601061
_cell_length_b 9.598547
_cell_length_c 17.284475
_cell_angle_alpha 90.000000
_cell_angle_beta 22.843733
_cell_angle_gamma 90.000000
_cell_volume 1198.053808
_symmetry_space_group_name_H-M "C M"
_symmetry_group_IT_number 8
_symmetry_cell_setting 'monoclinic'
loop_
_space_group_symop_operation_xyz
x,y,z
x,-y,z
1/2+x,1/2+y,z
1/2+x,1/2-y,z
loop_
_atom_site_type_symbol
_atom_site_label
_atom_site_fract_x
_atom_site_fract_y
_atom_site_fract_z
Si Si1 0.960990 0.651797 0.911180
Si Si2 0.956982 0.790654 0.059815
Si Si3 0.882622 0.652450 0.625319
Si Si4 0.029791 0.831333 0.160765
Si Si5 0.725713 0.336298 0.550544
Si Si6 0.897160 0.838181 0.752009
Si Si7 0.665923 0.850453 0.221003
O O1 0.986784 0.500000 0.852216
O O2 0.113228 0.757735 0.729076
O O3 0.968741 0.649498 0.997238
O O4 0.762426 0.718843 0.086162
O O5 0.926474 0.799156 0.180841
O O6 0.797648 0.860415 0.166966
O O7 0.161589 0.851287 0.845692
O O8 0.945440 0.500000 0.591856
O O9 0.942402 0.775771 0.622710
O O10 0.967365 0.670418 0.456044
O O11 0.908498 0.748449 0.344349
O O12 0.039152 0.000000 0.161887
O O13 0.229768 0.758751 0.949212
O O14 0.760171 0.500000 0.531803
O O15 0.576112 0.330608 0.628778
O O16 0.837961 0.000000 0.806016
O O17 0.681429 0.000000 0.164114
#
# Coordination Sequence:
#
# PCOD9132042 Si02
#       7
#     4   4   4   4   4   4   4
#     4  10  23  40  60  85 118 158 201 247 295 351
#     4   9  20  35  60  86 119 150 191 241 292 348
#     4  10  19  34  59  90 116 154 199 238 293 354
#     4  11  22  39  66  93 120 158 201 246 299 358
#     4  11  24  42  63  86 121 164 201 247 301 357
#     4  10  22  38  58  90 123 156 199 248 299 353
#     4   9  18  34  56  82 115 150 190 237 291 349
#
# _framework density 23.371238000000002
#
# number of rings (size 3 to 8) (size 9 to 14) (size 15 to 20)
#    0.857    1.143    0.000    4.714    0.000    6.857 
#    2.571    0.000    0.000    0.000    0.000    0.000 
#    0.000    0.000    0.000    0.000    0.000    0.000 
#
# Total GULP energy -78100.301516 kJ/mol
# GULP energy per Si atom -5578.592965 kJ/mol
# Density = 2.331804 g / cm^3
# Si number density = 23.371238 Si / 1000 Ang^3
#
#
#
# Elastic Constant Matrix: (Units=GPa)
#
#
# Indices 1 2 3 4 5 6 
#
# 1 63.0339 35.5583 2.4792 0.0000 -2.0131 -0.0001
# 2 35.5583 199.4850 68.7449 0.0002 12.9354 -0.0001
# 3 2.4792 68.7449 109.2987 0.0003 -1.2254 -0.0001
# 4 0.0000 0.0002 0.0003 24.9320 -0.0002 8.7055
# 5 -2.0131 12.9354 -1.2254 -0.0002 44.7516 0.0001
# 6 -0.0001 -0.0001 -0.0001 8.7055 0.0001 17.7992
#
#
#
# Elastic Compliance Matrix: (Units=1/GPa)
#
#
# Indices 1 2 3 4 5 6 
#
# 1 0.018178 -0.004137 0.002213 0.000000 0.002074 0.000000
# 2 -0.004137 0.007519 -0.004663 0.000000 -0.002487 0.000000
# 3 0.002213 -0.004663 0.012052 0.000000 0.001777 0.000000
# 4 0.000000 0.000000 0.000000 0.048370 0.000000 -0.023657
# 5 0.002074 -0.002487 0.001777 0.000000 0.023206 0.000000
# 6 0.000000 0.000000 0.000000 -0.023657 0.000000 0.067753
#
#
# Mechanical properties :
#
#
# Convention : Reuss Voigt Hill
#
# Bulk Modulus (GPa) = 40.69385 65.04248 52.86817
# Shear Modulus (GPa) = 25.19624 35.16558 30.18091
#
# Velocity S-wave (km/s) = 3.28699 3.88319 3.59746
# Velocity P-wave (km/s) = 5.64406 6.92792 6.31869
#
# Compressibility (1/GPa) = 0.02457374
#
# Stress axis : x y z
#
# Youngs Moduli (GPa) = 55.01275 133.00413 82.97529
#
# Poissons Ratio (x) = 0.55029 -0.18364
# Poissons Ratio (y) = 0.22761 0.38691
# Poissons Ratio (z) = -0.12175 0.62019
#
# Static dielectric constant tensor:
#      x y z
#    x 1.996850 0.000000 0.010100 
#    y 0.000000 1.859800 0.000000 
#    z 0.010100 0.000000 1.876940 
# 
# From -- ./inp_files/31527.got.cif
#   From: 2010.05.17/outbox.cif.g08.bks.cpg/sg8_16_cif.got.tgz:31527.got - 2010.06.03 19:46:02.
