data_PCOD9132949
_publ_section_title
;
Structure prediction by ZEFSAII (Michael W. Deem and Ramdas Pophale) SiO2 
 PCOD9132949
Probable space group: C M
;
_chemical_formula_sum "Si O2"
_cell_formula_units_Z 26
_cell_length_a 8.309499
_cell_length_b 20.078316
_cell_length_c 11.667061
_cell_angle_alpha 90.000000
_cell_angle_beta 37.157362
_cell_angle_gamma 90.000000
_cell_volume 1175.722917
_symmetry_space_group_name_H-M "C M"
_symmetry_group_IT_number 8
_symmetry_cell_setting 'monoclinic'
loop_
_space_group_symop_operation_xyz
x,y,z
x,-y,z
1/2+x,1/2+y,z
1/2+x,1/2-y,z
loop_
_atom_site_type_symbol
_atom_site_label
_atom_site_fract_x
_atom_site_fract_y
_atom_site_fract_z
Si Si1 0.892680 0.844931 0.658790
Si Si2 0.494255 0.500000 0.317846
Si Si3 0.476868 0.104701 0.058683
Si Si4 0.936615 0.706382 0.759652
Si Si5 0.125150 0.217407 0.170777
Si Si6 0.628170 0.878111 0.471743
Si Si7 0.993324 0.369959 0.291217
O O1 0.715419 0.817020 0.656215
O O2 0.949866 0.780940 0.705652
O O3 0.173218 0.873240 0.461426
O O4 0.709976 0.896112 0.832915
O O5 0.731693 0.556885 0.172481
O O6 0.265782 0.441070 0.451761
O O7 0.343962 0.178697 0.123753
O O8 0.591487 0.093783 0.120735
O O9 0.890324 0.654520 0.681900
O O10 0.732030 0.705919 0.980993
O O11 0.842645 0.181608 0.341746
O O12 0.094580 0.293866 0.223460
O O13 0.560498 0.896175 0.378965
#
# Coordination Sequence:
#
# PCOD9132949 Si02
#       7
#     4   2   4   4   4   4   4
#     4  11  22  36  63  97 133 167 215 274 339 394
#     4  10  24  50  66  88 138 190 236 260 326 400
#     4  10  23  42  64  93 130 184 219 273 325 399
#     4  11  22  37  60  97 133 167 214 272 339 390
#     4  10  21  38  62  96 136 170 212 275 347 391
#     4  11  24  40  66  95 136 178 221 274 326 402
#     4  12  22  37  66 102 132 166 223 283 341 392
#
# _framework density 22.114053999999999
#
# number of rings (size 3 to 8) (size 9 to 14) (size 15 to 20)
#    0.000    1.231    3.077    3.692    2.154    1.846 
#    0.000   13.077    0.000    0.000    0.000    0.000 
#    0.000    0.000    0.000    0.000    0.000    0.000 
#
# Total GULP energy -72420.646940 kJ/mol
# GULP energy per Si atom -5570.818995 kJ/mol
# Density = 2.206372 g / cm^3
# Si number density = 22.114054 Si / 1000 Ang^3
#
#
#
# Elastic Constant Matrix: (Units=GPa)
#
#
# Indices 1 2 3 4 5 6 
#
# 1 55.8316 -12.0284 18.8711 0.0000 15.4130 0.0000
# 2 -12.0284 61.9967 6.0722 0.0000 -5.5616 0.0000
# 3 18.8711 6.0722 81.4551 0.0000 13.1357 0.0000
# 4 0.0000 0.0000 0.0000 16.7125 0.0000 -15.9936
# 5 15.4130 -5.5616 13.1357 0.0000 34.7402 0.0000
# 6 0.0000 0.0000 0.0000 -15.9936 0.0000 6.3345
#
#
#
# Elastic Compliance Matrix: (Units=1/GPa)
#
#
# Indices 1 2 3 4 5 6 
#
# 1 0.022333 0.004062 -0.004243 0.000000 -0.007654 0.000000
# 2 0.004062 0.017341 -0.002546 0.000000 0.001937 0.000000
# 3 -0.004243 -0.002546 0.014069 0.000000 -0.003845 0.000000
# 4 0.000000 0.000000 0.000000 -0.042250 0.000000 -0.106674
# 5 -0.007654 0.001937 -0.003845 0.000000 0.033945 0.000000
# 6 0.000000 0.000000 0.000000 -0.106674 0.000000 -0.111469
#
#
# Mechanical properties :
#
#
# Convention : Reuss Voigt Hill
#
# Bulk Modulus (GPa) = 20.70814 25.01259 22.86037
# Shear Modulus (GPa) = -112.40890 23.98200 -44.21345
#
# Velocity S-wave (km/s) = -7.13735 3.29670 -4.47625
# Velocity P-wave (km/s) = 7.65100 5.08195 4.04423
#
# Compressibility (1/GPa) = 0.04829019
#
# Stress axis : x y z
#
# Youngs Moduli (GPa) = 44.77665 57.66658 71.07582
#
# Poissons Ratio (x) = -0.23423 0.30154
# Poissons Ratio (y) = -0.18188 0.18097
# Poissons Ratio (z) = 0.18997 0.14682
#
# Static dielectric constant tensor:
#      x y z
#    x 1.877680 0.000000 0.050580 
#    y 0.000000 1.685320 0.000000 
#    z 0.050580 0.000000 1.860440 
# 
# From -- ./inp_files/19240.got.cif
#   From: 2010.05.17/outbox.cif.g08.bks.cpg/sg8_10_cif.got.tgz:19240.got - 2010.06.03 19:46:02.
