data_PCOD9132745
_publ_section_title
;
Structure prediction by ZEFSAII (Michael W. Deem and Ramdas Pophale) SiO2 
 PCOD9132745
Probable space group: C M
;
_chemical_formula_sum "Si O2"
_cell_formula_units_Z 28
_cell_length_a 9.479336
_cell_length_b 27.197147
_cell_length_c 9.327170
_cell_angle_alpha 90.000000
_cell_angle_beta 31.968217
_cell_angle_gamma 90.000000
_cell_volume 1273.136854
_symmetry_space_group_name_H-M "C M"
_symmetry_group_IT_number 8
_symmetry_cell_setting 'monoclinic'
loop_
_space_group_symop_operation_xyz
x,y,z
x,-y,z
1/2+x,1/2+y,z
1/2+x,1/2-y,z
loop_
_atom_site_type_symbol
_atom_site_label
_atom_site_fract_x
_atom_site_fract_y
_atom_site_fract_z
Si Si1 0.271990 0.340407 0.941650
Si Si2 0.698393 0.658561 0.326100
Si Si3 0.850036 0.394401 0.937077
Si Si4 0.643567 0.813846 0.515186
Si Si5 0.553307 0.244141 0.326489
Si Si6 0.781658 0.000000 0.298609
Si Si7 0.926619 0.103192 0.075265
Si Si8 0.878926 0.500000 0.896820
O O1 0.456415 0.336573 0.644175
O O2 0.215616 0.290288 0.077719
O O3 0.420517 0.376917 0.921383
O O4 0.974580 0.358035 0.159169
O O5 0.739189 0.712834 0.226821
O O6 0.649839 0.622540 0.234565
O O7 0.964583 0.447059 0.887199
O O8 0.019639 0.346524 0.749326
O O9 0.710154 0.404442 0.905353
O O10 0.466103 0.786921 0.543915
O O11 0.798854 0.853887 0.283963
O O12 0.823100 0.772335 0.437273
O O13 0.785493 0.949295 0.208876
O O14 0.526603 0.000000 0.618141
O O15 0.056179 0.000000 0.157958
#
# Coordination Sequence:
#
# PCOD9132745 Si02
#       8
#     4   4   4   4   4   2   4   2
#     4  11  28  44  63  96 138 181 222 280 341 406
#     4  12  26  44  65  94 140 176 225 277 342 408
#     4  11  24  43  73 102 136 181 235 289 348 404
#     4  11  22  42  67  98 139 182 232 282 339 409
#     4  11  24  42  65  97 135 187 229 281 331 412
#     4  10  20  40  68 106 128 174 227 299 342 398
#     4  10  23  42  69  98 133 178 233 288 343 406
#     4  10  22  40  72 104 138 166 235 293 346 400
#
# _framework density 21.992922
#
# number of rings (size 3 to 8) (size 9 to 14) (size 15 to 20)
#    0.000    1.143    4.286    0.857    6.000    1.143 
#    2.571    1.429    0.000    0.000    0.000    0.000 
#    0.000    0.000    0.000    0.000    0.000    0.000 
#
# Total GULP energy -78132.195185 kJ/mol
# GULP energy per Si atom -5580.871085 kJ/mol
# Density = 2.194287 g / cm^3
# Si number density = 21.992922 Si / 1000 Ang^3
#
#
#
# Elastic Constant Matrix: (Units=GPa)
#
#
# Indices 1 2 3 4 5 6 
#
# 1 90.7124 37.4227 29.7445 0.0000 11.6883 0.0000
# 2 37.4227 150.7925 46.6745 0.0000 20.5495 0.0000
# 3 29.7445 46.6745 108.1214 0.0000 17.5598 0.0000
# 4 0.0000 0.0000 0.0000 24.5631 0.0000 -9.7128
# 5 11.6883 20.5495 17.5598 0.0000 27.8086 0.0000
# 6 0.0000 0.0000 0.0000 -9.7128 0.0000 0.2633
#
#
#
# Elastic Compliance Matrix: (Units=1/GPa)
#
#
# Indices 1 2 3 4 5 6 
#
# 1 0.012974 -0.002201 -0.002226 0.000000 -0.002421 0.000000
# 2 -0.002201 0.008444 -0.002425 0.000000 -0.003783 0.000000
# 3 -0.002226 -0.002425 0.011661 0.000000 -0.004636 0.000000
# 4 0.000000 0.000000 0.000000 -0.002997 0.000000 -0.110535
# 5 -0.002421 -0.003783 -0.004636 0.000000 0.042701 0.000000
# 6 0.000000 0.000000 0.000000 -0.110535 0.000000 -0.279537
#
#
# Mechanical properties :
#
#
# Convention : Reuss Voigt Hill
#
# Bulk Modulus (GPa) = 51.61318 64.14553 57.87935
# Shear Modulus (GPa) = -26.79638 26.24597 -0.27521
#
# Velocity S-wave (km/s) = -3.49436 3.45828 -0.35413
# Velocity P-wave (km/s) = 2.69041 6.72131 5.11930
#
# Compressibility (1/GPa) = 0.01937490
#
# Stress axis : x y z
#
# Youngs Moduli (GPa) = 77.07970 118.42590 85.75574
#
# Poissons Ratio (x) = 0.26063 0.19087
# Poissons Ratio (y) = 0.16964 0.20798
# Poissons Ratio (z) = 0.17156 0.28722
#
# Static dielectric constant tensor:
#      x y z
#    x 1.877760 0.000000 -0.049210 
#    y 0.000000 1.905630 0.000000 
#    z -0.049210 0.000000 1.815820 
# 
# From -- ./inp_files/9226.got.cif
#   From: 2010.05.17/outbox.cif.g08.bks.cpg/sg8_5_cif.got.tgz:9226.got - 2010.06.03 19:46:02.
