data_PCOD9132982
_publ_section_title
;
Structure prediction by ZEFSAII (Michael W. Deem and Ramdas Pophale) SiO2 
 PCOD9132982
Probable space group: C M
;
_chemical_formula_sum "Si O2"
_cell_formula_units_Z 26
_cell_length_a 27.050206
_cell_length_b 7.807143
_cell_length_c 7.343203
_cell_angle_alpha 90.000000
_cell_angle_beta 139.005477
_cell_angle_gamma 90.000000
_cell_volume 1017.286778
_symmetry_space_group_name_H-M "C M"
_symmetry_group_IT_number 8
_symmetry_cell_setting 'monoclinic'
loop_
_space_group_symop_operation_xyz
x,y,z
x,-y,z
1/2+x,1/2+y,z
1/2+x,1/2-y,z
loop_
_atom_site_type_symbol
_atom_site_label
_atom_site_fract_x
_atom_site_fract_y
_atom_site_fract_z
Si Si1 0.769830 0.798237 0.981970
Si Si2 0.027455 0.809211 0.705954
Si Si3 0.327922 0.808725 0.753914
Si Si4 0.606897 0.200871 0.427850
Si Si5 0.675496 0.811462 0.213740
Si Si6 0.005977 0.000000 0.298323
Si Si7 0.399400 0.703223 0.598514
O O1 0.807708 0.776841 0.889065
O O2 0.684360 0.733892 0.741161
O O3 0.761912 0.000000 0.992940
O O4 0.826893 0.726216 0.289494
O O5 0.973017 0.724574 0.702635
O O6 0.052244 0.000000 0.840918
O O7 0.985458 0.852476 0.401385
O O8 0.106122 0.717468 0.886431
O O9 0.247104 0.808965 0.425165
O O10 0.385286 0.720671 0.773665
O O11 0.354217 0.000000 0.861057
O O12 0.633982 0.194928 0.293108
O O13 0.544975 0.346212 0.284664
O O14 0.588568 0.000000 0.423892
O O15 0.708785 0.000000 0.277787
O O16 0.403944 0.500000 0.574160
#
# Coordination Sequence:
#
# PCOD9132982 Si02
#       7
#     4   4   4   4   4   2   4
#     4   9  20  38  61  89 120 158 205 256 306 371
#     4   9  22  39  55  90 117 155 209 240 302 371
#     4  11  23  37  62  93 120 157 208 254 313 364
#     4   9  20  37  60  94 120 157 205 256 316 366
#     4  10  21  39  62  86 122 158 200 259 307 369
#     4  10  22  36  62  90 126 160 202 252 318 366
#     4  10  21  42  63  82 122 166 204 250 300 372
#
# _framework density 25.558181000000001
#
# number of rings (size 3 to 8) (size 9 to 14) (size 15 to 20)
#    0.462    1.846    0.000    2.769    7.538    1.846 
#    2.769    0.000    0.000    0.000    0.000    0.000 
#    0.000    0.000    0.000    0.000    0.000    0.000 
#
# Total GULP energy -72369.461240 kJ/mol
# GULP energy per Si atom -5566.881634 kJ/mol
# Density = 2.550001 g / cm^3
# Si number density = 25.558181 Si / 1000 Ang^3
#
#
#
# Elastic Constant Matrix: (Units=GPa)
#
#
# Indices 1 2 3 4 5 6 
#
# 1 168.8918 8.6667 22.3290 0.0000 -7.1474 0.0000
# 2 8.6667 80.6554 -5.7191 0.0000 14.0194 0.0000
# 3 22.3290 -5.7191 87.8206 0.0000 10.3947 0.0000
# 4 0.0000 0.0000 0.0000 -9.6801 0.0000 -22.3014
# 5 -7.1474 14.0194 10.3947 0.0000 24.1019 0.0000
# 6 0.0000 0.0000 0.0000 -22.3014 0.0000 -23.7539
#
#
#
# Elastic Compliance Matrix: (Units=1/GPa)
#
#
# Indices 1 2 3 4 5 6 
#
# 1 0.006442 -0.001493 -0.002175 0.000000 0.003717 0.000000
# 2 -0.001493 0.014462 0.002497 0.000000 -0.009932 0.000000
# 3 -0.002175 0.002497 0.013015 0.000000 -0.007711 0.000000
# 4 0.000000 0.000000 0.000000 0.088829 0.000000 -0.083397
# 5 0.003717 -0.009932 -0.007711 0.000000 0.051695 0.000000
# 6 0.000000 0.000000 0.000000 -0.083397 0.000000 0.036199
#
#
# Mechanical properties :
#
#
# Convention : Reuss Voigt Hill
#
# Bulk Modulus (GPa) = 31.66758 43.10235 37.38496
# Shear Modulus (GPa) = 22.37026 18.93965 20.65495
#
# Velocity S-wave (km/s) = 2.96170 2.72516 2.84589
# Velocity P-wave (km/s) = 4.91049 5.17716 5.04559
#
# Compressibility (1/GPa) = 0.03157804
#
# Stress axis : x y z
#
# Youngs Moduli (GPa) = 155.22154 69.14592 76.83352
#
# Poissons Ratio (x) = 0.10320 0.16712
# Poissons Ratio (y) = 0.23167 -0.19184
# Poissons Ratio (z) = 0.33763 -0.17265
#
# Static dielectric constant tensor:
#      x y z
#    x 2.002080 0.000000 -0.018850 
#    y 0.000000 1.973800 0.000000 
#    z -0.018850 0.000000 2.207090 
# 
# From -- ./inp_files/17370.got.cif
#   From: 2010.05.17/outbox.cif.g08.bks.cpg/sg8_9_cif.got.tgz:17370.got - 2010.06.03 19:46:02.
