data_PCOD9132286
_publ_section_title
;
Structure prediction by ZEFSAII (Michael W. Deem and Ramdas Pophale) SiO2 
 PCOD9132286
Probable space group: C M
;
_chemical_formula_sum "Si O2"
_cell_formula_units_Z 28
_cell_length_a 8.226885
_cell_length_b 11.276571
_cell_length_c 18.364646
_cell_angle_alpha 90.000000
_cell_angle_beta 130.546956
_cell_angle_gamma 90.000000
_cell_volume 1294.602153
_symmetry_space_group_name_H-M "C M"
_symmetry_group_IT_number 8
_symmetry_cell_setting 'monoclinic'
loop_
_space_group_symop_operation_xyz
x,y,z
x,-y,z
1/2+x,1/2+y,z
1/2+x,1/2-y,z
loop_
_atom_site_type_symbol
_atom_site_label
_atom_site_fract_x
_atom_site_fract_y
_atom_site_fract_z
Si Si1 0.328650 0.627601 0.210930
Si Si2 0.057668 0.868407 0.490516
Si Si3 0.087573 0.872186 0.971413
Si Si4 0.175562 0.868871 0.695193
Si Si5 0.958997 0.806804 0.091466
Si Si6 0.295033 0.132700 0.418231
Si Si7 0.121274 0.634077 0.765865
O O1 0.240884 0.500000 0.208127
O O2 0.371122 0.627826 0.136637
O O3 0.557155 0.643071 0.315679
O O4 0.156064 0.727066 0.176997
O O5 0.118155 0.864886 0.592849
O O6 0.258642 0.865910 0.494609
O O7 0.926319 0.749079 0.435322
O O8 0.955043 0.000000 0.447863
O O9 0.858012 0.854974 0.867584
O O10 0.172264 0.000000 0.972309
O O11 0.046608 0.872417 0.046323
O O12 0.264290 0.774653 0.007064
O O13 0.087304 0.752224 0.708283
O O14 0.433827 0.864520 0.771348
O O15 0.105952 0.000000 0.702903
O O16 0.378997 0.000000 0.422319
O O17 0.106606 0.500000 0.727810
#
# Coordination Sequence:
#
# PCOD9132286 Si02
#       7
#     4   4   4   4   4   4   4
#     4  10  20  35  54  78 107 139 177 219 264 314
#     4  10  21  37  56  80 110 143 180 222 269 321
#     4  10  20  35  54  78 107 139 177 219 264 314
#     4  10  21  37  56  80 110 143 180 222 269 321
#     4  10  20  34  54  78 106 140 176 216 264 316
#     4  10  21  37  57  81 110 143 180 223 269 319
#     4  10  21  37  57  81 110 143 180 223 269 319
#
# _framework density 21.628266
#
# number of rings (size 3 to 8) (size 9 to 14) (size 15 to 20)
#    0.000    2.000    0.000    3.429    0.000    2.857 
#    0.000    7.143    0.000    0.000    0.000    0.000 
#    0.000    0.000    0.000    0.000    0.000    0.000 
#
# Total GULP energy -78096.833886 kJ/mol
# GULP energy per Si atom -5578.345278 kJ/mol
# Density = 2.157904 g / cm^3
# Si number density = 21.628266 Si / 1000 Ang^3
#
#
#
# Elastic Constant Matrix: (Units=GPa)
#
#
# Indices 1 2 3 4 5 6 
#
# 1 29.7926 34.4603 -18.4708 0.0000 0.9687 0.0000
# 2 34.4603 179.4955 28.5089 0.0000 9.1322 0.0000
# 3 -18.4708 28.5089 43.0230 0.0000 6.1089 0.0000
# 4 0.0000 0.0000 0.0000 5.3115 0.0000 9.6413
# 5 0.9687 9.1322 6.1089 0.0000 29.3487 0.0000
# 6 0.0000 0.0000 0.0000 9.6413 0.0000 -1.8555
#
#
#
# Elastic Compliance Matrix: (Units=1/GPa)
#
#
# Indices 1 2 3 4 5 6 
#
# 1 0.123064 -0.035493 0.077658 0.000000 -0.009182 0.000000
# 2 -0.035493 0.016499 -0.026388 0.000000 0.001530 0.000000
# 3 0.077658 -0.026388 0.075499 0.000000 -0.010067 0.000000
# 4 0.000000 0.000000 0.000000 0.018048 0.000000 0.093777
# 5 -0.009182 0.001530 -0.010067 0.000000 0.035995 0.000000
# 6 0.000000 0.000000 0.000000 0.093777 0.000000 -0.051663
#
#
# Mechanical properties :
#
#
# Convention : Reuss Voigt Hill
#
# Bulk Modulus (GPa) = 4.05492 37.92310 20.98901
# Shear Modulus (GPa) = 18.65012 20.41512 19.53262
#
# Velocity S-wave (km/s) = 2.93969 3.07564 3.00843
# Velocity P-wave (km/s) = 3.66077 5.49408 4.66830
#
# Compressibility (1/GPa) = 0.24661401
#
# Stress axis : x y z
#
# Youngs Moduli (GPa) = 8.12583 60.61091 13.24521
#
# Poissons Ratio (x) = 2.15129 -1.02859
# Poissons Ratio (y) = 0.28841 0.34952
# Poissons Ratio (z) = -0.63103 1.59941
#
# Static dielectric constant tensor:
#      x y z
#    x 1.737140 0.000000 -0.013190 
#    y 0.000000 1.805580 0.000000 
#    z -0.013190 0.000000 1.801560 
# 
# From -- ./inp_files/1847.got.cif
#   From: 2010.05.17/outbox.cif.g08.bks.cpg/sg8_1_cif.got.tgz:1847.got - 2010.06.03 19:46:02.
