data_PCOD9132655
_publ_section_title
;
Structure prediction by ZEFSAII (Michael W. Deem and Ramdas Pophale) SiO2 
 PCOD9132655
Probable space group: C M
;
_chemical_formula_sum "Si O2"
_cell_formula_units_Z 18
_cell_length_a 15.105578
_cell_length_b 12.184341
_cell_length_c 10.637771
_cell_angle_alpha 90.000000
_cell_angle_beta 153.101387
_cell_angle_gamma 90.000000
_cell_volume 885.778677
_symmetry_space_group_name_H-M "C M"
_symmetry_group_IT_number 8
_symmetry_cell_setting 'monoclinic'
loop_
_space_group_symop_operation_xyz
x,y,z
x,-y,z
1/2+x,1/2+y,z
1/2+x,1/2-y,z
loop_
_atom_site_type_symbol
_atom_site_label
_atom_site_fract_x
_atom_site_fract_y
_atom_site_fract_z
Si Si1 0.897250 0.500000 0.798000
Si Si2 0.578503 0.623825 0.258916
Si Si3 0.771649 0.738944 0.030495
Si Si4 0.818531 0.000000 0.354859
Si Si5 0.759417 0.500000 0.895499
Si Si6 0.834916 0.241471 0.406399
O O1 0.769343 0.602787 0.588857
O O2 0.896232 0.500000 0.947004
O O3 0.116053 0.500000 0.021683
O O4 0.509431 0.500000 0.141447
O O5 0.662475 0.686407 0.245336
O O6 0.417936 0.692180 0.128980
O O7 0.785169 0.610776 0.007737
O O8 0.549590 0.776638 0.722922
O O9 0.824596 0.755609 0.242770
O O10 0.812283 0.885341 0.420216
O O11 0.031378 0.000000 0.558342
#
# Coordination Sequence:
#
# PCOD9132655 Si02
#       6
#     2   4   4   2   2   4
#     4  10  20  39  66  88 134 170 225 253 335 389
#     4  10  24  40  65  97 132 174 221 269 324 396
#     4  11  24  42  68  97 136 173 223 273 334 390
#     4  10  20  38  64  90 124 168 218 260 324 384
#     4  10  22  39  64  96 130 172 217 273 331 389
#     4  11  24  41  70  98 133 175 222 275 330 393
#
# _framework density 20.321103000000001
#
# number of rings (size 3 to 8) (size 9 to 14) (size 15 to 20)
#    0.667    0.889    0.000    5.333    3.111    2.667 
#    0.000    0.000    0.000    0.000    0.000    0.000 
#    0.000    0.000    0.000    0.000    0.000    0.000 
#
# Total GULP energy -50227.109340 kJ/mol
# GULP energy per Si atom -5580.789927 kJ/mol
# Density = 2.027485 g / cm^3
# Si number density = 20.321103 Si / 1000 Ang^3
#
#
#
# Elastic Constant Matrix: (Units=GPa)
#
#
# Indices 1 2 3 4 5 6 
#
# 1 98.2998 60.7401 15.8002 0.0000 21.7764 0.0000
# 2 60.7401 141.1283 28.6893 0.0000 28.4429 0.0000
# 3 15.8002 28.6893 94.5889 0.0000 21.1556 0.0000
# 4 0.0000 0.0000 0.0000 31.6756 0.0000 5.7690
# 5 21.7764 28.4429 21.1556 0.0000 29.9586 0.0000
# 6 0.0000 0.0000 0.0000 5.7690 0.0000 21.4416
#
#
#
# Elastic Compliance Matrix: (Units=1/GPa)
#
#
# Indices 1 2 3 4 5 6 
#
# 1 0.014637 -0.005175 0.000481 0.000000 -0.006066 0.000000
# 2 -0.005175 0.010664 -0.001124 0.000000 -0.005569 0.000000
# 3 0.000481 -0.001124 0.012674 0.000000 -0.008232 0.000000
# 4 0.000000 0.000000 0.000000 0.033197 0.000000 -0.008932
# 5 -0.006066 -0.005569 -0.008232 0.000000 0.048889 0.000000
# 6 0.000000 0.000000 0.000000 -0.008932 0.000000 0.049042
#
#
# Mechanical properties :
#
#
# Convention : Reuss Voigt Hill
#
# Bulk Modulus (GPa) = 37.96678 60.49734 49.23206
# Shear Modulus (GPa) = 26.38272 31.86766 29.12519
#
# Velocity S-wave (km/s) = 3.60709 3.96435 3.78993
# Velocity P-wave (km/s) = 6.00601 7.12672 6.59023
#
# Compressibility (1/GPa) = 0.02633882
#
# Stress axis : x y z
#
# Youngs Moduli (GPa) = 68.31977 93.77446 78.90230
#
# Poissons Ratio (x) = 0.48527 -0.03798
# Poissons Ratio (y) = 0.35355 0.08872
# Poissons Ratio (z) = -0.03289 0.10545
#
# Static dielectric constant tensor:
#      x y z
#    x 1.679110 0.000000 0.004380 
#    y 0.000000 1.755040 0.000000 
#    z 0.004380 0.000000 1.730450 
# 
# From -- ./inp_files/7452.got.cif
#   From: 2010.05.17/outbox.cif.g08.bks.cpg/sg8_4_cif.got.tgz:7452.got - 2010.06.03 19:46:02.
