data_PCOD9132679
_publ_section_title
;
Structure prediction by ZEFSAII (Michael W. Deem and Ramdas Pophale) SiO2 
 PCOD9132679
Probable space group: C M
;
_chemical_formula_sum "Si O2"
_cell_formula_units_Z 32
_cell_length_a 8.805007
_cell_length_b 31.559748
_cell_length_c 5.058139
_cell_angle_alpha 90.000000
_cell_angle_beta 96.850775
_cell_angle_gamma 90.000000
_cell_volume 1395.539359
_symmetry_space_group_name_H-M "C M"
_symmetry_group_IT_number 8
_symmetry_cell_setting 'monoclinic'
loop_
_space_group_symop_operation_xyz
x,y,z
x,-y,z
1/2+x,1/2+y,z
1/2+x,1/2-y,z
loop_
_atom_site_type_symbol
_atom_site_label
_atom_site_fract_x
_atom_site_fract_y
_atom_site_fract_z
Si Si1 0.429010 0.655466 0.022510
Si Si2 0.209594 0.210522 0.503993
Si Si3 0.733917 0.134315 0.477201
Si Si4 0.488610 0.252575 0.814963
Si Si5 0.724525 0.627827 0.832907
Si Si6 0.963008 0.317420 0.174393
Si Si7 0.888758 0.452318 0.704488
Si Si8 0.095937 0.548447 0.248193
O O1 0.355399 0.652716 0.293449
O O2 0.582990 0.628594 0.004777
O O3 0.304123 0.640119 0.781242
O O4 0.480459 0.703443 0.968008
O O5 0.321507 0.234662 0.728784
O O6 0.059261 0.237064 0.541834
O O7 0.315350 0.205941 0.271089
O O8 0.185985 0.162751 0.601946
O O9 0.576648 0.160906 0.407635
O O10 0.703176 0.086260 0.373410
O O11 0.556919 0.214765 0.006655
O O12 0.881890 0.645137 0.993797
O O13 0.760676 0.582346 0.725586
O O14 0.834658 0.500000 0.744378
O O15 0.953970 0.449605 0.422828
O O16 0.029280 0.444943 0.939970
O O17 0.157764 0.500000 0.276861
#
# Coordination Sequence:
#
# PCOD9132679 Si02
#       8
#     4   4   4   4   4   4   4   4
#     4  11  28  42  64  93 141 173 214 272 338 385
#     4  10  23  38  65  85 127 166 217 272 324 378
#     4  12  25  44  67  99 129 178 218 273 327 400
#     4  10  24  42  56  96 123 171 222 272 326 387
#     4  10  23  43  61  98 127 171 216 269 328 393
#     4  11  24  40  72  88 124 174 230 269 323 390
#     4  10  20  38  68 100 128 165 216 273 320 388
#     4  10  21  39  68 101 131 164 218 274 324 387
#
# _framework density 22.930202000000001
#
# number of rings (size 3 to 8) (size 9 to 14) (size 15 to 20)
#    0.000    1.500    1.250    2.250   10.500    2.000 
#    0.000    1.250    0.000    0.000    0.000    0.000 
#    0.000    0.000    0.000    0.000    0.000    0.000 
#
# Total GULP energy -89481.831091 kJ/mol
# GULP energy per Si atom -5592.614443 kJ/mol
# Density = 2.287801 g / cm^3
# Si number density = 22.930202 Si / 1000 Ang^3
#
#
#
# Elastic Constant Matrix: (Units=GPa)
#
#
# Indices 1 2 3 4 5 6 
#
# 1 75.1955 34.5299 17.2814 0.0000 -1.4210 0.0000
# 2 34.5299 106.4651 -5.1962 0.0000 -2.0158 0.0000
# 3 17.2814 -5.1962 69.2228 0.0000 -12.9654 0.0000
# 4 0.0000 0.0000 0.0000 23.9865 0.0000 -1.6001
# 5 -1.4210 -2.0158 -12.9654 0.0000 35.3528 0.0000
# 6 0.0000 0.0000 0.0000 -1.6001 0.0000 28.4472
#
#
#
# Elastic Compliance Matrix: (Units=1/GPa)
#
#
# Indices 1 2 3 4 5 6 
#
# 1 0.017083 -0.005811 -0.004976 0.000000 -0.001470 0.000000
# 2 -0.005811 0.011428 0.002563 0.000000 0.001358 0.000000
# 3 -0.004976 0.002563 0.017041 0.000000 0.006196 0.000000
# 4 0.000000 0.000000 0.000000 0.041847 0.000000 0.002354
# 5 -0.001470 0.001358 0.006196 0.000000 0.030577 0.000000
# 6 0.000000 0.000000 0.000000 0.002354 0.000000 0.035285
#
#
# Mechanical properties :
#
#
# Convention : Reuss Voigt Hill
#
# Bulk Modulus (GPa) = 34.36002 38.23488 36.29745
# Shear Modulus (GPa) = 27.86877 31.17519 29.52198
#
# Velocity S-wave (km/s) = 3.49000 3.69123 3.59203
# Velocity P-wave (km/s) = 5.59082 5.90573 5.75043
#
# Compressibility (1/GPa) = 0.02910359
#
# Stress axis : x y z
#
# Youngs Moduli (GPa) = 58.53749 87.50197 58.68095
#
# Poissons Ratio (x) = 0.50850 0.29201
# Poissons Ratio (y) = 0.34018 -0.15040
# Poissons Ratio (z) = 0.29130 -0.22427
#
# Static dielectric constant tensor:
#      x y z
#    x 1.844350 0.000000 0.029790 
#    y 0.000000 1.848540 0.000000 
#    z 0.029790 0.000000 1.888430 
# 
# From -- ./inp_files/1999.got.cif
#   From: 2010.05.17/outbox.cif.g08.bks.cpg/sg8_1_cif.got.tgz:1999.got - 2010.06.03 19:46:02.
