data_PCOD9132648
_publ_section_title
;
Structure prediction by ZEFSAII (Michael W. Deem and Ramdas Pophale) SiO2 
 PCOD9132648
Probable space group: C M
;
_chemical_formula_sum "Si O2"
_cell_formula_units_Z 32
_cell_length_a 18.528416
_cell_length_b 13.547402
_cell_length_c 22.611849
_cell_angle_alpha 90.000000
_cell_angle_beta 162.672118
_cell_angle_gamma 90.000000
_cell_volume 1690.490049
_symmetry_space_group_name_H-M "C M"
_symmetry_group_IT_number 8
_symmetry_cell_setting 'monoclinic'
loop_
_space_group_symop_operation_xyz
x,y,z
x,-y,z
1/2+x,1/2+y,z
1/2+x,1/2-y,z
loop_
_atom_site_type_symbol
_atom_site_label
_atom_site_fract_x
_atom_site_fract_y
_atom_site_fract_z
Si Si1 0.598810 0.210157 0.058340
Si Si2 0.674401 0.275904 0.931096
Si Si3 0.675659 0.887427 0.337906
Si Si4 0.581065 0.265108 0.718848
Si Si5 0.011268 0.109134 0.909808
Si Si6 0.417168 0.299819 0.419609
Si Si7 0.951931 0.612761 0.831482
Si Si8 0.968760 0.388557 0.536494
O O1 0.807118 0.198989 0.268867
O O2 0.341991 0.216977 0.891970
O O3 0.638329 0.308760 0.049958
O O4 0.575109 0.123841 0.991944
O O5 0.942720 0.316574 0.154279
O O6 0.617171 0.270703 0.817093
O O7 0.512558 0.351529 0.843658
O O8 0.620420 0.169130 0.916628
O O9 0.884779 0.845696 0.544234
O O10 0.789384 0.879730 0.361413
O O11 0.611473 0.000000 0.301391
O O12 0.485850 0.162770 0.614470
O O13 0.741431 0.103895 0.724657
O O14 0.119212 0.000000 0.997972
O O15 0.360545 0.194945 0.407919
O O16 0.700674 0.326065 0.640139
O O17 0.904496 0.500000 0.779285
O O18 0.865727 0.500000 0.456066
#
# Coordination Sequence:
#
# PCOD9132648 Si02
#       8
#     4   4   4   4   4   4   4   4
#     4  10  20  38  63  90 119 159 204 254 296 359
#     4  11  22  40  59  90 126 159 196 253 309 363
#     4  11  23  38  61  92 125 158 202 255 305 361
#     4  10  21  39  60  88 126 161 198 255 304 358
#     4   9  18  36  58  84 122 158 195 243 299 360
#     4  11  20  39  64  94 121 157 210 253 299 360
#     4  11  24  43  63  88 125 164 202 253 305 362
#     4   9  18  37  62  88 118 158 201 244 295 357
#
# _framework density 18.929423
#
# number of rings (size 3 to 8) (size 9 to 14) (size 15 to 20)
#    0.000    1.750    6.250    0.750    0.000    5.000 
#    0.000    2.500    0.000    0.000    0.000    0.000 
#    0.000    0.000    0.000    0.000    0.000    0.000 
#
# Total GULP energy -89185.409372 kJ/mol
# GULP energy per Si atom -5574.088086 kJ/mol
# Density = 1.888634 g / cm^3
# Si number density = 18.929423 Si / 1000 Ang^3
#
#
#
# Elastic Constant Matrix: (Units=GPa)
#
#
# Indices 1 2 3 4 5 6 
#
# 1 120.0114 40.9237 33.7307 0.0018 -25.2335 0.0025
# 2 40.9237 124.6449 34.5242 0.0084 -1.6797 0.0186
# 3 33.7307 34.5242 50.5403 -0.1078 -22.9381 0.0259
# 4 0.0018 0.0084 -0.1078 9.0658 -0.0074 6.5120
# 5 -25.2335 -1.6797 -22.9381 -0.0074 33.8380 0.0032
# 6 0.0025 0.0186 0.0259 6.5120 0.0032 14.8002
#
#
#
# Elastic Compliance Matrix: (Units=1/GPa)
#
#
# Indices 1 2 3 4 5 6 
#
# 1 0.011470 -0.002946 -0.002640 -0.000043 0.006618 0.000024
# 2 -0.002946 0.011543 -0.009615 -0.000196 -0.008141 0.000091
# 3 -0.002640 -0.009615 0.039009 0.000784 0.023998 -0.000406
# 4 -0.000043 -0.000196 0.000784 0.161292 0.000532 -0.070969
# 5 0.006618 -0.008141 0.023998 0.000532 0.050352 -0.000278
# 6 0.000024 0.000091 -0.000406 -0.070969 -0.000278 0.098794
#
#
# Mechanical properties :
#
#
# Convention : Reuss Voigt Hill
#
# Bulk Modulus (GPa) = 31.62262 57.06154 44.34208
# Shear Modulus (GPa) = 12.09479 23.94199 18.01839
#
# Velocity S-wave (km/s) = 2.53047 3.56027 3.08859
# Velocity P-wave (km/s) = 5.02787 6.86371 6.01623
#
# Compressibility (1/GPa) = 0.03162293
#
# Stress axis : x y z
#
# Youngs Moduli (GPa) = 87.18070 86.63012 25.63484
#
# Poissons Ratio (x) = 0.25519 0.06767
# Poissons Ratio (y) = 0.25681 0.24647
# Poissons Ratio (z) = 0.23013 0.83293
#
# Static dielectric constant tensor:
#      x y z
#    x 1.660950 0.000000 0.026130 
#    y 0.000000 1.685270 -0.000010 
#    z 0.026130 -0.000010 1.662880 
# 
# From -- ./inp_files/31206.got.cif
#   From: 2010.05.17/outbox.cif.g08.bks.cpg/sg8_16_cif.got.tgz:31206.got - 2010.06.03 19:46:02.
