data_PCOD9132337
_publ_section_title
;
Structure prediction by ZEFSAII (Michael W. Deem and Ramdas Pophale) SiO2 
 PCOD9132337
Probable space group: C M
;
_chemical_formula_sum "Si O2"
_cell_formula_units_Z 22
_cell_length_a 17.874301
_cell_length_b 8.467123
_cell_length_c 16.424619
_cell_angle_alpha 90.000000
_cell_angle_beta 156.668897
_cell_angle_gamma 90.000000
_cell_volume 984.472758
_symmetry_space_group_name_H-M "C M"
_symmetry_group_IT_number 8
_symmetry_cell_setting 'monoclinic'
loop_
_space_group_symop_operation_xyz
x,y,z
x,-y,z
1/2+x,1/2+y,z
1/2+x,1/2-y,z
loop_
_atom_site_type_symbol
_atom_site_label
_atom_site_fract_x
_atom_site_fract_y
_atom_site_fract_z
Si Si1 0.386550 0.000000 0.157480
Si Si2 0.784040 0.000000 0.488176
Si Si3 0.139005 0.000000 0.764999
Si Si4 0.855919 0.328354 0.655359
Si Si5 0.509274 0.246479 0.412548
Si Si6 0.105529 0.324767 0.062291
Si Si7 0.282333 0.327721 0.829972
O O1 0.556854 0.000000 0.261522
O O2 0.416224 0.142630 0.248738
O O3 0.196608 0.000000 0.917616
O O4 0.833823 0.167230 0.582271
O O5 0.911460 0.000000 0.535221
O O6 0.218456 0.165974 0.810480
O O7 0.883559 0.500000 0.640509
O O8 0.664890 0.341972 0.517808
O O9 0.021195 0.307047 0.886869
O O10 0.641319 0.164976 0.611833
O O11 0.330074 0.315255 0.280423
O O12 0.047691 0.500000 0.031727
O O13 0.994278 0.202287 0.007875
O O14 0.273416 0.500000 0.863477
#
# Coordination Sequence:
#
# PCOD9132337 Si02
#       7
#     2   2   2   4   4   4   4
#     4  10  22  42  64 100 127 166 223 266 319 392
#     4  10  22  40  62  84 130 176 208 260 324 386
#     4  12  26  44  64  92 135 178 211 270 333 380
#     4   9  19  35  58  94 128 160 210 270 320 377
#     4  10  20  38  66  97 125 166 217 267 319 385
#     4  10  20  34  61  96 128 165 213 268 323 377
#     4  11  25  43  63  93 133 173 218 267 322 389
#
# _framework density 22.346986999999999
#
# number of rings (size 3 to 8) (size 9 to 14) (size 15 to 20)
#    0.000    1.818    1.818    1.636    7.636    2.182 
#    0.000    4.545    0.000    0.000    0.000    0.000 
#    0.000    0.000    0.000    0.000    0.000    0.000 
#
# Total GULP energy -61279.823485 kJ/mol
# GULP energy per Si atom -5570.893044 kJ/mol
# Density = 2.229612 g / cm^3
# Si number density = 22.346987 Si / 1000 Ang^3
#
#
#
# Elastic Constant Matrix: (Units=GPa)
#
#
# Indices 1 2 3 4 5 6 
#
# 1 51.4309 36.6881 28.9095 0.0001 11.8320 0.0000
# 2 36.6881 166.6241 23.2814 0.0005 10.6295 0.0004
# 3 28.9095 23.2814 87.3853 0.0007 28.8542 0.0005
# 4 0.0001 0.0005 0.0007 9.0410 0.0002 -17.6415
# 5 11.8320 10.6295 28.8542 0.0002 42.3351 0.0001
# 6 0.0000 0.0004 0.0005 -17.6415 0.0001 26.5960
#
#
#
# Elastic Compliance Matrix: (Units=1/GPa)
#
#
# Indices 1 2 3 4 5 6 
#
# 1 0.027371 -0.004919 -0.007260 -0.000004 -0.001466 -0.000002
# 2 -0.004919 0.007128 -0.000174 0.000002 -0.000296 0.000001
# 3 -0.007260 -0.000174 0.017043 0.000006 -0.009543 0.000003
# 4 -0.000004 0.000002 0.000006 -0.375807 -0.000001 -0.249279
# 5 -0.001466 -0.000296 -0.009543 -0.000001 0.030610 -0.000001
# 6 -0.000002 0.000001 0.000003 -0.249279 -0.000001 -0.127751
#
#
# Mechanical properties :
#
#
# Convention : Reuss Voigt Hill
#
# Bulk Modulus (GPa) = 37.26404 53.68870 45.47637
# Shear Modulus (GPa) = -12.89472 30.03182 8.56855
#
# Velocity S-wave (km/s) = -2.40474 3.66988 1.96027
# Velocity P-wave (km/s) = 3.00018 6.48341 5.05152
#
# Compressibility (1/GPa) = 0.02683552
#
# Stress axis : x y z
#
# Youngs Moduli (GPa) = 36.53552 140.29685 58.67536
#
# Poissons Ratio (x) = 0.69007 0.42601
# Poissons Ratio (y) = 0.17970 0.01020
# Poissons Ratio (z) = 0.26526 0.02440
#
# Static dielectric constant tensor:
#      x y z
#    x 1.822040 0.000000 0.023270 
#    y 0.000000 1.881650 0.000000 
#    z 0.023270 0.000000 1.783320 
# 
# From -- ./inp_files/31381.got.cif
#   From: 2010.05.17/outbox.cif.g08.bks.cpg/sg8_16_cif.got.tgz:31381.got - 2010.06.03 19:46:02.
