data_PCOD9132299
_publ_section_title
;
Structure prediction by ZEFSAII (Michael W. Deem and Ramdas Pophale) SiO2 
 PCOD9132299
Probable space group: C M
;
_chemical_formula_sum "Si O2"
_cell_formula_units_Z 32
_cell_length_a 7.805334
_cell_length_b 13.405073
_cell_length_c 14.790561
_cell_angle_alpha 90.000000
_cell_angle_beta 114.342076
_cell_angle_gamma 90.000000
_cell_volume 1409.976142
_symmetry_space_group_name_H-M "C M"
_symmetry_group_IT_number 8
_symmetry_cell_setting 'monoclinic'
loop_
_space_group_symop_operation_xyz
x,y,z
x,-y,z
1/2+x,1/2+y,z
1/2+x,1/2-y,z
loop_
_atom_site_type_symbol
_atom_site_label
_atom_site_fract_x
_atom_site_fract_y
_atom_site_fract_z
Si Si1 0.683680 0.613055 0.850530
Si Si2 0.931524 0.112902 0.621173
Si Si3 0.272233 0.886200 0.379272
Si Si4 0.531383 0.114056 0.788698
Si Si5 0.289827 0.816396 0.582819
Si Si6 0.278642 0.697215 0.975697
Si Si7 0.141659 0.693448 0.124615
Si Si8 0.005336 0.303914 0.275587
O O1 0.696303 0.500000 0.888647
O O2 0.513942 0.617068 0.741405
O O3 0.872319 0.633279 0.831133
O O4 0.678576 0.697725 0.925168
O O5 0.777916 0.197308 0.569365
O O6 0.109800 0.138183 0.594939
O O7 0.868485 0.000000 0.590602
O O8 0.317645 0.870544 0.494257
O O9 0.446837 0.866411 0.349955
O O10 0.127294 0.794623 0.327021
O O11 0.202339 0.000000 0.349680
O O12 0.471309 0.172431 0.686939
O O13 0.733218 0.135634 0.875984
O O14 0.513750 0.000000 0.759615
O O15 0.193970 0.638398 0.043480
O O16 0.478897 0.732708 0.054021
O O17 0.314157 0.761951 0.191388
O O18 0.093262 0.639513 0.208003
#
# Coordination Sequence:
#
# PCOD9132299 Si02
#       8
#     4   4   4   4   4   4   4   4
#     4   9  18  33  53  79 118 165 208 244 292 361
#     4  10  21  38  59  88 129 175 210 246 300 359
#     4  11  22  41  69  94 122 164 209 258 323 382
#     4  10  20  34  54  85 126 165 207 251 303 372
#     4  11  21  38  64  93 129 169 206 259 308 367
#     4  11  17  34  57  84 117 164 198 244 310 373
#     4   9  20  36  62  85 119 159 197 261 322 369
#     4   9  21  44  60  88 124 153 205 273 324 363
#
# _framework density 22.695419000000001
#
# number of rings (size 3 to 8) (size 9 to 14) (size 15 to 20)
#    0.000    2.000    2.500    2.625    0.000    0.000 
#    0.000   19.375    0.000    0.000    0.000    0.000 
#    0.000    0.000    0.000    0.000    0.000    0.000 
#
# Total GULP energy -89226.812263 kJ/mol
# GULP energy per Si atom -5576.675766 kJ/mol
# Density = 2.264376 g / cm^3
# Si number density = 22.695419 Si / 1000 Ang^3
#
#
#
# Elastic Constant Matrix: (Units=GPa)
#
#
# Indices 1 2 3 4 5 6 
#
# 1 27.3765 11.3624 20.5659 0.0000 -19.6246 0.0000
# 2 11.3624 116.2380 23.5204 0.0000 -13.7267 0.0000
# 3 20.5659 23.5204 101.4073 0.0000 -23.1727 0.0000
# 4 0.0000 0.0000 0.0000 4.4408 0.0000 1.1627
# 5 -19.6246 -13.7267 -23.1727 0.0000 36.8794 0.0000
# 6 0.0000 0.0000 0.0000 1.1627 0.0000 19.3766
#
#
#
# Elastic Compliance Matrix: (Units=1/GPa)
#
#
# Indices 1 2 3 4 5 6 
#
# 1 0.062157 -0.001515 -0.005634 0.000000 0.028971 0.000000
# 2 -0.001515 0.009247 -0.001442 0.000000 0.001730 0.000000
# 3 -0.005634 -0.001442 0.012296 0.000000 0.004191 0.000000
# 4 0.000000 0.000000 0.000000 0.228779 0.000000 -0.013727
# 5 0.028971 0.001730 0.004191 0.000000 0.045809 0.000000
# 6 0.000000 0.000000 0.000000 -0.013727 0.000000 0.052432
#
#
# Mechanical properties :
#
#
# Convention : Reuss Voigt Hill
#
# Bulk Modulus (GPa) = 15.03355 39.54658 27.29006
# Shear Modulus (GPa) = 11.10925 24.77758 17.94342
#
# Velocity S-wave (km/s) = 2.21485 3.30774 2.81484
# Velocity P-wave (km/s) = 3.63031 5.66135 4.75553
#
# Compressibility (1/GPa) = 0.06651791
#
# Stress axis : x y z
#
# Youngs Moduli (GPa) = 16.08838 108.14077 81.32641
#
# Poissons Ratio (x) = 0.16379 0.45820
# Poissons Ratio (y) = 0.02437 0.11731
# Poissons Ratio (z) = 0.09064 0.15598
#
# Static dielectric constant tensor:
#      x y z
#    x 1.947650 0.000000 -0.034970 
#    y 0.000000 1.840430 0.000000 
#    z -0.034970 0.000000 1.847160 
# 
# From -- ./inp_files/25374.got.cif
#   From: 2010.05.17/outbox.cif.g08.bks.cpg/sg8_13_cif.got.tgz:25374.got - 2010.06.03 19:46:02.
