data_PCOD9132968
_publ_section_title
;
Structure prediction by ZEFSAII (Michael W. Deem and Ramdas Pophale) SiO2 
 PCOD9132968
Probable space group: C M
;
_chemical_formula_sum "Si O2"
_cell_formula_units_Z 26
_cell_length_a 4.992874
_cell_length_b 13.024561
_cell_length_c 19.043588
_cell_angle_alpha 90.000000
_cell_angle_beta 74.452613
_cell_angle_gamma 90.000000
_cell_volume 1193.090046
_symmetry_space_group_name_H-M "C M"
_symmetry_group_IT_number 8
_symmetry_cell_setting 'monoclinic'
loop_
_space_group_symop_operation_xyz
x,y,z
x,-y,z
1/2+x,1/2+y,z
1/2+x,1/2-y,z
loop_
_atom_site_type_symbol
_atom_site_label
_atom_site_fract_x
_atom_site_fract_y
_atom_site_fract_z
Si Si1 0.910270 0.681609 0.225150
Si Si2 0.918792 0.500000 0.598176
Si Si3 0.963034 0.677145 0.065268
Si Si4 0.687651 0.679239 0.875788
Si Si5 0.773275 0.681922 0.709618
Si Si6 0.323114 0.500000 0.969206
Si Si7 0.522143 0.500000 0.496960
Si Si8 0.627544 0.678395 0.381964
O O1 0.718042 0.783193 0.225751
O O2 0.759767 0.629997 0.301723
O O3 0.921153 0.633293 0.147512
O O4 0.901419 0.598548 0.649388
O O5 0.662714 0.500000 0.562825
O O6 0.193804 0.500000 0.532197
O O7 0.176260 0.773284 0.058975
O O8 0.101517 0.590030 0.009554
O O9 0.475970 0.775744 0.884230
O O10 0.735153 0.642865 0.791973
O O11 0.545764 0.589845 0.928950
O O12 0.478010 0.720867 0.702005
O O13 0.611409 0.598711 0.445846
O O14 0.328249 0.726417 0.386543
#
# Coordination Sequence:
#
# PCOD9132968 Si02
#       8
#     4   2   4   4   4   2   2   4
#     4   8  16  34  57  78 108 149 193 238 276 325
#     4  12  25  40  58  90 119 148 189 234 284 348
#     4  10  22  38  56  85 118 150 195 240 281 337
#     4  10  23  41  61  88 116 148 195 238 276 338
#     4  10  22  42  65  85 113 153 192 234 282 334
#     4  12  23  37  62  86 120 160 182 232 300 339
#     4  12  26  37  58  90 121 148 187 236 286 347
#     4  10  21  39  60  82 114 155 193 235 286 335
#
# _framework density 21.792151
#
# number of rings (size 3 to 8) (size 9 to 14) (size 15 to 20)
#    0.000    1.846    0.000    3.231    0.000    6.769 
#    0.000    4.615    0.000   11.077    0.000    0.000 
#    0.000    0.000    0.000    0.000    0.000    0.000 
#
# Total GULP energy -72425.485308 kJ/mol
# GULP energy per Si atom -5571.191178 kJ/mol
# Density = 2.174255 g / cm^3
# Si number density = 21.792151 Si / 1000 Ang^3
#
#
#
# Elastic Constant Matrix: (Units=GPa)
#
#
# Indices 1 2 3 4 5 6 
#
# 1 68.8325 -1.8686 -3.7609 0.0000 -0.6547 0.0000
# 2 -1.8686 63.5616 40.4852 0.0000 3.3724 0.0000
# 3 -3.7609 40.4852 95.4540 0.0000 -9.1334 0.0000
# 4 0.0000 0.0000 0.0000 -55.8514 0.0000 -14.8658
# 5 -0.6547 3.3724 -9.1334 0.0000 33.3780 0.0000
# 6 0.0000 0.0000 0.0000 -14.8658 0.0000 8.2989
#
#
#
# Elastic Compliance Matrix: (Units=1/GPa)
#
#
# Indices 1 2 3 4 5 6 
#
# 1 0.014566 0.000015 0.000611 0.000000 0.000451 0.000000
# 2 0.000015 0.022334 -0.009948 0.000000 -0.004978 0.000000
# 3 0.000611 -0.009948 0.015215 0.000000 0.005181 0.000000
# 4 0.000000 0.000000 0.000000 -0.012124 0.000000 -0.021718
# 5 0.000451 -0.004978 0.005181 0.000000 0.031889 0.000000
# 6 0.000000 0.000000 0.000000 -0.021718 0.000000 0.081594
#
#
# Mechanical properties :
#
#
# Convention : Reuss Voigt Hill
#
# Bulk Modulus (GPa) = 29.87690 33.06217 31.46953
# Shear Modulus (GPa) = 27.28119 10.03128 18.65624
#
# Velocity S-wave (km/s) = 3.54203 2.14783 2.92909
# Velocity P-wave (km/s) = 5.51975 4.62119 5.09034
#
# Compressibility (1/GPa) = 0.03347067
#
# Stress axis : x y z
#
# Youngs Moduli (GPa) = 68.65255 44.77508 65.72293
#
# Poissons Ratio (x) = -0.00069 -0.04013
# Poissons Ratio (y) = -0.00106 0.65383
# Poissons Ratio (z) = -0.04192 0.44543
#
# Static dielectric constant tensor:
#      x y z
#    x 1.757750 0.000000 0.027740 
#    y 0.000000 1.732690 0.000000 
#    z 0.027740 0.000000 1.835880 
# 
# From -- ./inp_files/30244.got.cif
#   From: 2010.05.17/outbox.cif.g08.bks.cpg/sg8_16_cif.got.tgz:30244.got - 2010.06.03 19:46:02.
