data_PCOD9132340
_publ_section_title
;
Structure prediction by ZEFSAII (Michael W. Deem and Ramdas Pophale) SiO2 
 PCOD9132340
Probable space group: C M
;
_chemical_formula_sum "Si O2"
_cell_formula_units_Z 32
_cell_length_a 14.533922
_cell_length_b 8.586294
_cell_length_c 16.474921
_cell_angle_alpha 90.000000
_cell_angle_beta 61.868089
_cell_angle_gamma 90.000000
_cell_volume 1813.066489
_symmetry_space_group_name_H-M "C M"
_symmetry_group_IT_number 8
_symmetry_cell_setting 'monoclinic'
loop_
_space_group_symop_operation_xyz
x,y,z
x,-y,z
1/2+x,1/2+y,z
1/2+x,1/2-y,z
loop_
_atom_site_type_symbol
_atom_site_label
_atom_site_fract_x
_atom_site_fract_y
_atom_site_fract_z
Si Si1 0.441420 0.687775 0.683800
Si Si2 0.917488 0.689286 0.031619
Si Si3 0.239557 0.311539 0.666686
Si Si4 0.190030 0.813082 0.185158
Si Si5 0.265144 0.685352 0.322056
Si Si6 0.169733 0.186529 0.526933
Si Si7 0.487940 0.187021 0.178474
Si Si8 0.011627 0.687891 0.822661
O O1 0.439972 0.500000 0.688827
O O2 0.340548 0.738523 0.675279
O O3 0.549668 0.733635 0.594963
O O4 0.446532 0.752588 0.772729
O O5 0.919498 0.500000 0.029168
O O6 0.796859 0.735127 0.094642
O O7 0.978805 0.736633 0.087669
O O8 0.967247 0.744954 0.927000
O O9 0.241058 0.500000 0.659656
O O10 0.233988 0.241532 0.579045
O O11 0.131865 0.266067 0.756451
O O12 0.200005 0.745775 0.271638
O O13 0.088464 0.754835 0.180910
O O14 0.189197 0.000000 0.190613
O O15 0.272239 0.500000 0.316182
O O16 0.213153 0.739395 0.427122
O O17 0.380844 0.756759 0.264505
O O18 0.173780 0.000000 0.518837
O O19 0.491340 0.000000 0.179695
O O20 0.008333 0.500000 0.824236
#
# Coordination Sequence:
#
# PCOD9132340 Si02
#       8
#     4   4   4   4   4   4   4   4
#     4   9  19  34  51  74 104 135 169 214 262 307
#     4   8  17  33  52  75 105 139 173 214 261 309
#     4   9  18  33  52  74 102 136 174 213 257 310
#     4  10  20  36  55  77 108 142 178 219 263 311
#     4  11  22  37  56  78 105 138 177 218 266 318
#     4  10  20  35  53  74 103 135 170 215 265 313
#     4  10  20  36  56  79 107 138 176 219 266 317
#     4   9  17  32  53  75 102 137 175 214 256 303
#
# _framework density 17.649656
#
# number of rings (size 3 to 8) (size 9 to 14) (size 15 to 20)
#    0.000    2.500    0.000    3.000    0.000    3.000 
#    0.000    8.750    0.000    0.000    0.000    0.000 
#    0.000    0.000    0.000    0.000    0.000    0.000 
#
# Total GULP energy -89270.041626 kJ/mol
# GULP energy per Si atom -5579.377602 kJ/mol
# Density = 1.760948 g / cm^3
# Si number density = 17.649656 Si / 1000 Ang^3
#
#
#
# Elastic Constant Matrix: (Units=GPa)
#
#
# Indices 1 2 3 4 5 6 
#
# 1 162.8369 22.5638 76.9084 0.0000 21.8137 0.0000
# 2 22.5638 33.9811 27.0259 0.0000 6.4905 0.0000
# 3 76.9084 27.0259 167.4806 0.0000 20.9758 0.0000
# 4 0.0000 0.0000 0.0000 23.5095 0.0000 4.2357
# 5 21.8137 6.4905 20.9758 0.0000 9.2820 0.0000
# 6 0.0000 0.0000 0.0000 4.2357 0.0000 25.6072
#
#
#
# Elastic Compliance Matrix: (Units=1/GPa)
#
#
# Indices 1 2 3 4 5 6 
#
# 1 0.009568 -0.001518 -0.002044 0.000000 -0.016806 0.000000
# 2 -0.001518 0.035739 -0.003329 0.000000 -0.013900 0.000000
# 3 -0.002044 -0.003329 0.009141 0.000000 -0.013525 0.000000
# 4 0.000000 0.000000 0.000000 0.043843 0.000000 -0.007252
# 5 -0.016806 -0.013900 -0.013525 0.000000 0.187515 0.000000
# 6 0.000000 0.000000 0.000000 -0.007252 0.000000 0.040251
#
#
# Mechanical properties :
#
#
# Convention : Reuss Voigt Hill
#
# Bulk Modulus (GPa) = 24.59087 68.58831 46.58959
# Shear Modulus (GPa) = 14.14856 27.53309 20.84083
#
# Velocity S-wave (km/s) = 2.83439 3.95394 3.44001
# Velocity P-wave (km/s) = 4.96736 7.73241 6.49865
#
# Compressibility (1/GPa) = 0.04066550
#
# Stress axis : x y z
#
# Youngs Moduli (GPa) = 104.51357 27.98085 109.40239
#
# Poissons Ratio (x) = 0.04247 0.22362
# Poissons Ratio (y) = 0.15862 0.36422
# Poissons Ratio (z) = 0.21363 0.09315
#
# Static dielectric constant tensor:
#      x y z
#    x 1.580650 0.000000 -0.007750 
#    y 0.000000 1.596190 0.000000 
#    z -0.007750 0.000000 1.585310 
# 
# From -- ./inp_files/26538.got.cif
#   From: 2010.05.17/outbox.cif.g08.bks.cpg/sg8_14_cif.got.tgz:26538.got - 2010.06.03 19:46:02.
