data_PCOD9132818
_publ_section_title
;
Structure prediction by ZEFSAII (Michael W. Deem and Ramdas Pophale) SiO2 
 PCOD9132818
Probable space group: C M
;
_chemical_formula_sum "Si O2"
_cell_formula_units_Z 26
_cell_length_a 13.792208
_cell_length_b 17.373527
_cell_length_c 5.091491
_cell_angle_alpha 90.000000
_cell_angle_beta 69.360503
_cell_angle_gamma 90.000000
_cell_volume 1141.714708
_symmetry_space_group_name_H-M "C M"
_symmetry_group_IT_number 8
_symmetry_cell_setting 'monoclinic'
loop_
_space_group_symop_operation_xyz
x,y,z
x,-y,z
1/2+x,1/2+y,z
1/2+x,1/2-y,z
loop_
_atom_site_type_symbol
_atom_site_label
_atom_site_fract_x
_atom_site_fract_y
_atom_site_fract_z
Si Si1 0.027761 0.500000 0.344620
Si Si2 0.612748 0.159123 0.023101
Si Si3 0.476008 0.304574 0.260295
Si Si4 0.289424 0.087534 0.283976
Si Si5 0.957131 0.641042 0.768065
Si Si6 0.350935 0.293930 0.854884
Si Si7 0.654634 0.588362 0.884162
O O1 0.093699 0.571068 0.134994
O O2 0.968289 0.567242 0.579108
O O3 0.543678 0.225972 0.229897
O O4 0.570562 0.165208 0.762907
O O5 0.732621 0.182547 0.935186
O O6 0.426636 0.336795 0.576414
O O7 0.387110 0.296121 0.122889
O O8 0.555577 0.363493 0.054213
O O9 0.218126 0.122124 0.577485
O O10 0.311874 0.000000 0.345336
O O11 0.399827 0.119571 0.097515
O O12 0.225897 0.087307 0.074417
O O13 0.881408 0.707241 0.737705
O O14 0.627444 0.500000 0.843725
#
# Coordination Sequence:
#
# PCOD9132818 Si02
#       7
#     2   4   4   4   4   4   4
#     4  12  24  46  72 108 142 192 236 314 350 430
#     4  11  27  45  72 104 147 185 243 298 364 426
#     4  11  24  46  70  98 141 190 238 293 354 432
#     4  10  21  35  65 100 133 173 224 293 355 408
#     4  11  24  43  73 103 146 182 241 297 360 427
#     4  11  26  45  69 101 136 190 236 289 362 429
#     4  10  22  40  64  99 138 181 237 293 352 420
#
# _framework density 22.772763000000001
#
# number of rings (size 3 to 8) (size 9 to 14) (size 15 to 20)
#    0.000    1.231    2.308    2.308    4.308    2.462 
#    2.769    0.000    0.000    0.000    0.000    0.000 
#    0.000    0.000    0.000    0.000    0.000    0.000 
#
# Total GULP energy -72369.594321 kJ/mol
# GULP energy per Si atom -5566.891871 kJ/mol
# Density = 2.272093 g / cm^3
# Si number density = 22.772763 Si / 1000 Ang^3
#
#
#
# Elastic Constant Matrix: (Units=GPa)
#
#
# Indices 1 2 3 4 5 6 
#
# 1 121.1624 51.6819 34.3629 0.0000 -18.3074 0.0000
# 2 51.6819 107.4759 24.9154 0.0000 -18.7052 0.0000
# 3 34.3629 24.9154 125.7768 0.0000 -11.8424 0.0000
# 4 0.0000 0.0000 0.0000 32.5887 0.0000 -6.6888
# 5 -18.3074 -18.7052 -11.8424 0.0000 31.0005 0.0000
# 6 0.0000 0.0000 0.0000 -6.6888 0.0000 17.0521
#
#
#
# Elastic Compliance Matrix: (Units=1/GPa)
#
#
# Indices 1 2 3 4 5 6 
#
# 1 0.011131 -0.004356 -0.001874 0.000000 0.003229 0.000000
# 2 -0.004356 0.012390 -0.000833 0.000000 0.004586 0.000000
# 3 -0.001874 -0.000833 0.008792 0.000000 0.001750 0.000000
# 4 0.000000 0.000000 0.000000 0.033372 0.000000 0.013091
# 5 0.003229 0.004586 0.001750 0.000000 0.037600 0.000000
# 6 0.000000 0.000000 0.000000 0.013091 0.000000 0.063779
#
#
# Mechanical properties :
#
#
# Convention : Reuss Voigt Hill
#
# Bulk Modulus (GPa) = 54.98152 64.03728 59.50940
# Shear Modulus (GPa) = 26.70196 32.35857 29.53026
#
# Velocity S-wave (km/s) = 3.42795 3.77362 3.60493
# Velocity P-wave (km/s) = 6.31377 6.86790 6.59666
#
# Compressibility (1/GPa) = 0.01818793
#
# Stress axis : x y z
#
# Youngs Moduli (GPa) = 89.84015 80.70914 113.73638
#
# Poissons Ratio (x) = 0.35157 0.21315
# Poissons Ratio (y) = 0.39135 0.09469
# Poissons Ratio (z) = 0.16837 0.06719
#
# Static dielectric constant tensor:
#      x y z
#    x 1.947730 0.000000 0.032920 
#    y 0.000000 1.877630 0.000000 
#    z 0.032920 0.000000 1.973500 
# 
# From -- ./inp_files/4035.got.cif
#   From: 2010.05.17/outbox.cif.g08.bks.cpg/sg8_3_cif.got.tgz:4035.got - 2010.06.03 19:46:02.
