data_PCOD9132506
_publ_section_title
;
Structure prediction by ZEFSAII (Michael W. Deem and Ramdas Pophale) SiO2 
 PCOD9132506
Probable space group: C M
;
_chemical_formula_sum "Si O2"
_cell_formula_units_Z 32
_cell_length_a 32.459264
_cell_length_b 8.813306
_cell_length_c 12.500660
_cell_angle_alpha 90.000000
_cell_angle_beta 26.785247
_cell_angle_gamma 90.000000
_cell_volume 1611.564213
_symmetry_space_group_name_H-M "C M"
_symmetry_group_IT_number 8
_symmetry_cell_setting 'monoclinic'
loop_
_space_group_symop_operation_xyz
x,y,z
x,-y,z
1/2+x,1/2+y,z
1/2+x,1/2-y,z
loop_
_atom_site_type_symbol
_atom_site_label
_atom_site_fract_x
_atom_site_fract_y
_atom_site_fract_z
Si Si1 0.141550 0.678930 0.654220
Si Si2 0.821589 0.180684 0.837350
Si Si3 0.952786 0.821238 0.069956
Si Si4 0.763481 0.680131 0.553619
Si Si5 0.519508 0.317667 0.472606
Si Si6 0.707312 0.681803 0.921495
Si Si7 0.244001 0.175490 0.225601
Si Si8 0.949126 0.675592 0.847425
O O1 0.127245 0.500000 0.690448
O O2 0.217173 0.730293 0.564094
O O3 0.176487 0.729481 0.456286
O O4 0.048709 0.767349 0.895217
O O5 0.926800 0.219128 0.621790
O O6 0.787149 0.238599 0.803427
O O7 0.812210 0.000000 0.866989
O O8 0.758858 0.258983 0.073252
O O9 0.868489 0.730605 0.315541
O O10 0.939694 0.000000 0.112368
O O11 0.956248 0.775467 0.936750
O O12 0.757643 0.500000 0.545884
O O13 0.714971 0.715330 0.778340
O O14 0.520604 0.500000 0.486313
O O15 0.510400 0.237205 0.608309
O O16 0.610107 0.273782 0.198166
O O17 0.716818 0.500000 0.911555
O O18 0.214824 0.000000 0.289479
O O19 0.344381 0.182261 0.048140
O O20 0.970310 0.500000 0.823206
#
# Coordination Sequence:
#
# PCOD9132506 Si02
#       8
#     4   4   4   4   4   4   4   4
#     4  12  25  41  64  94 126 164 212 263 319 381
#     4  10  21  37  60  91 126 162 209 260 306 367
#     4  12  25  41  64  92 125 168 211 261 320 380
#     4  11  24  45  66  91 128 168 215 268 317 375
#     4   9  20  39  60  87 123 164 206 249 308 373
#     4  10  23  42  65  89 122 167 210 256 313 376
#     4  10  20  37  62  90 128 168 205 255 317 377
#     4  10  20  36  61  92 128 163 204 258 312 373
#
# _framework density 19.856483999999998
#
# number of rings (size 3 to 8) (size 9 to 14) (size 15 to 20)
#    0.000    1.500    1.250    3.750    1.750    4.000 
#    0.000    1.250    0.000    0.000    0.000    0.000 
#    0.000    0.000    0.000    0.000    0.000    0.000 
#
# Total GULP energy -89496.123132 kJ/mol
# GULP energy per Si atom -5593.507696 kJ/mol
# Density = 1.981129 g / cm^3
# Si number density = 19.856484 Si / 1000 Ang^3
#
#
#
# Elastic Constant Matrix: (Units=GPa)
#
#
# Indices 1 2 3 4 5 6 
#
# 1 29.5896 11.0065 -0.3308 0.0000 6.0882 0.0000
# 2 11.0065 50.7021 4.0594 0.0000 9.2730 0.0000
# 3 -0.3308 4.0594 82.9204 0.0000 8.3527 0.0000
# 4 0.0000 0.0000 0.0000 28.8078 0.0000 -0.9188
# 5 6.0882 9.2730 8.3527 0.0000 24.8041 0.0000
# 6 0.0000 0.0000 0.0000 -0.9188 0.0000 31.5852
#
#
#
# Elastic Compliance Matrix: (Units=1/GPa)
#
#
# Indices 1 2 3 4 5 6 
#
# 1 0.037879 -0.007025 0.001208 0.000000 -0.007078 0.000000
# 2 -0.007025 0.022478 -0.000472 0.000000 -0.006520 0.000000
# 3 0.001208 -0.000472 0.012525 0.000000 -0.004338 0.000000
# 4 0.000000 0.000000 0.000000 0.034745 0.000000 0.001011
# 5 -0.007078 -0.006520 -0.004338 0.000000 0.045952 0.000000
# 6 0.000000 0.000000 0.000000 0.001011 0.000000 0.031690
#
#
# Mechanical properties :
#
#
# Convention : Reuss Voigt Hill
#
# Bulk Modulus (GPa) = 16.58256 21.40912 18.99584
# Shear Modulus (GPa) = 22.94141 26.93790 24.93965
#
# Velocity S-wave (km/s) = 3.40275 3.68724 3.54785
# Velocity P-wave (km/s) = 4.87930 5.37894 5.13520
#
# Compressibility (1/GPa) = 0.06030432
#
# Stress axis : x y z
#
# Youngs Moduli (GPa) = 26.40017 44.48726 79.84270
#
# Poissons Ratio (x) = 0.31252 -0.09645
# Poissons Ratio (y) = 0.18546 0.03766
# Poissons Ratio (z) = -0.03189 0.02098
#
# Static dielectric constant tensor:
#      x y z
#    x 1.683620 0.000000 -0.021590 
#    y 0.000000 1.660410 0.000000 
#    z -0.021590 0.000000 1.691570 
# 
# From -- ./inp_files/24806.got.cif
#   From: 2010.05.17/outbox.cif.g08.bks.cpg/sg8_13_cif.got.tgz:24806.got - 2010.06.03 19:46:02.
