data_PCOD9132747
_publ_section_title
;
Structure prediction by ZEFSAII (Michael W. Deem and Ramdas Pophale) SiO2 
 PCOD9132747
Probable space group: C M
;
_chemical_formula_sum "Si O2"
_cell_formula_units_Z 32
_cell_length_a 19.377298
_cell_length_b 8.719209
_cell_length_c 12.144597
_cell_angle_alpha 90.000000
_cell_angle_beta 52.604780
_cell_angle_gamma 90.000000
_cell_volume 1630.152902
_symmetry_space_group_name_H-M "C M"
_symmetry_group_IT_number 8
_symmetry_cell_setting 'monoclinic'
loop_
_space_group_symop_operation_xyz
x,y,z
x,-y,z
1/2+x,1/2+y,z
1/2+x,1/2-y,z
loop_
_atom_site_type_symbol
_atom_site_label
_atom_site_fract_x
_atom_site_fract_y
_atom_site_fract_z
Si Si1 0.133860 0.178189 0.808230
Si Si2 0.394087 0.318407 0.792061
Si Si3 0.410968 0.317560 0.339494
Si Si4 0.265673 0.814861 0.085334
Si Si5 0.837546 0.676192 0.622675
Si Si6 0.079761 0.319629 0.639520
Si Si7 0.750591 0.316289 0.358060
Si Si8 0.104557 0.186514 0.088449
O O1 0.236796 0.179883 0.686756
O O2 0.090013 0.281362 0.758787
O O3 0.104277 0.000000 0.826546
O O4 0.119769 0.230784 0.947000
O O5 0.385653 0.500000 0.793663
O O6 0.344999 0.238230 0.738471
O O7 0.493937 0.268829 0.684873
O O8 0.349958 0.257925 0.946624
O O9 0.405594 0.500000 0.327660
O O10 0.390555 0.277153 0.485470
O O11 0.337340 0.238397 0.336479
O O12 0.508380 0.265100 0.217130
O O13 0.256295 0.776847 0.222987
O O14 0.181293 0.763579 0.096246
O O15 0.272103 0.000000 0.070265
O O16 0.867199 0.500000 0.589646
O O17 0.069509 0.500000 0.631590
O O18 0.165968 0.259806 0.494834
O O19 0.742859 0.500000 0.376302
O O20 0.106741 0.000000 0.088501
#
# Coordination Sequence:
#
# PCOD9132747 Si02
#       8
#     4   4   4   4   4   4   4   4
#     4  10  20  40  68  92 123 165 210 260 319 378
#     4  12  26  43  66  95 129 168 215 265 322 385
#     4  11  23  39  64  95 128 168 214 262 316 379
#     4  10  22  44  67  91 127 170 214 261 319 380
#     4  11  22  41  68  93 126 166 210 266 324 377
#     4  12  26  43  65  94 129 167 216 269 319 381
#     4  11  24  42  65  92 129 172 212 264 323 379
#     4   9  20  40  65  92 123 164 209 257 312 373
#
# _framework density 19.63006
#
# number of rings (size 3 to 8) (size 9 to 14) (size 15 to 20)
#    0.000    1.250    2.500    3.375    3.500    1.500 
#    0.000    1.875    0.000    0.000    0.000    0.000 
#    0.000    0.000    0.000    0.000    0.000    0.000 
#
# Total GULP energy -89447.939882 kJ/mol
# GULP energy per Si atom -5590.496243 kJ/mol
# Density = 1.958538 g / cm^3
# Si number density = 19.630060 Si / 1000 Ang^3
#
#
#
# Elastic Constant Matrix: (Units=GPa)
#
#
# Indices 1 2 3 4 5 6 
#
# 1 43.4992 6.8058 -0.9242 0.0000 -2.1138 0.0000
# 2 6.8058 21.5729 -7.7765 0.0000 1.1276 0.0000
# 3 -0.9242 -7.7765 76.7078 0.0000 -1.9389 0.0000
# 4 0.0000 0.0000 0.0000 19.7509 0.0000 0.5107
# 5 -2.1138 1.1276 -1.9389 0.0000 35.8314 0.0000
# 6 0.0000 0.0000 0.0000 0.5107 0.0000 25.9437
#
#
#
# Elastic Compliance Matrix: (Units=1/GPa)
#
#
# Indices 1 2 3 4 5 6 
#
# 1 0.024299 -0.007921 -0.000468 0.000000 0.001657 0.000000
# 2 -0.007921 0.050751 0.005004 0.000000 -0.001794 0.000000
# 3 -0.000468 0.005004 0.013552 0.000000 0.000548 0.000000
# 4 0.000000 0.000000 0.000000 0.050656 0.000000 -0.000997
# 5 0.001657 -0.001794 0.000548 0.000000 0.028092 0.000000
# 6 0.000000 0.000000 0.000000 -0.000997 0.000000 0.038565
#
#
# Mechanical properties :
#
#
# Convention : Reuss Voigt Hill
#
# Bulk Modulus (GPa) = 12.22026 15.33222 13.77624
# Shear Modulus (GPa) = 20.83654 25.88352 23.36003
#
# Velocity S-wave (km/s) = 3.26154 3.63515 3.45340
# Velocity P-wave (km/s) = 4.51911 5.04446 4.78899
#
# Compressibility (1/GPa) = 0.08183133
#
# Stress axis : x y z
#
# Youngs Moduli (GPa) = 41.15420 19.70403 73.78974
#
# Poissons Ratio (x) = 0.15608 0.03456
# Poissons Ratio (y) = 0.32599 -0.36927
# Poissons Ratio (z) = 0.01928 -0.09860
#
# Static dielectric constant tensor:
#      x y z
#    x 1.673860 0.000000 0.001910 
#    y 0.000000 1.657470 0.000000 
#    z 0.001910 0.000000 1.668190 
# 
# From -- ./inp_files/23892.got.cif
#   From: 2010.05.17/outbox.cif.g08.bks.cpg/sg8_12_cif.got.tgz:23892.got - 2010.06.03 19:46:02.
