data_PCOD9132645
_publ_section_title
;
Structure prediction by ZEFSAII (Michael W. Deem and Ramdas Pophale) SiO2 
 PCOD9132645
Probable space group: C M
;
_chemical_formula_sum "Si O2"
_cell_formula_units_Z 28
_cell_length_a 11.271676
_cell_length_b 19.827881
_cell_length_c 5.213578
_cell_angle_alpha 90.000000
_cell_angle_beta 102.761195
_cell_angle_gamma 90.000000
_cell_volume 1136.419127
_symmetry_space_group_name_H-M "C M"
_symmetry_group_IT_number 8
_symmetry_cell_setting 'monoclinic'
loop_
_space_group_symop_operation_xyz
x,y,z
x,-y,z
1/2+x,1/2+y,z
1/2+x,1/2-y,z
loop_
_atom_site_type_symbol
_atom_site_label
_atom_site_fract_x
_atom_site_fract_y
_atom_site_fract_z
Si Si1 0.962980 0.917845 0.812690
Si Si2 0.299009 0.924678 0.850654
Si Si3 0.498246 0.069917 0.575149
Si Si4 0.712378 0.857800 0.843196
Si Si5 0.584306 0.578736 0.365924
Si Si6 0.149501 0.720234 0.314245
Si Si7 0.377879 0.193849 0.224934
O O1 0.850746 0.878680 0.879679
O O2 0.995516 0.892259 0.543423
O O3 0.946119 0.000000 0.796477
O O4 0.071117 0.900853 0.065611
O O5 0.435779 0.932890 0.820021
O O6 0.215475 0.917299 0.557151
O O7 0.261162 0.000000 0.941664
O O8 0.308622 0.851587 0.981743
O O9 0.638636 0.079604 0.692548
O O10 0.442049 0.134843 0.418129
O O11 0.470170 0.000000 0.423842
O O12 0.675399 0.799589 0.622650
O O13 0.671499 0.838272 0.109610
O O14 0.551843 0.500000 0.344800
O O15 0.265442 0.767774 0.302718
O O16 0.002711 0.736575 0.214952
#
# Coordination Sequence:
#
# PCOD9132645 Si02
#       7
#     4   4   4   4   4   4   4
#     4  10  20  38  62  95 141 181 224 285 353 423
#     4  10  21  40  70 103 137 179 232 297 359 419
#     4  10  22  42  72 104 138 180 232 299 362 418
#     4  11  23  45  67 104 134 189 234 296 340 434
#     4   9  20  35  57  93 136 176 217 271 346 423
#     4  11  27  45  73  95 148 183 247 285 357 410
#     4  11  25  47  69 106 140 194 239 301 345 435
#
# _framework density 24.638797
#
# number of rings (size 3 to 8) (size 9 to 14) (size 15 to 20)
#    0.000    1.714    1.429    1.714    4.000    1.143 
#    2.571    1.429    0.000    0.000    0.000    2.000 
#    0.000    0.000    0.000    0.000    0.000    0.000 
#
# Total GULP energy -77984.869702 kJ/mol
# GULP energy per Si atom -5570.347836 kJ/mol
# Density = 2.458272 g / cm^3
# Si number density = 24.638797 Si / 1000 Ang^3
#
#
#
# Elastic Constant Matrix: (Units=GPa)
#
#
# Indices 1 2 3 4 5 6 
#
# 1 118.1799 25.6848 -2.5120 0.0000 16.7937 0.0000
# 2 25.6848 64.3629 9.4198 0.0000 15.5043 0.0000
# 3 -2.5120 9.4198 69.3700 0.0000 3.4016 0.0000
# 4 0.0000 0.0000 0.0000 58.8332 0.0000 -18.8667
# 5 16.7937 15.5043 3.4016 0.0000 33.0117 0.0000
# 6 0.0000 0.0000 0.0000 -18.8667 0.0000 55.1548
#
#
#
# Elastic Compliance Matrix: (Units=1/GPa)
#
#
# Indices 1 2 3 4 5 6 
#
# 1 0.009668 -0.003145 0.000951 0.000000 -0.003539 0.000000
# 2 -0.003145 0.018818 -0.002326 0.000000 -0.006999 0.000000
# 3 0.000951 -0.002326 0.014811 0.000000 -0.000917 0.000000
# 4 0.000000 0.000000 0.000000 0.019091 0.000000 0.006531
# 5 -0.003539 -0.006999 -0.000917 0.000000 0.035474 0.000000
# 6 0.000000 0.000000 0.000000 0.006531 0.000000 0.020365
#
#
# Mechanical properties :
#
#
# Convention : Reuss Voigt Hill
#
# Bulk Modulus (GPa) = 29.19114 35.23312 32.21213
# Shear Modulus (GPa) = 36.05239 44.02128 40.03684
#
# Velocity S-wave (km/s) = 3.82938 4.23148 4.03544
# Velocity P-wave (km/s) = 5.60585 6.18100 5.90044
#
# Compressibility (1/GPa) = 0.03425697
#
# Stress axis : x y z
#
# Youngs Moduli (GPa) = 103.43050 53.14004 67.51873
#
# Poissons Ratio (x) = 0.16711 -0.06419
# Poissons Ratio (y) = 0.32527 0.15705
# Poissons Ratio (z) = -0.09833 0.12361
#
# Static dielectric constant tensor:
#      x y z
#    x 1.975660 0.000000 -0.012390 
#    y 0.000000 1.633770 0.000000 
#    z -0.012390 0.000000 1.973940 
# 
# From -- ./inp_files/2923.got.cif
#   From: 2010.05.17/outbox.cif.g08.bks.cpg/sg8_2_cif.got.tgz:2923.got - 2010.06.03 19:46:02.
