data_PCOD9132355
_publ_section_title
;
Structure prediction by ZEFSAII (Michael W. Deem and Ramdas Pophale) SiO2 
 PCOD9132355
Probable space group: C M
;
_chemical_formula_sum "Si O2"
_cell_formula_units_Z 28
_cell_length_a 5.615215
_cell_length_b 20.205089
_cell_length_c 9.717832
_cell_angle_alpha 90.000000
_cell_angle_beta 93.014242
_cell_angle_gamma 90.000000
_cell_volume 1101.020181
_symmetry_space_group_name_H-M "C M"
_symmetry_group_IT_number 8
_symmetry_cell_setting 'monoclinic'
loop_
_space_group_symop_operation_xyz
x,y,z
x,-y,z
1/2+x,1/2+y,z
1/2+x,1/2-y,z
loop_
_atom_site_type_symbol
_atom_site_label
_atom_site_fract_x
_atom_site_fract_y
_atom_site_fract_z
Si Si1 0.498610 0.000000 0.238400
Si Si2 0.920436 0.280431 0.645035
Si Si3 0.629753 0.731968 0.241604
Si Si4 0.035466 0.694598 0.945102
Si Si5 0.858430 0.929216 0.886036
Si Si6 0.005630 0.000000 0.400868
Si Si7 0.221221 0.893409 0.101481
Si Si8 0.710351 0.425907 0.636916
O O1 0.248245 0.000000 0.317691
O O2 0.453753 0.934672 0.147771
O O3 0.749772 0.000000 0.321211
O O4 0.675285 0.243669 0.593482
O O5 0.868871 0.359840 0.630119
O O6 0.958098 0.264310 0.810065
O O7 0.389015 0.752569 0.308104
O O8 0.628367 0.653691 0.217924
O O9 0.621383 0.771218 0.091159
O O10 0.207192 0.636652 0.897639
O O11 0.800648 0.655933 0.984761
O O12 0.041346 0.922795 0.764739
O O13 0.728021 0.000000 0.866358
O O14 0.010261 0.933698 0.030299
O O15 0.036564 0.936219 0.500799
O O16 0.832445 0.500000 0.643027
#
# Coordination Sequence:
#
# PCOD9132355 Si02
#       8
#     2   4   4   4   4   2   4   4
#     4  12  28  45  73  94 126 178 244 297 334 391
#     4  12  24  39  69 110 146 186 222 273 349 432
#     4  10  20  35  55  85 138 182 205 242 322 426
#     4  11  23  35  59  98 157 181 209 256 352 445
#     4  11  21  38  64 104 140 179 223 280 353 419
#     4  10  28  53  71  90 126 188 242 287 348 401
#     4  11  23  36  61  99 138 170 222 278 340 406
#     4   9  23  48  71  99 141 186 235 289 353 416
#
# _framework density 25.430956999999999
#
# number of rings (size 3 to 8) (size 9 to 14) (size 15 to 20)
#    0.429    0.857    3.571    2.571    3.000    2.857 
#    0.000    0.000    0.000   10.286    0.000    0.000 
#    0.000    0.000    0.000    0.000    0.000    0.000 
#
# Total GULP energy -78194.646027 kJ/mol
# GULP energy per Si atom -5585.331859 kJ/mol
# Density = 2.537308 g / cm^3
# Si number density = 25.430957 Si / 1000 Ang^3
#
#
#
# Elastic Constant Matrix: (Units=GPa)
#
#
# Indices 1 2 3 4 5 6 
#
# 1 165.2925 68.3020 53.3909 0.0000 30.6284 0.0000
# 2 68.3020 148.3443 16.0945 0.0000 4.8660 0.0000
# 3 53.3909 16.0945 90.2734 0.0000 21.4303 0.0000
# 4 0.0000 0.0000 0.0000 -50.6250 0.0000 42.2186
# 5 30.6284 4.8660 21.4303 0.0000 44.4591 0.0000
# 6 0.0000 0.0000 0.0000 42.2186 0.0000 24.1662
#
#
#
# Elastic Compliance Matrix: (Units=1/GPa)
#
#
# Indices 1 2 3 4 5 6 
#
# 1 0.009789 -0.003924 -0.004055 0.000000 -0.004360 0.000000
# 2 -0.003924 0.008448 0.000443 0.000000 0.001565 0.000000
# 3 -0.004055 0.000443 0.014392 0.000000 -0.004192 0.000000
# 4 0.000000 0.000000 0.000000 -0.008040 0.000000 0.014046
# 5 -0.004360 0.001565 -0.004192 0.000000 0.027345 0.000000
# 6 0.000000 0.000000 0.000000 0.014046 0.000000 0.016842
#
#
# Mechanical properties :
#
#
# Convention : Reuss Voigt Hill
#
# Bulk Modulus (GPa) = 56.95651 75.49834 66.22742
# Shear Modulus (GPa) = 55.73999 21.34158 38.54079
#
# Velocity S-wave (km/s) = 4.68676 2.90003 3.89717
# Velocity P-wave (km/s) = 7.19255 6.40044 6.80803
#
# Compressibility (1/GPa) = 0.01755726
#
# Stress axis : x y z
#
# Youngs Moduli (GPa) = 102.15440 118.36437 69.48337
#
# Poissons Ratio (x) = 0.46449 0.28176
# Poissons Ratio (y) = 0.40088 -0.03079
# Poissons Ratio (z) = 0.41424 -0.05245
#
# Static dielectric constant tensor:
#      x y z
#    x 2.011360 0.000000 -0.028120 
#    y 0.000000 2.333660 0.000000 
#    z -0.028120 0.000000 2.053580 
# 
# From -- ./inp_files/18108.got.cif
#   From: 2010.05.17/outbox.cif.g08.bks.cpg/sg8_10_cif.got.tgz:18108.got - 2010.06.03 19:46:02.
