data_PCOD9132336
_publ_section_title
;
Structure prediction by ZEFSAII (Michael W. Deem and Ramdas Pophale) SiO2 
 PCOD9132336
Probable space group: C M
;
_chemical_formula_sum "Si O2"
_cell_formula_units_Z 26
_cell_length_a 14.255756
_cell_length_b 7.387960
_cell_length_c 9.800956
_cell_angle_alpha 90.000000
_cell_angle_beta 67.984996
_cell_angle_gamma 90.000000
_cell_volume 956.980575
_symmetry_space_group_name_H-M "C M"
_symmetry_group_IT_number 8
_symmetry_cell_setting 'monoclinic'
loop_
_space_group_symop_operation_xyz
x,y,z
x,-y,z
1/2+x,1/2+y,z
1/2+x,1/2-y,z
loop_
_atom_site_type_symbol
_atom_site_label
_atom_site_fract_x
_atom_site_fract_y
_atom_site_fract_z
Si Si1 0.478410 0.290980 0.083640
Si Si2 0.008575 0.289466 0.672325
Si Si3 0.131849 0.500000 0.974177
Si Si4 0.265371 0.219478 0.281334
Si Si5 0.536905 0.283058 0.353585
Si Si6 0.291394 0.220256 0.864568
Si Si7 0.737514 0.295599 0.592059
O O1 0.508590 0.500000 0.053510
O O2 0.358038 0.273848 0.135976
O O3 0.495303 0.219797 0.231466
O O4 0.551437 0.158126 0.964759
O O5 0.025313 0.500000 0.685857
O O6 0.909764 0.230801 0.809390
O O7 0.984048 0.269539 0.523631
O O8 0.116114 0.197678 0.638563
O O9 0.209683 0.338973 0.986291
O O10 0.152866 0.278756 0.305096
O O11 0.280488 0.287219 0.429356
O O12 0.263539 0.000000 0.284874
O O13 0.535167 0.500000 0.349210
O O14 0.262177 0.283435 0.725027
O O15 0.280531 0.000000 0.886821
O O16 0.776342 0.500000 0.577719
#
# Coordination Sequence:
#
# PCOD9132336 Si02
#       7
#     4   4   2   4   4   4   4
#     4  11  23  41  63  87 120 158 207 248 297 349
#     4  10  20  34  61  95 127 150 191 248 303 361
#     4  12  26  42  66  78 120 164 214 250 288 350
#     4   9  17  36  62  93 126 156 186 245 308 359
#     4   9  20  36  61  92 127 154 190 244 305 365
#     4  10  23  42  62  86 122 160 204 245 298 351
#     4   9  19  36  62  92 127 154 190 243 304 365
#
# _framework density 27.168786000000001
#
# number of rings (size 3 to 8) (size 9 to 14) (size 15 to 20)
#    0.000    2.154    0.769    2.769    4.308    3.692 
#    0.000    1.538    0.000    0.000    0.000    0.000 
#    0.000    0.000    0.000    0.000    0.000    0.000 
#
# Total GULP energy -72572.308942 kJ/mol
# GULP energy per Si atom -5582.485303 kJ/mol
# Density = 2.710695 g / cm^3
# Si number density = 27.168786 Si / 1000 Ang^3
#
#
#
# Elastic Constant Matrix: (Units=GPa)
#
#
# Indices 1 2 3 4 5 6 
#
# 1 107.7996 10.4396 18.2499 0.0000 -25.2650 0.0000
# 2 10.4396 156.8567 6.0704 0.0000 -19.9164 0.0000
# 3 18.2499 6.0704 123.0894 0.0000 -9.8818 0.0000
# 4 0.0000 0.0000 0.0000 9.7062 0.0000 -8.5839
# 5 -25.2650 -19.9164 -9.8818 0.0000 54.4652 0.0000
# 6 0.0000 0.0000 0.0000 -8.5839 0.0000 -7.5172
#
#
#
# Elastic Compliance Matrix: (Units=1/GPa)
#
#
# Indices 1 2 3 4 5 6 
#
# 1 0.010578 -0.000065 -0.001190 0.000000 0.004667 0.000000
# 2 -0.000065 0.006688 -0.000128 0.000000 0.002392 0.000000
# 3 -0.001190 -0.000128 0.008381 0.000000 0.000922 0.000000
# 4 0.000000 0.000000 0.000000 0.051261 0.000000 -0.058534
# 5 0.004667 0.002392 0.000922 0.000000 0.021567 0.000000
# 6 0.000000 0.000000 0.000000 -0.058534 0.000000 -0.066188
#
#
# Mechanical properties :
#
#
# Convention : Reuss Voigt Hill
#
# Bulk Modulus (GPa) = 43.70722 50.80728 47.25725
# Shear Modulus (GPa) = 117.14530 34.86323 76.00426
#
# Velocity S-wave (km/s) = 6.57352 3.58608 5.29486
# Velocity P-wave (km/s) = 8.58703 5.99064 7.40355
#
# Compressibility (1/GPa) = 0.02287951
#
# Stress axis : x y z
#
# Youngs Moduli (GPa) = 94.53443 149.51506 119.31780
#
# Poissons Ratio (x) = 0.00977 0.14204
# Poissons Ratio (y) = 0.00618 0.01529
# Poissons Ratio (z) = 0.11254 0.01915
#
# Static dielectric constant tensor:
#      x y z
#    x 2.158040 0.000000 0.054120 
#    y 0.000000 2.029200 0.000000 
#    z 0.054120 0.000000 2.297090 
# 
# From -- ./inp_files/21245.got.cif
#   From: 2010.05.17/outbox.cif.g08.bks.cpg/sg8_11_cif.got.tgz:21245.got - 2010.06.03 19:46:02.
