data_PCOD9132389
_publ_section_title
;
Structure prediction by ZEFSAII (Michael W. Deem and Ramdas Pophale) SiO2 
 PCOD9132389
Probable space group: C M
;
_chemical_formula_sum "Si O2"
_cell_formula_units_Z 32
_cell_length_a 15.062072
_cell_length_b 7.929768
_cell_length_c 21.859166
_cell_angle_alpha 90.000000
_cell_angle_beta 34.224023
_cell_angle_gamma 90.000000
_cell_volume 1468.410054
_symmetry_space_group_name_H-M "C M"
_symmetry_group_IT_number 8
_symmetry_cell_setting 'monoclinic'
loop_
_space_group_symop_operation_xyz
x,y,z
x,-y,z
1/2+x,1/2+y,z
1/2+x,1/2-y,z
loop_
_atom_site_type_symbol
_atom_site_label
_atom_site_fract_x
_atom_site_fract_y
_atom_site_fract_z
Si Si1 0.525530 0.800919 0.047070
Si Si2 0.052301 0.202998 0.241865
Si Si3 0.177130 0.195789 0.624793
Si Si4 0.474194 0.303217 0.519910
Si Si5 0.717253 0.803326 0.468177
Si Si6 0.371187 0.697638 0.008562
Si Si7 0.213086 0.204094 0.280909
Si Si8 0.878571 0.792663 0.868044
O O1 0.455535 0.782079 0.018483
O O2 0.390845 0.729760 0.169457
O O3 0.536224 0.000000 0.053984
O O4 0.702065 0.733194 0.952684
O O5 0.872593 0.266159 0.344957
O O6 0.181765 0.278002 0.122740
O O7 0.120914 0.239917 0.270456
O O8 0.051837 0.000000 0.234948
O O9 0.310184 0.213180 0.600904
O O10 0.237463 0.284592 0.529162
O O11 0.012117 0.263353 0.744670
O O12 0.157766 0.000000 0.620157
O O13 0.448374 0.500000 0.521688
O O14 0.556551 0.282559 0.538147
O O15 0.606713 0.234341 0.397159
O O16 0.705636 0.000000 0.460371
O O17 0.405935 0.500000 0.993255
O O18 0.419009 0.759770 0.914326
O O19 0.222486 0.000000 0.281142
O O20 0.880001 0.000000 0.866648
#
# Coordination Sequence:
#
# PCOD9132389 Si02
#       8
#     4   4   4   4   4   4   4   4
#     4   9  18  37  59  81 113 156 191 231 289 347
#     4   9  18  36  58  82 118 156 189 235 293 352
#     4  11  23  42  62  86 119 159 203 249 295 348
#     4  11  22  38  60  90 120 157 200 242 296 358
#     4  11  23  40  60  87 120 158 199 248 300 351
#     4  10  20  35  57  88 118 147 188 241 291 343
#     4   8  15  31  57  82 112 149 187 230 286 347
#     4   9  21  39  61  84 114 154 197 238 286 348
#
# _framework density 21.792279000000001
#
# number of rings (size 3 to 8) (size 9 to 14) (size 15 to 20)
#    0.000    2.250    1.250    2.250    1.750    2.000 
#    0.000    8.125    0.000    0.000    0.000    0.000 
#    0.000    0.000    0.000    0.000    0.000    0.000 
#
# Total GULP energy -89345.484264 kJ/mol
# GULP energy per Si atom -5584.092767 kJ/mol
# Density = 2.174268 g / cm^3
# Si number density = 21.792279 Si / 1000 Ang^3
#
#
#
# Elastic Constant Matrix: (Units=GPa)
#
#
# Indices 1 2 3 4 5 6 
#
# 1 39.5670 -6.4032 10.2441 0.0000 -15.1438 0.0000
# 2 -6.4032 25.6743 1.2434 0.0000 0.3228 0.0000
# 3 10.2441 1.2434 98.2259 0.0000 -17.7467 0.0000
# 4 0.0000 0.0000 0.0000 14.3927 0.0000 -1.6340
# 5 -15.1438 0.3228 -17.7467 0.0000 33.2010 0.0000
# 6 0.0000 0.0000 0.0000 -1.6340 0.0000 21.8985
#
#
#
# Elastic Compliance Matrix: (Units=1/GPa)
#
#
# Indices 1 2 3 4 5 6 
#
# 1 0.032191 0.007895 -0.000906 0.000000 0.014122 0.000000
# 2 0.007895 0.040925 -0.000844 0.000000 0.002752 0.000000
# 3 -0.000906 -0.000844 0.011304 0.000000 0.005638 0.000000
# 4 0.000000 0.000000 0.000000 0.070073 0.000000 0.005229
# 5 0.014122 0.002752 0.005638 0.000000 0.039548 0.000000
# 6 0.000000 0.000000 0.000000 0.005229 0.000000 0.046055
#
#
# Mechanical properties :
#
#
# Convention : Reuss Voigt Hill
#
# Bulk Modulus (GPa) = 10.34024 19.29286 14.81655
# Shear Modulus (GPa) = 19.22760 24.45731 21.84245
#
# Velocity S-wave (km/s) = 2.97360 3.35370 3.16935
# Velocity P-wave (km/s) = 4.06754 4.88556 4.49520
#
# Compressibility (1/GPa) = 0.09670954
#
# Stress axis : x y z
#
# Youngs Moduli (GPa) = 31.06475 24.43515 88.46197
#
# Poissons Ratio (x) = -0.19291 0.08012
# Poissons Ratio (y) = -0.24525 0.07468
# Poissons Ratio (z) = 0.02813 0.02063
#
# Static dielectric constant tensor:
#      x y z
#    x 1.792570 0.000000 -0.007090 
#    y 0.000000 1.780980 0.000000 
#    z -0.007090 0.000000 1.795650 
# 
# From -- ./inp_files/21553.got.cif
#   From: 2010.05.17/outbox.cif.g08.bks.cpg/sg8_11_cif.got.tgz:21553.got - 2010.06.03 19:46:02.
