data_PCOD9132109
_publ_section_title
;
Structure prediction by ZEFSAII (Michael W. Deem and Ramdas Pophale) SiO2 
 PCOD9132109
Probable space group: C M
;
_chemical_formula_sum "Si O2"
_cell_formula_units_Z 26
_cell_length_a 23.770372
_cell_length_b 7.707881
_cell_length_c 8.170802
_cell_angle_alpha 90.000000
_cell_angle_beta 109.471195
_cell_angle_gamma 90.000000
_cell_volume 1411.430420
_symmetry_space_group_name_H-M "C M"
_symmetry_group_IT_number 8
_symmetry_cell_setting 'monoclinic'
loop_
_space_group_symop_operation_xyz
x,y,z
x,-y,z
1/2+x,1/2+y,z
1/2+x,1/2-y,z
loop_
_atom_site_type_symbol
_atom_site_label
_atom_site_fract_x
_atom_site_fract_y
_atom_site_fract_z
Si Si1 0.150380 0.709127 0.593300
Si Si2 0.733131 0.789644 0.362704
Si Si3 0.044366 0.698459 0.026372
Si Si4 0.662351 0.210043 0.964913
Si Si5 0.831632 0.500000 0.478758
Si Si6 0.445987 0.000000 0.393699
Si Si7 0.521447 0.687418 0.355713
Si Si8 0.949980 0.500000 0.765306
O O1 0.148971 0.500000 0.593362
O O2 0.188589 0.756231 0.469759
O O3 0.175754 0.770848 0.793549
O O4 0.082383 0.770457 0.509630
O O5 0.791411 0.671583 0.440779
O O6 0.742891 0.000000 0.375544
O O7 0.703711 0.741697 0.158767
O O8 0.063152 0.500000 0.096745
O O9 0.039789 0.807903 0.183689
O O10 0.980157 0.664417 0.882421
O O11 0.094844 0.759088 0.950691
O O12 0.664544 0.000000 0.960313
O O13 0.875857 0.500000 0.364002
O O14 0.879352 0.500000 0.674714
O O15 0.471526 0.167644 0.330597
O O16 0.474164 0.000000 0.603437
O O17 0.498668 0.500000 0.383359
#
# Coordination Sequence:
#
# PCOD9132109 Si02
#       8
#     4   4   4   4   2   2   4   2
#     4  10  19  35  60  90 130 163 197 262 327 375
#     4  10  21  39  62  91 122 167 208 251 314 381
#     4   9  16  34  59  86 122 161 203 251 318 370
#     4   9  17  32  60  91 124 161 200 258 322 375
#     4  10  24  42  66  82 126 176 210 256 296 390
#     4  10  21  43  60  84 123 171 210 258 317 371
#     4  12  22  34  60  95 129 161 208 267 325 382
#     4   8  19  37  66  82 113 179 208 254 307 377
#
# _framework density 18.421029000000001
#
# number of rings (size 3 to 8) (size 9 to 14) (size 15 to 20)
#    0.923    1.231    3.077    0.923    1.077    0.615 
#    1.385    6.154    0.000    1.846    0.000    0.000 
#    0.000    0.000    0.000    0.000    0.000    0.000 
#
# Total GULP energy -72384.451790 kJ/mol
# GULP energy per Si atom -5568.034753 kJ/mol
# Density = 1.837910 g / cm^3
# Si number density = 18.421029 Si / 1000 Ang^3
#
#
#
# Elastic Constant Matrix: (Units=GPa)
#
#
# Indices 1 2 3 4 5 6 
#
# 1 83.8069 38.9752 21.6154 0.0000 10.4580 0.0000
# 2 38.9752 70.5559 7.9816 0.0000 -0.9063 0.0000
# 3 21.6154 7.9816 110.4299 0.0000 5.1010 0.0000
# 4 0.0000 0.0000 0.0000 0.4960 0.0000 1.1973
# 5 10.4580 -0.9063 5.1010 0.0000 33.9624 0.0000
# 6 0.0000 0.0000 0.0000 1.1973 0.0000 -52.4173
#
#
#
# Elastic Compliance Matrix: (Units=1/GPa)
#
#
# Indices 1 2 3 4 5 6 
#
# 1 0.017692 -0.009556 -0.002526 0.000000 -0.005323 0.000000
# 2 -0.009556 0.019461 0.000306 0.000000 0.003416 0.000000
# 3 -0.002526 0.000306 0.009558 0.000000 -0.000649 0.000000
# 4 0.000000 0.000000 0.000000 1.910808 0.000000 0.043647
# 5 -0.005323 0.003416 -0.000649 0.000000 0.031272 0.000000
# 6 0.000000 0.000000 0.000000 0.043647 0.000000 -0.018081
#
#
# Mechanical properties :
#
#
# Convention : Reuss Voigt Hill
#
# Bulk Modulus (GPa) = 43.18023 44.65969 43.91996
# Shear Modulus (GPa) = 2.49752 9.48958 5.99355
#
# Velocity S-wave (km/s) = 1.16565 2.27215 1.80574
# Velocity P-wave (km/s) = 5.03024 5.58391 5.31429
#
# Compressibility (1/GPa) = 0.02315875
#
# Stress axis : x y z
#
# Youngs Moduli (GPa) = 56.52246 51.38481 104.62524
#
# Poissons Ratio (x) = 0.49102 0.26433
# Poissons Ratio (y) = 0.54011 -0.03202
# Poissons Ratio (z) = 0.14280 -0.01573
#
# Static dielectric constant tensor:
#      x y z
#    x 1.604300 0.000000 -0.012710 
#    y 0.000000 1.670040 0.000000 
#    z -0.012710 0.000000 1.666800 
# 
# From -- ./inp_files/14526.got.cif
#   From: 2010.05.17/outbox.cif.g08.bks.cpg/sg8_8_cif.got.tgz:14526.got - 2010.06.03 19:46:02.
