data_PCOD9132427
_publ_section_title
;
Structure prediction by ZEFSAII (Michael W. Deem and Ramdas Pophale) SiO2 
 PCOD9132427
Probable space group: C M
;
_chemical_formula_sum "Si O2"
_cell_formula_units_Z 24
_cell_length_a 8.307295
_cell_length_b 12.202048
_cell_length_c 10.947285
_cell_angle_alpha 90.000000
_cell_angle_beta 96.533744
_cell_angle_gamma 90.000000
_cell_volume 1102.475252
_symmetry_space_group_name_H-M "C M"
_symmetry_group_IT_number 8
_symmetry_cell_setting 'monoclinic'
loop_
_space_group_symop_operation_xyz
x,y,z
x,-y,z
1/2+x,1/2+y,z
1/2+x,1/2-y,z
loop_
_atom_site_type_symbol
_atom_site_label
_atom_site_fract_x
_atom_site_fract_y
_atom_site_fract_z
Si Si1 0.010280 0.833671 0.057610
Si Si2 0.524183 0.807450 0.642737
Si Si3 0.850249 0.375417 0.982890
Si Si4 0.922651 0.880914 0.320497
Si Si5 0.319551 0.683032 0.808107
Si Si6 0.744639 0.306040 0.460156
O O1 0.928552 0.869208 0.175323
O O2 0.195312 0.868989 0.059089
O O3 0.993931 0.701014 0.046540
O O4 0.908739 0.872243 0.929874
O O5 0.441162 0.705082 0.706950
O O6 0.647210 0.862614 0.749606
O O7 0.642125 0.762480 0.549371
O O8 0.381108 0.864907 0.554790
O O9 0.893624 0.500000 0.963762
O O10 0.793009 0.307412 0.858370
O O11 0.110313 0.875066 0.378701
O O12 0.829759 0.780141 0.375646
O O13 0.854216 0.000000 0.349732
#
# Coordination Sequence:
#
# PCOD9132427 Si02
#       6
#     4   4   4   4   4   4
#     4  10  20  35  61  88 122 155 197 241 306 354
#     4   9  16  35  61  83 122 161 187 250 303 338
#     4  10  20  36  57  87 120 154 192 232 296 361
#     4  11  22  41  63  87 120 158 204 251 292 352
#     4   9  16  32  59  87 118 156 192 236 303 358
#     4   9  21  37  62  88 114 162 205 242 295 345
#
# _framework density 21.769196000000001
#
# number of rings (size 3 to 8) (size 9 to 14) (size 15 to 20)
#    1.000    1.333    1.667    1.500    0.000    0.000 
#    0.000   15.833    0.000    2.000    0.000    0.000 
#    0.000    0.000    0.000    0.000    0.000    0.000 
#
# Total GULP energy -66817.608582 kJ/mol
# GULP energy per Si atom -5568.134049 kJ/mol
# Density = 2.171965 g / cm^3
# Si number density = 21.769196 Si / 1000 Ang^3
#
#
#
# Elastic Constant Matrix: (Units=GPa)
#
#
# Indices 1 2 3 4 5 6 
#
# 1 63.6544 -2.6795 20.5571 0.0000 -4.5058 0.0000
# 2 -2.6795 104.8966 1.4304 0.0000 -3.2748 0.0000
# 3 20.5571 1.4304 102.7811 0.0000 -5.4324 0.0000
# 4 0.0000 0.0000 0.0000 -72.3645 0.0000 -50.6846
# 5 -4.5058 -3.2748 -5.4324 0.0000 33.4745 0.0000
# 6 0.0000 0.0000 0.0000 -50.6846 0.0000 -26.1402
#
#
#
# Elastic Compliance Matrix: (Units=1/GPa)
#
#
# Indices 1 2 3 4 5 6 
#
# 1 0.016924 0.000533 -0.003298 0.000000 0.001795 0.000000
# 2 0.000533 0.009580 -0.000188 0.000000 0.000978 0.000000
# 3 -0.003298 -0.000188 0.010457 0.000000 0.001235 0.000000
# 4 0.000000 0.000000 0.000000 0.038594 0.000000 -0.074833
# 5 0.001795 0.000978 0.001235 0.000000 0.030411 0.000000
# 6 0.000000 0.000000 0.000000 -0.074833 0.000000 0.106842
#
#
# Mechanical properties :
#
#
# Convention : Reuss Voigt Hill
#
# Bulk Modulus (GPa) = 32.19983 34.43867 33.31925
# Shear Modulus (GPa) = 21.82781 3.79557 12.81169
#
# Velocity S-wave (km/s) = 3.16997 1.32187 2.42858
# Velocity P-wave (km/s) = 5.31242 4.26427 4.81694
#
# Compressibility (1/GPa) = 0.03105606
#
# Stress axis : x y z
#
# Youngs Moduli (GPa) = 59.08671 104.38485 95.63130
#
# Poissons Ratio (x) = -0.05567 0.31535
# Poissons Ratio (y) = -0.03151 0.01801
# Poissons Ratio (z) = 0.19484 0.01965
#
# Static dielectric constant tensor:
#      x y z
#    x 1.836670 0.000000 0.036240 
#    y 0.000000 1.823640 0.000000 
#    z 0.036240 0.000000 1.835490 
# 
# From -- ./inp_files/18565.got.cif
#   From: 2010.05.17/outbox.cif.g08.bks.cpg/sg8_10_cif.got.tgz:18565.got - 2010.06.03 19:46:02.
