data_PCOD9132742
_publ_section_title
;
Structure prediction by ZEFSAII (Michael W. Deem and Ramdas Pophale) SiO2 
 PCOD9132742
Probable space group: C M
;
_chemical_formula_sum "Si O2"
_cell_formula_units_Z 26
_cell_length_a 20.958165
_cell_length_b 7.776572
_cell_length_c 15.844730
_cell_angle_alpha 90.000000
_cell_angle_beta 26.167843
_cell_angle_gamma 90.000000
_cell_volume 1138.851380
_symmetry_space_group_name_H-M "C M"
_symmetry_group_IT_number 8
_symmetry_cell_setting 'monoclinic'
loop_
_space_group_symop_operation_xyz
x,y,z
x,-y,z
1/2+x,1/2+y,z
1/2+x,1/2-y,z
loop_
_atom_site_type_symbol
_atom_site_label
_atom_site_fract_x
_atom_site_fract_y
_atom_site_fract_z
Si Si1 0.712420 0.808347 0.486630
Si Si2 0.141636 0.000000 0.675676
Si Si3 0.515778 0.797630 0.429276
Si Si4 0.241730 0.700192 0.857926
Si Si5 0.113461 0.310944 0.829023
Si Si6 0.294744 0.296906 0.193386
Si Si7 0.985525 0.711902 0.275501
O O1 0.616585 0.653647 0.635419
O O2 0.741694 0.789795 0.352675
O O3 0.865097 0.786456 0.355293
O O4 0.653894 0.000000 0.570329
O O5 0.177007 0.150658 0.704070
O O6 0.391209 0.778329 0.647360
O O7 0.667444 0.731183 0.284906
O O8 0.474165 0.729929 0.386170
O O9 0.538388 0.000000 0.389679
O O10 0.272272 0.500000 0.836763
O O11 0.137884 0.714328 0.899339
O O12 0.144447 0.760765 0.051355
O O13 0.171768 0.500000 0.739015
O O14 0.943999 0.301996 0.009989
O O15 0.329532 0.500000 0.132494
O O16 0.968473 0.500000 0.288826
#
# Coordination Sequence:
#
# PCOD9132742 Si02
#       7
#     4   2   4   4   4   4   4
#     4  11  23  40  68  98 134 176 226 276 338 401
#     4  12  24  40  64 100 132 168 224 286 332 386
#     4  10  23  41  66  95 136 180 221 274 341 402
#     4  10  22  39  63  99 135 175 227 276 334 406
#     4  11  23  40  68 100 135 175 224 275 339 403
#     4  10  22  44  65  96 137 182 220 273 344 405
#     4  10  20  40  66  96 134 179 223 277 337 400
#
# _framework density 22.830020000000001
#
# number of rings (size 3 to 8) (size 9 to 14) (size 15 to 20)
#    0.000    1.538    3.077    1.385    4.308    3.077 
#    2.769    0.000    0.000    0.000    0.000    0.000 
#    0.000    0.000    0.000    0.000    0.000    0.000 
#
# Total GULP energy -72391.232091 kJ/mol
# GULP energy per Si atom -5568.556315 kJ/mol
# Density = 2.277806 g / cm^3
# Si number density = 22.830020 Si / 1000 Ang^3
#
#
#
# Elastic Constant Matrix: (Units=GPa)
#
#
# Indices 1 2 3 4 5 6 
#
# 1 72.6797 12.4110 5.8888 -0.0003 -19.6201 0.0002
# 2 12.4110 140.5265 18.6163 0.0011 11.2346 -0.0007
# 3 5.8888 18.6163 46.2577 0.0003 -1.6346 -0.0002
# 4 -0.0003 0.0011 0.0003 31.4406 -0.0004 4.7123
# 5 -19.6201 11.2346 -1.6346 -0.0004 39.3058 0.0003
# 6 0.0002 -0.0007 -0.0002 4.7123 0.0003 13.9439
#
#
#
# Elastic Compliance Matrix: (Units=1/GPa)
#
#
# Indices 1 2 3 4 5 6 
#
# 1 0.016565 -0.002038 -0.000977 0.000000 0.008810 -0.000001
# 2 -0.002038 0.007977 -0.003072 0.000000 -0.003425 0.000001
# 3 -0.000977 -0.003072 0.023026 0.000000 0.001348 0.000000
# 4 0.000000 0.000000 0.000000 0.033503 0.000001 -0.011322
# 5 0.008810 -0.003425 0.001348 0.000001 0.030874 -0.000001
# 6 -0.000001 0.000001 0.000000 -0.011322 -0.000001 0.075542
#
#
# Mechanical properties :
#
#
# Convention : Reuss Voigt Hill
#
# Bulk Modulus (GPa) = 28.25359 37.03289 32.64324
# Shear Modulus (GPa) = 23.64521 31.77458 27.70990
#
# Velocity S-wave (km/s) = 3.22173 3.73472 3.48767
# Velocity P-wave (km/s) = 5.12269 5.90371 5.52701
#
# Compressibility (1/GPa) = 0.03539373
#
# Stress axis : x y z
#
# Youngs Moduli (GPa) = 60.36993 125.36311 43.42854
#
# Poissons Ratio (x) = 0.25547 0.04244
# Poissons Ratio (y) = 0.12302 0.13341
# Poissons Ratio (z) = 0.05900 0.38510
#
# Static dielectric constant tensor:
#      x y z
#    x 1.840190 0.000000 -0.004750 
#    y 0.000000 1.851690 0.000000 
#    z -0.004750 0.000000 1.976250 
# 
# From -- ./inp_files/27733.got.cif
#   From: 2010.05.17/outbox.cif.g08.bks.cpg/sg8_14_cif.got.tgz:27733.got - 2010.06.03 19:46:02.
