data_PCOD9132881
_publ_section_title
;
Structure prediction by ZEFSAII (Michael W. Deem and Ramdas Pophale) SiO2 
 PCOD9132881
Probable space group: C M
;
_chemical_formula_sum "Si O2"
_cell_formula_units_Z 32
_cell_length_a 24.638734
_cell_length_b 7.761490
_cell_length_c 20.027325
_cell_angle_alpha 90.000000
_cell_angle_beta 23.357583
_cell_angle_gamma 90.000000
_cell_volume 1518.430657
_symmetry_space_group_name_H-M "C M"
_symmetry_group_IT_number 8
_symmetry_cell_setting 'monoclinic'
loop_
_space_group_symop_operation_xyz
x,y,z
x,-y,z
1/2+x,1/2+y,z
1/2+x,1/2-y,z
loop_
_atom_site_type_symbol
_atom_site_label
_atom_site_fract_x
_atom_site_fract_y
_atom_site_fract_z
Si Si1 0.841900 0.290169 0.790010
Si Si2 0.345181 0.296672 0.941287
Si Si3 0.588558 0.290282 0.760709
Si Si4 0.888721 0.701012 0.385271
Si Si5 0.049595 0.797107 0.070946
Si Si6 0.104057 0.701003 0.416006
Si Si7 0.062759 0.195232 0.315074
Si Si8 0.414749 0.711825 0.085777
O O1 0.840679 0.500000 0.788313
O O2 0.840001 0.237152 0.868986
O O3 0.981852 0.224811 0.598673
O O4 0.702194 0.227112 0.912562
O O5 0.324127 0.500000 0.978408
O O6 0.487575 0.246262 0.814146
O O7 0.221449 0.199182 0.115809
O O8 0.596860 0.500000 0.755523
O O9 0.740359 0.226276 0.572948
O O10 0.515584 0.233870 0.911773
O O11 0.872293 0.500000 0.387955
O O12 0.961234 0.779030 0.238341
O O13 0.983116 0.719549 0.343832
O O14 0.972754 0.729683 0.091937
O O15 0.067058 0.000000 0.038582
O O16 0.114828 0.500000 0.421854
O O17 0.054882 0.715079 0.395289
O O18 0.258098 0.771562 0.250621
O O19 0.013737 0.000000 0.377040
O O20 0.412125 0.500000 0.087127
#
# Coordination Sequence:
#
# PCOD9132881 Si02
#       8
#     4   4   4   4   4   4   4   4
#     4  10  22  37  58  90 122 155 198 243 293 354
#     4  11  21  39  65  88 117 157 201 249 302 359
#     4   9  20  37  61  90 115 149 200 248 291 351
#     4  11  23  39  62  88 118 159 201 244 298 361
#     4  10  21  37  58  85 122 158 194 244 292 345
#     4  10  21  39  63  88 117 159 203 240 295 364
#     4  12  24  40  61  88 121 155 201 258 303 347
#     4   9  18  36  60  85 116 154 196 240 290 351
#
# _framework density 21.074390999999999
#
# number of rings (size 3 to 8) (size 9 to 14) (size 15 to 20)
#    0.000    1.750    2.500    1.875    3.500    0.500 
#    0.000    2.500    0.000    0.000    0.000    0.000 
#    0.000    0.000    0.000    0.000    0.000    0.000 
#
# Total GULP energy -89363.771037 kJ/mol
# GULP energy per Si atom -5585.235690 kJ/mol
# Density = 2.102642 g / cm^3
# Si number density = 21.074391 Si / 1000 Ang^3
#
#
#
# Elastic Constant Matrix: (Units=GPa)
#
#
# Indices 1 2 3 4 5 6 
#
# 1 100.1255 -2.8420 14.3253 0.0001 -12.0524 0.0006
# 2 -2.8420 29.7411 4.0856 -0.0027 -4.8636 0.0031
# 3 14.3253 4.0856 96.8169 -0.0042 -9.8064 0.0052
# 4 0.0001 -0.0027 -0.0042 14.6107 0.0016 11.3631
# 5 -12.0524 -4.8636 -9.8064 0.0016 23.3169 -0.0014
# 6 0.0006 0.0031 0.0052 11.3631 -0.0014 -11.7675
#
#
#
# Elastic Compliance Matrix: (Units=1/GPa)
#
#
# Indices 1 2 3 4 5 6 
#
# 1 0.010882 0.002109 -0.001133 0.000000 0.005588 0.000000
# 2 0.002109 0.035274 -0.000987 -0.000001 0.008033 0.000008
# 3 -0.001133 -0.000987 0.010923 0.000000 0.003802 0.000004
# 4 0.000000 -0.000001 0.000000 0.039088 -0.000001 0.037745
# 5 0.005588 0.008033 0.003802 -0.000001 0.049051 -0.000002
# 6 0.000000 0.000008 0.000004 0.037745 -0.000002 -0.048532
#
#
# Mechanical properties :
#
#
# Convention : Reuss Voigt Hill
#
# Bulk Modulus (GPa) = 17.52598 28.64680 23.08639
# Shear Modulus (GPa) = 43.20519 19.30634 31.25577
#
# Velocity S-wave (km/s) = 4.53275 3.03001 3.85530
# Velocity P-wave (km/s) = 5.97735 5.08566 5.54944
#
# Compressibility (1/GPa) = 0.05705816
#
# Stress axis : x y z
#
# Youngs Moduli (GPa) = 91.89363 28.34928 91.54803
#
# Poissons Ratio (x) = -0.05980 0.10374
# Poissons Ratio (y) = -0.19384 0.09036
# Poissons Ratio (z) = 0.10413 0.02798
#
# Static dielectric constant tensor:
#      x y z
#    x 1.722070 0.000000 -0.021200 
#    y 0.000000 1.791820 0.000000 
#    z -0.021200 0.000000 1.745520 
# 
# From -- ./inp_files/31627.got.cif
#   From: 2010.05.17/outbox.cif.g08.bks.cpg/sg8_16_cif.got.tgz:31627.got - 2010.06.03 19:46:02.
