data_PCOD9132609
_publ_section_title
;
Structure prediction by ZEFSAII (Michael W. Deem and Ramdas Pophale) SiO2 
 PCOD9132609
Probable space group: C M
;
_chemical_formula_sum "Si O2"
_cell_formula_units_Z 32
_cell_length_a 8.540136
_cell_length_b 20.000006
_cell_length_c 11.544366
_cell_angle_alpha 90.000000
_cell_angle_beta 135.139090
_cell_angle_gamma 90.000000
_cell_volume 1390.891184
_symmetry_space_group_name_H-M "C M"
_symmetry_group_IT_number 8
_symmetry_cell_setting 'monoclinic'
loop_
_space_group_symop_operation_xyz
x,y,z
x,-y,z
1/2+x,1/2+y,z
1/2+x,1/2-y,z
loop_
_atom_site_type_symbol
_atom_site_label
_atom_site_fract_x
_atom_site_fract_y
_atom_site_fract_z
Si Si1 0.373910 0.799873 0.586340
Si Si2 0.984638 0.073466 0.160938
Si Si3 0.154628 0.927617 0.708200
Si Si4 0.592663 0.701231 0.093227
Si Si5 0.082584 0.572472 0.767230
Si Si6 0.159904 0.797813 0.874232
Si Si7 0.278097 0.429163 0.312562
Si Si8 0.371463 0.294573 0.364419
O O1 0.533693 0.864209 0.660985
O O2 0.464428 0.753730 0.737526
O O3 0.376221 0.752206 0.477613
O O4 0.121266 0.820038 0.478085
O O5 0.885575 0.073095 0.239294
O O6 0.109149 0.142035 0.196466
O O7 0.095454 0.000000 0.205885
O O8 0.791400 0.077498 0.962221
O O9 0.374880 0.927135 0.745835
O O10 0.161687 0.860801 0.788296
O O11 0.951224 0.929990 0.510496
O O12 0.151118 0.000000 0.770362
O O13 0.799611 0.750233 0.219405
O O14 0.376437 0.749436 0.987033
O O15 0.609235 0.673132 0.973574
O O16 0.088814 0.500000 0.710303
O O17 0.151897 0.500000 0.251252
O O18 0.190830 0.354167 0.279621
#
# Coordination Sequence:
#
# PCOD9132609 Si02
#       8
#     4   4   4   4   4   4   4   4
#     4  12  22  40  63  91 128 162 211 268 315 380
#     4  10  22  40  65  95 129 169 215 268 326 387
#     4  10  21  39  64  93 126 168 215 267 323 384
#     4  12  26  42  64  96 134 174 215 268 326 392
#     4  10  20  37  64  96 123 161 213 265 322 382
#     4  12  24  42  65  94 132 168 217 270 325 380
#     4  10  20  38  61  90 124 163 210 262 316 383
#     4  12  25  40  62  93 128 167 214 260 325 382
#
# _framework density 23.006831999999999
#
# number of rings (size 3 to 8) (size 9 to 14) (size 15 to 20)
#    0.000    1.000    3.750    3.750    1.750    0.500 
#    0.000    0.000    0.000    3.750    0.000    0.000 
#    0.000    0.000    0.000    0.000    0.000    0.000 
#
# Total GULP energy -89289.230673 kJ/mol
# GULP energy per Si atom -5580.576917 kJ/mol
# Density = 2.295447 g / cm^3
# Si number density = 23.006832 Si / 1000 Ang^3
#
#
#
# Elastic Constant Matrix: (Units=GPa)
#
#
# Indices 1 2 3 4 5 6 
#
# 1 20.2273 5.9580 13.5236 0.0000 -11.1328 0.0000
# 2 5.9580 184.5330 37.6041 0.0000 -13.5887 0.0000
# 3 13.5236 37.6041 55.9094 0.0000 -10.3383 0.0000
# 4 0.0000 0.0000 0.0000 34.7535 0.0000 -7.9247
# 5 -11.1328 -13.5887 -10.3383 0.0000 33.9930 0.0000
# 6 0.0000 0.0000 0.0000 -7.9247 0.0000 41.6775
#
#
#
# Elastic Compliance Matrix: (Units=1/GPa)
#
#
# Indices 1 2 3 4 5 6 
#
# 1 0.069061 0.002154 -0.014635 0.000000 0.019028 0.000000
# 2 0.002154 0.006402 -0.004475 0.000000 0.001904 0.000000
# 3 -0.014635 -0.004475 0.024602 0.000000 0.000901 0.000000
# 4 0.000000 0.000000 0.000000 0.030078 0.000000 0.005719
# 5 0.019028 0.001904 0.000901 0.000000 0.036684 0.000000
# 6 0.000000 0.000000 0.000000 0.005719 0.000000 0.025081
#
#
# Mechanical properties :
#
#
# Convention : Reuss Voigt Hill
#
# Bulk Modulus (GPa) = 15.11646 41.64898 28.38272
# Shear Modulus (GPa) = 20.17180 35.65706 27.91443
#
# Velocity S-wave (km/s) = 2.96425 3.94108 3.48704
# Velocity P-wave (km/s) = 4.27790 6.23311 5.34565
#
# Compressibility (1/GPa) = 0.06615306
#
# Stress axis : x y z
#
# Youngs Moduli (GPa) = 14.47998 156.21218 40.64692
#
# Poissons Ratio (x) = -0.33643 0.59486
# Poissons Ratio (y) = -0.03119 0.18188
# Poissons Ratio (z) = 0.21191 0.69898
#
# Static dielectric constant tensor:
#      x y z
#    x 1.843670 0.000000 0.012550 
#    y 0.000000 1.969540 0.000000 
#    z 0.012550 0.000000 1.865280 
# 
# From -- ./inp_files/19281.got.cif
#   From: 2010.05.17/outbox.cif.g08.bks.cpg/sg8_10_cif.got.tgz:19281.got - 2010.06.03 19:46:02.
