data_PCOD9132812
_publ_section_title
;
Structure prediction by ZEFSAII (Michael W. Deem and Ramdas Pophale) SiO2 
 PCOD9132812
Probable space group: C M
;
_chemical_formula_sum "Si O2"
_cell_formula_units_Z 32
_cell_length_a 10.177250
_cell_length_b 17.930760
_cell_length_c 16.204591
_cell_angle_alpha 90.000000
_cell_angle_beta 147.310734
_cell_angle_gamma 90.000000
_cell_volume 1597.082857
_symmetry_space_group_name_H-M "C M"
_symmetry_group_IT_number 8
_symmetry_cell_setting 'monoclinic'
loop_
_space_group_symop_operation_xyz
x,y,z
x,-y,z
1/2+x,1/2+y,z
1/2+x,1/2-y,z
loop_
_atom_site_type_symbol
_atom_site_label
_atom_site_fract_x
_atom_site_fract_y
_atom_site_fract_z
Si Si1 0.467580 0.810617 0.234780
Si Si2 0.429942 0.336749 0.919281
Si Si3 0.735633 0.173113 0.212588
Si Si4 0.851356 0.660158 0.882481
Si Si5 0.077690 0.685260 0.590253
Si Si6 0.717042 0.587702 0.486791
Si Si7 0.038759 0.411551 0.816443
Si Si8 0.836980 0.175847 0.558905
O O1 0.617167 0.792109 0.231667
O O2 0.373466 0.736723 0.232394
O O3 0.644937 0.855579 0.390785
O O4 0.216642 0.848638 0.074377
O O5 0.363984 0.249881 0.903829
O O6 0.304439 0.345625 0.763954
O O7 0.296935 0.388720 0.914877
O O8 0.943514 0.115314 0.345952
O O9 0.521868 0.133644 0.047017
O O10 0.572014 0.634610 0.722200
O O11 0.980867 0.637104 0.865853
O O12 0.174636 0.701213 0.550671
O O13 0.863406 0.625596 0.488943
O O14 0.966868 0.757750 0.576513
O O15 0.733115 0.500000 0.487119
O O16 0.851955 0.608572 0.643782
O O17 0.021753 0.500000 0.824417
#
# Coordination Sequence:
#
# PCOD9132812 Si02
#       8
#     4   4   4   4   4   4   4   4
#     4  11  22  35  58  91 125 155 202 264 316 363
#     4   9  22  34  60  89 126 155 213 256 316 360
#     4  11  23  37  59  91 126 160 203 259 316 365
#     4  10  23  34  63  91 125 160 216 256 313 364
#     4  10  21  35  58  88 118 156 198 258 310 368
#     4  10  22  40  62  85 123 166 209 249 312 385
#     4  10  22  43  65  93 128 172 210 255 320 389
#     4  11  21  34  59  90 122 152 207 257 314 362
#
# _framework density 20.036529999999999
#
# number of rings (size 3 to 8) (size 9 to 14) (size 15 to 20)
#    0.000    1.750    1.250    2.250   17.500    0.500 
#    0.000    1.250    0.000    4.500    0.000    0.000 
#    0.000    0.000    0.000    0.000    0.000    0.000 
#
# Total GULP energy -89236.472013 kJ/mol
# GULP energy per Si atom -5577.279501 kJ/mol
# Density = 1.999093 g / cm^3
# Si number density = 20.036530 Si / 1000 Ang^3
#
#
#
# Elastic Constant Matrix: (Units=GPa)
#
#
# Indices 1 2 3 4 5 6 
#
# 1 137.4607 3.6949 51.8899 0.0015 -9.8626 0.0007
# 2 3.6949 13.5691 10.7446 -0.0003 -2.2685 0.0002
# 3 51.8899 10.7446 141.0633 -0.0022 24.7394 -0.0005
# 4 0.0015 -0.0003 -0.0022 5.8303 -0.0005 9.8235
# 5 -9.8626 -2.2685 24.7394 -0.0005 24.5216 0.0002
# 6 0.0007 0.0002 -0.0005 9.8235 0.0002 8.8762
#
#
#
# Elastic Compliance Matrix: (Units=1/GPa)
#
#
# Indices 1 2 3 4 5 6 
#
# 1 0.010091 0.003528 -0.005771 0.000001 0.010207 -0.000003
# 2 0.003528 0.085294 -0.011454 -0.000008 0.020865 0.000006
# 3 -0.005771 -0.011454 0.012972 -0.000001 -0.016468 0.000003
# 4 0.000001 -0.000008 -0.000001 -0.198356 -0.000005 0.219524
# 5 0.010207 0.020865 -0.016468 -0.000005 0.063430 0.000002
# 6 -0.000003 0.000006 0.000003 0.219524 0.000002 -0.130291
#
#
# Mechanical properties :
#
#
# Convention : Reuss Voigt Hill
#
# Bulk Modulus (GPa) = 12.35108 47.19467 29.77287
# Shear Modulus (GPa) = -48.79062 22.89655 -12.94703
#
# Velocity S-wave (km/s) = -4.94001 3.38411 -2.54475
# Velocity P-wave (km/s) = 5.13426 6.23499 2.50145
#
# Compressibility (1/GPa) = 0.08096461
#
# Stress axis : x y z
#
# Youngs Moduli (GPa) = 99.10204 11.72409 77.08756
#
# Poissons Ratio (x) = -0.04136 0.44484
# Poissons Ratio (y) = -0.34965 0.88296
# Poissons Ratio (z) = 0.57188 0.13429
#
# Static dielectric constant tensor:
#      x y z
#    x 1.691150 0.000000 -0.001970 
#    y 0.000000 1.696100 0.000000 
#    z -0.001970 0.000000 1.801050 
# 
# From -- ./inp_files/25599.got.cif
#   From: 2010.05.17/outbox.cif.g08.bks.cpg/sg8_13_cif.got.tgz:25599.got - 2010.06.03 19:46:02.
