data_PCOD9132746
_publ_section_title
;
Structure prediction by ZEFSAII (Michael W. Deem and Ramdas Pophale) SiO2 
 PCOD9132746
Probable space group: C M
;
_chemical_formula_sum "Si O2"
_cell_formula_units_Z 30
_cell_length_a 13.763556
_cell_length_b 12.236784
_cell_length_c 16.423809
_cell_angle_alpha 90.000000
_cell_angle_beta 32.961618
_cell_angle_gamma 90.000000
_cell_volume 1504.985363
_symmetry_space_group_name_H-M "C M"
_symmetry_group_IT_number 8
_symmetry_cell_setting 'monoclinic'
loop_
_space_group_symop_operation_xyz
x,y,z
x,-y,z
1/2+x,1/2+y,z
1/2+x,1/2-y,z
loop_
_atom_site_type_symbol
_atom_site_label
_atom_site_fract_x
_atom_site_fract_y
_atom_site_fract_z
Si Si1 0.371580 0.875389 0.326630
Si Si2 0.272187 0.871147 0.141730
Si Si3 0.630029 0.261281 0.903553
Si Si4 0.492416 0.369726 0.663257
Si Si5 0.539833 0.183852 0.381331
Si Si6 0.283439 0.500000 0.297737
Si Si7 0.178018 0.129361 0.704017
Si Si8 0.569684 0.676606 0.122121
O O1 0.166059 0.840964 0.486564
O O2 0.465159 0.865576 0.349116
O O3 0.487827 0.796930 0.189542
O O4 0.373422 0.000000 0.297347
O O5 0.139921 0.796272 0.289189
O O6 0.218265 0.845977 0.085590
O O7 0.256344 0.000000 0.168450
O O8 0.470024 0.825732 0.017142
O O9 0.600933 0.335911 0.844735
O O10 0.817955 0.199087 0.767052
O O11 0.627585 0.333303 0.987651
O O12 0.462483 0.500000 0.675180
O O13 0.549810 0.350220 0.717177
O O14 0.669731 0.096745 0.331045
O O15 0.361964 0.194225 0.560130
O O16 0.409726 0.593951 0.251364
O O17 0.220106 0.000000 0.673893
#
# Coordination Sequence:
#
# PCOD9132746 Si02
#       8
#     4   4   4   4   4   2   4   4
#     4   9  19  39  66  91 119 151 199 257 300 352
#     4  11  24  43  61  86 126 164 203 251 302 354
#     4  12  24  37  60  87 122 165 201 235 296 368
#     4   9  20  40  60  87 118 153 196 247 297 348
#     4  10  20  40  68  92 115 153 204 257 307 353
#     4  12  20  40  64  92 116 154 198 266 294 368
#     4  10  22  40  64  90 121 152 198 256 302 357
#     4  11  25  39  61  91 125 158 199 252 299 358
#
# _framework density 19.933748999999999
#
# number of rings (size 3 to 8) (size 9 to 14) (size 15 to 20)
#    0.000    1.600    3.333    2.000    2.800    1.067 
#    0.000    2.667    0.000    0.000    0.000    0.000 
#    0.000    0.000    0.000    0.000    0.000    0.000 
#
# Total GULP energy -83530.840896 kJ/mol
# GULP energy per Si atom -5568.722726 kJ/mol
# Density = 1.988838 g / cm^3
# Si number density = 19.933749 Si / 1000 Ang^3
#
#
#
# Elastic Constant Matrix: (Units=GPa)
#
#
# Indices 1 2 3 4 5 6 
#
# 1 85.9657 13.5688 19.1323 0.0000 -9.1124 0.0000
# 2 13.5688 87.8164 24.8406 0.0001 -7.1707 0.0000
# 3 19.1323 24.8406 33.2272 0.0004 -5.6209 -0.0001
# 4 0.0000 0.0001 0.0004 -9.3366 0.0000 3.5778
# 5 -9.1124 -7.1707 -5.6209 0.0000 40.8129 0.0000
# 6 0.0000 0.0000 -0.0001 3.5778 0.0000 25.8354
#
#
#
# Elastic Compliance Matrix: (Units=1/GPa)
#
#
# Indices 1 2 3 4 5 6 
#
# 1 0.013502 0.000229 -0.007606 0.000000 0.002007 0.000000
# 2 0.000229 0.014492 -0.010778 0.000000 0.001113 0.000000
# 3 -0.007606 -0.010778 0.042925 0.000002 0.002320 0.000000
# 4 0.000000 0.000000 0.000002 -0.101708 0.000000 0.014085
# 5 0.002007 0.001113 0.002320 0.000000 0.025465 0.000000
# 6 0.000000 0.000000 0.000000 0.014085 0.000000 0.036756
#
#
# Mechanical properties :
#
#
# Convention : Reuss Voigt Hill
#
# Bulk Modulus (GPa) = 28.89372 35.78808 32.34090
# Shear Modulus (GPa) = 63.06917 21.42685 42.24801
#
# Velocity S-wave (km/s) = 5.63099 3.28213 4.60871
# Velocity P-wave (km/s) = 7.53683 5.68820 6.67680
#
# Compressibility (1/GPa) = 0.03460959
#
# Stress axis : x y z
#
# Youngs Moduli (GPa) = 74.06327 69.00595 23.29628
#
# Poissons Ratio (x) = -0.01582 0.17720
# Poissons Ratio (y) = -0.01698 0.25108
# Poissons Ratio (z) = 0.56335 0.74372
#
# Static dielectric constant tensor:
#      x y z
#    x 1.717060 0.000000 0.025410 
#    y 0.000000 1.676820 0.000000 
#    z 0.025410 0.000000 1.729160 
# 
# From -- ./inp_files/12648.got.cif
#   From: 2010.05.17/outbox.cif.g08.bks.cpg/sg8_7_cif.got.tgz:12648.got - 2010.06.03 19:46:02.
