data_PCOD9132992
_publ_section_title
;
Structure prediction by ZEFSAII (Michael W. Deem and Ramdas Pophale) SiO2 
 PCOD9132992
Probable space group: C M
;
_chemical_formula_sum "Si O2"
_cell_formula_units_Z 24
_cell_length_a 15.353252
_cell_length_b 8.701033
_cell_length_c 15.013733
_cell_angle_alpha 90.000000
_cell_angle_beta 40.036132
_cell_angle_gamma 90.000000
_cell_volume 1290.189677
_symmetry_space_group_name_H-M "C M"
_symmetry_group_IT_number 8
_symmetry_cell_setting 'monoclinic'
loop_
_space_group_symop_operation_xyz
x,y,z
x,-y,z
1/2+x,1/2+y,z
1/2+x,1/2-y,z
loop_
_atom_site_type_symbol
_atom_site_label
_atom_site_fract_x
_atom_site_fract_y
_atom_site_fract_z
Si Si1 0.488660 0.315447 0.547940
Si Si2 0.177369 0.684854 0.759050
Si Si3 0.658599 0.817309 0.250773
Si Si4 0.176879 0.816709 0.565746
Si Si5 0.943862 0.684140 0.080603
Si Si6 0.954903 0.182945 0.269931
O O1 0.500007 0.500000 0.524515
O O2 0.330766 0.274005 0.666626
O O3 0.570633 0.232101 0.405666
O O4 0.558970 0.280564 0.587130
O O5 0.172882 0.500000 0.751626
O O6 0.145163 0.761466 0.689806
O O7 0.069200 0.726611 0.919122
O O8 0.803887 0.737673 0.146006
O O9 0.576443 0.759885 0.229452
O O10 0.674317 0.000000 0.236827
O O11 0.314417 0.736477 0.424954
O O12 0.198328 0.000000 0.548047
O O13 0.942203 0.500000 0.093581
O O14 0.954553 0.762160 0.168486
O O15 0.965302 0.000000 0.267572
#
# Coordination Sequence:
#
# PCOD9132992 Si02
#       6
#     4   4   4   4   4   4
#     4  10  21  39  63  91 126 164 205 258 312 372
#     4  10  23  42  64  91 128 169 207 257 318 374
#     4  12  24  39  64  95 124 166 215 262 314 374
#     4  11  22  37  63  95 127 164 209 258 310 374
#     4  11  24  43  64  93 132 170 209 260 317 373
#     4  12  24  40  64  93 127 167 213 263 313 373
#
# _framework density 18.601915999999999
#
# number of rings (size 3 to 8) (size 9 to 14) (size 15 to 20)
#    0.000    1.000    3.333    4.000    0.000    3.333 
#    0.000    1.667    0.000    0.000    0.000    0.000 
#    0.000    0.000    0.000    0.000    0.000    0.000 
#
# Total GULP energy -67122.721861 kJ/mol
# GULP energy per Si atom -5593.560155 kJ/mol
# Density = 1.855958 g / cm^3
# Si number density = 18.601916 Si / 1000 Ang^3
#
#
#
# Elastic Constant Matrix: (Units=GPa)
#
#
# Indices 1 2 3 4 5 6 
#
# 1 79.1127 0.8065 0.5148 0.0000 -2.2722 0.0000
# 2 0.8065 36.3168 16.0926 0.0000 0.5908 0.0000
# 3 0.5148 16.0926 81.3296 0.0000 -4.8181 0.0000
# 4 0.0000 0.0000 0.0000 18.4498 0.0000 8.6351
# 5 -2.2722 0.5908 -4.8181 0.0000 31.4366 0.0000
# 6 0.0000 0.0000 0.0000 8.6351 0.0000 33.0177
#
#
#
# Elastic Compliance Matrix: (Units=1/GPa)
#
#
# Indices 1 2 3 4 5 6 
#
# 1 0.012670 -0.000313 0.000037 0.000000 0.000927 0.000000
# 2 -0.000313 0.030259 -0.006076 0.000000 -0.001522 0.000000
# 3 0.000037 -0.006076 0.013628 0.000000 0.002206 0.000000
# 4 0.000000 0.000000 0.000000 0.061761 0.000000 -0.016152
# 5 0.000927 -0.001522 0.002206 0.000000 0.032244 0.000000
# 6 0.000000 0.000000 0.000000 -0.016152 0.000000 0.034511
#
#
# Mechanical properties :
#
#
# Convention : Reuss Voigt Hill
#
# Bulk Modulus (GPa) = 22.80288 25.73185 24.26736
# Shear Modulus (GPa) = 23.54107 28.53716 26.03912
#
# Velocity S-wave (km/s) = 3.56127 3.92101 3.74546
# Velocity P-wave (km/s) = 5.40326 5.86191 5.63725
#
# Compressibility (1/GPa) = 0.04385412
#
# Stress axis : x y z
#
# Youngs Moduli (GPa) = 78.92795 33.04757 73.37698
#
# Poissons Ratio (x) = 0.01033 -0.00269
# Poissons Ratio (y) = 0.02468 0.44581
# Poissons Ratio (z) = -0.00289 0.20078
#
# Static dielectric constant tensor:
#      x y z
#    x 1.623500 0.000000 -0.005730 
#    y 0.000000 1.624330 0.000000 
#    z -0.005730 0.000000 1.606230 
# 
# From -- ./inp_files/12075.got.cif
#   From: 2010.05.17/outbox.cif.g08.bks.cpg/sg8_7_cif.got.tgz:12075.got - 2010.06.03 19:46:02.
