data_PCOD9132461
_publ_section_title
;
Structure prediction by ZEFSAII (Michael W. Deem and Ramdas Pophale) SiO2 
 PCOD9132461
Probable space group: C M
;
_chemical_formula_sum "Si O2"
_cell_formula_units_Z 32
_cell_length_a 20.387272
_cell_length_b 8.794352
_cell_length_c 25.288723
_cell_angle_alpha 90.000000
_cell_angle_beta 156.564547
_cell_angle_gamma 90.000000
_cell_volume 1803.277613
_symmetry_space_group_name_H-M "C M"
_symmetry_group_IT_number 8
_symmetry_cell_setting 'monoclinic'
loop_
_space_group_symop_operation_xyz
x,y,z
x,-y,z
1/2+x,1/2+y,z
1/2+x,1/2-y,z
loop_
_atom_site_type_symbol
_atom_site_label
_atom_site_fract_x
_atom_site_fract_y
_atom_site_fract_z
Si Si1 0.865400 0.319049 0.352540
Si Si2 0.566792 0.817635 0.063595
Si Si3 0.898223 0.817591 0.601755
Si Si4 0.771745 0.181960 0.390922
Si Si5 0.883938 0.319165 0.092013
Si Si6 0.256326 0.681191 0.888527
Si Si7 0.090171 0.181936 0.431885
Si Si8 0.288097 0.681316 0.129335
O O1 0.858509 0.500000 0.343058
O O2 0.702022 0.247360 0.204568
O O3 0.864740 0.266680 0.412581
O O4 0.018020 0.254184 0.431885
O O5 0.637541 0.783127 0.057589
O O6 0.561866 0.000000 0.066039
O O7 0.391639 0.746882 0.947966
O O8 0.839041 0.778894 0.498527
O O9 0.763366 0.749273 0.541864
O O10 0.077566 0.750206 0.744955
O O11 0.900876 0.000000 0.608526
O O12 0.577325 0.218749 0.243051
O O13 0.788369 0.000000 0.395822
O O14 0.870614 0.500000 0.073889
O O15 0.791876 0.269791 0.077370
O O16 0.815255 0.233777 0.990177
O O17 0.252348 0.500000 0.882588
O O18 0.953692 0.216996 0.285478
O O19 0.097600 0.000000 0.442612
O O20 0.287708 0.500000 0.118988
#
# Coordination Sequence:
#
# PCOD9132461 Si02
#       8
#     4   4   4   4   4   4   4   4
#     4  11  21  33  57  89 119 152 194 244 289 340
#     4  10  20  37  58  84 118 155 193 239 294 346
#     4  11  23  41  62  86 118 156 195 240 293 351
#     4  10  21  37  59  87 118 152 194 244 294 342
#     4  11  21  36  60  88 118 152 194 244 290 342
#     4  12  25  40  59  86 119 158 197 238 290 352
#     4  10  20  36  58  85 120 156 192 238 290 347
#     4   9  19  34  57  87 118 149 189 241 292 342
#
# _framework density 17.745464999999999
#
# number of rings (size 3 to 8) (size 9 to 14) (size 15 to 20)
#    0.000    1.500    2.500    4.500    0.000    4.000 
#    0.000    1.250    0.000    4.500    0.000    0.000 
#    0.000    0.000    0.000    0.000    0.000    0.000 
#
# Total GULP energy -89410.004352 kJ/mol
# GULP energy per Si atom -5588.125272 kJ/mol
# Density = 1.770508 g / cm^3
# Si number density = 17.745465 Si / 1000 Ang^3
#
#
#
# Elastic Constant Matrix: (Units=GPa)
#
#
# Indices 1 2 3 4 5 6 
#
# 1 131.2320 62.9410 67.9144 -0.0003 24.0917 -0.0001
# 2 62.9410 81.1602 56.2289 -0.0002 8.0434 0.0001
# 3 67.9144 56.2289 121.4892 -0.0019 20.9477 -0.0002
# 4 -0.0003 -0.0002 -0.0019 24.8399 -0.0002 3.8726
# 5 24.0917 8.0434 20.9477 -0.0002 29.6767 0.0000
# 6 -0.0001 0.0001 -0.0002 3.8726 0.0000 35.5871
#
#
#
# Elastic Compliance Matrix: (Units=1/GPa)
#
#
# Indices 1 2 3 4 5 6 
#
# 1 0.014612 -0.008575 -0.002909 0.000000 -0.007485 0.000000
# 2 -0.008575 0.023203 -0.006902 0.000000 0.005544 0.000000
# 3 -0.002909 -0.006902 0.014030 0.000001 -0.005671 0.000000
# 4 0.000000 0.000000 0.000001 0.040953 0.000000 -0.004457
# 5 -0.007485 0.005544 -0.005671 0.000000 0.042273 0.000000
# 6 0.000000 0.000000 0.000000 -0.004457 0.000000 0.028585
#
#
# Mechanical properties :
#
#
# Convention : Reuss Voigt Hill
#
# Bulk Modulus (GPa) = 66.34022 78.67220 72.50621
# Shear Modulus (GPa) = 24.33663 27.80720 26.07191
#
# Velocity S-wave (km/s) = 3.70730 3.96283 3.83719
# Velocity P-wave (km/s) = 7.46933 8.08509 7.78330
#
# Compressibility (1/GPa) = 0.01507381
#
# Stress axis : x y z
#
# Youngs Moduli (GPa) = 68.43536 43.09739 71.27784
#
# Poissons Ratio (x) = 0.36955 0.20737
# Poissons Ratio (y) = 0.58681 0.49194
# Poissons Ratio (z) = 0.19910 0.29744
#
# Static dielectric constant tensor:
#      x y z
#    x 1.600740 0.000000 0.005870 
#    y 0.000000 1.587910 0.000000 
#    z 0.005870 0.000000 1.579530 
# 
# From -- ./inp_files/24301.got.cif
#   From: 2010.05.17/outbox.cif.g08.bks.cpg/sg8_13_cif.got.tgz:24301.got - 2010.06.03 19:46:02.
