data_PCOD9132435
_publ_section_title
;
Structure prediction by ZEFSAII (Michael W. Deem and Ramdas Pophale) SiO2 
 PCOD9132435
Probable space group: C M
;
_chemical_formula_sum "Si O2"
_cell_formula_units_Z 32
_cell_length_a 10.150868
_cell_length_b 14.478155
_cell_length_c 14.993236
_cell_angle_alpha 90.000000
_cell_angle_beta 143.054788
_cell_angle_gamma 90.000000
_cell_volume 1324.412138
_symmetry_space_group_name_H-M "C M"
_symmetry_group_IT_number 8
_symmetry_cell_setting 'monoclinic'
loop_
_space_group_symop_operation_xyz
x,y,z
x,-y,z
1/2+x,1/2+y,z
1/2+x,1/2-y,z
loop_
_atom_site_type_symbol
_atom_site_label
_atom_site_fract_x
_atom_site_fract_y
_atom_site_fract_z
Si Si1 0.468080 0.103414 0.338220
Si Si2 0.525141 0.898454 0.882933
Si Si3 0.292792 0.745328 0.530386
Si Si4 0.513130 0.303465 0.820380
Si Si5 0.030914 0.892911 0.176097
Si Si6 0.961021 0.110262 0.348624
Si Si7 0.959118 0.395658 0.060612
Si Si8 0.595532 0.900380 0.615264
O O1 0.646382 0.173281 0.395387
O O2 0.224230 0.146644 0.218477
O O3 0.554416 0.095824 0.487091
O O4 0.468631 0.000000 0.299242
O O5 0.443012 0.800791 0.804227
O O6 0.485927 0.897235 0.967784
O O7 0.448863 0.000000 0.808960
O O8 0.786690 0.891696 0.006109
O O9 0.455737 0.690625 0.684573
O O10 0.446679 0.817823 0.566075
O O11 0.111432 0.813964 0.478225
O O12 0.762835 0.326878 0.978516
O O13 0.345292 0.375514 0.772961
O O14 0.008403 0.868218 0.268446
O O15 0.101364 0.000000 0.218097
O O16 0.005864 0.000000 0.386805
O O17 0.703545 0.123874 0.226198
O O18 0.895204 0.500000 0.052206
O O19 0.534295 0.000000 0.620183
#
# Coordination Sequence:
#
# PCOD9132435 Si02
#       8
#     4   4   4   4   4   4   4   4
#     4   9  18  32  52  78 103 134 175 215 257 304
#     4   9  19  34  52  76 108 141 172 211 260 313
#     4  11  21  31  53  83 109 133 176 219 271 315
#     4  11  22  34  52  81 111 140 177 212 270 324
#     4   8  14  30  54  75  98 135 178 215 252 301
#     4   9  17  32  56  82 104 134 178 227 268 304
#     4   9  19  37  58  77 101 139 185 228 261 302
#     4  10  20  36  54  74 104 140 178 217 256 313
#
# _framework density 24.161660999999999
#
# number of rings (size 3 to 8) (size 9 to 14) (size 15 to 20)
#    0.000    2.500    1.250    3.000    1.750    1.500 
#    0.000    0.625    0.000    1.500    0.000    2.625 
#    0.000    0.000    0.000    0.000    0.000    0.000 
#
# Total GULP energy -89245.591676 kJ/mol
# GULP energy per Si atom -5577.849480 kJ/mol
# Density = 2.410667 g / cm^3
# Si number density = 24.161661 Si / 1000 Ang^3
#
#
#
# Elastic Constant Matrix: (Units=GPa)
#
#
# Indices 1 2 3 4 5 6 
#
# 1 58.6634 36.0224 23.5560 0.0001 16.6510 0.0000
# 2 36.0224 117.6015 12.4660 0.0007 17.3083 0.0001
# 3 23.5560 12.4660 56.5021 0.0014 22.5361 0.0003
# 4 0.0001 0.0007 0.0014 31.7046 0.0005 13.0806
# 5 16.6510 17.3083 22.5361 0.0005 25.6936 0.0000
# 6 0.0000 0.0001 0.0003 13.0806 0.0000 22.3353
#
#
#
# Elastic Compliance Matrix: (Units=1/GPa)
#
#
# Indices 1 2 3 4 5 6 
#
# 1 0.025279 -0.006088 -0.006610 0.000001 -0.006484 0.000000
# 2 -0.006088 0.010923 0.002291 0.000000 -0.005422 0.000000
# 3 -0.006610 0.002291 0.029001 -0.000001 -0.022697 0.000000
# 4 0.000001 0.000000 -0.000001 0.041590 0.000000 -0.024357
# 5 -0.006484 -0.005422 -0.022697 0.000000 0.066682 0.000000
# 6 0.000000 0.000000 0.000000 -0.024357 0.000000 0.059037
#
#
# Mechanical properties :
#
#
# Convention : Reuss Voigt Hill
#
# Bulk Modulus (GPa) = 22.52772 41.87287 32.20029
# Shear Modulus (GPa) = 18.64800 26.66156 22.65478
#
# Velocity S-wave (km/s) = 2.78114 3.32545 3.06540
# Velocity P-wave (km/s) = 4.43362 5.66681 5.08772
#
# Compressibility (1/GPa) = 0.04438975
#
# Stress axis : x y z
#
# Youngs Moduli (GPa) = 39.55787 91.54656 34.48098
#
# Poissons Ratio (x) = 0.55737 0.22791
# Poissons Ratio (y) = 0.24084 -0.07899
# Poissons Ratio (z) = 0.26147 -0.20973
#
# Static dielectric constant tensor:
#      x y z
#    x 1.972860 0.000000 0.001160 
#    y 0.000000 1.988720 0.000000 
#    z 0.001160 0.000000 1.942140 
# 
# From -- ./inp_files/28891.got.cif
#   From: 2010.05.17/outbox.cif.g08.bks.cpg/sg8_15_cif.got.tgz:28891.got - 2010.06.03 19:46:02.
