data_PCOD9132375
_publ_section_title
;
Structure prediction by ZEFSAII (Michael W. Deem and Ramdas Pophale) SiO2 
 PCOD9132375
Probable space group: C M
;
_chemical_formula_sum "Si O2"
_cell_formula_units_Z 32
_cell_length_a 28.769757
_cell_length_b 9.308714
_cell_length_c 12.382888
_cell_angle_alpha 90.000000
_cell_angle_beta 30.052125
_cell_angle_gamma 90.000000
_cell_volume 1660.739237
_symmetry_space_group_name_H-M "C M"
_symmetry_group_IT_number 8
_symmetry_cell_setting 'monoclinic'
loop_
_space_group_symop_operation_xyz
x,y,z
x,-y,z
1/2+x,1/2+y,z
1/2+x,1/2-y,z
loop_
_atom_site_type_symbol
_atom_site_label
_atom_site_fract_x
_atom_site_fract_y
_atom_site_fract_z
Si Si1 0.570840 0.334451 0.222910
Si Si2 0.418938 0.329429 0.920954
Si Si3 0.760064 0.167653 0.089361
Si Si4 0.820395 0.169066 0.546852
Si Si5 0.602670 0.170190 0.942853
Si Si6 0.294872 0.163076 0.810436
Si Si7 0.469477 0.327750 0.064102
Si Si8 0.542593 0.829071 0.496154
O O1 0.539246 0.500000 0.280798
O O2 0.559328 0.251551 0.133546
O O3 0.528914 0.249675 0.408747
O O4 0.682778 0.336558 0.017111
O O5 0.438734 0.500000 0.868334
O O6 0.480991 0.240112 0.713251
O O7 0.313124 0.306810 0.094596
O O8 0.438929 0.291578 0.004291
O O9 0.650618 0.196005 0.311037
O O10 0.771513 0.000000 0.037622
O O11 0.806636 0.259533 0.900902
O O12 0.836811 0.254742 0.624090
O O13 0.888252 0.207785 0.312809
O O14 0.831225 0.000000 0.547773
O O15 0.713482 0.191778 0.726667
O O16 0.558572 0.241160 0.925845
O O17 0.584391 0.000000 0.984988
O O18 0.327511 0.000000 0.748721
O O19 0.485658 0.500000 0.037136
O O20 0.528147 0.000000 0.515081
#
# Coordination Sequence:
#
# PCOD9132375 Si02
#       8
#     4   4   4   4   4   4   4   4
#     4   9  17  32  55  82 112 144 176 212 263 327
#     4  10  22  39  56  76 105 144 188 225 262 318
#     4   9  19  36  57  79 107 143 178 215 264 322
#     4   9  19  36  57  79 107 143 178 215 264 322
#     4  10  20  35  57  84 111 139 176 224 272 315
#     4   9  17  30  53  84 112 136 170 218 267 317
#     4  10  22  39  56  76 105 144 188 225 262 318
#     4  10  20  35  57  84 111 139 176 224 272 315
#
# _framework density 19.268526999999999
#
# number of rings (size 3 to 8) (size 9 to 14) (size 15 to 20)
#    0.000    2.500    0.000    1.500    0.000    7.500 
#    0.000    3.750    0.000    0.000    0.000    0.000 
#    0.000    0.000    0.000    0.000    0.000    0.000 
#
# Total GULP energy -89369.039364 kJ/mol
# GULP energy per Si atom -5585.564960 kJ/mol
# Density = 1.922467 g / cm^3
# Si number density = 19.268527 Si / 1000 Ang^3
#
#
#
# Elastic Constant Matrix: (Units=GPa)
#
#
# Indices 1 2 3 4 5 6 
#
# 1 120.7607 37.5350 14.7394 0.0000 5.0033 0.0000
# 2 37.5350 44.5602 19.5440 0.0000 -1.3666 0.0000
# 3 14.7394 19.5440 56.1628 0.0000 3.3399 0.0000
# 4 0.0000 0.0000 0.0000 24.1867 0.0000 4.8206
# 5 5.0033 -1.3666 3.3399 0.0000 20.7041 0.0000
# 6 0.0000 0.0000 0.0000 4.8206 0.0000 29.0287
#
#
#
# Elastic Compliance Matrix: (Units=1/GPa)
#
#
# Indices 1 2 3 4 5 6 
#
# 1 0.011477 -0.010088 0.000710 0.000000 -0.003554 0.000000
# 2 -0.010088 0.035571 -0.010112 0.000000 0.006417 0.000000
# 3 0.000710 -0.010112 0.021393 0.000000 -0.004290 0.000000
# 4 0.000000 0.000000 0.000000 0.042760 0.000000 -0.007101
# 5 -0.003554 0.006417 -0.004290 0.000000 0.050274 0.000000
# 6 0.000000 0.000000 0.000000 -0.007101 0.000000 0.035628
#
#
# Mechanical properties :
#
#
# Convention : Reuss Voigt Hill
#
# Bulk Modulus (GPa) = 33.94409 40.56895 37.25652
# Shear Modulus (GPa) = 20.33308 24.76158 22.54733
#
# Velocity S-wave (km/s) = 3.25198 3.58869 3.42448
# Velocity P-wave (km/s) = 5.63517 6.18642 5.91722
#
# Compressibility (1/GPa) = 0.02946021
#
# Stress axis : x y z
#
# Youngs Moduli (GPa) = 87.13112 28.11274 46.74364
#
# Poissons Ratio (x) = 0.28360 -0.03318
# Poissons Ratio (y) = 0.87896 0.47269
# Poissons Ratio (z) = -0.06184 0.28429
#
# Static dielectric constant tensor:
#      x y z
#    x 1.680950 0.000000 -0.050650 
#    y 0.000000 1.648260 0.000000 
#    z -0.050650 0.000000 1.665140 
# 
# From -- ./inp_files/21557.got.cif
#   From: 2010.05.17/outbox.cif.g08.bks.cpg/sg8_11_cif.got.tgz:21557.got - 2010.06.03 19:46:02.
