data_PCOD9132278
_publ_section_title
;
Structure prediction by ZEFSAII (Michael W. Deem and Ramdas Pophale) SiO2 
 PCOD9132278
Probable space group: C M
;
_chemical_formula_sum "Si O2"
_cell_formula_units_Z 32
_cell_length_a 19.015287
_cell_length_b 7.739646
_cell_length_c 25.947002
_cell_angle_alpha 90.000000
_cell_angle_beta 24.136791
_cell_angle_gamma 90.000000
_cell_volume 1561.513822
_symmetry_space_group_name_H-M "C M"
_symmetry_group_IT_number 8
_symmetry_cell_setting 'monoclinic'
loop_
_space_group_symop_operation_xyz
x,y,z
x,-y,z
1/2+x,1/2+y,z
1/2+x,1/2-y,z
loop_
_atom_site_type_symbol
_atom_site_label
_atom_site_fract_x
_atom_site_fract_y
_atom_site_fract_z
Si Si1 0.009700 0.209072 0.175360
Si Si2 0.950269 0.207761 0.695637
Si Si3 0.892114 0.296982 0.942536
Si Si4 0.841749 0.293233 0.178702
Si Si5 0.456364 0.290912 0.419386
Si Si6 0.064707 0.287459 0.932007
Si Si7 0.101739 0.795447 0.702943
Si Si8 0.803791 0.207119 0.412500
O O1 0.933324 0.257261 0.171332
O O2 0.890468 0.271619 0.302239
O O3 0.012250 0.000000 0.175205
O O4 0.204377 0.274135 0.053524
O O5 0.762214 0.269594 0.805415
O O6 0.008434 0.272682 0.713354
O O7 0.103448 0.251762 0.554055
O O8 0.943318 0.000000 0.703651
O O9 0.865000 0.500000 0.970745
O O10 0.976243 0.226482 0.938463
O O11 0.019764 0.279803 0.809095
O O12 0.831490 0.500000 0.179761
O O13 0.645720 0.227787 0.307480
O O14 0.954773 0.230581 0.054957
O O15 0.458342 0.500000 0.417077
O O16 0.303688 0.238169 0.559817
O O17 0.400843 0.229642 0.399291
O O18 0.066910 0.500000 0.930144
O O19 0.073662 0.000000 0.723850
O O20 0.821115 0.000000 0.400871
#
# Coordination Sequence:
#
# PCOD9132278 Si02
#       8
#     4   4   4   4   4   4   4   4
#     4  10  21  35  52  77 107 136 167 211 264 307
#     4   9  18  33  53  76 102 133 169 210 255 300
#     4  10  20  35  55  76 101 136 176 213 251 303
#     4  10  20  35  56  78 101 134 175 215 254 302
#     4   9  18  34  56  78 100 134 178 213 246 299
#     4   9  18  34  55  76  99 131 174 217 251 293
#     4  10  20  34  53  78 108 137 166 208 261 307
#     4   9  18  34  54  75 102 135 171 209 250 301
#
# _framework density 20.492933000000001
#
# number of rings (size 3 to 8) (size 9 to 14) (size 15 to 20)
#    0.000    2.500    0.000    1.875    0.000    7.000 
#    0.000    5.625    0.000    3.000    0.000    0.000 
#    0.000    0.000    0.000    0.000    0.000    0.000 
#
# Total GULP energy -89334.580371 kJ/mol
# GULP energy per Si atom -5583.411273 kJ/mol
# Density = 2.044629 g / cm^3
# Si number density = 20.492933 Si / 1000 Ang^3
#
#
#
# Elastic Constant Matrix: (Units=GPa)
#
#
# Indices 1 2 3 4 5 6 
#
# 1 155.2392 -4.4740 128.9775 0.0029 -7.8024 0.0001
# 2 -4.4740 24.8188 -10.2774 0.0028 -4.1648 0.0001
# 3 128.9775 -10.2774 185.3181 0.0066 -8.0946 0.0011
# 4 0.0029 0.0028 0.0066 18.6418 0.0002 -0.5676
# 5 -7.8024 -4.1648 -8.0946 0.0002 42.3846 0.0000
# 6 0.0001 0.0001 0.0011 -0.5676 0.0000 18.3243
#
#
#
# Elastic Compliance Matrix: (Units=1/GPa)
#
#
# Indices 1 2 3 4 5 6 
#
# 1 0.015358 -0.001579 -0.010750 0.000002 0.000619 0.000001
# 2 -0.001579 0.042281 0.003643 -0.000008 0.004560 -0.000001
# 3 -0.010750 0.003643 0.013118 -0.000004 0.000884 -0.000001
# 4 0.000002 -0.000008 -0.000004 0.053693 -0.000001 0.001663
# 5 0.000619 0.004560 0.000884 -0.000001 0.024324 0.000000
# 6 0.000001 -0.000001 -0.000001 0.001663 0.000000 0.054624
#
#
# Mechanical properties :
#
#
# Convention : Reuss Voigt Hill
#
# Bulk Modulus (GPa) = 18.73131 65.98090 42.35611
# Shear Modulus (GPa) = 20.95852 32.61347 26.78599
#
# Velocity S-wave (km/s) = 3.20147 3.99363 3.61928
# Velocity P-wave (km/s) = 4.77766 7.31657 6.17893
#
# Compressibility (1/GPa) = 0.05338654
#
# Stress axis : x y z
#
# Youngs Moduli (GPa) = 65.11080 23.65121 76.22925
#
# Poissons Ratio (x) = 0.03734 0.81944
# Poissons Ratio (y) = 0.10280 -0.27769
# Poissons Ratio (z) = 0.69992 -0.08616
#
# Static dielectric constant tensor:
#      x y z
#    x 1.704860 0.000000 -0.011790 
#    y 0.000000 1.770950 0.000000 
#    z -0.011790 0.000000 1.703500 
# 
# From -- ./inp_files/23865.got.cif
#   From: 2010.05.17/outbox.cif.g08.bks.cpg/sg8_12_cif.got.tgz:23865.got - 2010.06.03 19:46:02.
