data_PCOD9132846
_publ_section_title
;
Structure prediction by ZEFSAII (Michael W. Deem and Ramdas Pophale) SiO2 
 PCOD9132846
Probable space group: C M
;
_chemical_formula_sum "Si O2"
_cell_formula_units_Z 32
_cell_length_a 15.367914
_cell_length_b 8.771374
_cell_length_c 23.174214
_cell_angle_alpha 90.000000
_cell_angle_beta 31.818511
_cell_angle_gamma 90.000000
_cell_volume 1646.978637
_symmetry_space_group_name_H-M "C M"
_symmetry_group_IT_number 8
_symmetry_cell_setting 'monoclinic'
loop_
_space_group_symop_operation_xyz
x,y,z
x,-y,z
1/2+x,1/2+y,z
1/2+x,1/2-y,z
loop_
_atom_site_type_symbol
_atom_site_label
_atom_site_fract_x
_atom_site_fract_y
_atom_site_fract_z
Si Si1 0.379620 0.820944 0.622640
Si Si2 0.490773 0.683129 0.352125
Si Si3 0.280193 0.683664 0.990451
Si Si4 0.342757 0.316572 0.824797
Si Si5 0.123334 0.678801 0.594658
Si Si6 0.628913 0.816837 0.385207
Si Si7 0.966261 0.682805 0.241865
Si Si8 0.108854 0.681511 0.851570
O O1 0.516527 0.805959 0.596142
O O2 0.469981 0.771000 0.513403
O O3 0.222129 0.729314 0.733309
O O4 0.335934 0.000000 0.642684
O O5 0.492843 0.500000 0.345558
O O6 0.307765 0.731385 0.476955
O O7 0.615175 0.740047 0.330776
O O8 0.521592 0.759372 0.273331
O O9 0.290062 0.500000 0.984677
O O10 0.105347 0.725504 0.116788
O O11 0.302302 0.737379 0.911968
O O12 0.430383 0.746471 0.943777
O O13 0.339988 0.500000 0.826410
O O14 0.521286 0.264305 0.701410
O O15 0.208161 0.264947 0.852821
O O16 0.129699 0.500000 0.605718
O O17 0.793313 0.761058 0.324152
O O18 0.628755 0.000000 0.381499
O O19 0.946947 0.500000 0.252990
O O20 0.095425 0.500000 0.861726
#
# Coordination Sequence:
#
# PCOD9132846 Si02
#       8
#     4   4   4   4   4   4   4   4
#     4   9  18  36  59  84 121 161 194 242 303 360
#     4  11  23  40  61  90 125 161 203 256 309 366
#     4  10  23  42  62  85 118 160 203 246 299 360
#     4   9  20  38  58  84 118 155 193 240 296 355
#     4   9  18  35  58  86 120 155 193 242 299 356
#     4  11  23  40  62  91 123 162 207 252 308 368
#     4  11  24  43  64  88 121 164 212 259 306 363
#     4  10  21  36  58  90 120 154 199 245 296 356
#
# _framework density 19.429517000000001
#
# number of rings (size 3 to 8) (size 9 to 14) (size 15 to 20)
#    0.000    2.000    1.250    1.500    1.750    5.000 
#    0.000    1.250    0.000    0.000    0.000    0.000 
#    0.000    0.000    0.000    0.000    0.000    0.000 
#
# Total GULP energy -89383.213944 kJ/mol
# GULP energy per Si atom -5586.450871 kJ/mol
# Density = 1.938529 g / cm^3
# Si number density = 19.429517 Si / 1000 Ang^3
#
#
#
# Elastic Constant Matrix: (Units=GPa)
#
#
# Indices 1 2 3 4 5 6 
#
# 1 52.8578 6.3167 7.7914 0.0000 22.6678 0.0000
# 2 6.3167 17.3828 17.7380 0.0000 6.6705 0.0000
# 3 7.7914 17.7380 69.9685 -0.0001 19.5951 0.0000
# 4 0.0000 0.0000 -0.0001 30.0239 0.0000 -3.4655
# 5 22.6678 6.6705 19.5951 0.0000 30.2353 0.0000
# 6 0.0000 0.0000 0.0000 -3.4655 0.0000 25.9310
#
#
#
# Elastic Compliance Matrix: (Units=1/GPa)
#
#
# Indices 1 2 3 4 5 6 
#
# 1 0.029104 -0.006683 0.005072 0.000000 -0.023632 0.000000
# 2 -0.006683 0.079850 -0.019510 0.000000 0.000037 0.000000
# 3 0.005072 -0.019510 0.022642 0.000000 -0.014172 0.000000
# 4 0.000000 0.000000 0.000000 0.033829 0.000000 0.004521
# 5 -0.023632 0.000037 -0.014172 0.000000 0.059968 0.000000
# 6 0.000000 0.000000 0.000000 0.004521 0.000000 0.039168
#
#
# Mechanical properties :
#
#
# Convention : Reuss Voigt Hill
#
# Bulk Modulus (GPa) = 11.19116 22.65570 16.92343
# Shear Modulus (GPa) = 14.85495 24.46224 19.65860
#
# Velocity S-wave (km/s) = 2.76806 3.55212 3.18432
# Velocity P-wave (km/s) = 3.99857 5.33940 4.71687
#
# Compressibility (1/GPa) = 0.08935620
#
# Stress axis : x y z
#
# Youngs Moduli (GPa) = 34.35911 12.52341 44.16501
#
# Poissons Ratio (x) = 0.08369 -0.22399
# Poissons Ratio (y) = 0.22961 0.86164
# Poissons Ratio (z) = -0.17425 0.24433
#
# Static dielectric constant tensor:
#      x y z
#    x 1.692540 0.000000 0.006990 
#    y 0.000000 1.651940 0.000000 
#    z 0.006990 0.000000 1.658340 
# 
# From -- ./inp_files/28181.got.cif
#   From: 2010.05.17/outbox.cif.g08.bks.cpg/sg8_15_cif.got.tgz:28181.got - 2010.06.03 19:46:02.
