data_PCOD9132985
_publ_section_title
;
Structure prediction by ZEFSAII (Michael W. Deem and Ramdas Pophale) SiO2 
 PCOD9132985
Probable space group: C M
;
_chemical_formula_sum "Si O2"
_cell_formula_units_Z 32
_cell_length_a 34.048358
_cell_length_b 9.073982
_cell_length_c 12.825290
_cell_angle_alpha 90.000000
_cell_angle_beta 25.494646
_cell_angle_gamma 90.000000
_cell_volume 1705.534610
_symmetry_space_group_name_H-M "C M"
_symmetry_group_IT_number 8
_symmetry_cell_setting 'monoclinic'
loop_
_space_group_symop_operation_xyz
x,y,z
x,-y,z
1/2+x,1/2+y,z
1/2+x,1/2-y,z
loop_
_atom_site_type_symbol
_atom_site_label
_atom_site_fract_x
_atom_site_fract_y
_atom_site_fract_z
Si Si1 0.421980 0.176728 0.154610
Si Si2 0.469726 0.174984 0.449554
Si Si3 0.619468 0.675035 0.380041
Si Si4 0.430972 0.826037 0.776142
Si Si5 0.671313 0.823464 0.046194
Si Si6 0.870712 0.824204 0.492977
Si Si7 0.121785 0.324768 0.591324
Si Si8 0.781431 0.674618 0.310108
O O1 0.408321 0.254571 0.297104
O O2 0.341463 0.213870 0.266795
O O3 0.421259 0.000000 0.170802
O O4 0.518645 0.214646 0.870335
O O5 0.418641 0.200705 0.682590
O O6 0.576099 0.214382 0.216610
O O7 0.424687 0.262012 0.463361
O O8 0.465768 0.000000 0.437137
O O9 0.627671 0.500000 0.362867
O O10 0.515111 0.727263 0.611923
O O11 0.672344 0.741872 0.154606
O O12 0.647850 0.744456 0.421672
O O13 0.457094 0.000000 0.724860
O O14 0.345254 0.801180 0.055658
O O15 0.668568 0.000000 0.070940
O O16 0.763199 0.787757 0.764029
O O17 0.879345 0.000000 0.469236
O O18 0.126734 0.500000 0.565456
O O19 0.191183 0.269431 0.512764
O O20 0.760211 0.500000 0.365084
#
# Coordination Sequence:
#
# PCOD9132985 Si02
#       8
#     4   4   4   4   4   4   4   4
#     4  10  23  44  64  82 119 165 201 242 300 363
#     4   9  19  37  61  86 119 160 197 234 296 367
#     4  11  21  34  59  92 124 157 200 249 295 353
#     4   9  18  37  61  86 125 162 192 240 306 364
#     4   9  21  41  60  84 120 162 196 241 305 361
#     4  11  24  40  62  89 119 154 204 256 293 347
#     4  11  23  40  61  88 121 161 201 244 303 363
#     4  10  21  39  62  91 121 155 201 248 300 358
#
# _framework density 18.762445
#
# number of rings (size 3 to 8) (size 9 to 14) (size 15 to 20)
#    0.000    2.000    1.250    2.625    1.750    6.000 
#    0.000    3.750    0.000    0.000    0.000    0.000 
#    0.000    0.000    0.000    0.000    0.000    0.000 
#
# Total GULP energy -89373.410255 kJ/mol
# GULP energy per Si atom -5585.838141 kJ/mol
# Density = 1.871974 g / cm^3
# Si number density = 18.762445 Si / 1000 Ang^3
#
#
#
# Elastic Constant Matrix: (Units=GPa)
#
#
# Indices 1 2 3 4 5 6 
#
# 1 109.1996 34.4550 24.1230 0.0000 4.5604 0.0000
# 2 34.4550 35.1193 18.8396 0.0000 2.9116 0.0000
# 3 24.1230 18.8396 25.4757 0.0000 5.2277 0.0000
# 4 0.0000 0.0000 0.0000 24.6740 0.0000 -4.3607
# 5 4.5604 2.9116 5.2277 0.0000 23.1915 0.0000
# 6 0.0000 0.0000 0.0000 -4.3607 0.0000 31.5259
#
#
#
# Elastic Compliance Matrix: (Units=1/GPa)
#
#
# Indices 1 2 3 4 5 6 
#
# 1 0.013639 -0.010706 -0.004952 0.000000 -0.000222 0.000000
# 2 -0.010706 0.055694 -0.031503 0.000000 0.002214 0.000000
# 3 -0.004952 -0.031503 0.069440 0.000000 -0.010724 0.000000
# 4 0.000000 0.000000 0.000000 0.041544 0.000000 0.005746
# 5 -0.000222 0.002214 -0.010724 0.000000 0.045302 0.000000
# 6 0.000000 0.000000 0.000000 0.005746 0.000000 0.032515
#
#
# Mechanical properties :
#
#
# Convention : Reuss Voigt Hill
#
# Bulk Modulus (GPa) = 22.49708 36.06997 29.28352
# Shear Modulus (GPa) = 13.61388 22.03675 17.82532
#
# Velocity S-wave (km/s) = 2.69660 3.43084 3.08564
# Velocity P-wave (km/s) = 4.65962 5.91274 5.32318
#
# Compressibility (1/GPa) = 0.04445021
#
# Stress axis : x y z
#
# Youngs Moduli (GPa) = 73.32098 17.95524 14.40101
#
# Poissons Ratio (x) = 0.19223 0.07131
# Poissons Ratio (y) = 0.78497 0.45368
# Poissons Ratio (z) = 0.36307 0.56565
#
# Static dielectric constant tensor:
#      x y z
#    x 1.636090 0.000000 -0.015930 
#    y 0.000000 1.620620 0.000000 
#    z -0.015930 0.000000 1.650270 
# 
# From -- ./inp_files/24785.got.cif
#   From: 2010.05.17/outbox.cif.g08.bks.cpg/sg8_13_cif.got.tgz:24785.got - 2010.06.03 19:46:02.
