data_PCOD9132702
_publ_section_title
;
Structure prediction by ZEFSAII (Michael W. Deem and Ramdas Pophale) SiO2 
 PCOD9132702
Probable space group: C M
;
_chemical_formula_sum "Si O2"
_cell_formula_units_Z 30
_cell_length_a 7.761805
_cell_length_b 18.723695
_cell_length_c 7.669172
_cell_angle_alpha 90.000000
_cell_angle_beta 99.688346
_cell_angle_gamma 90.000000
_cell_volume 1098.662090
_symmetry_space_group_name_H-M "C M"
_symmetry_group_IT_number 8
_symmetry_cell_setting 'monoclinic'
loop_
_space_group_symop_operation_xyz
x,y,z
x,-y,z
1/2+x,1/2+y,z
1/2+x,1/2-y,z
loop_
_atom_site_type_symbol
_atom_site_label
_atom_site_fract_x
_atom_site_fract_y
_atom_site_fract_z
Si Si1 0.703580 0.424636 0.467500
Si Si2 0.490374 0.258028 0.343816
Si Si3 0.664852 0.920613 0.954149
Si Si4 0.258918 0.149447 0.158222
Si Si5 0.436613 0.186142 0.692144
Si Si6 0.956137 0.161997 0.868693
Si Si7 0.077368 0.500000 0.282401
Si Si8 0.825204 0.111029 0.477988
O O1 0.766598 0.500000 0.554858
O O2 0.779984 0.420638 0.282715
O O3 0.769406 0.356851 0.589371
O O4 0.495140 0.426740 0.421831
O O5 0.423573 0.200375 0.194435
O O6 0.627178 0.306225 0.264424
O O7 0.531151 0.216560 0.532777
O O8 0.337609 0.312002 0.386161
O O9 0.543412 0.873951 0.810328
O O10 0.836796 0.871600 0.000268
O O11 0.712382 0.000000 0.893390
O O12 0.574556 0.938974 0.121178
O O13 0.154604 0.145760 0.960762
O O14 0.421372 0.255560 0.812919
O O15 0.888898 0.121095 0.686722
O O16 0.156099 0.563116 0.427704
#
# Coordination Sequence:
#
# PCOD9132702 Si02
#       8
#     4   4   4   4   4   4   2   4
#     4  10  20  39  63  87 124 168 206 251 329 392
#     4   9  21  38  61  89 130 166 208 259 329 381
#     4  10  24  40  63  95 127 169 213 264 319 394
#     4  10  22  37  62  93 124 167 208 266 319 386
#     4  10  23  39  63  94 128 165 211 268 319 388
#     4  11  25  36  66  92 127 156 224 268 318 374
#     4  10  22  40  64  86 126 168 210 258 332 386
#     4  10  21  37  60  90 118 162 211 263 314 386
#
# _framework density 27.305941000000001
#
# number of rings (size 3 to 8) (size 9 to 14) (size 15 to 20)
#    0.400    1.600    0.667    2.000   14.000    0.000 
#    0.000    0.000    0.000    0.000    0.000    0.000 
#    0.000    0.000    0.000    0.000    0.000    0.000 
#
# Total GULP energy -83685.837595 kJ/mol
# GULP energy per Si atom -5579.055840 kJ/mol
# Density = 2.724379 g / cm^3
# Si number density = 27.305941 Si / 1000 Ang^3
#
#
#
# Elastic Constant Matrix: (Units=GPa)
#
#
# Indices 1 2 3 4 5 6 
#
# 1 52.3613 -11.8371 -15.5772 0.0000 -13.7515 0.0000
# 2 -11.8371 142.9691 21.9476 0.0000 1.1615 0.0000
# 3 -15.5772 21.9476 146.7622 0.0000 4.1708 0.0000
# 4 0.0000 0.0000 0.0000 139.6375 0.0000 -57.6875
# 5 -13.7515 1.1615 4.1708 0.0000 48.8484 0.0000
# 6 0.0000 0.0000 0.0000 -57.6875 0.0000 -29.2850
#
#
#
# Elastic Compliance Matrix: (Units=1/GPa)
#
#
# Indices 1 2 3 4 5 6 
#
# 1 0.021530 0.001443 0.001903 0.000000 0.005864 0.000000
# 2 0.001443 0.007256 -0.000941 0.000000 0.000314 0.000000
# 3 0.001903 -0.000941 0.007158 0.000000 -0.000053 0.000000
# 4 0.000000 0.000000 0.000000 0.003948 0.000000 -0.007778
# 5 0.005864 0.000314 -0.000053 0.000000 0.022119 0.000000
# 6 0.000000 0.000000 0.000000 -0.007778 0.000000 -0.018826
#
#
# Mechanical properties :
#
#
# Convention : Reuss Voigt Hill
#
# Bulk Modulus (GPa) = 24.53758 36.79548 30.66653
# Shear Modulus (GPa) = 96.22657 55.01080 75.61868
#
# Velocity S-wave (km/s) = 5.94278 4.49331 5.26813
# Velocity P-wave (km/s) = 7.48963 6.35801 6.94690
#
# Compressibility (1/GPa) = 0.04075382
#
# Stress axis : x y z
#
# Youngs Moduli (GPa) = 46.44580 137.81961 139.70551
#
# Poissons Ratio (x) = -0.19886 -0.26583
# Poissons Ratio (y) = -0.06702 0.13144
# Poissons Ratio (z) = -0.08838 0.12967
#
# Static dielectric constant tensor:
#      x y z
#    x 2.360500 0.000000 -0.011300 
#    y 0.000000 2.114590 0.000000 
#    z -0.011300 0.000000 2.169580 
# 
# From -- ./inp_files/11152.got.cif
#   From: 2010.05.17/outbox.cif.g08.bks.cpg/sg8_6_cif.got.tgz:11152.got - 2010.06.03 19:46:02.
