data_PCOD9132927
_publ_section_title
;
Structure prediction by ZEFSAII (Michael W. Deem and Ramdas Pophale) SiO2 
 PCOD9132927
Probable space group: C M
;
_chemical_formula_sum "Si O2"
_cell_formula_units_Z 32
_cell_length_a 12.465002
_cell_length_b 13.920640
_cell_length_c 8.561935
_cell_angle_alpha 90.000000
_cell_angle_beta 98.808842
_cell_angle_gamma 90.000000
_cell_volume 1468.149979
_symmetry_space_group_name_H-M "C M"
_symmetry_group_IT_number 8
_symmetry_cell_setting 'monoclinic'
loop_
_space_group_symop_operation_xyz
x,y,z
x,-y,z
1/2+x,1/2+y,z
1/2+x,1/2-y,z
loop_
_atom_site_type_symbol
_atom_site_label
_atom_site_fract_x
_atom_site_fract_y
_atom_site_fract_z
Si Si1 0.888410 0.105060 0.041870
Si Si2 0.024291 0.391264 0.387469
Si Si3 0.674036 0.386597 0.369497
Si Si4 0.951924 0.810153 0.371929
Si Si5 0.133167 0.111638 0.003044
Si Si6 0.261395 0.386216 0.537811
Si Si7 0.765529 0.749127 0.825187
Si Si8 0.880451 0.608944 0.639535
O O1 0.919324 0.117549 0.228043
O O2 0.002687 0.114373 0.977809
O O3 0.842048 0.000000 0.000714
O O4 0.809380 0.188664 0.976907
O O5 0.992441 0.500000 0.329282
O O6 0.961068 0.298836 0.307503
O O7 0.989732 0.384704 0.562846
O O8 0.153989 0.381339 0.404872
O O9 0.650353 0.500000 0.360189
O O10 0.576405 0.335099 0.439195
O O11 0.673176 0.356141 0.186579
O O12 0.784528 0.374930 0.489813
O O13 0.865230 0.833073 0.485682
O O14 0.166317 0.000000 0.990818
O O15 0.177380 0.176875 0.874420
O O16 0.283161 0.500000 0.569422
O O17 0.234344 0.326852 0.687419
O O18 0.860429 0.684058 0.770707
O O19 0.869659 0.500000 0.695435
#
# Coordination Sequence:
#
# PCOD9132927 Si02
#       8
#     4   4   4   4   4   4   4   4
#     4  10  24  43  62  89 126 162 203 255 304 360
#     4  10  23  40  60  88 126 159 200 256 305 358
#     4   9  19  38  66  94 119 154 210 267 306 353
#     4  11  21  40  69  91 119 162 210 253 311 365
#     4   9  21  41  63  89 121 160 206 256 307 364
#     4  11  24  41  62  91 126 163 208 256 306 367
#     4  12  23  35  62  90 125 162 203 245 310 369
#     4  10  21  38  60  90 124 160 204 256 305 358
#
# _framework density 21.796137999999999
#
# number of rings (size 3 to 8) (size 9 to 14) (size 15 to 20)
#    0.000    1.750    1.250    3.375    3.500    2.000 
#    0.000    1.875    0.000    3.000    0.000    0.000 
#    0.000    0.000    0.000    0.000    0.000    0.000 
#
# Total GULP energy -89329.276778 kJ/mol
# GULP energy per Si atom -5583.079799 kJ/mol
# Density = 2.174653 g / cm^3
# Si number density = 21.796138 Si / 1000 Ang^3
#
#
#
# Elastic Constant Matrix: (Units=GPa)
#
#
# Indices 1 2 3 4 5 6 
#
# 1 70.7857 31.9262 13.8667 0.0000 -16.3688 0.0000
# 2 31.9262 130.9157 20.9955 0.0000 -9.7558 0.0000
# 3 13.8667 20.9955 24.1177 0.0000 -14.9521 0.0000
# 4 0.0000 0.0000 0.0000 33.2090 0.0000 -1.7363
# 5 -16.3688 -9.7558 -14.9521 0.0000 22.9295 0.0000
# 6 0.0000 0.0000 0.0000 -1.7363 0.0000 27.1201
#
#
#
# Elastic Compliance Matrix: (Units=1/GPa)
#
#
# Indices 1 2 3 4 5 6 
#
# 1 0.018458 -0.003582 -0.000453 0.000000 0.011357 0.000000
# 2 -0.003582 0.009635 -0.009018 0.000000 -0.004338 0.000000
# 3 -0.000453 -0.009018 0.078887 0.000000 0.047281 0.000000
# 4 0.000000 0.000000 0.000000 0.030213 0.000000 0.001934
# 5 0.011357 -0.004338 0.047281 0.000000 0.080706 0.000000
# 6 0.000000 0.000000 0.000000 0.001934 0.000000 0.036997
#
#
# Mechanical properties :
#
#
# Convention : Reuss Voigt Hill
#
# Bulk Modulus (GPa) = 12.36493 39.93289 26.14891
# Shear Modulus (GPa) = 16.23593 27.25376 21.74485
#
# Velocity S-wave (km/s) = 2.73225 3.53993 3.16198
# Velocity P-wave (km/s) = 3.95460 5.92191 5.03527
#
# Compressibility (1/GPa) = 0.08087389
#
# Stress axis : x y z
#
# Youngs Moduli (GPa) = 54.17742 103.78808 12.67642
#
# Poissons Ratio (x) = 0.37180 0.00574
# Poissons Ratio (y) = 0.19408 0.11431
# Poissons Ratio (z) = 0.02454 0.93591
#
# Static dielectric constant tensor:
#      x y z
#    x 1.812980 0.000000 -0.005900 
#    y 0.000000 1.826820 0.000000 
#    z -0.005900 0.000000 1.782000 
# 
# From -- ./inp_files/10741.got.cif
#   From: 2010.05.17/outbox.cif.g08.bks.cpg/sg8_6_cif.got.tgz:10741.got - 2010.06.03 19:46:02.
