data_PCOD9132032
_publ_section_title
;
Structure prediction by ZEFSAII (Michael W. Deem and Ramdas Pophale) SiO2 
 PCOD9132032
Probable space group: C M
;
_chemical_formula_sum "Si O2"
_cell_formula_units_Z 28
_cell_length_a 29.035424
_cell_length_b 10.108853
_cell_length_c 5.259519
_cell_angle_alpha 90.000000
_cell_angle_beta 69.103648
_cell_angle_gamma 90.000000
_cell_volume 1442.210267
_symmetry_space_group_name_H-M "C M"
_symmetry_group_IT_number 8
_symmetry_cell_setting 'monoclinic'
loop_
_space_group_symop_operation_xyz
x,y,z
x,-y,z
1/2+x,1/2+y,z
1/2+x,1/2-y,z
loop_
_atom_site_type_symbol
_atom_site_label
_atom_site_fract_x
_atom_site_fract_y
_atom_site_fract_z
Si Si1 0.844140 0.347258 0.921200
Si Si2 0.226520 0.858701 0.600772
Si Si3 0.068176 0.843358 0.465451
Si Si4 0.003176 0.844081 0.090561
Si Si5 0.175893 0.774434 0.190687
Si Si6 0.267407 0.648622 0.848678
Si Si7 0.910077 0.652721 0.288725
O O1 0.825797 0.500000 0.949921
O O2 0.801544 0.241211 0.954857
O O3 0.881920 0.331906 0.611486
O O4 0.872546 0.326335 0.128921
O O5 0.198729 0.844901 0.391501
O O6 0.260867 0.734380 0.603149
O O7 0.253121 0.000000 0.561622
O O8 0.186827 0.853380 0.908716
O O9 0.118188 0.759996 0.344282
O O10 0.037945 0.815269 0.780586
O O11 0.082260 0.000000 0.442871
O O12 0.033711 0.822666 0.289123
O O13 0.989833 0.000000 0.104466
O O14 0.955208 0.753140 0.181049
O O15 0.212153 0.650219 0.075089
O O16 0.285308 0.500000 0.779587
O O17 0.927291 0.500000 0.237554
#
# Coordination Sequence:
#
# PCOD9132032 Si02
#       7
#     4   4   4   4   4   4   4
#     4  10  22  39  62  87 111 151 202 239 284 350
#     4  10  20  35  59  83 112 157 202 240 280 337
#     4  10  19  34  58  88 116 149 195 241 281 336
#     4  10  21  36  59  88 115 146 190 241 294 345
#     4  10  22  36  59  87 120 156 200 240 287 340
#     4  10  25  41  58  88 127 159 193 243 300 355
#     4  10  22  41  61  85 115 148 190 244 294 349
#
# _framework density 19.414646000000001
#
# number of rings (size 3 to 8) (size 9 to 14) (size 15 to 20)
#    0.857    1.143    0.000    3.429    2.000    2.857 
#    0.000    1.429    0.000    0.000    0.000    0.000 
#    0.000    0.000    0.000    0.000    0.000    0.000 
#
# Total GULP energy -78086.402515 kJ/mol
# GULP energy per Si atom -5577.600180 kJ/mol
# Density = 1.937046 g / cm^3
# Si number density = 19.414646 Si / 1000 Ang^3
#
#
#
# Elastic Constant Matrix: (Units=GPa)
#
#
# Indices 1 2 3 4 5 6 
#
# 1 83.3735 54.8916 27.0080 0.0000 -11.1291 0.0000
# 2 54.8916 108.6790 20.5222 0.0000 -13.3876 0.0000
# 3 27.0080 20.5222 117.4592 0.0000 5.7432 0.0000
# 4 0.0000 0.0000 0.0000 29.1943 0.0000 -12.1398
# 5 -11.1291 -13.3876 5.7432 0.0000 32.8123 0.0000
# 6 0.0000 0.0000 0.0000 -12.1398 0.0000 23.8395
#
#
#
# Elastic Compliance Matrix: (Units=1/GPa)
#
#
# Indices 1 2 3 4 5 6 
#
# 1 0.019160 -0.008668 -0.003062 0.000000 0.003498 0.000000
# 2 -0.008668 0.014051 -0.000603 0.000000 0.002898 0.000000
# 3 -0.003062 -0.000603 0.009467 0.000000 -0.002942 0.000000
# 4 0.000000 0.000000 0.000000 0.043455 0.000000 0.022129
# 5 0.003498 0.002898 -0.002942 0.000000 0.033360 0.000000
# 6 0.000000 0.000000 0.000000 0.022129 0.000000 0.053216
#
#
# Mechanical properties :
#
#
# Convention : Reuss Voigt Hill
#
# Bulk Modulus (GPa) = 55.52487 57.15059 56.33773
# Shear Modulus (GPa) = 24.58454 30.97520 27.77987
#
# Velocity S-wave (km/s) = 3.56236 3.99865 3.78679
# Velocity P-wave (km/s) = 6.75145 7.12879 6.94268
#
# Compressibility (1/GPa) = 0.01800995
#
# Stress axis : x y z
#
# Youngs Moduli (GPa) = 52.19174 71.17156 105.63059
#
# Poissons Ratio (x) = 0.61694 0.32345
# Poissons Ratio (y) = 0.45241 0.06374
# Poissons Ratio (z) = 0.15982 0.04295
#
# Static dielectric constant tensor:
#      x y z
#    x 1.659360 0.000000 -0.009880 
#    y 0.000000 1.645250 0.000000 
#    z -0.009880 0.000000 1.697370 
# 
# From -- ./inp_files/6318.got.cif
#   From: 2010.05.17/outbox.cif.g08.bks.cpg/sg8_4_cif.got.tgz:6318.got - 2010.06.03 19:46:02.
