data_PCOD9132019
_publ_section_title
;
Structure prediction by ZEFSAII (Michael W. Deem and Ramdas Pophale) SiO2 
 PCOD9132019
Probable space group: C M
;
_chemical_formula_sum "Si O2"
_cell_formula_units_Z 32
_cell_length_a 21.106402
_cell_length_b 8.805104
_cell_length_c 25.897043
_cell_angle_alpha 90.000000
_cell_angle_beta 22.465988
_cell_angle_gamma 90.000000
_cell_volume 1839.143477
_symmetry_space_group_name_H-M "C M"
_symmetry_group_IT_number 8
_symmetry_cell_setting 'monoclinic'
loop_
_space_group_symop_operation_xyz
x,y,z
x,-y,z
1/2+x,1/2+y,z
1/2+x,1/2-y,z
loop_
_atom_site_type_symbol
_atom_site_label
_atom_site_fract_x
_atom_site_fract_y
_atom_site_fract_z
Si Si1 0.066740 0.817898 0.985660
Si Si2 0.475147 0.318423 0.554939
Si Si3 0.468682 0.680788 0.243180
Si Si4 0.874008 0.182622 0.817398
Si Si5 0.820813 0.317698 0.249251
Si Si6 0.620537 0.317179 0.826821
Si Si7 0.824635 0.816631 0.974277
Si Si8 0.652651 0.682200 0.529022
O O1 0.225293 0.761018 0.898500
O O2 0.085292 0.768611 0.912300
O O3 0.059102 0.000000 0.993291
O O4 0.906342 0.748825 0.134346
O O5 0.455572 0.500000 0.568149
O O6 0.627930 0.276751 0.402541
O O7 0.300650 0.242404 0.675203
O O8 0.538909 0.278928 0.564750
O O9 0.468639 0.500000 0.238870
O O10 0.417027 0.753074 0.226842
O O11 0.326899 0.735486 0.389575
O O12 0.650040 0.741982 0.120208
O O13 0.865622 0.222205 0.883909
O O14 0.047211 0.221002 0.659059
O O15 0.852586 0.000000 0.828852
O O16 0.835226 0.500000 0.239326
O O17 0.624920 0.500000 0.822927
O O18 0.473707 0.268451 0.899348
O O19 0.807937 0.000000 0.989833
O O20 0.679940 0.500000 0.506850
#
# Coordination Sequence:
#
# PCOD9132019 Si02
#       8
#     4   4   4   4   4   4   4   4
#     4  11  21  33  53  84 114 139 180 233 278 315
#     4   9  18  33  54  79 106 139 181 223 269 322
#     4  11  21  33  53  83 111 141 180 228 280 319
#     4  10  19  34  58  81 104 141 189 228 266 322
#     4  10  20  35  55  80 109 144 183 224 271 330
#     4  10  22  37  54  80 114 148 180 221 275 327
#     4  10  21  38  57  78 110 151 186 218 267 333
#     4   9  18  33  54  81 108 139 181 227 274 326
#
# _framework density 17.399404000000001
#
# number of rings (size 3 to 8) (size 9 to 14) (size 15 to 20)
#    0.000    2.000    2.500    2.625    0.000    4.000 
#    0.000    1.250    0.000    6.000    0.000    0.000 
#    0.000    0.000    0.000    0.000    0.000    0.000 
#
# Total GULP energy -89308.945828 kJ/mol
# GULP energy per Si atom -5581.809114 kJ/mol
# Density = 1.735980 g / cm^3
# Si number density = 17.399404 Si / 1000 Ang^3
#
#
#
# Elastic Constant Matrix: (Units=GPa)
#
#
# Indices 1 2 3 4 5 6 
#
# 1 103.1071 37.6995 80.1863 -0.0017 -8.9787 -0.0002
# 2 37.6995 36.8513 51.3692 0.0031 -1.3862 0.0005
# 3 80.1863 51.3692 177.2608 -0.0012 -7.2518 0.0006
# 4 -0.0017 0.0031 -0.0012 32.5728 -0.0004 -2.1298
# 5 -8.9787 -1.3862 -7.2518 -0.0004 27.0080 0.0004
# 6 -0.0002 0.0005 0.0006 -2.1298 0.0004 18.1202
#
#
#
# Elastic Compliance Matrix: (Units=1/GPa)
#
#
# Indices 1 2 3 4 5 6 
#
# 1 0.017894 -0.011916 -0.004472 0.000002 0.004136 0.000001
# 2 -0.011916 0.053503 -0.010277 -0.000006 -0.003975 -0.000002
# 3 -0.004472 -0.010277 0.010677 0.000001 0.000853 0.000000
# 4 0.000002 -0.000006 0.000001 0.030938 0.000001 0.003636
# 5 0.004136 -0.003975 0.000853 0.000001 0.038426 -0.000001
# 6 0.000001 -0.000002 0.000000 0.003636 -0.000001 0.055614
#
#
# Mechanical properties :
#
#
# Convention : Reuss Voigt Hill
#
# Bulk Modulus (GPa) = 34.79039 72.85881 53.82460
# Shear Modulus (GPa) = 18.52100 25.40449 21.96274
#
# Velocity S-wave (km/s) = 3.26615 3.82524 3.55670
# Velocity P-wave (km/s) = 5.85339 7.84061 6.91872
#
# Compressibility (1/GPa) = 0.02874357
#
# Stress axis : x y z
#
# Youngs Moduli (GPa) = 55.88564 18.69067 93.65532
#
# Poissons Ratio (x) = 0.22272 0.41883
# Poissons Ratio (y) = 0.66594 0.96249
# Poissons Ratio (z) = 0.24992 0.19208
#
# Static dielectric constant tensor:
#      x y z
#    x 1.573090 0.000000 0.015710 
#    y 0.000000 1.583060 0.000000 
#    z 0.015710 0.000000 1.591970 
# 
# From -- ./inp_files/31341.got.cif
#   From: 2010.05.17/outbox.cif.g08.bks.cpg/sg8_16_cif.got.tgz:31341.got - 2010.06.03 19:46:02.
