data_PCOD9132383
_publ_section_title
;
Structure prediction by ZEFSAII (Michael W. Deem and Ramdas Pophale) SiO2 
 PCOD9132383
Probable space group: C M
;
_chemical_formula_sum "Si O2"
_cell_formula_units_Z 32
_cell_length_a 24.944755
_cell_length_b 9.325400
_cell_length_c 14.569538
_cell_angle_alpha 90.000000
_cell_angle_beta 149.772259
_cell_angle_gamma 90.000000
_cell_volume 1706.234754
_symmetry_space_group_name_H-M "C M"
_symmetry_group_IT_number 8
_symmetry_cell_setting 'monoclinic'
loop_
_space_group_symop_operation_xyz
x,y,z
x,-y,z
1/2+x,1/2+y,z
1/2+x,1/2-y,z
loop_
_atom_site_type_symbol
_atom_site_label
_atom_site_fract_x
_atom_site_fract_y
_atom_site_fract_z
Si Si1 0.113660 0.837082 0.825820
Si Si2 0.295122 0.670558 0.561489
Si Si3 0.252659 0.828488 0.867114
Si Si4 0.341052 0.163607 0.270314
Si Si5 0.936580 0.170410 0.248577
Si Si6 0.731001 0.167641 0.261225
Si Si7 0.679408 0.330458 0.554090
Si Si8 0.508716 0.830940 0.827682
O O1 0.147860 0.795975 0.773586
O O2 0.039315 0.732216 0.773213
O O3 0.071091 0.000000 0.764231
O O4 0.227518 0.838169 0.047750
O O5 0.306843 0.500000 0.590131
O O6 0.237584 0.697398 0.378698
O O7 0.229481 0.737920 0.547544
O O8 0.409634 0.745651 0.722069
O O9 0.233987 0.800344 0.732946
O O10 0.271425 0.000000 0.907453
O O11 0.349802 0.739657 0.052406
O O12 0.417912 0.255444 0.319388
O O13 0.313268 0.237259 0.325226
O O14 0.376898 0.000000 0.333362
O O15 0.054234 0.196012 0.384014
O O16 0.920073 0.000000 0.233045
O O17 0.757178 0.000000 0.285107
O O18 0.613264 0.190726 0.045792
O O19 0.693737 0.500000 0.555546
O O20 0.486551 0.000000 0.789791
#
# Coordination Sequence:
#
# PCOD9132383 Si02
#       8
#     4   4   4   4   4   4   4   4
#     4   8  15  30  53  82 112 141 175 215 265 325
#     4  11  24  40  57  79 108 144 187 231 274 324
#     4   9  19  37  59  81 110 148 183 220 271 327
#     4   9  17  31  55  86 115 143 178 221 270 325
#     4  10  20  35  57  85 115 145 179 224 275 324
#     4   9  20  38  58  81 111 146 181 221 273 329
#     4  10  23  41  57  77 108 146 188 230 272 322
#     4  10  20  36  58  83 111 143 179 222 272 324
#
# _framework density 18.754746999999998
#
# number of rings (size 3 to 8) (size 9 to 14) (size 15 to 20)
#    0.000    2.500    0.000    2.250    0.000    8.000 
#    0.000    6.250    0.000    0.000    0.000    0.000 
#    0.000    0.000    0.000    0.000    0.000    0.000 
#
# Total GULP energy -89344.984439 kJ/mol
# GULP energy per Si atom -5584.061527 kJ/mol
# Density = 1.871206 g / cm^3
# Si number density = 18.754747 Si / 1000 Ang^3
#
#
#
# Elastic Constant Matrix: (Units=GPa)
#
#
# Indices 1 2 3 4 5 6 
#
# 1 189.3958 124.7815 68.0703 0.0000 0.2226 0.0000
# 2 124.7815 124.9094 73.3869 0.0000 5.5428 0.0000
# 3 68.0703 73.3869 82.5848 0.0000 0.9349 0.0000
# 4 0.0000 0.0000 0.0000 19.9004 0.0000 4.8116
# 5 0.2226 5.5428 0.9349 0.0000 21.9851 0.0000
# 6 0.0000 0.0000 0.0000 4.8116 0.0000 42.5593
#
#
#
# Elastic Compliance Matrix: (Units=1/GPa)
#
#
# Indices 1 2 3 4 5 6 
#
# 1 0.015979 -0.017538 0.002367 0.000000 0.004159 0.000000
# 2 -0.017538 0.036288 -0.017698 0.000000 -0.008219 0.000000
# 3 0.002367 -0.017698 0.025847 0.000000 0.003339 0.000000
# 4 0.000000 0.000000 0.000000 0.051662 0.000000 -0.005841
# 5 0.004159 -0.008219 0.003339 0.000000 0.047373 0.000000
# 6 0.000000 0.000000 0.000000 -0.005841 0.000000 0.024157
#
#
# Mechanical properties :
#
#
# Convention : Reuss Voigt Hill
#
# Bulk Modulus (GPa) = 80.80064 103.26306 92.03185
# Shear Modulus (GPa) = 18.43852 25.59905 22.01879
#
# Velocity S-wave (km/s) = 3.13891 3.69851 3.43014
# Velocity P-wave (km/s) = 7.50422 8.56842 8.05392
#
# Compressibility (1/GPa) = 0.01237614
#
# Stress axis : x y z
#
# Youngs Moduli (GPa) = 62.58243 27.55706 38.68856
#
# Poissons Ratio (x) = 0.48329 -0.09156
# Poissons Ratio (y) = 1.09755 0.68472
# Poissons Ratio (z) = -0.14811 0.48772
#
# Static dielectric constant tensor:
#      x y z
#    x 1.621860 0.000000 -0.015280 
#    y 0.000000 1.631170 0.000000 
#    z -0.015280 0.000000 1.666820 
# 
# From -- ./inp_files/26525.got.cif
#   From: 2010.05.17/outbox.cif.g08.bks.cpg/sg8_14_cif.got.tgz:26525.got - 2010.06.03 19:46:02.
