data_PCOD9132514
_publ_section_title
;
Structure prediction by ZEFSAII (Michael W. Deem and Ramdas Pophale) SiO2 
 PCOD9132514
Probable space group: C M
;
_chemical_formula_sum "Si O2"
_cell_formula_units_Z 32
_cell_length_a 14.741101
_cell_length_b 8.755635
_cell_length_c 11.087120
_cell_angle_alpha 90.000000
_cell_angle_beta 101.035132
_cell_angle_gamma 90.000000
_cell_volume 1404.530089
_symmetry_space_group_name_H-M "C M"
_symmetry_group_IT_number 8
_symmetry_cell_setting 'monoclinic'
loop_
_space_group_symop_operation_xyz
x,y,z
x,-y,z
1/2+x,1/2+y,z
1/2+x,1/2-y,z
loop_
_atom_site_type_symbol
_atom_site_label
_atom_site_fract_x
_atom_site_fract_y
_atom_site_fract_z
Si Si1 0.082270 0.679590 0.761800
Si Si2 0.755544 0.177157 0.963723
Si Si3 0.654861 0.678594 0.163767
Si Si4 0.097279 0.822960 0.514201
Si Si5 0.318995 0.176841 0.574004
Si Si6 0.496222 0.178703 0.263903
Si Si7 0.410690 0.819225 0.858151
Si Si8 0.822704 0.177845 0.331493
O O1 0.063936 0.500000 0.732325
O O2 0.187167 0.694110 0.831877
O O3 0.062953 0.774595 0.637579
O O4 0.015884 0.724273 0.855853
O O5 0.855591 0.231844 0.946948
O O6 0.756202 0.000000 0.999973
O O7 0.707089 0.273328 0.055681
O O8 0.635502 0.500000 0.162798
O O9 0.561492 0.769277 0.170869
O O10 0.731259 0.723787 0.283271
O O11 0.208211 0.806854 0.550089
O O12 0.054949 0.717623 0.399614
O O13 0.075091 0.000000 0.481000
O O14 0.361209 0.207536 0.715891
O O15 0.354555 0.282574 0.475038
O O16 0.340737 0.000000 0.549223
O O17 0.401920 0.271969 0.258514
O O18 0.475618 0.000000 0.250851
O O19 0.405641 0.000000 0.883405
O O20 0.801458 0.000000 0.314391
#
# Coordination Sequence:
#
# PCOD9132514 Si02
#       8
#     4   4   4   4   4   4   4   4
#     4  10  22  39  63  92 127 167 210 257 315 377
#     4  11  24  42  63  91 124 162 212 267 317 373
#     4  12  26  46  68  91 124 168 217 268 319 376
#     4  11  21  36  63  97 131 166 210 259 314 377
#     4  10  20  36  62  94 132 170 208 256 314 377
#     4  12  25  43  67  95 130 170 212 261 317 380
#     4  10  21  40  63  90 124 167 209 254 313 378
#     4  12  25  42  67  98 130 166 210 262 321 384
#
# _framework density 22.78342
#
# number of rings (size 3 to 8) (size 9 to 14) (size 15 to 20)
#    0.000    1.000    2.500    4.875    0.000    4.000 
#    0.000    3.750    0.000    0.000    0.000    0.000 
#    0.000    0.000    0.000    0.000    0.000    0.000 
#
# Total GULP energy -89600.179116 kJ/mol
# GULP energy per Si atom -5600.011195 kJ/mol
# Density = 2.273156 g / cm^3
# Si number density = 22.783420 Si / 1000 Ang^3
#
#
#
# Elastic Constant Matrix: (Units=GPa)
#
#
# Indices 1 2 3 4 5 6 
#
# 1 82.9011 -2.6653 0.6249 0.0000 -24.3880 0.0000
# 2 -2.6653 60.4569 20.5464 0.0000 -14.5846 0.0000
# 3 0.6249 20.5464 63.5905 0.0000 -21.7186 0.0000
# 4 0.0000 0.0000 0.0000 31.4198 0.0000 -9.5969
# 5 -24.3880 -14.5846 -21.7186 0.0000 38.6574 0.0000
# 6 0.0000 0.0000 0.0000 -9.5969 0.0000 31.3117
#
#
#
# Elastic Compliance Matrix: (Units=1/GPa)
#
#
# Indices 1 2 3 4 5 6 
#
# 1 0.015943 0.002675 0.003414 0.000000 0.012985 0.000000
# 2 0.002675 0.019685 -0.004051 0.000000 0.006839 0.000000
# 3 0.003414 -0.004051 0.021302 0.000000 0.012593 0.000000
# 4 0.000000 0.000000 0.000000 0.035114 0.000000 0.010762
# 5 0.012985 0.006839 0.012593 0.000000 0.043716 0.000000
# 6 0.000000 0.000000 0.000000 0.010762 0.000000 0.035236
#
#
# Mechanical properties :
#
#
# Convention : Reuss Voigt Hill
#
# Bulk Modulus (GPa) = 16.39174 27.10671 21.74923
# Shear Modulus (GPa) = 26.70157 32.84062 29.77110
#
# Velocity S-wave (km/s) = 3.42712 3.80073 3.61875
# Velocity P-wave (km/s) = 4.78231 5.58428 5.19878
#
# Compressibility (1/GPa) = 0.06100633
#
# Stress axis : x y z
#
# Youngs Moduli (GPa) = 62.72398 50.79976 46.94369
#
# Poissons Ratio (x) = -0.13590 -0.16026
# Poissons Ratio (y) = -0.16780 0.19017
# Poissons Ratio (z) = -0.21414 0.20579
#
# Static dielectric constant tensor:
#      x y z
#    x 1.858630 0.000000 0.020980 
#    y 0.000000 1.770490 0.000000 
#    z 0.020980 0.000000 1.876330 
# 
# From -- ./inp_files/21559.got.cif
#   From: 2010.05.17/outbox.cif.g08.bks.cpg/sg8_11_cif.got.tgz:21559.got - 2010.06.03 19:46:02.
