data_PCOD9132296
_publ_section_title
;
Structure prediction by ZEFSAII (Michael W. Deem and Ramdas Pophale) SiO2 
 PCOD9132296
Probable space group: C M
;
_chemical_formula_sum "Si O2"
_cell_formula_units_Z 32
_cell_length_a 18.593689
_cell_length_b 13.429929
_cell_length_c 19.608564
_cell_angle_alpha 90.000000
_cell_angle_beta 21.955203
_cell_angle_gamma 90.000000
_cell_volume 1830.708130
_symmetry_space_group_name_H-M "C M"
_symmetry_group_IT_number 8
_symmetry_cell_setting 'monoclinic'
loop_
_space_group_symop_operation_xyz
x,y,z
x,-y,z
1/2+x,1/2+y,z
1/2+x,1/2-y,z
loop_
_atom_site_type_symbol
_atom_site_label
_atom_site_fract_x
_atom_site_fract_y
_atom_site_fract_z
Si Si1 0.868510 0.615669 0.062950
Si Si2 0.406985 0.119510 0.293681
Si Si3 0.891440 0.616953 0.813033
Si Si4 0.793018 0.117102 0.533712
Si Si5 0.138950 0.212811 0.147126
Si Si6 0.491843 0.385067 0.490574
Si Si7 0.598533 0.117739 0.984834
Si Si8 0.500889 0.707007 0.628087
O O1 0.903234 0.500000 0.008710
O O2 0.801014 0.685704 0.060711
O O3 0.686704 0.611545 0.274692
O O4 0.037563 0.654980 0.963466
O O5 0.571740 0.174185 0.192857
O O6 0.195873 0.166125 0.490914
O O7 0.404286 0.000000 0.303538
O O8 0.459986 0.145962 0.168667
O O9 0.862290 0.500000 0.825799
O O10 0.948578 0.681314 0.696645
O O11 0.077843 0.629485 0.697576
O O12 0.713303 0.663688 0.011440
O O13 0.946221 0.162771 0.346843
O O14 0.833092 0.150933 0.575736
O O15 0.836696 0.000000 0.497282
O O16 0.452134 0.500000 0.548293
O O17 0.514182 0.315719 0.536102
O O18 0.813852 0.145130 0.815173
O O19 0.579577 0.000000 0.994961
#
# Coordination Sequence:
#
# PCOD9132296 Si02
#       8
#     4   4   4   4   4   4   4   4
#     4   9  18  33  57  86 111 138 181 236 287 332
#     4  11  22  37  55  81 116 149 189 225 267 337
#     4  11  23  36  54  83 114 148 191 223 269 338
#     4   9  19  35  55  82 112 143 183 232 278 326
#     4  11  20  37  56  81 115 149 179 227 283 325
#     4   9  17  31  54  82 110 140 179 230 284 329
#     4  10  20  34  54  84 114 143 182 230 280 329
#     4  12  21  35  55  83 116 150 178 223 284 330
#
# _framework density 17.479575000000001
#
# number of rings (size 3 to 8) (size 9 to 14) (size 15 to 20)
#    0.000    1.750    3.750    3.000    1.750    0.000 
#    0.000    0.000    0.000    3.750    0.000    0.000 
#    0.000    0.000    0.000    0.000    0.000    0.000 
#
# Total GULP energy -89170.893074 kJ/mol
# GULP energy per Si atom -5573.180817 kJ/mol
# Density = 1.743979 g / cm^3
# Si number density = 17.479575 Si / 1000 Ang^3
#
#
#
# Elastic Constant Matrix: (Units=GPa)
#
#
# Indices 1 2 3 4 5 6 
#
# 1 77.8638 50.7038 17.6907 -0.0020 -0.0120 0.0005
# 2 50.7038 79.8299 33.1658 -0.0073 7.7835 0.0024
# 3 17.6907 33.1658 73.5907 -0.0078 5.4140 0.0023
# 4 -0.0020 -0.0073 -0.0078 21.4757 0.0009 2.3169
# 5 -0.0120 7.7835 5.4140 0.0009 26.7401 -0.0003
# 6 0.0005 0.0024 0.0023 2.3169 -0.0003 26.9713
#
#
#
# Elastic Compliance Matrix: (Units=1/GPa)
#
#
# Indices 1 2 3 4 5 6 
#
# 1 0.022438 -0.015122 0.001113 -0.000003 0.004186 0.000001
# 2 -0.015122 0.025866 -0.007580 0.000005 -0.006001 -0.000002
# 3 0.001113 -0.007580 0.016826 0.000004 -0.001200 -0.000001
# 4 -0.000003 0.000005 0.000004 0.047000 -0.000004 -0.004037
# 5 0.004186 -0.006001 -0.001200 -0.000004 0.039389 0.000001
# 6 0.000001 -0.000002 -0.000001 -0.004037 0.000001 0.037423
#
#
# Mechanical properties :
#
#
# Convention : Reuss Voigt Hill
#
# Bulk Modulus (GPa) = 45.55619 48.26722 46.91171
# Shear Modulus (GPa) = 20.88232 23.68569 22.28401
#
# Velocity S-wave (km/s) = 3.46015 3.68509 3.57439
# Velocity P-wave (km/s) = 6.48711 6.76609 6.62807
#
# Compressibility (1/GPa) = 0.02195091
#
# Stress axis : x y z
#
# Youngs Moduli (GPa) = 44.56723 38.66086 59.43306
#
# Poissons Ratio (x) = 0.58464 -0.06617
# Poissons Ratio (y) = 0.67395 0.45053
# Poissons Ratio (z) = -0.04962 0.29307
#
# Static dielectric constant tensor:
#      x y z
#    x 1.660730 0.000000 -0.013120 
#    y 0.000000 1.576650 0.000000 
#    z -0.013120 0.000000 1.648300 
# 
# From -- ./inp_files/31438.got.cif
#   From: 2010.05.17/outbox.cif.g08.bks.cpg/sg8_16_cif.got.tgz:31438.got - 2010.06.03 19:46:02.
