data_PCOD9132996
_publ_section_title
;
Structure prediction by ZEFSAII (Michael W. Deem and Ramdas Pophale) SiO2 
 PCOD9132996
Probable space group: C M
;
_chemical_formula_sum "Si O2"
_cell_formula_units_Z 32
_cell_length_a 22.378407
_cell_length_b 13.857759
_cell_length_c 7.699213
_cell_angle_alpha 90.000000
_cell_angle_beta 143.964431
_cell_angle_gamma 90.000000
_cell_volume 1404.617369
_symmetry_space_group_name_H-M "C M"
_symmetry_group_IT_number 8
_symmetry_cell_setting 'monoclinic'
loop_
_space_group_symop_operation_xyz
x,y,z
x,-y,z
1/2+x,1/2+y,z
1/2+x,1/2-y,z
loop_
_atom_site_type_symbol
_atom_site_label
_atom_site_fract_x
_atom_site_fract_y
_atom_site_fract_z
Si Si1 0.797840 0.610888 0.478310
Si Si2 0.556723 0.608729 0.424377
Si Si3 0.578898 0.606821 0.076460
Si Si4 0.617525 0.890732 0.413589
Si Si5 0.722740 0.729205 0.999120
Si Si6 0.990813 0.295902 0.826198
Si Si7 0.073864 0.610967 0.708955
Si Si8 0.340494 0.612038 0.096019
O O1 0.831588 0.500000 0.571757
O O2 0.700037 0.624724 0.369640
O O3 0.752528 0.638953 0.185012
O O4 0.891275 0.683974 0.707717
O O5 0.590368 0.500000 0.551432
O O6 0.538824 0.608711 0.177187
O O7 0.448607 0.626348 0.260272
O O8 0.643926 0.685107 0.675749
O O9 0.566535 0.500000 0.970519
O O10 0.516088 0.687426 0.829325
O O11 0.561509 0.877521 0.470646
O O12 0.594144 0.000000 0.303439
O O13 0.738084 0.884936 0.735674
O O14 0.580265 0.824349 0.170665
O O15 0.816610 0.793290 0.154779
O O16 0.660204 0.810978 0.956742
O O17 0.988972 0.363579 0.651228
O O18 0.104946 0.500000 0.805395
O O19 0.339339 0.500000 0.164532
#
# Coordination Sequence:
#
# PCOD9132996 Si02
#       8
#     4   4   4   4   4   4   4   4
#     4  11  25  43  62  92 132 172 218 266 320 392
#     4  10  22  42  68  95 127 171 215 267 329 392
#     4  10  23  44  64  90 130 169 218 274 324 389
#     4   9  19  38  65  98 133 167 210 274 332 381
#     4  11  21  39  65  93 130 169 212 267 328 382
#     4  12  23  42  67  93 132 178 217 269 332 383
#     4  10  21  39  63  96 129 165 218 270 322 389
#     4   9  20  39  66  97 127 163 216 269 325 392
#
# _framework density 22.782005000000002
#
# number of rings (size 3 to 8) (size 9 to 14) (size 15 to 20)
#    0.000    1.750    1.250    4.125    1.750    2.000 
#    2.250    1.250    0.000    0.000    0.000    0.000 
#    0.000    0.000    0.000    0.000    0.000    0.000 
#
# Total GULP energy -89244.578447 kJ/mol
# GULP energy per Si atom -5577.786153 kJ/mol
# Density = 2.273015 g / cm^3
# Si number density = 22.782005 Si / 1000 Ang^3
#
#
#
# Elastic Constant Matrix: (Units=GPa)
#
#
# Indices 1 2 3 4 5 6 
#
# 1 101.0350 37.5653 11.9855 0.0000 16.8726 0.0000
# 2 37.5653 116.7875 16.4219 0.0000 17.3539 0.0000
# 3 11.9855 16.4219 41.9701 0.0000 -1.0348 0.0000
# 4 0.0000 0.0000 0.0000 23.2318 0.0000 5.5064
# 5 16.8726 17.3539 -1.0348 0.0000 25.2202 0.0000
# 6 0.0000 0.0000 0.0000 5.5064 0.0000 30.8470
#
#
#
# Elastic Compliance Matrix: (Units=1/GPa)
#
#
# Indices 1 2 3 4 5 6 
#
# 1 0.012270 -0.002605 -0.002645 0.000000 -0.006524 0.000000
# 2 -0.002605 0.010773 -0.003615 0.000000 -0.005819 0.000000
# 3 -0.002645 -0.003615 0.026128 0.000000 0.005329 0.000000
# 4 0.000000 0.000000 0.000000 0.044946 0.000000 -0.008023
# 5 -0.006524 -0.005819 0.005329 0.000000 0.048238 0.000000
# 6 0.000000 0.000000 0.000000 -0.008023 0.000000 0.033850
#
#
# Mechanical properties :
#
#
# Convention : Reuss Voigt Hill
#
# Bulk Modulus (GPa) = 31.80669 43.52646 37.66658
# Shear Modulus (GPa) = 24.45995 28.78115 26.62055
#
# Velocity S-wave (km/s) = 3.28022 3.55819 3.42203
# Velocity P-wave (km/s) = 5.32335 6.00234 5.67301
#
# Compressibility (1/GPa) = 0.03143992
#
# Stress axis : x y z
#
# Youngs Moduli (GPa) = 81.50275 92.82108 38.27350
#
# Poissons Ratio (x) = 0.24181 0.10125
# Poissons Ratio (y) = 0.21232 0.13836
# Poissons Ratio (z) = 0.21561 0.33554
#
# Static dielectric constant tensor:
#      x y z
#    x 1.868310 0.000000 0.013800 
#    y 0.000000 1.929270 0.000000 
#    z 0.013800 0.000000 1.865750 
# 
# From -- ./inp_files/17127.got.cif
#   From: 2010.05.17/outbox.cif.g08.bks.cpg/sg8_9_cif.got.tgz:17127.got - 2010.06.03 19:46:02.
