data_PCOD9132801
_publ_section_title
;
Structure prediction by ZEFSAII (Michael W. Deem and Ramdas Pophale) SiO2 
 PCOD9132801
Probable space group: C M
;
_chemical_formula_sum "Si O2"
_cell_formula_units_Z 20
_cell_length_a 15.400654
_cell_length_b 10.511431
_cell_length_c 5.481229
_cell_angle_alpha 90.000000
_cell_angle_beta 69.871477
_cell_angle_gamma 90.000000
_cell_volume 833.122681
_symmetry_space_group_name_H-M "C M"
_symmetry_group_IT_number 8
_symmetry_cell_setting 'monoclinic'
loop_
_space_group_symop_operation_xyz
x,y,z
x,-y,z
1/2+x,1/2+y,z
1/2+x,1/2-y,z
loop_
_atom_site_type_symbol
_atom_site_label
_atom_site_fract_x
_atom_site_fract_y
_atom_site_fract_z
Si Si1 0.552090 0.852680 0.780700
Si Si2 0.385953 0.715728 0.443577
Si Si3 0.341326 0.000000 0.450635
Si Si4 0.388478 0.355986 0.940785
Si Si5 0.730195 0.500000 0.059037
Si Si6 0.096684 0.762689 0.237592
O O1 0.465225 0.755324 0.865756
O O2 0.604500 0.815034 0.481624
O O3 0.524444 0.000000 0.800046
O O4 0.601651 0.821515 0.988194
O O5 0.394293 0.868132 0.431774
O O6 0.337790 0.667562 0.734942
O O7 0.493329 0.672551 0.339620
O O8 0.338181 0.666458 0.245035
O O9 0.301756 0.000000 0.214946
O O10 0.269852 0.000000 0.746140
O O11 0.425465 0.500000 0.903957
O O12 0.669555 0.374750 0.152433
#
# Coordination Sequence:
#
# PCOD9132801 Si02
#       6
#     4   4   2   4   2   4
#     4  10  21  34  61  97 138 171 224 289 344 391
#     4  10  23  38  68  98 138 173 243 281 341 398
#     4  12  26  46  72 104 146 188 234 286 356 426
#     4  10  21  34  61  97 138 171 224 289 344 391
#     4  12  26  46  72 104 146 188 234 286 356 426
#     4  10  23  38  68  98 138 173 243 281 341 398
#
# _framework density 24.006066000000001
#
# number of rings (size 3 to 8) (size 9 to 14) (size 15 to 20)
#    0.000    1.600    0.000    3.600   22.400    0.000 
#    0.000    0.000    0.000   24.000    0.000    0.000 
#    0.000    0.000    0.000    0.000    0.000    0.000 
#
# Total GULP energy -55921.630237 kJ/mol
# GULP energy per Si atom -5592.163024 kJ/mol
# Density = 2.395143 g / cm^3
# Si number density = 24.006066 Si / 1000 Ang^3
#
#
#
# Elastic Constant Matrix: (Units=GPa)
#
#
# Indices 1 2 3 4 5 6 
#
# 1 41.2775 20.3124 23.1197 0.0000 -7.9624 0.0000
# 2 20.3124 196.6361 58.2058 0.0000 5.3749 0.0000
# 3 23.1197 58.2058 229.4353 0.0000 44.6715 0.0000
# 4 0.0000 0.0000 0.0000 31.6318 0.0000 11.0731
# 5 -7.9624 5.3749 44.6715 0.0000 21.7943 0.0000
# 6 0.0000 0.0000 0.0000 11.0731 0.0000 16.1601
#
#
#
# Elastic Compliance Matrix: (Units=1/GPa)
#
#
# Indices 1 2 3 4 5 6 
#
# 1 0.037515 -0.001838 -0.010103 0.000000 0.034866 0.000000
# 2 -0.001838 0.005672 -0.001415 0.000000 0.000831 0.000000
# 3 -0.010103 -0.001415 0.010628 0.000000 -0.025125 0.000000
# 4 0.000000 0.000000 0.000000 0.041590 0.000000 -0.028498
# 5 0.034866 0.000831 -0.025125 0.000000 0.109915 0.000000
# 6 0.000000 0.000000 0.000000 -0.028498 0.000000 0.081408
#
#
# Mechanical properties :
#
#
# Convention : Reuss Voigt Hill
#
# Bulk Modulus (GPa) = 36.89736 74.51385 55.70561
# Shear Modulus (GPa) = 15.50519 38.29799 26.90159
#
# Velocity S-wave (km/s) = 2.54419 3.99851 3.35119
# Velocity P-wave (km/s) = 4.90244 7.24047 6.18297
#
# Compressibility (1/GPa) = 0.02710221
#
# Stress axis : x y z
#
# Youngs Moduli (GPa) = 26.65610 176.31530 94.09530
#
# Poissons Ratio (x) = 0.32404 0.95061
# Poissons Ratio (y) = 0.04899 0.13319
# Poissons Ratio (z) = 0.26930 0.24957
#
# Static dielectric constant tensor:
#      x y z
#    x 1.904340 0.000000 0.034210 
#    y 0.000000 1.849580 0.000000 
#    z 0.034210 0.000000 2.059370 
# 
# From -- ./inp_files/4503.got.cif
#   From: 2010.05.17/outbox.cif.g08.bks.cpg/sg8_3_cif.got.tgz:4503.got - 2010.06.03 19:46:02.
