data_PCOD9132704
_publ_section_title
;
Structure prediction by ZEFSAII (Michael W. Deem and Ramdas Pophale) SiO2 
 PCOD9132704
Probable space group: C M
;
_chemical_formula_sum "Si O2"
_cell_formula_units_Z 32
_cell_length_a 24.848277
_cell_length_b 8.021026
_cell_length_c 20.386453
_cell_angle_alpha 90.000000
_cell_angle_beta 157.169008
_cell_angle_gamma 90.000000
_cell_volume 1576.578022
_symmetry_space_group_name_H-M "C M"
_symmetry_group_IT_number 8
_symmetry_cell_setting 'monoclinic'
loop_
_space_group_symop_operation_xyz
x,y,z
x,-y,z
1/2+x,1/2+y,z
1/2+x,1/2-y,z
loop_
_atom_site_type_symbol
_atom_site_label
_atom_site_fract_x
_atom_site_fract_y
_atom_site_fract_z
Si Si1 0.244370 0.300270 0.354100
Si Si2 0.802884 0.198572 0.033257
Si Si3 0.770303 0.194963 0.234681
Si Si4 0.470682 0.806642 0.348567
Si Si5 0.957226 0.694880 0.831406
Si Si6 0.933251 0.201953 0.042878
Si Si7 0.497571 0.200505 0.730368
Si Si8 0.261291 0.694566 0.724391
O O1 0.245367 0.500000 0.353231
O O2 0.267731 0.239730 0.305871
O O3 0.371720 0.239706 0.540956
O O4 0.093443 0.248304 0.211036
O O5 0.647689 0.264499 0.874466
O O6 0.788456 0.000000 0.008294
O O7 0.900517 0.226946 0.205851
O O8 0.871911 0.262704 0.043510
O O9 0.866489 0.291333 0.292372
O O10 0.814291 0.000000 0.284102
O O11 0.614344 0.199731 0.032927
O O12 0.615498 0.730904 0.536745
O O13 0.493919 0.000000 0.357652
O O14 0.912494 0.500000 0.780861
O O15 0.863491 0.790290 0.777749
O O16 0.958516 0.762584 0.759067
O O17 0.928541 0.000000 0.037272
O O18 0.838855 0.264287 0.875855
O O19 0.511458 0.000000 0.752264
O O20 0.234016 0.500000 0.708850
#
# Coordination Sequence:
#
# PCOD9132704 Si02
#       8
#     4   4   4   4   4   4   4   4
#     4  11  24  40  61  90 123 155 194 249 301 347
#     4  10  22  42  64  85 119 162 200 242 290 354
#     4  10  21  41  63  86 117 155 199 245 296 354
#     4  11  24  39  61  92 122 154 195 248 301 348
#     4  10  20  39  64  86 113 154 202 246 292 350
#     4  10  22  41  63  86 118 162 203 238 291 356
#     4  10  22  40  63  88 116 156 203 244 290 355
#     4  10  23  40  59  89 122 154 196 246 297 348
#
# _framework density 20.297125000000001
#
# number of rings (size 3 to 8) (size 9 to 14) (size 15 to 20)
#    0.000    1.750    2.500    0.750    3.500    4.000 
#    0.000    0.000    0.000    0.000    0.000    0.000 
#    0.000    0.000    0.000    0.000    0.000    0.000 
#
# Total GULP energy -89345.235025 kJ/mol
# GULP energy per Si atom -5584.077189 kJ/mol
# Density = 2.025093 g / cm^3
# Si number density = 20.297125 Si / 1000 Ang^3
#
#
#
# Elastic Constant Matrix: (Units=GPa)
#
#
# Indices 1 2 3 4 5 6 
#
# 1 161.7845 -5.1579 70.6707 0.0000 -16.9173 0.0000
# 2 -5.1579 10.7620 -5.4855 0.0000 1.8253 0.0000
# 3 70.6707 -5.4855 135.4058 0.0000 -7.2690 0.0000
# 4 0.0000 0.0000 0.0000 26.9024 0.0000 -6.6844
# 5 -16.9173 1.8253 -7.2690 0.0000 35.9028 0.0000
# 6 0.0000 0.0000 0.0000 -6.6844 0.0000 32.6099
#
#
#
# Elastic Compliance Matrix: (Units=1/GPa)
#
#
# Indices 1 2 3 4 5 6 
#
# 1 0.008350 0.001378 -0.004140 0.000000 0.003026 0.000000
# 2 0.001378 0.095704 0.002964 0.000000 -0.003616 0.000000
# 3 -0.004140 0.002964 0.009658 0.000000 -0.000146 0.000000
# 4 0.000000 0.000000 0.000000 0.039166 0.000000 0.008028
# 5 0.003026 -0.003616 -0.000146 0.000000 0.029433 0.000000
# 6 0.000000 0.000000 0.000000 0.008028 0.000000 0.032311
#
#
# Mechanical properties :
#
#
# Convention : Reuss Voigt Hill
#
# Bulk Modulus (GPa) = 8.76297 47.55632 28.15964
# Shear Modulus (GPa) = 19.82113 35.61136 27.71625
#
# Velocity S-wave (km/s) = 3.12837 4.19322 3.69931
# Velocity P-wave (km/s) = 4.16841 6.85019 5.67013
#
# Compressibility (1/GPa) = 0.11411661
#
# Stress axis : x y z
#
# Youngs Moduli (GPa) = 119.76503 10.44889 103.54169
#
# Poissons Ratio (x) = -0.01440 0.42862
# Poissons Ratio (y) = -0.16509 -0.30685
# Poissons Ratio (z) = 0.49577 -0.03097
#
# Static dielectric constant tensor:
#      x y z
#    x 1.672920 0.000000 -0.005930 
#    y 0.000000 1.750130 0.000000 
#    z -0.005930 0.000000 1.702610 
# 
# From -- ./inp_files/15813.got.cif
#   From: 2010.05.17/outbox.cif.g08.bks.cpg/sg8_8_cif.got.tgz:15813.got - 2010.06.03 19:46:02.
