data_PCOD9132446
_publ_section_title
;
Structure prediction by ZEFSAII (Michael W. Deem and Ramdas Pophale) SiO2 
 PCOD9132446
Probable space group: C M
;
_chemical_formula_sum "Si O2"
_cell_formula_units_Z 24
_cell_length_a 18.067694
_cell_length_b 16.241173
_cell_length_c 12.505252
_cell_angle_alpha 90.000000
_cell_angle_beta 160.430757
_cell_angle_gamma 90.000000
_cell_volume 1229.099728
_symmetry_space_group_name_H-M "C M"
_symmetry_group_IT_number 8
_symmetry_cell_setting 'monoclinic'
loop_
_space_group_symop_operation_xyz
x,y,z
x,-y,z
1/2+x,1/2+y,z
1/2+x,1/2-y,z
loop_
_atom_site_type_symbol
_atom_site_label
_atom_site_fract_x
_atom_site_fract_y
_atom_site_fract_z
Si Si1 0.911920 0.742444 0.980390
Si Si2 0.908745 0.736223 0.229622
Si Si3 0.860550 0.408476 0.767940
Si Si4 0.194319 0.905423 0.318789
Si Si5 0.907211 0.591038 0.374615
Si Si6 0.326594 0.590480 0.080001
O O1 0.655330 0.754543 0.607960
O O2 0.970981 0.663736 0.986780
O O3 0.929352 0.723994 0.130281
O O4 0.039774 0.825935 0.124370
O O5 0.820633 0.659055 0.175330
O O6 0.785694 0.822761 0.082236
O O7 0.936240 0.500000 0.902246
O O8 0.874517 0.398693 0.659235
O O9 0.590707 0.407151 0.416910
O O10 0.295879 0.900675 0.339219
O O11 0.101367 0.000000 0.203428
O O12 0.862915 0.500000 0.271464
O O13 0.168979 0.594905 0.761150
O O14 0.280060 0.500000 0.065249
#
# Coordination Sequence:
#
# PCOD9132446 Si02
#       6
#     4   4   4   4   4   4
#     4  11  20  35  57  85 111 144 187 229 274 325
#     4  11  20  35  56  85 114 143 187 228 276 328
#     4   9  18  34  57  82 109 143 186 230 274 325
#     4  10  20  36  57  80 112 151 186 223 272 336
#     4  10  21  35  55  83 114 148 184 225 277 331
#     4   9  17  33  56  79 106 143 184 223 267 327
#
# _framework density 19.526489000000002
#
# number of rings (size 3 to 8) (size 9 to 14) (size 15 to 20)
#    0.000    2.000    5.000    0.000    0.000    2.667 
#    0.000    0.000    0.000    0.000    0.000    0.000 
#    0.000    0.000    0.000    0.000    0.000    0.000 
#
# Total GULP energy -66808.797837 kJ/mol
# GULP energy per Si atom -5567.399820 kJ/mol
# Density = 1.948205 g / cm^3
# Si number density = 19.526489 Si / 1000 Ang^3
#
#
#
# Elastic Constant Matrix: (Units=GPa)
#
#
# Indices 1 2 3 4 5 6 
#
# 1 97.9731 85.2292 38.9762 0.0000 -26.3512 0.0000
# 2 85.2292 246.0614 41.5003 0.0000 -24.7408 0.0000
# 3 38.9762 41.5003 57.6902 0.0000 -28.7042 0.0000
# 4 0.0000 0.0000 0.0000 33.4103 0.0000 -9.7158
# 5 -26.3512 -24.7408 -28.7042 0.0000 29.8750 0.0000
# 6 0.0000 0.0000 0.0000 -9.7158 0.0000 39.7412
#
#
#
# Elastic Compliance Matrix: (Units=1/GPa)
#
#
# Indices 1 2 3 4 5 6 
#
# 1 0.018421 -0.004741 -0.005564 0.000000 0.006976 0.000000
# 2 -0.004741 0.005868 -0.001305 0.000000 -0.000575 0.000000
# 3 -0.005564 -0.001305 0.036503 0.000000 0.029084 0.000000
# 4 0.000000 0.000000 0.000000 0.032222 0.000000 0.007877
# 5 0.006976 -0.000575 0.029084 0.000000 0.067093 0.000000
# 6 0.000000 0.000000 0.000000 0.007877 0.000000 0.027089
#
#
# Mechanical properties :
#
#
# Convention : Reuss Voigt Hill
#
# Bulk Modulus (GPa) = 26.61527 81.45957 54.03742
# Shear Modulus (GPa) = 22.42771 36.33990 29.38380
#
# Velocity S-wave (km/s) = 3.39275 4.31868 3.88341
# Velocity P-wave (km/s) = 5.38587 8.16554 6.91677
#
# Compressibility (1/GPa) = 0.03757242
#
# Stress axis : x y z
#
# Youngs Moduli (GPa) = 54.28691 170.40804 27.39530
#
# Poissons Ratio (x) = 0.80783 0.15243
# Poissons Ratio (y) = 0.25735 0.03575
# Poissons Ratio (z) = 0.30205 0.22237
#
# Static dielectric constant tensor:
#      x y z
#    x 1.712240 0.000000 0.031620 
#    y 0.000000 1.764170 0.000000 
#    z 0.031620 0.000000 1.663170 
# 
# From -- ./inp_files/7876.got.cif
#   From: 2010.05.17/outbox.cif.g08.bks.cpg/sg8_4_cif.got.tgz:7876.got - 2010.06.03 19:46:02.
