data_PCOD9132249
_publ_section_title
;
Structure prediction by ZEFSAII (Michael W. Deem and Ramdas Pophale) SiO2 
 PCOD9132249
Probable space group: C M
;
_chemical_formula_sum "Si O2"
_cell_formula_units_Z 26
_cell_length_a 5.499526
_cell_length_b 28.668374
_cell_length_c 6.808726
_cell_angle_alpha 90.000000
_cell_angle_beta 102.331011
_cell_angle_gamma 90.000000
_cell_volume 1048.715490
_symmetry_space_group_name_H-M "C M"
_symmetry_group_IT_number 8
_symmetry_cell_setting 'monoclinic'
loop_
_space_group_symop_operation_xyz
x,y,z
x,-y,z
1/2+x,1/2+y,z
1/2+x,1/2-y,z
loop_
_atom_site_type_symbol
_atom_site_label
_atom_site_fract_x
_atom_site_fract_y
_atom_site_fract_z
Si Si1 0.620700 0.905677 0.304850
Si Si2 0.870590 0.500000 0.111302
Si Si3 0.630645 0.368728 0.342696
Si Si4 0.677315 0.225722 0.715556
Si Si5 0.565466 0.589706 0.902547
Si Si6 0.055037 0.375491 0.853731
Si Si7 0.574260 0.261202 0.275726
O O1 0.412575 0.886746 0.417854
O O2 0.907196 0.897060 0.406846
O O3 0.549794 0.958442 0.236047
O O4 0.585608 0.876618 0.096561
O O5 0.685944 0.540713 0.986188
O O6 0.601564 0.313698 0.359514
O O7 0.584172 0.379079 0.102785
O O8 0.463951 0.258694 0.771387
O O9 0.629623 0.174461 0.786660
O O10 0.618458 0.227838 0.470986
O O11 0.268802 0.588564 0.813856
O O12 0.762561 0.611939 0.784477
O O13 0.293861 0.251053 0.164644
#
# Coordination Sequence:
#
# PCOD9132249 Si02
#       7
#     4   2   4   4   4   4   4
#     4   9  18  29  48  70 103 125 153 194 242 296
#     4   8  16  30  48  74 100 134 156 182 240 302
#     4   9  17  31  44  68  98 128 156 198 245 276
#     4  10  20  33  49  66  91 126 173 209 235 280
#     4   9  18  29  48  70 103 125 153 194 242 296
#     4   9  17  31  44  68  98 128 156 198 245 276
#     4  10  20  33  49  66  91 126 173 209 235 280
#
# _framework density 24.792234000000001
#
# number of rings (size 3 to 8) (size 9 to 14) (size 15 to 20)
#    0.000    3.077    0.000    1.846    0.000    9.846 
#    0.000   18.462    0.000    0.000    0.000    0.000 
#    0.000  521.846    0.000    0.000    0.000    0.000 
#
# Total GULP energy -72390.587077 kJ/mol
# GULP energy per Si atom -5568.506698 kJ/mol
# Density = 2.473581 g / cm^3
# Si number density = 24.792234 Si / 1000 Ang^3
#
#
#
# Elastic Constant Matrix: (Units=GPa)
#
#
# Indices 1 2 3 4 5 6 
#
# 1 247.7619 13.9906 19.1880 0.0000 -7.2889 0.0000
# 2 13.9906 99.9292 -9.6211 0.0000 6.9989 0.0000
# 3 19.1880 -9.6211 70.6455 0.0000 -9.4029 0.0000
# 4 0.0000 0.0000 0.0000 40.0089 0.0000 18.1021
# 5 -7.2889 6.9989 -9.4029 0.0000 50.4580 0.0000
# 6 0.0000 0.0000 0.0000 18.1021 0.0000 4.5587
#
#
#
# Elastic Compliance Matrix: (Units=1/GPa)
#
#
# Indices 1 2 3 4 5 6 
#
# 1 0.004183 -0.000732 -0.001171 0.000000 0.000488 0.000000
# 2 -0.000732 0.010337 0.001437 0.000000 -0.001272 0.000000
# 3 -0.001171 0.001437 0.014992 0.000000 0.002425 0.000000
# 4 0.000000 0.000000 0.000000 -0.031375 0.000000 0.124587
# 5 0.000488 -0.001272 0.002425 0.000000 0.020517 0.000000
# 6 0.000000 0.000000 0.000000 0.124587 0.000000 -0.275360
#
#
# Mechanical properties :
#
#
# Convention : Reuss Voigt Hill
#
# Bulk Modulus (GPa) = 34.98990 51.71684 43.35337
# Shear Modulus (GPa) = -20.30468 45.32374 12.50953
#
# Velocity S-wave (km/s) = -2.86491 4.28032 2.24871
# Velocity P-wave (km/s) = 1.78893 6.73302 4.92614
#
# Compressibility (1/GPa) = 0.02857967
#
# Stress axis : x y z
#
# Youngs Moduli (GPa) = 239.09052 96.73892 66.70331
#
# Poissons Ratio (x) = 0.07086 0.07810
# Poissons Ratio (y) = 0.17512 -0.09588
# Poissons Ratio (z) = 0.27994 -0.13906
#
# Static dielectric constant tensor:
#      x y z
#    x 2.133770 0.000000 0.053790 
#    y 0.000000 1.800900 0.000000 
#    z 0.053790 0.000000 2.068830 
# 
# From -- ./inp_files/6974.got.cif
#   From: 2010.05.17/outbox.cif.g08.bks.cpg/sg8_4_cif.got.tgz:6974.got - 2010.06.03 19:46:02.
