data_PCOD9132874
_publ_section_title
;
Structure prediction by ZEFSAII (Michael W. Deem and Ramdas Pophale) SiO2 
 PCOD9132874
Probable space group: C M
;
_chemical_formula_sum "Si O2"
_cell_formula_units_Z 28
_cell_length_a 14.425378
_cell_length_b 9.317866
_cell_length_c 9.572661
_cell_angle_alpha 90.000000
_cell_angle_beta 70.813268
_cell_angle_gamma 90.000000
_cell_volume 1215.224350
_symmetry_space_group_name_H-M "C M"
_symmetry_group_IT_number 8
_symmetry_cell_setting 'monoclinic'
loop_
_space_group_symop_operation_xyz
x,y,z
x,-y,z
1/2+x,1/2+y,z
1/2+x,1/2-y,z
loop_
_atom_site_type_symbol
_atom_site_label
_atom_site_fract_x
_atom_site_fract_y
_atom_site_fract_z
Si Si1 0.480220 0.158364 0.206660
Si Si2 0.865928 0.668358 0.827155
Si Si3 0.160375 0.171557 0.015995
Si Si4 0.630378 0.661220 0.476180
Si Si5 0.592341 0.169409 0.775846
Si Si6 0.801744 0.839818 0.289403
Si Si7 0.412973 0.279000 0.503517
O O1 0.397494 0.260657 0.180485
O O2 0.446098 0.149262 0.385180
O O3 0.484348 0.000000 0.142486
O O4 0.583171 0.238504 0.143935
O O5 0.850591 0.500000 0.803807
O O6 0.775206 0.710463 0.970252
O O7 0.867693 0.746545 0.675971
O O8 0.974023 0.682552 0.836589
O O9 0.134760 0.226836 0.872846
O O10 0.146660 0.000000 0.041923
O O11 0.664220 0.500000 0.495164
O O12 0.624079 0.766607 0.611561
O O13 0.709122 0.734542 0.335175
O O14 0.519047 0.650281 0.476182
O O15 0.617804 0.000000 0.778321
O O16 0.836863 0.851946 0.435597
O O17 0.782953 0.000000 0.245280
#
# Coordination Sequence:
#
# PCOD9132874 Si02
#       7
#     4   4   4   4   4   4   4
#     4  10  22  40  62  86 119 160 200 245 300 357
#     4   9  19  37  61  88 114 152 197 241 294 348
#     4  11  22  39  62  86 119 158 198 247 300 356
#     4  11  21  36  60  91 122 156 197 245 303 355
#     4  10  21  38  59  86 119 155 200 249 294 350
#     4  10  21  37  57  86 118 153 196 243 294 348
#     4   9  21  37  63  87 121 152 198 246 295 348
#
# _framework density 23.041015000000002
#
# number of rings (size 3 to 8) (size 9 to 14) (size 15 to 20)
#    0.857    1.143    0.000    3.857    0.000    2.857 
#    2.571    7.857    0.000    0.000    0.000    0.000 
#    0.000    0.000    0.000    0.000    0.000    0.000 
#
# Total GULP energy -78094.278738 kJ/mol
# GULP energy per Si atom -5578.162767 kJ/mol
# Density = 2.298857 g / cm^3
# Si number density = 23.041015 Si / 1000 Ang^3
#
#
#
# Elastic Constant Matrix: (Units=GPa)
#
#
# Indices 1 2 3 4 5 6 
#
# 1 81.2698 25.4655 22.1732 0.0000 -23.7409 0.0000
# 2 25.4655 131.5262 25.0350 0.0000 -35.9255 0.0000
# 3 22.1732 25.0350 84.9934 0.0000 -35.1827 0.0000
# 4 0.0000 0.0000 0.0000 17.4510 0.0000 1.0271
# 5 -23.7409 -35.9255 -35.1827 0.0000 49.8141 0.0000
# 6 0.0000 0.0000 0.0000 1.0271 0.0000 12.0596
#
#
#
# Elastic Compliance Matrix: (Units=1/GPa)
#
#
# Indices 1 2 3 4 5 6 
#
# 1 0.014534 -0.001152 -0.001313 0.000000 0.005168 0.000000
# 2 -0.001152 0.009560 0.000157 0.000000 0.006456 0.000000
# 3 -0.001313 0.000157 0.016745 0.000000 0.011315 0.000000
# 4 0.000000 0.000000 0.000000 0.057592 0.000000 -0.004905
# 5 0.005168 0.006456 0.011315 0.000000 0.035186 0.000000
# 6 0.000000 0.000000 0.000000 -0.004905 0.000000 0.083339
#
#
# Mechanical properties :
#
#
# Convention : Reuss Voigt Hill
#
# Bulk Modulus (GPa) = 27.60638 49.23742 38.42190
# Shear Modulus (GPa) = 21.39995 30.87266 26.13630
#
# Velocity S-wave (km/s) = 3.05089 3.66444 3.37165
# Velocity P-wave (km/s) = 4.94146 6.27056 5.64526
#
# Compressibility (1/GPa) = 0.03622352
#
# Stress axis : x y z
#
# Youngs Moduli (GPa) = 68.80540 104.60560 59.71764
#
# Poissons Ratio (x) = 0.12054 0.07839
# Poissons Ratio (y) = 0.07929 -0.00940
# Poissons Ratio (z) = 0.09032 -0.01646
#
# Static dielectric constant tensor:
#      x y z
#    x 1.884250 0.000000 0.025470 
#    y 0.000000 1.809600 0.000000 
#    z 0.025470 0.000000 1.900700 
# 
# From -- ./inp_files/21469.got.cif
#   From: 2010.05.17/outbox.cif.g08.bks.cpg/sg8_11_cif.got.tgz:21469.got - 2010.06.03 19:46:02.
