data_PCOD9132776
_publ_section_title
;
Structure prediction by ZEFSAII (Michael W. Deem and Ramdas Pophale) SiO2 
 PCOD9132776
Probable space group: C M
;
_chemical_formula_sum "Si O2"
_cell_formula_units_Z 22
_cell_length_a 15.413091
_cell_length_b 12.361071
_cell_length_c 13.300316
_cell_angle_alpha 90.000000
_cell_angle_beta 29.488778
_cell_angle_gamma 90.000000
_cell_volume 1247.372735
_symmetry_space_group_name_H-M "C M"
_symmetry_group_IT_number 8
_symmetry_cell_setting 'monoclinic'
loop_
_space_group_symop_operation_xyz
x,y,z
x,-y,z
1/2+x,1/2+y,z
1/2+x,1/2-y,z
loop_
_atom_site_type_symbol
_atom_site_label
_atom_site_fract_x
_atom_site_fract_y
_atom_site_fract_z
Si Si1 0.819710 0.500000 0.114931
Si Si2 0.327964 0.301941 0.795484
Si Si3 0.489563 0.713160 0.194122
Si Si4 0.677850 0.871854 0.141194
Si Si5 0.703534 0.731184 0.317543
Si Si6 0.719262 0.000000 0.767133
Si Si7 0.499594 0.500000 0.308165
O O1 0.756477 0.609231 0.233446
O O2 0.707288 0.500000 0.125765
O O3 0.031582 0.500000 0.899978
O O4 0.511492 0.270810 0.561912
O O5 0.238469 0.395641 0.818704
O O6 0.183781 0.206940 0.947877
O O7 0.336074 0.347243 0.901828
O O8 0.515772 0.815560 0.243370
O O9 0.344317 0.730206 0.256994
O O10 0.454553 0.607261 0.293254
O O11 0.702796 0.806671 0.219266
O O12 0.657481 0.000000 0.175590
O O13 0.883411 0.000000 0.526022
#
# Coordination Sequence:
#
# PCOD9132776 Si02
#       7
#     2   4   4   4   4   2   2
#     4  12  20  38  68  93 117 171 219 256 308 385
#     4  10  20  42  63  92 123 162 217 254 309 380
#     4  10  24  41  63  93 128 163 210 263 312 378
#     4  10  22  43  61  91 129 157 208 264 303 377
#     4  12  23  40  69  90 127 170 209 262 324 363
#     4  12  20  38  73  92 121 171 219 270 303 374
#     4  12  24  42  63  97 132 160 220 270 313 375
#
# _framework density 17.637070000000001
#
# number of rings (size 3 to 8) (size 9 to 14) (size 15 to 20)
#    1.091    0.000    6.364    0.000    2.545    2.909 
#    4.909    0.000    0.000    0.000    0.000    0.000 
#    0.000    0.000    0.000    0.000    0.000    0.000 
#
# Total GULP energy -61288.959921 kJ/mol
# GULP energy per Si atom -5571.723629 kJ/mol
# Density = 1.759693 g / cm^3
# Si number density = 17.637070 Si / 1000 Ang^3
#
#
#
# Elastic Constant Matrix: (Units=GPa)
#
#
# Indices 1 2 3 4 5 6 
#
# 1 151.0963 52.0908 41.7707 -0.0001 5.4296 0.0000
# 2 52.0908 100.7878 44.9616 0.0001 21.3070 0.0000
# 3 41.7707 44.9616 73.1650 -0.0007 1.4777 0.0002
# 4 -0.0001 0.0001 -0.0007 317.8011 0.0004 -96.1530
# 5 5.4296 21.3070 1.4777 0.0004 29.6970 -0.0001
# 6 0.0000 0.0000 0.0002 -96.1530 -0.0001 58.5241
#
#
#
# Elastic Compliance Matrix: (Units=1/GPa)
#
#
# Indices 1 2 3 4 5 6 
#
# 1 0.008519 -0.003352 -0.002824 0.000000 0.000988 0.000000
# 2 -0.003352 0.018231 -0.009047 0.000000 -0.012017 0.000000
# 3 -0.002824 -0.009047 0.020718 0.000000 0.005976 0.000000
# 4 0.000000 0.000000 0.000000 0.006257 0.000000 0.010280
# 5 0.000988 -0.012017 0.005976 0.000000 0.041817 0.000000
# 6 0.000000 0.000000 0.000000 0.010280 0.000000 0.033976
#
#
# Mechanical properties :
#
#
# Convention : Reuss Voigt Hill
#
# Bulk Modulus (GPa) = 58.74318 66.96615 62.85466
# Shear Modulus (GPa) = 30.18644 93.61951 61.90298
#
# Velocity S-wave (km/s) = 4.14156 7.29358 5.93080
# Velocity P-wave (km/s) = 7.49993 10.43934 9.08925
#
# Compressibility (1/GPa) = 0.01702325
#
# Stress axis : x y z
#
# Youngs Moduli (GPa) = 117.38393 54.85311 48.26641
#
# Poissons Ratio (x) = 0.18388 0.13628
# Poissons Ratio (y) = 0.39350 0.43664
# Poissons Ratio (z) = 0.33144 0.49623
#
# Static dielectric constant tensor:
#      x y z
#    x 1.594640 0.000000 0.000740 
#    y 0.000000 0.902420 0.000000 
#    z 0.000740 0.000000 1.605770 
# 
# From -- ./inp_files/21965.got.cif
#   From: 2010.05.17/outbox.cif.g08.bks.cpg/sg8_11_cif.got.tgz:21965.got - 2010.06.03 19:46:02.
