data_PCOD9132224
_publ_section_title
;
Structure prediction by ZEFSAII (Michael W. Deem and Ramdas Pophale) SiO2 
 PCOD9132224
Probable space group: C M
;
_chemical_formula_sum "Si O2"
_cell_formula_units_Z 26
_cell_length_a 17.195577
_cell_length_b 12.399894
_cell_length_c 7.967838
_cell_angle_alpha 90.000000
_cell_angle_beta 44.125227
_cell_angle_gamma 90.000000
_cell_volume 1182.843474
_symmetry_space_group_name_H-M "C M"
_symmetry_group_IT_number 8
_symmetry_cell_setting 'monoclinic'
loop_
_space_group_symop_operation_xyz
x,y,z
x,-y,z
1/2+x,1/2+y,z
1/2+x,1/2-y,z
loop_
_atom_site_type_symbol
_atom_site_label
_atom_site_fract_x
_atom_site_fract_y
_atom_site_fract_z
Si Si1 0.200680 0.383716 0.329300
Si Si2 0.489627 0.500000 0.636534
Si Si3 0.612484 0.156213 0.813320
Si Si4 0.186114 0.121962 0.798603
Si Si5 0.806942 0.000000 0.636195
Si Si6 0.602364 0.300791 0.284059
Si Si7 0.448713 0.879050 0.360175
Si Si8 0.901235 0.000000 0.140239
O O1 0.185783 0.500000 0.263857
O O2 0.115180 0.379408 0.617229
O O3 0.189464 0.279134 0.236794
O O4 0.321197 0.396216 0.229248
O O5 0.372810 0.500000 0.709605
O O6 0.554465 0.393348 0.476301
O O7 0.474696 0.500000 0.859155
O O8 0.622851 0.284804 0.798364
O O9 0.721212 0.100441 0.736631
O O10 0.506645 0.125125 0.088128
O O11 0.316649 0.134683 0.560365
O O12 0.152475 0.000000 0.812719
O O13 0.157533 0.145587 0.036198
O O14 0.904537 0.000000 0.338943
O O15 0.505585 0.217635 0.374862
O O16 0.469405 0.000000 0.397208
#
# Coordination Sequence:
#
# PCOD9132224 Si02
#       8
#     4   2   4   4   2   4   4   2
#     4   9  20  40  63  84 121 154 204 264 303 358
#     4  12  24  40  61  94 125 171 200 253 319 379
#     4  10  19  39  63  90 115 158 206 261 308 355
#     4  10  22  40  55  86 125 153 202 252 299 384
#     4  10  20  40  69  95 119 153 218 274 293 364
#     4  11  23  38  56  89 122 160 200 250 310 366
#     4  10  20  35  63  88 110 155 204 251 304 364
#     4   8  22  40  66  93 116 156 216 257 312 349
#
# _framework density 21.980930000000001
#
# number of rings (size 3 to 8) (size 9 to 14) (size 15 to 20)
#    0.462    1.538    2.308    1.385    6.462    0.000 
#   12.462    0.000    0.000    0.000    0.000    0.000 
#    0.000    0.000    0.000    0.000    0.000    0.000 
#
# Total GULP energy -72550.615172 kJ/mol
# GULP energy per Si atom -5580.816552 kJ/mol
# Density = 2.193090 g / cm^3
# Si number density = 21.980930 Si / 1000 Ang^3
#
#
#
# Elastic Constant Matrix: (Units=GPa)
#
#
# Indices 1 2 3 4 5 6 
#
# 1 56.6421 15.8592 28.1890 0.0000 6.0996 0.0000
# 2 15.8592 162.4073 47.3894 0.0000 1.8652 0.0000
# 3 28.1890 47.3894 155.7886 0.0000 3.6731 0.0000
# 4 0.0000 0.0000 0.0000 79.1962 0.0000 -41.7723
# 5 6.0996 1.8652 3.6731 0.0000 10.1268 0.0000
# 6 0.0000 0.0000 0.0000 -41.7723 0.0000 48.1830
#
#
#
# Elastic Compliance Matrix: (Units=1/GPa)
#
#
# Indices 1 2 3 4 5 6 
#
# 1 0.020713 -0.000963 -0.003192 0.000000 -0.011140 0.000000
# 2 -0.000963 0.006804 -0.001896 0.000000 0.000015 0.000000
# 3 -0.003192 -0.001896 0.007585 0.000000 -0.000479 0.000000
# 4 0.000000 0.000000 0.000000 0.023266 0.000000 0.020170
# 5 -0.011140 0.000015 -0.000479 0.000000 0.105629 0.000000
# 6 0.000000 0.000000 0.000000 0.020170 0.000000 0.038241
#
#
# Mechanical properties :
#
#
# Convention : Reuss Voigt Hill
#
# Bulk Modulus (GPa) = 43.47983 61.96815 52.72399
# Shear Modulus (GPa) = 22.52186 46.39456 34.45821
#
# Velocity S-wave (km/s) = 3.20442 4.59919 3.96364
# Velocity P-wave (km/s) = 5.78919 7.51375 6.70713
#
# Compressibility (1/GPa) = 0.02299917
#
# Stress axis : x y z
#
# Youngs Moduli (GPa) = 48.27949 146.96235 131.84661
#
# Poissons Ratio (x) = 0.14156 0.42088
# Poissons Ratio (y) = 0.04650 0.24997
# Poissons Ratio (z) = 0.15412 0.27863
#
# Static dielectric constant tensor:
#      x y z
#    x 1.843350 0.000000 -0.019540 
#    y 0.000000 1.820390 0.000000 
#    z -0.019540 0.000000 1.805170 
# 
# From -- ./inp_files/12487.got.cif
#   From: 2010.05.17/outbox.cif.g08.bks.cpg/sg8_7_cif.got.tgz:12487.got - 2010.06.03 19:46:02.
