data_PCOD9132869
_publ_section_title
;
Structure prediction by ZEFSAII (Michael W. Deem and Ramdas Pophale) SiO2 
 PCOD9132869
Probable space group: C M
;
_chemical_formula_sum "Si O2"
_cell_formula_units_Z 32
_cell_length_a 31.170773
_cell_length_b 8.937242
_cell_length_c 7.119819
_cell_angle_alpha 90.000000
_cell_angle_beta 113.652834
_cell_angle_gamma 90.000000
_cell_volume 1816.821571
_symmetry_space_group_name_H-M "C M"
_symmetry_group_IT_number 8
_symmetry_cell_setting 'monoclinic'
loop_
_space_group_symop_operation_xyz
x,y,z
x,-y,z
1/2+x,1/2+y,z
1/2+x,1/2-y,z
loop_
_atom_site_type_symbol
_atom_site_label
_atom_site_fract_x
_atom_site_fract_y
_atom_site_fract_z
Si Si1 0.586860 0.677988 0.623210
Si Si2 0.101261 0.322315 0.053539
Si Si3 0.841990 0.823077 0.141524
Si Si4 0.418901 0.678147 0.956504
Si Si5 0.270114 0.320829 0.691128
Si Si6 0.668954 0.677945 0.467224
Si Si7 0.519006 0.177674 0.209804
Si Si8 0.846326 0.678179 0.552813
O O1 0.579934 0.500000 0.626579
O O2 0.632762 0.704411 0.574896
O O3 0.543693 0.751228 0.435447
O O4 0.593827 0.750455 0.837917
O O5 0.108961 0.500000 0.051721
O O6 0.144115 0.246743 0.240155
O O7 0.055357 0.297933 0.102306
O O8 0.844699 0.728651 0.334553
O O9 0.841125 0.000000 0.186887
O O10 0.886134 0.796482 0.081637
O O11 0.796488 0.788925 0.934276
O O12 0.421183 0.500000 0.929267
O O13 0.392059 0.755220 0.736415
O O14 0.469808 0.745824 0.079238
O O15 0.269799 0.500000 0.666336
O O16 0.218349 0.255077 0.592745
O O17 0.302205 0.248075 0.586123
O O18 0.674759 0.500000 0.455123
O O19 0.513215 0.000000 0.225037
O O20 0.845830 0.500000 0.569132
#
# Coordination Sequence:
#
# PCOD9132869 Si02
#       8
#     4   4   4   4   4   4   4   4
#     4  10  21  37  57  81 111 146 183 226 274 323
#     4  10  21  37  57  81 111 146 183 225 272 323
#     4   9  20  38  57  79 108 143 183 223 267 323
#     4  10  21  38  59  81 109 145 183 225 272 323
#     4  10  21  38  59  81 109 145 183 224 270 322
#     4  10  21  37  57  82 111 142 181 227 273 323
#     4  10  21  37  57  82 111 143 183 228 273 323
#     4  11  22  36  57  83 112 144 179 224 273 322
#
# _framework density 17.613178000000001
#
# number of rings (size 3 to 8) (size 9 to 14) (size 15 to 20)
#    0.000    2.000    0.000    4.125    0.000    8.000 
#    0.000    2.500    0.000    0.000    0.000    0.000 
#    0.000    0.000    0.000    0.000    0.000    0.000 
#
# Total GULP energy -89377.413319 kJ/mol
# GULP energy per Si atom -5586.088332 kJ/mol
# Density = 1.757309 g / cm^3
# Si number density = 17.613178 Si / 1000 Ang^3
#
#
#
# Elastic Constant Matrix: (Units=GPa)
#
#
# Indices 1 2 3 4 5 6 
#
# 1 103.3214 83.0939 84.4474 0.0000 38.1707 0.0000
# 2 83.0939 129.9402 109.6015 0.0000 12.0201 0.0000
# 3 84.4474 109.6015 168.8292 0.0000 8.5743 0.0000
# 4 0.0000 0.0000 0.0000 34.1526 0.0000 4.1636
# 5 38.1707 12.0201 8.5743 0.0000 26.9512 0.0000
# 6 0.0000 0.0000 0.0000 4.1636 0.0000 34.2456
#
#
#
# Elastic Compliance Matrix: (Units=1/GPa)
#
#
# Indices 1 2 3 4 5 6 
#
# 1 0.092778 -0.032471 -0.019708 0.000000 -0.110649 0.000000
# 2 -0.032471 0.028841 -0.004232 0.000000 0.034471 0.000000
# 3 -0.019708 -0.004232 0.017295 0.000000 0.024298 0.000000
# 4 0.000000 0.000000 0.000000 0.029721 0.000000 -0.003613
# 5 -0.110649 0.034471 0.024298 0.000000 0.170711 0.000000
# 6 0.000000 0.000000 0.000000 -0.003613 0.000000 0.029640
#
#
# Mechanical properties :
#
#
# Convention : Reuss Voigt Hill
#
# Bulk Modulus (GPa) = 38.32631 106.26405 72.29518
# Shear Modulus (GPa) = 10.19356 27.39974 18.79665
#
# Velocity S-wave (km/s) = 2.40832 3.94844 3.27034
# Velocity P-wave (km/s) = 5.43513 9.01388 7.44280
#
# Compressibility (1/GPa) = 0.02609174
#
# Stress axis : x y z
#
# Youngs Moduli (GPa) = 10.77840 34.67251 57.82152
#
# Poissons Ratio (x) = 1.12584 1.13955
# Poissons Ratio (y) = 0.34998 0.24472
# Poissons Ratio (z) = 0.21242 0.14675
#
# Static dielectric constant tensor:
#      x y z
#    x 1.577470 0.000000 -0.003200 
#    y 0.000000 1.584100 0.000000 
#    z -0.003200 0.000000 1.567620 
# 
# From -- ./inp_files/6412.got.cif
#   From: 2010.05.17/outbox.cif.g08.bks.cpg/sg8_4_cif.got.tgz:6412.got - 2010.06.03 19:46:02.
