data_PCOD9132504
_publ_section_title
;
Structure prediction by ZEFSAII (Michael W. Deem and Ramdas Pophale) SiO2 
 PCOD9132504
Probable space group: C M
;
_chemical_formula_sum "Si O2"
_cell_formula_units_Z 32
_cell_length_a 15.515873
_cell_length_b 8.818899
_cell_length_c 23.241082
_cell_angle_alpha 90.000000
_cell_angle_beta 148.534276
_cell_angle_gamma 90.000000
_cell_volume 1659.998813
_symmetry_space_group_name_H-M "C M"
_symmetry_group_IT_number 8
_symmetry_cell_setting 'monoclinic'
loop_
_space_group_symop_operation_xyz
x,y,z
x,-y,z
1/2+x,1/2+y,z
1/2+x,1/2-y,z
loop_
_atom_site_type_symbol
_atom_site_label
_atom_site_fract_x
_atom_site_fract_y
_atom_site_fract_z
Si Si1 0.299680 0.680904 0.316520
Si Si2 0.159289 0.679650 0.929445
Si Si3 0.445284 0.319965 0.909148
Si Si4 0.957403 0.818824 0.719048
Si Si5 0.595543 0.181208 0.555570
Si Si6 0.974096 0.180285 0.180555
Si Si7 0.227265 0.317089 0.143639
Si Si8 0.596068 0.320315 0.679513
O O1 0.312931 0.500000 0.325902
O O2 0.463529 0.752900 0.436228
O O3 0.271160 0.725892 0.233673
O O4 0.142539 0.733579 0.264395
O O5 0.129267 0.500000 0.920432
O O6 0.046529 0.773567 0.909535
O O7 0.103249 0.731874 0.834965
O O8 0.347040 0.708379 0.055426
O O9 0.423459 0.500000 0.899833
O O10 0.270564 0.238229 0.803317
O O11 0.559418 0.260114 0.025935
O O12 0.782025 0.771692 0.645401
O O13 0.965566 0.790359 0.655783
O O14 0.979030 0.000000 0.740207
O O15 0.558667 0.238609 0.598632
O O16 0.590068 0.000000 0.550942
O O17 0.872178 0.222306 0.180285
O O18 0.006645 0.000000 0.201819
O O19 0.206589 0.500000 0.128610
O O20 0.605787 0.500000 0.674984
#
# Coordination Sequence:
#
# PCOD9132504 Si02
#       8
#     4   4   4   4   4   4   4   4
#     4  11  24  41  64  90 119 161 208 253 304 364
#     4  10  20  36  61  90 126 164 199 248 309 366
#     4  11  21  35  59  91 127 163 203 250 306 364
#     4  10  23  40  61  90 123 159 202 252 307 366
#     4  11  24  44  64  87 122 163 206 256 306 364
#     4   9  20  39  60  88 123 159 200 247 302 362
#     4   9  21  41  61  87 122 162 203 249 307 365
#     4  11  23  40  62  91 124 161 203 253 309 365
#
# _framework density 19.277121999999999
#
# number of rings (size 3 to 8) (size 9 to 14) (size 15 to 20)
#    0.000    1.750    1.250    3.375    1.750    6.000 
#    0.000    2.500    0.000    0.000    0.000    0.000 
#    0.000    0.000    0.000    0.000    0.000    0.000 
#
# Total GULP energy -89405.196164 kJ/mol
# GULP energy per Si atom -5587.824760 kJ/mol
# Density = 1.923325 g / cm^3
# Si number density = 19.277122 Si / 1000 Ang^3
#
#
#
# Elastic Constant Matrix: (Units=GPa)
#
#
# Indices 1 2 3 4 5 6 
#
# 1 48.7540 12.2283 15.3479 0.0000 -20.7581 0.0000
# 2 12.2283 32.1843 17.6695 0.0000 -5.5808 0.0000
# 3 15.3479 17.6695 69.6130 0.0001 -22.8355 0.0000
# 4 0.0000 0.0000 0.0001 34.2926 0.0000 -2.4118
# 5 -20.7581 -5.5808 -22.8355 0.0000 25.4059 0.0000
# 6 0.0000 0.0000 0.0000 -2.4118 0.0000 24.7275
#
#
#
# Elastic Compliance Matrix: (Units=1/GPa)
#
#
# Indices 1 2 3 4 5 6 
#
# 1 0.034544 -0.010629 0.005069 0.000000 0.030446 0.000000
# 2 -0.010629 0.039375 -0.010866 0.000000 -0.009802 0.000000
# 3 0.005069 -0.010866 0.023514 0.000000 0.022890 0.000000
# 4 0.000000 0.000000 0.000000 0.029362 0.000000 0.002864
# 5 0.030446 -0.009802 0.022890 0.000000 0.082659 0.000000
# 6 0.000000 0.000000 0.000000 0.002864 0.000000 0.040720
#
#
# Mechanical properties :
#
#
# Convention : Reuss Voigt Hill
#
# Bulk Modulus (GPa) = 15.48409 26.78253 21.13331
# Shear Modulus (GPa) = 16.41742 23.90556 20.16149
#
# Velocity S-wave (km/s) = 2.92148 3.52533 3.23751
# Velocity P-wave (km/s) = 4.40793 5.52215 4.99620
#
# Compressibility (1/GPa) = 0.06458241
#
# Stress axis : x y z
#
# Youngs Moduli (GPa) = 28.94831 25.39652 42.52699
#
# Poissons Ratio (x) = 0.26993 -0.21557
# Poissons Ratio (y) = 0.30768 0.46212
# Poissons Ratio (z) = -0.14674 0.27597
#
# Static dielectric constant tensor:
#      x y z
#    x 1.687610 0.000000 -0.005930 
#    y 0.000000 1.643380 0.000000 
#    z -0.005930 0.000000 1.644180 
# 
# From -- ./inp_files/24796.got.cif
#   From: 2010.05.17/outbox.cif.g08.bks.cpg/sg8_13_cif.got.tgz:24796.got - 2010.06.03 19:46:02.
