data_PCOD9132649
_publ_section_title
;
Structure prediction by ZEFSAII (Michael W. Deem and Ramdas Pophale) SiO2 
 PCOD9132649
Probable space group: C M
;
_chemical_formula_sum "Si O2"
_cell_formula_units_Z 32
_cell_length_a 28.630625
_cell_length_b 8.180932
_cell_length_c 12.215297
_cell_angle_alpha 90.000000
_cell_angle_beta 29.099924
_cell_angle_gamma 90.000000
_cell_volume 1391.465595
_symmetry_space_group_name_H-M "C M"
_symmetry_group_IT_number 8
_symmetry_cell_setting 'monoclinic'
loop_
_space_group_symop_operation_xyz
x,y,z
x,-y,z
1/2+x,1/2+y,z
1/2+x,1/2-y,z
loop_
_atom_site_type_symbol
_atom_site_label
_atom_site_fract_x
_atom_site_fract_y
_atom_site_fract_z
Si Si1 0.545930 0.688900 0.027040
Si Si2 0.269592 0.690945 0.755219
Si Si3 0.727827 0.811222 0.225894
Si Si4 0.622879 0.315963 0.230506
Si Si5 0.597608 0.698598 0.685080
Si Si6 0.378960 0.699530 0.071285
Si Si7 0.820219 0.190620 0.419170
Si Si8 0.971670 0.317776 0.394847
O O1 0.570536 0.500000 0.998350
O O2 0.433935 0.690841 0.217540
O O3 0.543172 0.786444 0.145544
O O4 0.602615 0.747241 0.803115
O O5 0.241720 0.500000 0.812131
O O6 0.268144 0.758670 0.633468
O O7 0.380324 0.701554 0.568230
O O8 0.204600 0.787206 0.972575
O O9 0.672164 0.719412 0.244934
O O10 0.666860 0.792190 0.461693
O O11 0.831540 0.747670 0.054372
O O12 0.736011 0.000000 0.175257
O O13 0.587346 0.500000 0.299228
O O14 0.533114 0.206498 0.378104
O O15 0.610152 0.500000 0.653892
O O16 0.490088 0.735763 0.861851
O O17 0.371065 0.500000 0.090481
O O18 0.321509 0.766143 0.295639
O O19 0.791842 0.000000 0.469551
O O20 0.933315 0.500000 0.465313
#
# Coordination Sequence:
#
# PCOD9132649 Si02
#       8
#     4   4   4   4   4   4   4   4
#     4   8  15  31  56  85 117 151 187 229 282 344
#     4  10  20  38  63  90 120 152 187 233 292 353
#     4  11  23  38  56  82 113 146 193 247 294 341
#     4  12  26  43  59  79 112 155 204 251 294 344
#     4   9  18  36  60  84 113 152 192 229 279 344
#     4   8  16  33  57  82 111 147 182 219 272 338
#     4   7  12  27  54  85 113 143 178 217 270 340
#     4  11  22  38  61  89 119 152 193 241 295 350
#
# _framework density 22.997337000000002
#
# number of rings (size 3 to 8) (size 9 to 14) (size 15 to 20)
#    0.000    2.500    0.000    5.250    0.000    2.500 
#    0.000    6.250    0.000    6.750    0.000    0.000 
#    0.000    0.000    0.000    0.000    0.000    0.000 
#
# Total GULP energy -89371.715565 kJ/mol
# GULP energy per Si atom -5585.732223 kJ/mol
# Density = 2.294499 g / cm^3
# Si number density = 22.997337 Si / 1000 Ang^3
#
#
#
# Elastic Constant Matrix: (Units=GPa)
#
#
# Indices 1 2 3 4 5 6 
#
# 1 121.7684 5.4622 0.6519 0.0000 -4.3312 0.0000
# 2 5.4622 44.3965 -7.1367 0.0000 4.5455 0.0000
# 3 0.6519 -7.1367 23.2312 0.0000 -5.2169 0.0000
# 4 0.0000 0.0000 0.0000 25.9258 0.0000 4.3061
# 5 -4.3312 4.5455 -5.2169 0.0000 18.9168 0.0000
# 6 0.0000 0.0000 0.0000 4.3061 0.0000 23.6451
#
#
#
# Elastic Compliance Matrix: (Units=1/GPa)
#
#
# Indices 1 2 3 4 5 6 
#
# 1 0.008348 -0.001272 -0.000136 0.000000 0.002180 0.000000
# 2 -0.001272 0.024165 0.006492 0.000000 -0.004308 0.000000
# 3 -0.000136 0.006492 0.047637 0.000000 0.011546 0.000000
# 4 0.000000 0.000000 0.000000 0.039775 0.000000 -0.007244
# 5 0.002180 -0.004308 0.011546 0.000000 0.057581 0.000000
# 6 0.000000 0.000000 0.000000 -0.007244 0.000000 0.043611
#
#
# Mechanical properties :
#
#
# Convention : Reuss Voigt Hill
#
# Bulk Modulus (GPa) = 11.07188 20.81674 15.94431
# Shear Modulus (GPa) = 20.74224 26.39215 23.56720
#
# Velocity S-wave (km/s) = 3.00649 3.39133 3.20469
# Velocity P-wave (km/s) = 4.10815 4.94027 4.54330
#
# Compressibility (1/GPa) = 0.09031890
#
# Stress axis : x y z
#
# Youngs Moduli (GPa) = 119.79465 41.38141 20.99225
#
# Poissons Ratio (x) = 0.05264 0.00285
# Poissons Ratio (y) = 0.15237 -0.13628
# Poissons Ratio (z) = 0.01624 -0.26865
#
# Static dielectric constant tensor:
#      x y z
#    x 1.902760 0.000000 -0.029900 
#    y 0.000000 1.796020 0.000000 
#    z -0.029900 0.000000 1.885380 
# 
# From -- ./inp_files/24819.got.cif
#   From: 2010.05.17/outbox.cif.g08.bks.cpg/sg8_13_cif.got.tgz:24819.got - 2010.06.03 19:46:02.
