data_PCOD9132421
_publ_section_title
;
Structure prediction by ZEFSAII (Michael W. Deem and Ramdas Pophale) SiO2 
 PCOD9132421
Probable space group: C M
;
_chemical_formula_sum "Si O2"
_cell_formula_units_Z 32
_cell_length_a 17.333495
_cell_length_b 14.823390
_cell_length_c 11.836800
_cell_angle_alpha 90.000000
_cell_angle_beta 151.788360
_cell_angle_gamma 90.000000
_cell_volume 1437.742008
_symmetry_space_group_name_H-M "C M"
_symmetry_group_IT_number 8
_symmetry_cell_setting 'monoclinic'
loop_
_space_group_symop_operation_xyz
x,y,z
x,-y,z
1/2+x,1/2+y,z
1/2+x,1/2-y,z
loop_
_atom_site_type_symbol
_atom_site_label
_atom_site_fract_x
_atom_site_fract_y
_atom_site_fract_z
Si Si1 0.234290 0.346492 0.175190
Si Si2 0.640938 0.901199 0.810171
Si Si3 0.181969 0.100351 0.607475
Si Si4 0.087748 0.201560 0.694822
Si Si5 0.752665 0.597495 0.350410
Si Si6 0.037676 0.403953 0.118527
Si Si7 0.672784 0.248191 0.426808
Si Si8 0.522731 0.674765 0.872227
O O1 0.404821 0.295853 0.408213
O O2 0.192592 0.400558 0.234635
O O3 0.217219 0.397357 0.034771
O O4 0.094051 0.272323 0.993999
O O5 0.671723 0.800885 0.798386
O O6 0.443222 0.900944 0.563817
O O7 0.687398 0.000000 0.819650
O O8 0.170690 0.126431 0.724246
O O9 0.115832 0.186261 0.453506
O O10 0.113327 0.000000 0.498349
O O11 0.375246 0.097945 0.832768
O O12 0.063514 0.168403 0.792054
O O13 0.722380 0.500000 0.367396
O O14 0.722383 0.680940 0.393626
O O15 0.628533 0.607940 0.085556
O O16 0.037436 0.500000 0.179537
O O17 0.041545 0.319673 0.206585
O O18 0.831140 0.184686 0.652842
#
# Coordination Sequence:
#
# PCOD9132421 Si02
#       8
#     4   4   4   4   4   4   4   4
#     4  11  18  38  64  93 124 164 212 266 304 374
#     4  10  20  35  60  91 122 164 210 256 314 377
#     4  11  26  44  64  92 128 174 215 260 321 384
#     4  11  23  40  64  94 132 165 215 265 323 370
#     4  11  20  34  60  95 125 159 208 264 319 370
#     4  11  22  39  63  92 124 167 213 256 318 383
#     4  12  20  41  65  91 126 169 217 262 309 378
#     4  11  19  37  64  92 129 164 206 265 318 372
#
# _framework density 22.257124000000001
#
# number of rings (size 3 to 8) (size 9 to 14) (size 15 to 20)
#    0.000    1.000    7.500    0.750    0.000    6.000 
#    0.000    0.625    0.000    0.750    0.000    0.000 
#    0.000    0.000    0.000    0.000    0.000    0.000 
#
# Total GULP energy -89254.143572 kJ/mol
# GULP energy per Si atom -5578.383973 kJ/mol
# Density = 2.220647 g / cm^3
# Si number density = 22.257124 Si / 1000 Ang^3
#
#
#
# Elastic Constant Matrix: (Units=GPa)
#
#
# Indices 1 2 3 4 5 6 
#
# 1 54.9656 22.3889 5.2217 0.0000 -12.2431 0.0000
# 2 22.3889 127.7188 17.2647 0.0000 -17.5262 0.0000
# 3 5.2217 17.2647 77.2861 0.0000 -18.9699 0.0000
# 4 0.0000 0.0000 0.0000 8.5075 0.0000 -4.1503
# 5 -12.2431 -17.5262 -18.9699 0.0000 19.5660 0.0000
# 6 0.0000 0.0000 0.0000 -4.1503 0.0000 2.0396
#
#
#
# Elastic Compliance Matrix: (Units=1/GPa)
#
#
# Indices 1 2 3 4 5 6 
#
# 1 0.022035 -0.002253 0.002498 0.000000 0.014192 0.000000
# 2 -0.002253 0.009157 -0.000297 0.000000 0.006505 0.000000
# 3 0.002498 -0.000297 0.017263 0.000000 0.018034 0.000000
# 4 0.000000 0.000000 0.000000 16.116817 0.000000 32.795717
# 5 0.014192 0.006505 0.018034 0.000000 0.083301 0.000000
# 6 0.000000 0.000000 0.000000 32.795717 0.000000 67.225495
#
#
# Mechanical properties :
#
#
# Convention : Reuss Voigt Hill
#
# Bulk Modulus (GPa) = 20.68182 38.85788 29.76985
# Shear Modulus (GPa) = 0.05989 20.36230 10.21109
#
# Velocity S-wave (km/s) = 0.16421 3.02796 2.14424
# Velocity P-wave (km/s) = 3.05751 5.45172 4.41982
#
# Compressibility (1/GPa) = 0.04835165
#
# Stress axis : x y z
#
# Youngs Moduli (GPa) = 45.38320 109.20083 57.92747
#
# Poissons Ratio (x) = 0.24601 -0.14469
# Poissons Ratio (y) = 0.10224 0.01719
# Poissons Ratio (z) = -0.11336 0.03240
#
# Static dielectric constant tensor:
#      x y z
#    x 1.867390 0.000000 -0.004670 
#    y 0.000000 1.855750 0.000000 
#    z -0.004670 0.000000 1.849130 
# 
# From -- ./inp_files/23334.got.cif
#   From: 2010.05.17/outbox.cif.g08.bks.cpg/sg8_12_cif.got.tgz:23334.got - 2010.06.03 19:46:02.
