data_PCOD9132354
_publ_section_title
;
Structure prediction by ZEFSAII (Michael W. Deem and Ramdas Pophale) SiO2 
 PCOD9132354
Probable space group: C M
;
_chemical_formula_sum "Si O2"
_cell_formula_units_Z 28
_cell_length_a 11.503610
_cell_length_b 21.065405
_cell_length_c 5.555645
_cell_angle_alpha 90.000000
_cell_angle_beta 108.951022
_cell_angle_gamma 90.000000
_cell_volume 1273.315918
_symmetry_space_group_name_H-M "C M"
_symmetry_group_IT_number 8
_symmetry_cell_setting 'monoclinic'
loop_
_space_group_symop_operation_xyz
x,y,z
x,-y,z
1/2+x,1/2+y,z
1/2+x,1/2-y,z
loop_
_atom_site_type_symbol
_atom_site_label
_atom_site_fract_x
_atom_site_fract_y
_atom_site_fract_z
Si Si1 0.125000 0.750392 0.723010
Si Si2 0.288178 0.190070 0.188621
Si Si3 0.499113 0.851208 0.969534
Si Si4 0.371975 0.070553 0.508792
Si Si5 0.420300 0.683154 0.356205
Si Si6 0.630526 0.930025 0.403835
Si Si7 0.826330 0.854670 0.788673
O O1 0.034857 0.699636 0.790922
O O2 0.244170 0.709536 0.739380
O O3 0.053892 0.783418 0.458007
O O4 0.167714 0.801834 0.946924
O O5 0.289968 0.129819 0.366295
O O6 0.321633 0.259295 0.311313
O O7 0.403505 0.178996 0.087544
O O8 0.428346 0.910392 0.803480
O O9 0.619274 0.877113 0.188371
O O10 0.493685 0.069193 0.422935
O O11 0.316804 0.000000 0.469350
O O12 0.406500 0.645872 0.598855
O O13 0.395073 0.646176 0.091193
O O14 0.725884 0.909399 0.672784
O O15 0.659776 0.000000 0.330489
#
# Coordination Sequence:
#
# PCOD9132354 Si02
#       7
#     4   4   4   4   4   4   4
#     4  11  20  37  58  85 119 156 193 244 299 359
#     4  10  22  35  57  84 118 156 192 240 304 352
#     4  11  19  38  54  90 122 151 197 247 298 356
#     4  10  20  35  55  84 117 150 197 245 293 356
#     4  11  23  38  56  89 120 155 189 248 292 360
#     4  10  20  35  58  85 116 159 196 244 305 355
#     4  11  23  38  58  87 123 151 198 242 301 350
#
# _framework density 21.989830999999999
#
# number of rings (size 3 to 8) (size 9 to 14) (size 15 to 20)
#    0.000    1.429    2.857    4.714    0.000    2.857 
#    0.000    0.000    0.000    1.714    0.000    0.000 
#    0.000    0.000    0.000    0.000    0.000    0.000 
#
# Total GULP energy -78197.349611 kJ/mol
# GULP energy per Si atom -5585.524972 kJ/mol
# Density = 2.193978 g / cm^3
# Si number density = 21.989831 Si / 1000 Ang^3
#
#
#
# Elastic Constant Matrix: (Units=GPa)
#
#
# Indices 1 2 3 4 5 6 
#
# 1 16.8134 0.0660 12.3590 0.0000 -1.4487 0.0000
# 2 0.0660 90.4472 33.8412 0.0000 11.5229 0.0000
# 3 12.3590 33.8412 120.9611 0.0000 11.4684 0.0000
# 4 0.0000 0.0000 0.0000 26.8738 0.0000 2.3457
# 5 -1.4487 11.5229 11.4684 0.0000 42.3817 0.0000
# 6 0.0000 0.0000 0.0000 2.3457 0.0000 17.7553
#
#
#
# Elastic Compliance Matrix: (Units=1/GPa)
#
#
# Indices 1 2 3 4 5 6 
#
# 1 0.065441 0.002363 -0.007696 0.000000 0.003677 0.000000
# 2 0.002363 0.012695 -0.003565 0.000000 -0.002406 0.000000
# 3 -0.007696 -0.003565 0.010247 0.000000 -0.002067 0.000000
# 4 0.000000 0.000000 0.000000 0.037645 0.000000 -0.004973
# 5 0.003677 -0.002406 -0.002067 0.000000 0.024934 0.000000
# 6 0.000000 0.000000 0.000000 -0.004973 0.000000 0.056978
#
#
# Mechanical properties :
#
#
# Convention : Reuss Voigt Hill
#
# Bulk Modulus (GPa) = 14.16687 35.63935 24.90311
# Shear Modulus (GPa) = 20.05899 29.53252 24.79575
#
# Velocity S-wave (km/s) = 3.02353 3.66868 3.36162
# Velocity P-wave (km/s) = 4.31804 5.84705 5.13972
#
# Compressibility (1/GPa) = 0.07058721
#
# Stress axis : x y z
#
# Youngs Moduli (GPa) = 15.28091 78.77225 97.59183
#
# Poissons Ratio (x) = -0.18617 0.75108
# Poissons Ratio (y) = -0.03611 0.34791
# Poissons Ratio (z) = 0.11760 0.28082
#
# Static dielectric constant tensor:
#      x y z
#    x 1.818070 0.000000 -0.007920 
#    y 0.000000 1.828060 0.000000 
#    z -0.007920 0.000000 1.880930 
# 
# From -- ./inp_files/2824.got.cif
#   From: 2010.05.17/outbox.cif.g08.bks.cpg/sg8_2_cif.got.tgz:2824.got - 2010.06.03 19:46:02.
