data_PCOD9132214
_publ_section_title
;
Structure prediction by ZEFSAII (Michael W. Deem and Ramdas Pophale) SiO2 
 PCOD9132214
Probable space group: C M
;
_chemical_formula_sum "Si O2"
_cell_formula_units_Z 24
_cell_length_a 15.509195
_cell_length_b 8.565654
_cell_length_c 15.134478
_cell_angle_alpha 90.000000
_cell_angle_beta 39.940434
_cell_angle_gamma 90.000000
_cell_volume 1290.761726
_symmetry_space_group_name_H-M "C M"
_symmetry_group_IT_number 8
_symmetry_cell_setting 'monoclinic'
loop_
_space_group_symop_operation_xyz
x,y,z
x,-y,z
1/2+x,1/2+y,z
1/2+x,1/2-y,z
loop_
_atom_site_type_symbol
_atom_site_label
_atom_site_fract_x
_atom_site_fract_y
_atom_site_fract_z
Si Si1 0.549680 0.188775 0.968460
Si Si2 0.287234 0.812921 0.451925
Si Si3 0.773236 0.187175 0.267715
Si Si4 0.767197 0.188527 0.940760
Si Si5 0.056012 0.686719 0.758977
Si Si6 0.591093 0.809983 0.249100
O O1 0.679716 0.232378 0.923977
O O2 0.559457 0.238115 0.858901
O O3 0.538045 0.000000 0.980825
O O4 0.417248 0.258531 0.117494
O O5 0.252515 0.754555 0.381197
O O6 0.179069 0.754312 0.606963
O O7 0.438154 0.757349 0.356984
O O8 0.288506 0.000000 0.450524
O O9 0.661404 0.239922 0.284647
O O10 0.770691 0.000000 0.273841
O O11 0.914651 0.259337 0.829285
O O12 0.778325 0.000000 0.933968
O O13 0.682746 0.237984 0.093916
O O14 0.063305 0.500000 0.751748
O O15 0.589881 0.000000 0.249343
#
# Coordination Sequence:
#
# PCOD9132214 Si02
#       6
#     4   4   4   4   4   4
#     4  10  21  38  61  87 120 157 198 240 289 352
#     4  11  23  42  62  84 119 163 198 238 297 355
#     4  11  21  36  61  92 120 150 196 249 293 343
#     4  10  19  38  63  87 117 158 199 236 289 357
#     4  11  24  40  58  90 125 153 194 250 297 342
#     4   9  19  36  61  88 117 153 197 239 287 353
#
# _framework density 18.593671000000001
#
# number of rings (size 3 to 8) (size 9 to 14) (size 15 to 20)
#    0.000    1.667    3.333    1.500    0.000    2.667 
#    0.000    6.667    0.000    0.000    0.000    0.000 
#    0.000    0.000    0.000    0.000    0.000    0.000 
#
# Total GULP energy -67043.732783 kJ/mol
# GULP energy per Si atom -5586.977732 kJ/mol
# Density = 1.855135 g / cm^3
# Si number density = 18.593671 Si / 1000 Ang^3
#
#
#
# Elastic Constant Matrix: (Units=GPa)
#
#
# Indices 1 2 3 4 5 6 
#
# 1 116.0316 21.3851 23.2073 0.0000 -1.6453 0.0000
# 2 21.3851 25.6604 19.0647 0.0000 2.4560 0.0000
# 3 23.2073 19.0647 97.8036 0.0000 0.0212 0.0000
# 4 0.0000 0.0000 0.0000 31.1782 0.0000 3.7249
# 5 -1.6453 2.4560 0.0212 0.0000 33.4801 0.0000
# 6 0.0000 0.0000 0.0000 3.7249 0.0000 20.2018
#
#
#
# Elastic Compliance Matrix: (Units=1/GPa)
#
#
# Indices 1 2 3 4 5 6 
#
# 1 0.010289 -0.008028 -0.000877 0.000000 0.001095 0.000000
# 2 -0.008028 0.052210 -0.008271 0.000000 -0.004219 0.000000
# 3 -0.000877 -0.008271 0.012045 0.000000 0.000556 0.000000
# 4 0.000000 0.000000 0.000000 0.032796 0.000000 -0.006047
# 5 0.001095 -0.004219 0.000556 0.000000 0.030231 0.000000
# 6 0.000000 0.000000 0.000000 -0.006047 0.000000 0.050615
#
#
# Mechanical properties :
#
#
# Convention : Reuss Voigt Hill
#
# Bulk Modulus (GPa) = 24.88088 40.75662 32.81875
# Shear Modulus (GPa) = 21.19216 28.69460 24.94338
#
# Velocity S-wave (km/s) = 3.37968 3.93268 3.66662
# Velocity P-wave (km/s) = 5.35164 6.52599 5.96777
#
# Compressibility (1/GPa) = 0.04019150
#
# Stress axis : x y z
#
# Youngs Moduli (GPa) = 97.19290 19.15336 83.02323
#
# Poissons Ratio (x) = 0.15376 0.07279
# Poissons Ratio (y) = 0.78027 0.68672
# Poissons Ratio (z) = 0.08521 0.15843
#
# Static dielectric constant tensor:
#      x y z
#    x 1.639780 0.000000 0.004090 
#    y 0.000000 1.634510 0.000000 
#    z 0.004090 0.000000 1.596760 
# 
# From -- ./inp_files/12070.got.cif
#   From: 2010.05.17/outbox.cif.g08.bks.cpg/sg8_7_cif.got.tgz:12070.got - 2010.06.03 19:46:02.
