data_PCOD9132940
_publ_section_title
;
Structure prediction by ZEFSAII (Michael W. Deem and Ramdas Pophale) SiO2 
 PCOD9132940
Probable space group: C M
;
_chemical_formula_sum "Si O2"
_cell_formula_units_Z 26
_cell_length_a 18.792844
_cell_length_b 7.185451
_cell_length_c 7.376674
_cell_angle_alpha 90.000000
_cell_angle_beta 110.730057
_cell_angle_gamma 90.000000
_cell_volume 931.619955
_symmetry_space_group_name_H-M "C M"
_symmetry_group_IT_number 8
_symmetry_cell_setting 'monoclinic'
loop_
_space_group_symop_operation_xyz
x,y,z
x,-y,z
1/2+x,1/2+y,z
1/2+x,1/2-y,z
loop_
_atom_site_type_symbol
_atom_site_label
_atom_site_fract_x
_atom_site_fract_y
_atom_site_fract_z
Si Si1 0.789390 0.275017 0.112560
Si Si2 0.421430 0.774960 0.502699
Si Si3 0.009276 0.000000 0.952526
Si Si4 0.027072 0.276312 0.272588
Si Si5 0.687000 0.776909 0.534780
Si Si6 0.850755 0.289501 0.783067
Si Si7 0.126009 0.289158 0.878085
O O1 0.787499 0.500000 0.105778
O O2 0.849579 0.218170 0.316779
O O3 0.703592 0.210859 0.065668
O O4 0.820522 0.209847 0.944659
O O5 0.493030 0.730791 0.440842
O O6 0.409053 0.694037 0.693790
O O7 0.420076 0.000000 0.519226
O O8 0.983566 0.163103 0.081357
O O9 0.061710 0.159622 0.895351
O O10 0.021127 0.500000 0.246024
O O11 0.115927 0.220156 0.346873
O O12 0.771670 0.700536 0.594585
O O13 0.692999 0.000000 0.529084
O O14 0.657866 0.729610 0.710780
O O15 0.876522 0.500000 0.844397
O O16 0.096990 0.500000 0.836671
#
# Coordination Sequence:
#
# PCOD9132940 Si02
#       7
#     4   4   2   4   4   4   4
#     4   9  17  34  59  90 122 155 201 254 301 366
#     4   9  19  37  59  83 120 162 201 251 303 362
#     4  12  24  38  62  88 128 162 202 248 314 364
#     4  10  23  42  60  88 125 161 206 251 303 367
#     4   9  20  38  61  88 122 155 201 259 302 363
#     4   9  18  32  60  88 114 157 204 246 309 361
#     4  10  21  38  61  94 122 157 202 255 311 360
#
# _framework density 27.908376000000001
#
# number of rings (size 3 to 8) (size 9 to 14) (size 15 to 20)
#    0.000    2.462    0.769    0.462    4.308    0.000 
#    5.538    0.000    0.000    0.000    0.000    0.000 
#    0.000    0.000    0.000    0.000    0.000    0.000 
#
# Total GULP energy -72623.254164 kJ/mol
# GULP energy per Si atom -5586.404166 kJ/mol
# Density = 2.784485 g / cm^3
# Si number density = 27.908376 Si / 1000 Ang^3
#
#
#
# Elastic Constant Matrix: (Units=GPa)
#
#
# Indices 1 2 3 4 5 6 
#
# 1 160.0255 -12.2206 33.7914 0.0000 -14.3482 0.0000
# 2 -12.2206 155.9504 -22.1677 0.0000 -22.4572 0.0000
# 3 33.7914 -22.1677 120.1015 0.0000 -22.1296 0.0000
# 4 0.0000 0.0000 0.0000 -19.9515 0.0000 -19.4165
# 5 -14.3482 -22.4572 -22.1296 0.0000 72.0165 0.0000
# 6 0.0000 0.0000 0.0000 -19.4165 0.0000 0.0336
#
#
#
# Elastic Compliance Matrix: (Units=1/GPa)
#
#
# Indices 1 2 3 4 5 6 
#
# 1 0.006713 0.000434 -0.001630 0.000000 0.000972 0.000000
# 2 0.000434 0.007096 0.001708 0.000000 0.002824 0.000000
# 3 -0.001630 0.001708 0.009687 0.000000 0.003184 0.000000
# 4 0.000000 0.000000 0.000000 -0.000089 0.000000 -0.051411
# 5 0.000972 0.002824 0.003184 0.000000 0.015939 0.000000
# 6 0.000000 0.000000 0.000000 -0.051411 0.000000 0.052828
#
#
# Mechanical properties :
#
#
# Convention : Reuss Voigt Hill
#
# Bulk Modulus (GPa) = 40.78060 48.32040 44.55050
# Shear Modulus (GPa) = 50.34140 39.53132 44.93636
#
# Velocity S-wave (km/s) = 4.25174 3.76768 4.01701
# Velocity P-wave (km/s) = 6.22471 6.02319 6.12478
#
# Compressibility (1/GPa) = 0.02452146
#
# Stress axis : x y z
#
# Youngs Moduli (GPa) = 148.95457 140.92905 103.23379
#
# Poissons Ratio (x) = -0.06123 0.16822
# Poissons Ratio (y) = -0.06472 -0.17630
# Poissons Ratio (z) = 0.24273 -0.24068
#
# Static dielectric constant tensor:
#      x y z
#    x 2.180830 0.000000 0.107480 
#    y 0.000000 2.146120 0.000000 
#    z 0.107480 0.000000 2.245710 
# 
# From -- ./inp_files/14456.got.cif
#   From: 2010.05.17/outbox.cif.g08.bks.cpg/sg8_8_cif.got.tgz:14456.got - 2010.06.03 19:46:02.
