data_PCOD9132589
_publ_section_title
;
Structure prediction by ZEFSAII (Michael W. Deem and Ramdas Pophale) SiO2 
 PCOD9132589
Probable space group: C M
;
_chemical_formula_sum "Si O2"
_cell_formula_units_Z 32
_cell_length_a 15.227606
_cell_length_b 8.778847
_cell_length_c 12.438284
_cell_angle_alpha 90.000000
_cell_angle_beta 104.963004
_cell_angle_gamma 90.000000
_cell_volume 1606.380416
_symmetry_space_group_name_H-M "C M"
_symmetry_group_IT_number 8
_symmetry_cell_setting 'monoclinic'
loop_
_space_group_symop_operation_xyz
x,y,z
x,-y,z
1/2+x,1/2+y,z
1/2+x,1/2-y,z
loop_
_atom_site_type_symbol
_atom_site_label
_atom_site_fract_x
_atom_site_fract_y
_atom_site_fract_z
Si Si1 0.563800 0.180009 0.725980
Si Si2 0.963804 0.175384 0.501112
Si Si3 0.510528 0.681194 0.140093
Si Si4 0.692891 0.183431 0.299676
Si Si5 0.452086 0.183140 0.900824
Si Si6 0.880557 0.319138 0.270678
Si Si7 0.750054 0.679504 0.775316
Si Si8 0.765593 0.176377 0.549881
O O1 0.538044 0.263195 0.607201
O O2 0.496159 0.225393 0.800408
O O3 0.665066 0.225847 0.790816
O O4 0.555320 0.000000 0.706672
O O5 0.947725 0.275222 0.390395
O O6 0.867764 0.180872 0.534828
O O7 0.980940 0.000000 0.476216
O O8 0.512479 0.500000 0.149849
O O9 0.602030 0.750792 0.219673
O O10 0.425199 0.747949 0.179141
O O11 0.499826 0.733123 0.013882
O O12 0.782707 0.248381 0.269476
O O13 0.702603 0.222864 0.429499
O O14 0.694454 0.000000 0.293346
O O15 0.345201 0.218675 0.861226
O O16 0.462082 0.000000 0.916539
O O17 0.873109 0.500000 0.258610
O O18 0.733487 0.500000 0.782861
O O19 0.759014 0.720092 0.652020
O O20 0.745270 0.000000 0.572803
#
# Coordination Sequence:
#
# PCOD9132589 Si02
#       8
#     4   4   4   4   4   4   4   4
#     4  11  23  40  63  92 125 165 210 258 318 378
#     4  10  20  37  62  93 130 166 207 260 315 376
#     4  12  26  43  67  95 126 171 218 264 318 380
#     4  10  22  42  65  94 130 168 211 264 319 378
#     4  10  24  46  65  87 125 169 214 265 317 375
#     4  11  23  41  65  94 130 169 211 263 319 379
#     4  11  23  39  62  92 125 164 209 260 313 374
#     4   9  19  36  61  91 127 164 202 254 315 374
#
# _framework density 19.920559999999998
#
# number of rings (size 3 to 8) (size 9 to 14) (size 15 to 20)
#    0.000    1.500    1.250    4.500    1.750    5.500 
#    0.000    2.500    0.000    0.000    0.000    0.000 
#    0.000    0.000    0.000    0.000    0.000    0.000 
#
# Total GULP energy -89483.537352 kJ/mol
# GULP energy per Si atom -5592.721084 kJ/mol
# Density = 1.987522 g / cm^3
# Si number density = 19.920560 Si / 1000 Ang^3
#
#
#
# Elastic Constant Matrix: (Units=GPa)
#
#
# Indices 1 2 3 4 5 6 
#
# 1 44.9801 10.0455 8.2075 0.0000 11.6423 0.0000
# 2 10.0455 71.1239 27.2024 0.0000 9.2470 0.0000
# 3 8.2075 27.2024 68.2705 0.0000 17.4671 0.0000
# 4 0.0000 0.0000 0.0000 33.8156 0.0000 0.8964
# 5 11.6423 9.2470 17.4671 0.0000 26.9388 0.0000
# 6 0.0000 0.0000 0.0000 0.8964 0.0000 32.9566
#
#
#
# Elastic Compliance Matrix: (Units=1/GPa)
#
#
# Indices 1 2 3 4 5 6 
#
# 1 0.025394 -0.002454 0.000620 0.000000 -0.010534 0.000000
# 2 -0.002454 0.016889 -0.006261 0.000000 -0.000677 0.000000
# 3 0.000620 -0.006261 0.019885 0.000000 -0.011013 0.000000
# 4 0.000000 0.000000 0.000000 0.029593 0.000000 -0.000805
# 5 -0.010534 -0.000677 -0.011013 0.000000 0.049047 0.000000
# 6 0.000000 0.000000 0.000000 -0.000805 0.000000 0.030365
#
#
# Mechanical properties :
#
#
# Convention : Reuss Voigt Hill
#
# Bulk Modulus (GPa) = 21.74962 30.58728 26.16845
# Shear Modulus (GPa) = 24.66822 28.00348 26.33585
#
# Velocity S-wave (km/s) = 3.52281 3.75341 3.63994
# Velocity P-wave (km/s) = 5.24297 5.84569 5.55252
#
# Compressibility (1/GPa) = 0.04597781
#
# Stress axis : x y z
#
# Youngs Moduli (GPa) = 39.37997 59.20892 50.28805
#
# Poissons Ratio (x) = 0.14531 -0.03119
# Poissons Ratio (y) = 0.09665 0.31487
# Poissons Ratio (z) = -0.02443 0.37073
#
# Static dielectric constant tensor:
#      x y z
#    x 1.711570 0.000000 -0.002030 
#    y 0.000000 1.664480 0.000000 
#    z -0.002030 0.000000 1.674000 
# 
# From -- ./inp_files/21613.got.cif
#   From: 2010.05.17/outbox.cif.g08.bks.cpg/sg8_11_cif.got.tgz:21613.got - 2010.06.03 19:46:02.
