data_PCOD9132610
_publ_section_title
;
Structure prediction by ZEFSAII (Michael W. Deem and Ramdas Pophale) SiO2 
 PCOD9132610
Probable space group: C M
;
_chemical_formula_sum "Si O2"
_cell_formula_units_Z 28
_cell_length_a 9.250949
_cell_length_b 28.900207
_cell_length_c 5.145231
_cell_angle_alpha 90.000000
_cell_angle_beta 97.721474
_cell_angle_gamma 90.000000
_cell_volume 1363.127160
_symmetry_space_group_name_H-M "C M"
_symmetry_group_IT_number 8
_symmetry_cell_setting 'monoclinic'
loop_
_space_group_symop_operation_xyz
x,y,z
x,-y,z
1/2+x,1/2+y,z
1/2+x,1/2-y,z
loop_
_atom_site_type_symbol
_atom_site_label
_atom_site_fract_x
_atom_site_fract_y
_atom_site_fract_z
Si Si1 0.346790 0.947745 0.643140
Si Si2 0.544106 0.194986 0.584786
Si Si3 0.161621 0.647542 0.103970
Si Si4 0.710359 0.712646 0.593438
Si Si5 0.047101 0.552497 0.200907
Si Si6 0.486258 0.651120 0.271479
Si Si7 0.609648 0.622717 0.797092
O O1 0.436467 0.933951 0.407383
O O2 0.218273 0.914104 0.699659
O O3 0.291911 0.000000 0.583223
O O4 0.456138 0.949165 0.912701
O O5 0.651558 0.237971 0.663238
O O6 0.378054 0.212187 0.554747
O O7 0.827827 0.164959 0.135849
O O8 0.579259 0.174428 0.312540
O O9 0.078921 0.657342 0.815333
O O10 0.478912 0.628810 0.557227
O O11 0.161420 0.593447 0.182822
O O12 0.598671 0.693359 0.345790
O O13 0.690516 0.672432 0.803098
O O14 0.100953 0.500000 0.269069
O O15 0.555468 0.616737 0.075361
#
# Coordination Sequence:
#
# PCOD9132610 Si02
#       7
#     4   4   4   4   4   4   4
#     4  10  20  37  64  97 127 163 211 264 312 374
#     4  12  27  39  69  89 131 159 226 251 326 364
#     4  12  25  43  63  96 123 176 204 268 310 389
#     4  10  26  42  63  94 121 170 206 270 304 384
#     4  10  21  38  63  92 127 163 211 262 315 377
#     4  10  24  40  64  85 133 161 210 252 324 357
#     4  10  21  39  63  87 126 166 203 259 309 373
#
# _framework density 20.541003
#
# number of rings (size 3 to 8) (size 9 to 14) (size 15 to 20)
#    0.857    0.571    0.000    5.143    8.000    0.000 
#    0.000    1.429    0.000    0.000    0.000    0.000 
#    0.000    0.000    0.000    0.000    0.000    0.000 
#
# Total GULP energy -78110.130246 kJ/mol
# GULP energy per Si atom -5579.295018 kJ/mol
# Density = 2.049425 g / cm^3
# Si number density = 20.541003 Si / 1000 Ang^3
#
#
#
# Elastic Constant Matrix: (Units=GPa)
#
#
# Indices 1 2 3 4 5 6 
#
# 1 89.5675 17.0326 10.8635 0.0000 -12.7018 0.0000
# 2 17.0326 76.1166 10.0838 0.0000 -8.4912 0.0000
# 3 10.8635 10.0838 90.4527 0.0000 -7.5033 0.0000
# 4 0.0000 0.0000 0.0000 25.0663 0.0000 9.3377
# 5 -12.7018 -8.4912 -7.5033 0.0000 17.4535 0.0000
# 6 0.0000 0.0000 0.0000 9.3377 0.0000 162.0223
#
#
#
# Elastic Compliance Matrix: (Units=1/GPa)
#
#
# Indices 1 2 3 4 5 6 
#
# 1 0.012745 -0.001863 -0.000652 0.000000 0.008089 0.000000
# 2 -0.001863 0.014256 -0.000936 0.000000 0.005177 0.000000
# 3 -0.000652 -0.000936 0.011574 0.000000 0.004046 0.000000
# 4 0.000000 0.000000 0.000000 0.040769 0.000000 -0.002350
# 5 0.008089 0.005177 0.004046 0.000000 0.067440 0.000000
# 6 0.000000 0.000000 0.000000 -0.002350 0.000000 0.006307
#
#
# Mechanical properties :
#
#
# Convention : Reuss Voigt Hill
#
# Bulk Modulus (GPa) = 31.57311 36.89962 34.23636
# Shear Modulus (GPa) = 29.31656 55.45222 42.38439
#
# Velocity S-wave (km/s) = 3.78196 5.20139 4.54740
# Velocity P-wave (km/s) = 5.87155 7.35361 6.65397
#
# Compressibility (1/GPa) = 0.03167252
#
# Stress axis : x y z
#
# Youngs Moduli (GPa) = 78.46065 70.14463 86.40229
#
# Poissons Ratio (x) = 0.13070 0.05634
# Poissons Ratio (y) = 0.14620 0.08088
# Poissons Ratio (z) = 0.05116 0.06566
#
# Static dielectric constant tensor:
#      x y z
#    x 1.718710 0.000000 0.006260 
#    y 0.000000 1.758430 0.000000 
#    z 0.006260 0.000000 1.726140 
# 
# From -- ./inp_files/1938.got.cif
#   From: 2010.05.17/outbox.cif.g08.bks.cpg/sg8_1_cif.got.tgz:1938.got - 2010.06.03 19:46:02.
