data_PCOD9132917
_publ_section_title
;
Structure prediction by ZEFSAII (Michael W. Deem and Ramdas Pophale) SiO2 
 PCOD9132917
Probable space group: C M
;
_chemical_formula_sum "Si O2"
_cell_formula_units_Z 32
_cell_length_a 24.607400
_cell_length_b 9.052439
_cell_length_c 7.261800
_cell_angle_alpha 90.000000
_cell_angle_beta 90.577186
_cell_angle_gamma 90.000000
_cell_volume 1617.534613
_symmetry_space_group_name_H-M "C M"
_symmetry_group_IT_number 8
_symmetry_cell_setting 'monoclinic'
loop_
_space_group_symop_operation_xyz
x,y,z
x,-y,z
1/2+x,1/2+y,z
1/2+x,1/2-y,z
loop_
_atom_site_type_symbol
_atom_site_label
_atom_site_fract_x
_atom_site_fract_y
_atom_site_fract_z
Si Si1 0.639000 0.324827 0.241710
Si Si2 0.066779 0.825241 0.574191
Si Si3 0.825872 0.176857 0.824640
Si Si4 0.053032 0.677814 0.967465
Si Si5 0.351029 0.675909 0.407295
Si Si6 0.750413 0.823631 0.131378
Si Si7 0.960120 0.330979 0.470245
Si Si8 0.433725 0.831158 0.909811
O O1 0.637084 0.500000 0.207408
O O2 0.619479 0.299634 0.450466
O O3 0.697943 0.261314 0.198841
O O4 0.595142 0.244179 0.111718
O O5 0.068114 0.738792 0.766014
O O6 0.014269 0.766056 0.460642
O O7 0.060543 0.000000 0.607873
O O8 0.830095 0.219174 0.611193
O O9 0.879877 0.235756 0.926935
O O10 0.827117 0.000000 0.834182
O O11 0.771991 0.224544 0.930951
O O12 0.054540 0.500000 0.966207
O O13 0.989998 0.721356 0.002220
O O14 0.363126 0.500000 0.409813
O O15 0.302060 0.701295 0.265692
O O16 0.406800 0.763273 0.373928
O O17 0.739042 0.000000 0.129394
O O18 0.970161 0.500000 0.413718
O O19 0.946702 0.331478 0.689924
O O20 0.422919 0.000000 0.964332
#
# Coordination Sequence:
#
# PCOD9132917 Si02
#       8
#     4   4   4   4   4   4   4   4
#     4  11  25  41  57  81 112 149 194 238 281 332
#     4  10  21  38  59  84 116 151 187 230 281 336
#     4   9  18  33  54  79 106 139 176 217 271 328
#     4  10  21  38  61  87 115 148 186 230 282 337
#     4   9  18  34  55  78 107 142 177 221 279 334
#     4  10  22  38  54  76 106 141 188 236 274 324
#     4   9  17  31  54  84 113 142 180 224 274 332
#     4   8  16  31  52  81 111 138 172 216 270 329
#
# _framework density 19.783194000000002
#
# number of rings (size 3 to 8) (size 9 to 14) (size 15 to 20)
#    0.000    2.500    0.000    2.250    0.000    8.500 
#    0.000    5.000    0.000    0.000    0.000    0.000 
#    0.000    0.000    0.000    0.000    0.000    0.000 
#
# Total GULP energy -89348.642741 kJ/mol
# GULP energy per Si atom -5584.290171 kJ/mol
# Density = 1.973817 g / cm^3
# Si number density = 19.783194 Si / 1000 Ang^3
#
#
#
# Elastic Constant Matrix: (Units=GPa)
#
#
# Indices 1 2 3 4 5 6 
#
# 1 68.9087 25.2771 14.1969 0.0000 -23.9862 0.0000
# 2 25.2771 40.3928 20.5171 0.0000 -12.5096 0.0000
# 3 14.1969 20.5171 55.3140 0.0000 -9.0697 0.0000
# 4 0.0000 0.0000 0.0000 17.8574 0.0000 1.9606
# 5 -23.9862 -12.5096 -9.0697 0.0000 31.9147 0.0000
# 6 0.0000 0.0000 0.0000 1.9606 0.0000 39.7441
#
#
#
# Elastic Compliance Matrix: (Units=1/GPa)
#
#
# Indices 1 2 3 4 5 6 
#
# 1 0.022842 -0.010268 0.000106 0.000000 0.013173 0.000000
# 2 -0.010268 0.037912 -0.010757 0.000000 0.004086 0.000000
# 3 0.000106 -0.010757 0.022407 0.000000 0.002231 0.000000
# 4 0.000000 0.000000 0.000000 0.056304 0.000000 -0.002778
# 5 0.013173 0.004086 0.002231 0.000000 0.043469 0.000000
# 6 0.000000 0.000000 0.000000 -0.002778 0.000000 0.025298
#
#
# Mechanical properties :
#
#
# Convention : Reuss Voigt Hill
#
# Bulk Modulus (GPa) = 24.19986 31.62197 27.91092
# Shear Modulus (GPa) = 18.95053 24.87820 21.91436
#
# Velocity S-wave (km/s) = 3.09837 3.55003 3.33186
# Velocity P-wave (km/s) = 5.00589 5.72910 5.37966
#
# Compressibility (1/GPa) = 0.04132255
#
# Stress axis : x y z
#
# Youngs Moduli (GPa) = 43.77909 26.37701 44.62861
#
# Poissons Ratio (x) = 0.27085 -0.00473
# Poissons Ratio (y) = 0.44954 0.48006
# Poissons Ratio (z) = -0.00464 0.28373
#
# Static dielectric constant tensor:
#      x y z
#    x 1.663940 0.000000 -0.017850 
#    y 0.000000 1.660600 0.000000 
#    z -0.017850 0.000000 1.755150 
# 
# From -- ./inp_files/16757.got.cif
#   From: 2010.05.17/outbox.cif.g08.bks.cpg/sg8_9_cif.got.tgz:16757.got - 2010.06.03 19:46:02.
