data_PCOD9132034
_publ_section_title
;
Structure prediction by ZEFSAII (Michael W. Deem and Ramdas Pophale) SiO2 
 PCOD9132034
Probable space group: C M
;
_chemical_formula_sum "Si O2"
_cell_formula_units_Z 32
_cell_length_a 15.114057
_cell_length_b 8.992791
_cell_length_c 21.954402
_cell_angle_alpha 90.000000
_cell_angle_beta 33.547401
_cell_angle_gamma 90.000000
_cell_volume 1649.031724
_symmetry_space_group_name_H-M "C M"
_symmetry_group_IT_number 8
_symmetry_cell_setting 'monoclinic'
loop_
_space_group_symop_operation_xyz
x,y,z
x,-y,z
1/2+x,1/2+y,z
1/2+x,1/2-y,z
loop_
_atom_site_type_symbol
_atom_site_label
_atom_site_fract_x
_atom_site_fract_y
_atom_site_fract_z
Si Si1 0.834700 0.671482 0.572560
Si Si2 0.798836 0.678125 0.380372
Si Si3 0.135916 0.177796 0.345873
Si Si4 0.660934 0.178645 0.203659
Si Si5 0.505339 0.828205 0.606773
Si Si6 0.257901 0.177387 0.852360
Si Si7 0.457152 0.822188 0.971012
Si Si8 0.021080 0.323641 0.795618
O O1 0.833682 0.500000 0.552789
O O2 0.658198 0.737120 0.680647
O O3 0.955063 0.767094 0.462626
O O4 0.910398 0.677237 0.597212
O O5 0.791918 0.500000 0.387887
O O6 0.738621 0.720149 0.346997
O O7 0.670154 0.742466 0.501635
O O8 0.980151 0.724578 0.289419
O O9 0.195197 0.257452 0.251112
O O10 0.140680 0.000000 0.336439
O O11 0.669330 0.000000 0.199070
O O12 0.790837 0.245851 0.083521
O O13 0.385234 0.772945 0.727591
O O14 0.542213 0.000000 0.599839
O O15 0.349235 0.200203 0.863234
O O16 0.094313 0.264405 0.937611
O O17 0.229614 0.000000 0.860217
O O18 0.513677 0.780238 0.870450
O O19 0.441784 0.000000 0.982468
O O20 0.057108 0.500000 0.771080
#
# Coordination Sequence:
#
# PCOD9132034 Si02
#       8
#     4   4   4   4   4   4   4   4
#     4  10  19  34  58  89 123 158 196 240 295 354
#     4   9  21  39  59  86 120 156 195 240 294 350
#     4  10  21  39  61  88 121 156 196 245 296 350
#     4  11  24  42  63  87 117 158 202 247 296 355
#     4   9  18  33  57  87 121 156 193 238 293 349
#     4  10  21  39  60  87 119 157 199 243 297 353
#     4  11  24  42  61  86 119 158 202 249 297 350
#     4  10  22  38  59  88 120 155 199 246 298 351
#
# _framework density 19.405327
#
# number of rings (size 3 to 8) (size 9 to 14) (size 15 to 20)
#    0.000    2.000    1.250    1.500    1.750    4.500 
#    0.000    2.500    0.000    0.000    0.000    0.000 
#    0.000    0.000    0.000    0.000    0.000    0.000 
#
# Total GULP energy -89388.640224 kJ/mol
# GULP energy per Si atom -5586.790014 kJ/mol
# Density = 1.936116 g / cm^3
# Si number density = 19.405327 Si / 1000 Ang^3
#
#
#
# Elastic Constant Matrix: (Units=GPa)
#
#
# Indices 1 2 3 4 5 6 
#
# 1 39.6372 17.2468 12.4387 0.0000 -10.6917 0.0000
# 2 17.2468 39.3746 25.4764 0.0000 -6.7538 0.0000
# 3 12.4387 25.4764 80.7976 0.0000 -18.0490 0.0000
# 4 0.0000 0.0000 0.0000 38.2034 0.0000 -2.4749
# 5 -10.6917 -6.7538 -18.0490 0.0000 27.9521 0.0000
# 6 0.0000 0.0000 0.0000 -2.4749 0.0000 21.9503
#
#
#
# Elastic Compliance Matrix: (Units=1/GPa)
#
#
# Indices 1 2 3 4 5 6 
#
# 1 0.033640 -0.013946 0.001566 0.000000 0.010509 0.000000
# 2 -0.013946 0.037736 -0.010408 0.000000 -0.002937 0.000000
# 3 0.001566 -0.010408 0.017516 0.000000 0.009394 0.000000
# 4 0.000000 0.000000 0.000000 0.026368 0.000000 0.002973
# 5 0.010509 -0.002937 0.009394 0.000000 0.045152 0.000000
# 6 0.000000 0.000000 0.000000 0.002973 0.000000 0.045893
#
#
# Mechanical properties :
#
#
# Convention : Reuss Voigt Hill
#
# Bulk Modulus (GPa) = 23.08565 30.01479 26.55022
# Shear Modulus (GPa) = 18.77457 24.59765 21.68611
#
# Velocity S-wave (km/s) = 3.11383 3.56416 3.34658
# Velocity P-wave (km/s) = 4.98501 5.69548 5.35205
#
# Compressibility (1/GPa) = 0.04331695
#
# Stress axis : x y z
#
# Youngs Moduli (GPa) = 29.72650 26.50007 57.09139
#
# Poissons Ratio (x) = 0.36956 -0.08940
# Poissons Ratio (y) = 0.41455 0.59419
# Poissons Ratio (z) = -0.04655 0.27580
#
# Static dielectric constant tensor:
#      x y z
#    x 1.698090 0.000000 0.001250 
#    y 0.000000 1.653900 0.000000 
#    z 0.001250 0.000000 1.645990 
# 
# From -- ./inp_files/21508.got.cif
#   From: 2010.05.17/outbox.cif.g08.bks.cpg/sg8_11_cif.got.tgz:21508.got - 2010.06.03 19:46:02.
