data_PCOD9132877
_publ_section_title
;
Structure prediction by ZEFSAII (Michael W. Deem and Ramdas Pophale) SiO2 
 PCOD9132877
Probable space group: C M
;
_chemical_formula_sum "Si O2"
_cell_formula_units_Z 32
_cell_length_a 9.423046
_cell_length_b 14.483382
_cell_length_c 13.182981
_cell_angle_alpha 90.000000
_cell_angle_beta 59.486583
_cell_angle_gamma 90.000000
_cell_volume 1550.013176
_symmetry_space_group_name_H-M "C M"
_symmetry_group_IT_number 8
_symmetry_cell_setting 'monoclinic'
loop_
_space_group_symop_operation_xyz
x,y,z
x,-y,z
1/2+x,1/2+y,z
1/2+x,1/2-y,z
loop_
_atom_site_type_symbol
_atom_site_label
_atom_site_fract_x
_atom_site_fract_y
_atom_site_fract_z
Si Si1 0.664340 0.261046 0.589480
Si Si2 0.153944 0.395282 0.886091
Si Si3 0.528705 0.286410 0.435275
Si Si4 0.019485 0.805899 0.210180
Si Si5 0.270363 0.893007 0.965648
Si Si6 0.175886 0.400482 0.325685
Si Si7 0.536299 0.897596 0.152545
Si Si8 0.798403 0.292744 0.750635
O O1 0.626527 0.318581 0.499843
O O2 0.705895 0.313425 0.678899
O O3 0.495860 0.204652 0.666962
O O4 0.831641 0.201863 0.513836
O O5 0.206373 0.500000 0.840129
O O6 0.255668 0.312976 0.798620
O O7 0.963550 0.383485 0.921461
O O8 0.145993 0.388370 0.011462
O O9 0.580772 0.314365 0.303816
O O10 0.565768 0.176727 0.418586
O O11 0.955577 0.703239 0.200898
O O12 0.864724 0.872607 0.262126
O O13 0.162777 0.834114 0.082331
O O14 0.242777 0.857039 0.862340
O O15 0.225675 0.000000 0.992221
O O16 0.144290 0.500000 0.382946
O O17 0.135347 0.403479 0.221235
O O18 0.450547 0.000000 0.172424
#
# Coordination Sequence:
#
# PCOD9132877 Si02
#       8
#     4   4   4   4   4   4   4   4
#     4  10  22  40  65  91 122 169 221 258 311 374
#     4  10  21  38  58  90 127 164 204 252 317 382
#     4  10  21  40  64  93 120 167 214 265 311 376
#     4  11  21  35  66  90 130 166 210 257 325 374
#     4  11  24  39  61  96 131 165 210 258 319 391
#     4  10  21  37  57  91 127 170 208 251 316 383
#     4   9  20  34  56  87 125 160 202 252 313 383
#     4  11  21  41  68  90 126 169 208 263 317 377
#
# _framework density 20.644987
#
# number of rings (size 3 to 8) (size 9 to 14) (size 15 to 20)
#    0.000    1.750    3.750    0.375    3.500    1.000 
#    0.000    5.625    0.000    2.250    0.000    0.000 
#    0.000    0.000    0.000    0.000    0.000    0.000 
#
# Total GULP energy -89184.379115 kJ/mol
# GULP energy per Si atom -5574.023695 kJ/mol
# Density = 2.059800 g / cm^3
# Si number density = 20.644987 Si / 1000 Ang^3
#
#
#
# Elastic Constant Matrix: (Units=GPa)
#
#
# Indices 1 2 3 4 5 6 
#
# 1 91.3675 23.7411 47.4272 0.0000 4.1367 0.0000
# 2 23.7411 66.3931 14.5762 0.0000 4.7092 0.0000
# 3 47.4272 14.5762 108.4230 0.0000 26.9640 0.0000
# 4 0.0000 0.0000 0.0000 -2.8313 0.0000 -2.2667
# 5 4.1367 4.7092 26.9640 0.0000 24.3464 0.0000
# 6 0.0000 0.0000 0.0000 -2.2667 0.0000 9.1966
#
#
#
# Elastic Compliance Matrix: (Units=1/GPa)
#
#
# Indices 1 2 3 4 5 6 
#
# 1 0.016037 -0.004444 -0.008217 0.000000 0.007235 0.000000
# 2 -0.004444 0.016767 0.000426 0.000000 -0.002960 0.000000
# 3 -0.008217 0.000426 0.017160 0.000000 -0.017691 0.000000
# 4 0.000000 0.000000 0.000000 -0.294991 0.000000 -0.072705
# 5 0.007235 -0.002960 -0.017691 0.000000 0.060010 0.000000
# 6 0.000000 0.000000 0.000000 -0.072705 0.000000 0.090816
#
#
# Mechanical properties :
#
#
# Convention : Reuss Voigt Hill
#
# Bulk Modulus (GPa) = 39.22467 48.63029 43.92748
# Shear Modulus (GPa) = -81.65601 18.17163 -31.74219
#
# Velocity S-wave (km/s) = -6.29590 2.97003 -3.92538
# Velocity P-wave (km/s) = 5.81466 5.94710 0.88256
#
# Compressibility (1/GPa) = 0.02549416
#
# Stress axis : x y z
#
# Youngs Moduli (GPa) = 62.35476 59.63987 58.27542
#
# Poissons Ratio (x) = 0.26503 0.47885
# Poissons Ratio (y) = 0.27710 -0.02481
# Poissons Ratio (z) = 0.51237 -0.02539
#
# Static dielectric constant tensor:
#      x y z
#    x 1.752630 0.000000 0.025260 
#    y 0.000000 1.753810 0.000000 
#    z 0.025260 0.000000 1.760570 
# 
# From -- ./inp_files/25365.got.cif
#   From: 2010.05.17/outbox.cif.g08.bks.cpg/sg8_13_cif.got.tgz:25365.got - 2010.06.03 19:46:02.
