data_PCOD9132557
_publ_section_title
;
Structure prediction by ZEFSAII (Michael W. Deem and Ramdas Pophale) SiO2 
 PCOD9132557
Probable space group: C M
;
_chemical_formula_sum "Si O2"
_cell_formula_units_Z 28
_cell_length_a 5.399370
_cell_length_b 18.362280
_cell_length_c 14.549197
_cell_angle_alpha 90.000000
_cell_angle_beta 113.428357
_cell_angle_gamma 90.000000
_cell_volume 1323.555704
_symmetry_space_group_name_H-M "C M"
_symmetry_group_IT_number 8
_symmetry_cell_setting 'monoclinic'
loop_
_space_group_symop_operation_xyz
x,y,z
x,-y,z
1/2+x,1/2+y,z
1/2+x,1/2-y,z
loop_
_atom_site_type_symbol
_atom_site_label
_atom_site_fract_x
_atom_site_fract_y
_atom_site_fract_z
Si Si1 0.900090 0.846652 0.050590
Si Si2 0.336317 0.082975 0.991419
Si Si3 0.248799 0.829455 0.493622
Si Si4 0.144135 0.290110 0.834140
Si Si5 0.018838 0.211010 0.270178
Si Si6 0.759325 0.413148 0.769136
Si Si7 0.833636 0.160832 0.573611
O O1 0.966546 0.821852 0.162573
O O2 0.654779 0.903330 0.028006
O O3 0.770006 0.792313 0.955668
O O4 0.175317 0.871456 0.042644
O O5 0.218053 0.097550 0.872478
O O6 0.285478 0.000000 0.007267
O O7 0.189701 0.825852 0.376781
O O8 0.534624 0.867799 0.548533
O O9 0.284155 0.748205 0.546216
O O10 0.991257 0.863457 0.505240
O O11 0.367893 0.256085 0.801292
O O12 0.042107 0.370785 0.792373
O O13 0.227324 0.275369 0.273165
O O14 0.768238 0.500000 0.752268
O O15 0.532743 0.369823 0.680109
#
# Coordination Sequence:
#
# PCOD9132557 Si02
#       7
#     4   4   4   4   4   4   4
#     4  11  22  37  61  94 128 163 207 267 321 372
#     4  10  22  42  61  88 126 174 217 255 309 388
#     4  10  20  37  59  93 116 159 202 271 313 379
#     4  11  23  39  58  92 130 165 202 261 311 369
#     4  12  20  36  61  92 123 161 201 255 330 385
#     4  10  24  42  66  93 130 175 219 261 318 386
#     4  10  20  37  60  86 121 157 214 250 321 363
#
# _framework density 21.155135000000001
#
# number of rings (size 3 to 8) (size 9 to 14) (size 15 to 20)
#    0.000    1.429    2.857    3.857    4.000    2.857 
#    0.000    5.714    0.000    5.143    0.000    0.000 
#    0.000    0.000    0.000    0.000    0.000    0.000 
#
# Total GULP energy -78054.234242 kJ/mol
# GULP energy per Si atom -5575.302446 kJ/mol
# Density = 2.110698 g / cm^3
# Si number density = 21.155135 Si / 1000 Ang^3
#
#
#
# Elastic Constant Matrix: (Units=GPa)
#
#
# Indices 1 2 3 4 5 6 
#
# 1 85.0985 17.6425 -17.5831 0.0000 -9.4983 0.0000
# 2 17.6425 38.5744 25.4155 0.0000 6.5575 0.0000
# 3 -17.5831 25.4155 106.4857 0.0000 3.0802 0.0000
# 4 0.0000 0.0000 0.0000 13.9691 0.0000 0.1489
# 5 -9.4983 6.5575 3.0802 0.0000 27.7867 0.0000
# 6 0.0000 0.0000 0.0000 0.1489 0.0000 15.1701
#
#
#
# Elastic Compliance Matrix: (Units=1/GPa)
#
#
# Indices 1 2 3 4 5 6 
#
# 1 0.016319 -0.012378 0.005420 0.000000 0.007898 0.000000
# 2 -0.012378 0.041353 -0.011546 0.000000 -0.012710 0.000000
# 3 0.005420 -0.011546 0.012951 0.000000 0.003142 0.000000
# 4 0.000000 0.000000 0.000000 0.071594 0.000000 -0.000703
# 5 0.007898 -0.012710 0.003142 0.000000 0.041340 0.000000
# 6 0.000000 0.000000 0.000000 -0.000703 0.000000 0.065926
#
#
# Mechanical properties :
#
#
# Convention : Reuss Voigt Hill
#
# Bulk Modulus (GPa) = 29.74782 31.23427 30.49104
# Shear Modulus (GPa) = 16.79572 25.03074 20.91323
#
# Velocity S-wave (km/s) = 2.82074 3.44350 3.14756
# Velocity P-wave (km/s) = 4.97001 5.53233 5.25869
#
# Compressibility (1/GPa) = 0.03361591
#
# Stress axis : x y z
#
# Youngs Moduli (GPa) = 61.27926 24.18196 77.21505
#
# Poissons Ratio (x) = 0.29931 -0.41853
# Poissons Ratio (y) = 0.75849 0.89154
# Poissons Ratio (z) = -0.33215 0.27921
#
# Static dielectric constant tensor:
#      x y z
#    x 1.829080 0.000000 0.025270 
#    y 0.000000 1.985520 0.000000 
#    z 0.025270 0.000000 1.818730 
# 
# From -- ./inp_files/24961.got.cif
#   From: 2010.05.17/outbox.cif.g08.bks.cpg/sg8_13_cif.got.tgz:24961.got - 2010.06.03 19:46:02.
