data_PCOD9132371
_publ_section_title
;
Structure prediction by ZEFSAII (Michael W. Deem and Ramdas Pophale) SiO2 
 PCOD9132371
Probable space group: C M
;
_chemical_formula_sum "Si O2"
_cell_formula_units_Z 32
_cell_length_a 5.083390
_cell_length_b 19.189429
_cell_length_c 15.971301
_cell_angle_alpha 90.000000
_cell_angle_beta 90.610231
_cell_angle_gamma 90.000000
_cell_volume 1557.869750
_symmetry_space_group_name_H-M "C M"
_symmetry_group_IT_number 8
_symmetry_cell_setting 'monoclinic'
loop_
_space_group_symop_operation_xyz
x,y,z
x,-y,z
1/2+x,1/2+y,z
1/2+x,1/2-y,z
loop_
_atom_site_type_symbol
_atom_site_label
_atom_site_fract_x
_atom_site_fract_y
_atom_site_fract_z
Si Si1 0.539740 0.293185 0.031580
Si Si2 0.190677 0.582756 0.821230
Si Si3 0.516728 0.922884 0.170209
Si Si4 0.676533 0.583834 0.715232
Si Si5 0.190230 0.791375 0.393531
Si Si6 0.517290 0.651685 0.214408
Si Si7 0.085395 0.199426 0.575615
Si Si8 0.372685 0.081821 0.981443
O O1 0.261036 0.262282 0.007036
O O2 0.554573 0.299691 0.133156
O O3 0.625446 0.367306 0.993880
O O4 0.217582 0.500000 0.833980
O O5 0.973597 0.594079 0.748189
O O6 0.053351 0.606884 0.905935
O O7 0.474170 0.605537 0.788893
O O8 0.713355 0.869213 0.213245
O O9 0.215230 0.911343 0.193769
O O10 0.603138 0.000000 0.192562
O O11 0.528389 0.914199 0.069966
O O12 0.640226 0.500000 0.699045
O O13 0.616643 0.634929 0.638356
O O14 0.000895 0.723187 0.397368
O O15 0.108782 0.821766 0.304212
O O16 0.110194 0.828174 0.479876
O O17 0.817237 0.243055 0.586663
O O18 0.297660 0.000000 0.968800
#
# Coordination Sequence:
#
# PCOD9132371 Si02
#       8
#     4   4   4   4   4   4   4   4
#     4  11  22  36  53  80 113 142 179 231 280 318
#     4   9  19  35  59  84 108 144 192 233 267 329
#     4  10  21  35  54  80 111 147 191 236 276 322
#     4  10  20  37  59  84 112 144 184 230 281 335
#     4  10  20  35  57  82 107 141 188 230 267 329
#     4  11  20  35  56  78 109 151 187 226 279 330
#     4  10  21  38  60  86 115 145 182 229 281 336
#     4   9  20  39  59  80 109 152 195 229 273 331
#
# _framework density 20.540869000000001
#
# number of rings (size 3 to 8) (size 9 to 14) (size 15 to 20)
#    0.000    2.000    0.000    4.125    0.000    3.500 
#    0.000   13.125    0.000    1.500    0.000    0.000 
#    0.000    0.000    0.000    0.000    0.000    0.000 
#
# Total GULP energy -89307.168905 kJ/mol
# GULP energy per Si atom -5581.698057 kJ/mol
# Density = 2.049412 g / cm^3
# Si number density = 20.540869 Si / 1000 Ang^3
#
#
#
# Elastic Constant Matrix: (Units=GPa)
#
#
# Indices 1 2 3 4 5 6 
#
# 1 78.1347 14.7174 -7.7830 0.0000 -1.5235 0.0000
# 2 14.7174 62.3158 21.9079 0.0000 -1.5861 0.0000
# 3 -7.7830 21.9079 86.4153 0.0000 -5.6437 0.0000
# 4 0.0000 0.0000 0.0000 25.7830 0.0000 4.5814
# 5 -1.5235 -1.5861 -5.6437 0.0000 21.2377 0.0000
# 6 0.0000 0.0000 0.0000 4.5814 0.0000 20.8998
#
#
#
# Elastic Compliance Matrix: (Units=1/GPa)
#
#
# Indices 1 2 3 4 5 6 
#
# 1 0.013824 -0.004061 0.002361 0.000000 0.001316 0.000000
# 2 -0.004061 0.018811 -0.005151 0.000000 -0.000255 0.000000
# 3 0.002361 -0.005151 0.013308 0.000000 0.003321 0.000000
# 4 0.000000 0.000000 0.000000 0.040357 0.000000 -0.008847
# 5 0.001316 -0.000255 0.003321 0.000000 0.048044 0.000000
# 6 0.000000 0.000000 0.000000 -0.008847 0.000000 0.049787
#
#
# Mechanical properties :
#
#
# Convention : Reuss Voigt Hill
#
# Bulk Modulus (GPa) = 31.01883 31.61671 31.31777
# Shear Modulus (GPa) = 23.97151 26.78566 25.37859
#
# Velocity S-wave (km/s) = 3.41987 3.61504 3.51881
# Velocity P-wave (km/s) = 5.54327 5.73151 5.63817
#
# Compressibility (1/GPa) = 0.03223848
#
# Stress axis : x y z
#
# Youngs Moduli (GPa) = 72.33693 53.16029 75.14554
#
# Poissons Ratio (x) = 0.21590 -0.17739
# Poissons Ratio (y) = 0.29379 0.38711
# Poissons Ratio (z) = -0.17076 0.27385
#
# Static dielectric constant tensor:
#      x y z
#    x 1.745090 0.000000 -0.009610 
#    y 0.000000 1.738980 0.000000 
#    z -0.009610 0.000000 1.751990 
# 
# From -- ./inp_files/24954.got.cif
#   From: 2010.05.17/outbox.cif.g08.bks.cpg/sg8_13_cif.got.tgz:24954.got - 2010.06.03 19:46:02.
