data_PCOD9132037
_publ_section_title
;
Structure prediction by ZEFSAII (Michael W. Deem and Ramdas Pophale) SiO2 
 PCOD9132037
Probable space group: C M
;
_chemical_formula_sum "Si O2"
_cell_formula_units_Z 32
_cell_length_a 25.571662
_cell_length_b 9.559819
_cell_length_c 18.957743
_cell_angle_alpha 90.000000
_cell_angle_beta 20.081107
_cell_angle_gamma 90.000000
_cell_volume 1591.227685
_symmetry_space_group_name_H-M "C M"
_symmetry_group_IT_number 8
_symmetry_cell_setting 'monoclinic'
loop_
_space_group_symop_operation_xyz
x,y,z
x,-y,z
1/2+x,1/2+y,z
1/2+x,1/2-y,z
loop_
_atom_site_type_symbol
_atom_site_label
_atom_site_fract_x
_atom_site_fract_y
_atom_site_fract_z
Si Si1 0.758360 0.333937 0.496010
Si Si2 0.458653 0.339877 0.143167
Si Si3 0.953880 0.834287 0.790073
Si Si4 0.276080 0.154809 0.118507
Si Si5 0.912604 0.841947 0.571902
Si Si6 0.290069 0.649895 0.216861
Si Si7 0.431783 0.157513 0.675668
Si Si8 0.744149 0.332385 0.679246
O O1 0.786035 0.500000 0.457288
O O2 0.901779 0.254113 0.279618
O O3 0.609020 0.304947 0.637337
O O4 0.726650 0.299603 0.618433
O O5 0.483083 0.500000 0.135575
O O6 0.322462 0.338593 0.258084
O O7 0.600091 0.300116 0.913044
O O8 0.936650 0.749246 0.739813
O O9 0.945631 0.000000 0.788134
O O10 0.821077 0.774397 0.007173
O O11 0.340388 0.213823 0.110861
O O12 0.094172 0.144973 0.351035
O O13 0.336679 0.000000 0.024445
O O14 0.876046 0.760304 0.546603
O O15 0.856507 0.744961 0.707753
O O16 0.849363 0.000000 0.653108
O O17 0.362327 0.500000 0.101959
O O18 0.110690 0.641009 0.430903
O O19 0.369008 0.000000 0.763860
O O20 0.771035 0.500000 0.650844
#
# Coordination Sequence:
#
# PCOD9132037 Si02
#       8
#     4   4   4   4   4   4   4   4
#     4  10  22  39  61  90 125 158 197 247 300 360
#     4  10  20  37  61  89 121 157 200 246 299 358
#     4  11  21  35  57  88 123 153 188 239 301 361
#     4  10  21  35  55  83 114 150 195 244 297 354
#     4  10  22  41  60  82 113 152 201 250 292 346
#     4   9  17  32  55  82 114 148 183 230 293 356
#     4  10  19  34  59  85 114 150 187 233 290 351
#     4  10  22  41  62  85 118 164 207 247 298 358
#
# _framework density 20.110258000000002
#
# number of rings (size 3 to 8) (size 9 to 14) (size 15 to 20)
#    0.000    2.000    1.250    2.250    0.000    6.000 
#    2.250    1.250    0.000    0.000    0.000    0.000 
#    0.000    0.000    0.000    0.000    0.000    0.000 
#
# Total GULP energy -89171.244131 kJ/mol
# GULP energy per Si atom -5573.202758 kJ/mol
# Density = 2.006449 g / cm^3
# Si number density = 20.110258 Si / 1000 Ang^3
#
#
#
# Elastic Constant Matrix: (Units=GPa)
#
#
# Indices 1 2 3 4 5 6 
#
# 1 98.6212 62.3967 15.1218 0.0000 24.3921 0.0000
# 2 62.3967 111.0907 36.4875 0.0001 18.7002 0.0000
# 3 15.1218 36.4875 49.7714 0.0000 20.5907 0.0000
# 4 0.0000 0.0001 0.0000 29.6490 0.0000 8.9839
# 5 24.3921 18.7002 20.5907 0.0000 21.6844 0.0000
# 6 0.0000 0.0000 0.0000 8.9839 0.0000 25.7471
#
#
#
# Elastic Compliance Matrix: (Units=1/GPa)
#
#
# Indices 1 2 3 4 5 6 
#
# 1 0.023107 -0.012848 0.014111 0.000000 -0.028312 0.000000
# 2 -0.012848 0.019140 -0.015282 0.000000 0.012457 0.000000
# 3 0.014111 -0.015282 0.046318 0.000000 -0.046676 0.000000
# 4 0.000000 0.000000 0.000000 0.037715 0.000000 -0.013160
# 5 -0.028312 0.012457 -0.046676 0.000000 0.111543 0.000000
# 6 0.000000 0.000000 0.000000 -0.013160 0.000000 0.043431
#
#
# Mechanical properties :
#
#
# Convention : Reuss Voigt Hill
#
# Bulk Modulus (GPa) = 16.52111 54.16614 35.34363
# Shear Modulus (GPa) = 15.17602 25.11460 20.14531
#
# Velocity S-wave (km/s) = 2.75005 3.53773 3.16847
# Velocity P-wave (km/s) = 4.27982 6.60912 5.56764
#
# Compressibility (1/GPa) = 0.06052862
#
# Stress axis : x y z
#
# Youngs Moduli (GPa) = 43.27659 52.24633 21.59008
#
# Poissons Ratio (x) = 0.67123 -0.30466
# Poissons Ratio (y) = 0.55600 0.32993
# Poissons Ratio (z) = -0.61067 0.79841
#
# Static dielectric constant tensor:
#      x y z
#    x 1.732610 0.000000 -0.003830 
#    y 0.000000 1.740320 0.000000 
#    z -0.003830 0.000000 1.765590 
# 
# From -- ./inp_files/31705.got.cif
#   From: 2010.05.17/outbox.cif.g08.bks.cpg/sg8_16_cif.got.tgz:31705.got - 2010.06.03 19:46:02.
