data_PCOD9132961
_publ_section_title
;
Structure prediction by ZEFSAII (Michael W. Deem and Ramdas Pophale) SiO2 
 PCOD9132961
Probable space group: C M
;
_chemical_formula_sum "Si O2"
_cell_formula_units_Z 32
_cell_length_a 10.965801
_cell_length_b 18.537222
_cell_length_c 11.569539
_cell_angle_alpha 90.000000
_cell_angle_beta 143.841444
_cell_angle_gamma 90.000000
_cell_volume 1387.615467
_symmetry_space_group_name_H-M "C M"
_symmetry_group_IT_number 8
_symmetry_cell_setting 'monoclinic'
loop_
_space_group_symop_operation_xyz
x,y,z
x,-y,z
1/2+x,1/2+y,z
1/2+x,1/2-y,z
loop_
_atom_site_type_symbol
_atom_site_label
_atom_site_fract_x
_atom_site_fract_y
_atom_site_fract_z
Si Si1 0.910410 0.416850 0.680820
Si Si2 0.209805 0.674767 0.049354
Si Si3 0.914415 0.582775 0.435498
Si Si4 0.355382 0.642810 0.746304
Si Si5 0.801781 0.587112 0.102107
Si Si6 0.713545 0.820490 0.398014
Si Si7 0.965622 0.084939 0.428607
Si Si8 0.968928 0.237799 0.050942
O O1 0.959160 0.500000 0.697913
O O2 0.864163 0.384467 0.520116
O O3 0.710691 0.412692 0.607146
O O4 0.103491 0.381904 0.886266
O O5 0.375255 0.631740 0.252961
O O6 0.304288 0.733542 0.032275
O O7 0.034781 0.704301 0.002375
O O8 0.846625 0.500000 0.385316
O O9 0.801849 0.612204 0.236848
O O10 0.161362 0.588412 0.606460
O O11 0.272863 0.693384 0.577120
O O12 0.388047 0.677532 0.898022
O O13 0.576696 0.608245 0.882747
O O14 0.832161 0.500000 0.115978
O O15 0.005265 0.630405 0.217081
O O16 0.888565 0.872530 0.481287
O O17 0.673872 0.750572 0.288508
O O18 0.901848 0.000000 0.376076
#
# Coordination Sequence:
#
# PCOD9132961 Si02
#       8
#     4   4   4   4   4   4   4   4
#     4  10  21  39  66  98 128 168 219 273 343 410
#     4  11  24  45  67  96 136 179 231 290 338 403
#     4   9  19  36  61  98 134 162 210 279 341 405
#     4  11  22  42  68  96 130 182 226 281 348 401
#     4  10  21  38  65  99 133 170 219 279 344 413
#     4  10  24  45  66  97 138 180 230 284 337 411
#     4  10  23  42  67  98 135 178 221 277 349 415
#     4  11  25  45  66  94 133 181 236 281 336 402
#
# _framework density 23.061143000000001
#
# number of rings (size 3 to 8) (size 9 to 14) (size 15 to 20)
#    0.000    1.750    1.250    1.875    1.750    5.500 
#    0.000    8.750    0.000    0.000    0.000    0.000 
#    0.000    0.000    0.000    0.000    0.000    0.000 
#
# Total GULP energy -89081.686767 kJ/mol
# GULP energy per Si atom -5567.605423 kJ/mol
# Density = 2.300866 g / cm^3
# Si number density = 23.061143 Si / 1000 Ang^3
#
#
#
# Elastic Constant Matrix: (Units=GPa)
#
#
# Indices 1 2 3 4 5 6 
#
# 1 86.6448 12.2016 22.4607 0.0000 -25.0080 0.0000
# 2 12.2016 48.8361 31.8359 0.0000 -6.7018 0.0000
# 3 22.4607 31.8359 87.4146 0.0000 -9.8646 0.0000
# 4 0.0000 0.0000 0.0000 28.8143 0.0000 -0.8288
# 5 -25.0080 -6.7018 -9.8646 0.0000 29.1169 0.0000
# 6 0.0000 0.0000 0.0000 -0.8288 0.0000 9.5897
#
#
#
# Elastic Compliance Matrix: (Units=1/GPa)
#
#
# Indices 1 2 3 4 5 6 
#
# 1 0.015930 -0.000659 -0.002419 0.000000 0.012711 0.000000
# 2 -0.000659 0.027130 -0.009431 0.000000 0.002483 0.000000
# 3 -0.002419 -0.009431 0.015614 0.000000 0.001042 0.000000
# 4 0.000000 0.000000 0.000000 0.034791 0.000000 0.003007
# 5 0.012711 0.002483 0.001042 0.000000 0.046186 0.000000
# 6 0.000000 0.000000 0.000000 0.003007 0.000000 0.104539
#
#
# Mechanical properties :
#
#
# Convention : Reuss Voigt Hill
#
# Bulk Modulus (GPa) = 29.71246 39.54356 34.62801
# Shear Modulus (GPa) = 17.83002 23.93065 20.88034
#
# Velocity S-wave (km/s) = 2.78360 3.22484 3.01231
# Velocity P-wave (km/s) = 4.82114 5.57231 5.21028
#
# Compressibility (1/GPa) = 0.03365592
#
# Stress axis : x y z
#
# Youngs Moduli (GPa) = 62.77533 36.85934 64.04713
#
# Poissons Ratio (x) = 0.02429 0.15491
# Poissons Ratio (y) = 0.04137 0.60403
# Poissons Ratio (z) = 0.15183 0.34762
#
# Static dielectric constant tensor:
#      x y z
#    x 1.918020 0.000000 -0.008150 
#    y 0.000000 2.069890 0.000000 
#    z -0.008150 0.000000 1.833970 
# 
# From -- ./inp_files/20836.got.cif
#   From: 2010.05.17/outbox.cif.g08.bks.cpg/sg8_11_cif.got.tgz:20836.got - 2010.06.03 19:46:02.
