data_PCOD9132008
_publ_section_title
;
Structure prediction by ZEFSAII (Michael W. Deem and Ramdas Pophale) SiO2 
 PCOD9132008
Probable space group: C M
;
_chemical_formula_sum "Si O2"
_cell_formula_units_Z 32
_cell_length_a 20.627947
_cell_length_b 8.768572
_cell_length_c 25.626203
_cell_angle_alpha 90.000000
_cell_angle_beta 23.327961
_cell_angle_gamma 90.000000
_cell_volume 1835.512654
_symmetry_space_group_name_H-M "C M"
_symmetry_group_IT_number 8
_symmetry_cell_setting 'monoclinic'
loop_
_space_group_symop_operation_xyz
x,y,z
x,-y,z
1/2+x,1/2+y,z
1/2+x,1/2-y,z
loop_
_atom_site_type_symbol
_atom_site_label
_atom_site_fract_x
_atom_site_fract_y
_atom_site_fract_z
Si Si1 0.410560 0.316095 0.606680
Si Si2 0.048968 0.182862 0.889333
Si Si3 0.933587 0.183154 0.861840
Si Si4 0.749697 0.682580 0.558691
Si Si5 0.222927 0.818663 0.928643
Si Si6 0.012530 0.183341 0.644718
Si Si7 0.923246 0.316718 0.091001
Si Si8 0.054955 0.183572 0.389032
O O1 0.389396 0.500000 0.620511
O O2 0.233358 0.240491 0.743586
O O3 0.512130 0.280361 0.584001
O O4 0.498051 0.266420 0.488854
O O5 0.946432 0.223003 0.913087
O O6 0.050098 0.000000 0.893705
O O7 0.978823 0.256691 0.993431
O O8 0.791899 0.261846 0.933186
O O9 0.106911 0.223441 0.705958
O O10 0.916065 0.000000 0.869870
O O11 0.769515 0.500000 0.545813
O O12 0.672973 0.725140 0.559361
O O13 0.918685 0.758644 0.449517
O O14 0.357572 0.761292 0.787007
O O15 0.213559 0.000000 0.934197
O O16 0.051292 0.746740 0.038561
O O17 0.991180 0.000000 0.666273
O O18 0.930772 0.500000 0.085766
O O19 0.738213 0.266421 0.240040
O O20 0.054322 0.000000 0.389152
#
# Coordination Sequence:
#
# PCOD9132008 Si02
#       8
#     4   4   4   4   4   4   4   4
#     4  10  19  34  57  82 109 144 184 227 274 325
#     4  11  21  35  57  86 111 139 188 235 275 327
#     4   9  19  35  55  81 113 143 175 226 285 332
#     4   9  17  32  53  78 109 143 177 222 278 326
#     4  11  21  33  54  83 111 142 187 231 272 329
#     4   9  18  33  54  80 110 144 179 222 279 328
#     4  11  23  39  55  76 115 157 187 226 277 330
#     4  10  22  37  55  80 110 148 189 223 272 335
#
# _framework density 17.433821999999999
#
# number of rings (size 3 to 8) (size 9 to 14) (size 15 to 20)
#    0.000    2.000    2.500    2.625    0.000    4.000 
#    0.000    1.250    0.000    3.000    0.000    0.000 
#    0.000    0.000    0.000    0.000    0.000    0.000 
#
# Total GULP energy -89297.856980 kJ/mol
# GULP energy per Si atom -5581.116061 kJ/mol
# Density = 1.739414 g / cm^3
# Si number density = 17.433822 Si / 1000 Ang^3
#
#
#
# Elastic Constant Matrix: (Units=GPa)
#
#
# Indices 1 2 3 4 5 6 
#
# 1 151.1875 46.4734 82.4825 -0.0003 -21.2617 0.0000
# 2 46.4734 37.6473 38.6539 0.0004 -7.0351 -0.0001
# 3 82.4825 38.6539 131.2307 0.0005 -17.4178 0.0003
# 4 -0.0003 0.0004 0.0005 13.7541 -0.0006 -9.9265
# 5 -21.2617 -7.0351 -17.4178 -0.0006 26.5749 0.0001
# 6 0.0000 -0.0001 0.0003 -9.9265 0.0001 27.2799
#
#
#
# Elastic Compliance Matrix: (Units=1/GPa)
#
#
# Indices 1 2 3 4 5 6 
#
# 1 0.012908 -0.010563 -0.004383 0.000001 0.004658 0.000000
# 2 -0.010563 0.046940 -0.007294 -0.000002 -0.000805 0.000000
# 3 -0.004383 -0.007294 0.012926 0.000000 0.003034 0.000000
# 4 0.000001 -0.000002 0.000000 0.098598 0.000002 0.035877
# 5 0.004658 -0.000805 0.003034 0.000002 0.043132 0.000001
# 6 0.000000 0.000000 0.000000 0.035877 0.000001 0.049712
#
#
# Mechanical properties :
#
#
# Convention : Reuss Voigt Hill
#
# Bulk Modulus (GPa) = 35.34343 72.80941 54.07642
# Shear Modulus (GPa) = 15.71698 23.68551 19.70125
#
# Velocity S-wave (km/s) = 3.00579 3.68991 3.36528
# Velocity P-wave (km/s) = 5.68888 7.74648 6.79600
#
# Compressibility (1/GPa) = 0.02829380
#
# Stress axis : x y z
#
# Youngs Moduli (GPa) = 77.47372 21.30382 77.36085
#
# Poissons Ratio (x) = 0.22503 0.33910
# Poissons Ratio (y) = 0.81833 0.56427
# Poissons Ratio (z) = 0.33960 0.15539
#
# Static dielectric constant tensor:
#      x y z
#    x 1.607560 0.000000 -0.001640 
#    y 0.000000 1.586280 0.000000 
#    z -0.001640 0.000000 1.560230 
# 
# From -- ./inp_files/23693.got.cif
#   From: 2010.05.17/outbox.cif.g08.bks.cpg/sg8_12_cif.got.tgz:23693.got - 2010.06.03 19:46:02.
