data_PCOD9132518
_publ_section_title
;
Structure prediction by ZEFSAII (Michael W. Deem and Ramdas Pophale) SiO2 
 PCOD9132518
Probable space group: C M
;
_chemical_formula_sum "Si O2"
_cell_formula_units_Z 24
_cell_length_a 17.919926
_cell_length_b 18.061664
_cell_length_c 12.100999
_cell_angle_alpha 90.000000
_cell_angle_beta 18.203888
_cell_angle_gamma 90.000000
_cell_volume 1223.560254
_symmetry_space_group_name_H-M "C M"
_symmetry_group_IT_number 8
_symmetry_cell_setting 'monoclinic'
loop_
_space_group_symop_operation_xyz
x,y,z
x,-y,z
1/2+x,1/2+y,z
1/2+x,1/2-y,z
loop_
_atom_site_type_symbol
_atom_site_label
_atom_site_fract_x
_atom_site_fract_y
_atom_site_fract_z
Si Si1 0.476700 0.657701 0.475070
Si Si2 0.166247 0.420367 0.744431
Si Si3 0.039649 0.913781 0.035223
Si Si4 0.729175 0.680402 0.336397
Si Si5 0.553031 0.689839 0.816910
Si Si6 0.074377 0.233578 0.122198
O O1 0.375821 0.592890 0.538943
O O2 0.638243 0.641758 0.352927
O O3 0.602674 0.711466 0.209726
O O4 0.250866 0.701876 0.840527
O O5 0.056796 0.500000 0.915042
O O6 0.282405 0.416102 0.459103
O O7 0.967302 0.360132 0.040894
O O8 0.139999 0.840936 0.959999
O O9 0.128871 0.000000 0.919855
O O10 0.052721 0.884268 0.891587
O O11 0.549537 0.677341 0.690974
O O12 0.822986 0.762608 0.177021
O O13 0.800054 0.737731 0.489744
#
# Coordination Sequence:
#
# PCOD9132518 Si02
#       6
#     4   4   4   4   4   4
#     4  11  22  36  60  89 115 155 204 253 294 355
#     4  10  21  40  60  84 123 161 198 250 305 359
#     4  10  20  36  63  88 117 161 197 241 310 361
#     4  12  22  36  62  90 116 158 205 252 296 358
#     4  12  19  38  61  86 121 155 202 247 301 355
#     4  11  18  38  60  85 120 154 200 249 298 352
#
# _framework density 19.614889999999999
#
# number of rings (size 3 to 8) (size 9 to 14) (size 15 to 20)
#    0.000    1.000    8.333    1.000    0.000    1.333 
#    0.000    0.000    0.000    1.000    0.000    0.000 
#    0.000    0.000    0.000    0.000    0.000    0.000 
#
# Total GULP energy -66816.069377 kJ/mol
# GULP energy per Si atom -5568.005781 kJ/mol
# Density = 1.957025 g / cm^3
# Si number density = 19.614890 Si / 1000 Ang^3
#
#
#
# Elastic Constant Matrix: (Units=GPa)
#
#
# Indices 1 2 3 4 5 6 
#
# 1 115.0831 -0.8862 15.1725 0.0327 21.7544 -0.0282
# 2 -0.8862 57.4461 3.5404 0.0509 4.0494 -0.0327
# 3 15.1725 3.5404 32.7079 0.0227 18.8447 -0.0215
# 4 0.0327 0.0509 0.0227 12.9532 -0.0052 6.2692
# 5 21.7544 4.0494 18.8447 -0.0052 34.1537 0.0284
# 6 -0.0282 -0.0327 -0.0215 6.2692 0.0284 13.3999
#
#
#
# Elastic Compliance Matrix: (Units=1/GPa)
#
#
# Indices 1 2 3 4 5 6 
#
# 1 0.009946 0.000638 -0.001450 -0.000055 -0.005611 0.000058
# 2 0.000638 0.017619 -0.001122 -0.000119 -0.001877 0.000102
# 3 -0.001450 -0.001122 0.045095 -0.000178 -0.023825 0.000200
# 4 -0.000055 -0.000119 -0.000178 0.099801 0.000201 -0.046693
# 5 -0.005611 -0.001877 -0.023825 0.000201 0.046222 -0.000247
# 6 0.000058 0.000102 0.000200 -0.046693 -0.000247 0.096474
#
#
# Mechanical properties :
#
#
# Convention : Reuss Voigt Hill
#
# Bulk Modulus (GPa) = 14.53635 26.76559 20.65097
# Shear Modulus (GPa) = 14.62184 24.59541 19.60862
#
# Velocity S-wave (km/s) = 2.73325 3.54491 3.16520
# Velocity P-wave (km/s) = 4.16987 5.51637 4.88969
#
# Compressibility (1/GPa) = 0.06879307
#
# Stress axis : x y z
#
# Youngs Moduli (GPa) = 100.54155 56.75667 22.17546
#
# Poissons Ratio (x) = -0.03623 0.03216
# Poissons Ratio (y) = -0.06419 0.02488
# Poissons Ratio (z) = 0.14580 0.06367
#
# Static dielectric constant tensor:
#      x y z
#    x 1.735420 0.000020 0.005140 
#    y 0.000020 1.702290 0.000000 
#    z 0.005140 0.000000 1.684470 
# 
# From -- ./inp_files/8165.got.cif
#   From: 2010.05.17/outbox.cif.g08.bks.cpg/sg8_5_cif.got.tgz:8165.got - 2010.06.03 19:46:02.
