data_PCOD9132966
_publ_section_title
;
Structure prediction by ZEFSAII (Michael W. Deem and Ramdas Pophale) SiO2 
 PCOD9132966
Probable space group: C M
;
_chemical_formula_sum "Si O2"
_cell_formula_units_Z 30
_cell_length_a 8.431401
_cell_length_b 24.072673
_cell_length_c 11.971918
_cell_angle_alpha 90.000000
_cell_angle_beta 36.579433
_cell_angle_gamma 90.000000
_cell_volume 1448.064459
_symmetry_space_group_name_H-M "C M"
_symmetry_group_IT_number 8
_symmetry_cell_setting 'monoclinic'
loop_
_space_group_symop_operation_xyz
x,y,z
x,-y,z
1/2+x,1/2+y,z
1/2+x,1/2-y,z
loop_
_atom_site_type_symbol
_atom_site_label
_atom_site_fract_x
_atom_site_fract_y
_atom_site_fract_z
Si Si1 0.283510 0.606065 0.630070
Si Si2 0.852293 0.188660 0.014926
Si Si3 0.104407 0.839678 0.645420
Si Si4 0.851705 0.293964 0.145305
Si Si5 0.482011 0.000000 0.896324
Si Si6 0.240737 0.286338 0.518450
Si Si7 0.138259 0.090222 0.217213
Si Si8 0.200333 0.362329 0.327967
O O1 0.407897 0.627607 0.675542
O O2 0.154608 0.661853 0.646384
O O3 0.523810 0.590084 0.407883
O O4 0.110638 0.550998 0.747111
O O5 0.953724 0.248160 0.000852
O O6 0.559679 0.198316 0.127243
O O7 0.837856 0.152709 0.134220
O O8 0.017974 0.161347 0.823000
O O9 0.115586 0.774085 0.606063
O O10 0.391127 0.868809 0.476493
O O11 0.558096 0.277850 0.354584
O O12 0.790419 0.351268 0.118811
O O13 0.343700 0.046453 0.057465
O O14 0.210710 0.312099 0.412079
O O15 0.872922 0.090360 0.290234
#
# Coordination Sequence:
#
# PCOD9132966 Si02
#       8
#     4   4   4   4   2   4   4   4
#     4  10  24  44  67 103 132 181 232 282 340 402
#     4  12  24  35  61  96 139 178 213 268 324 418
#     4  12  24  37  65 100 143 173 214 277 350 413
#     4  10  21  39  59  93 135 178 223 260 336 402
#     4  12  24  46  74  98 130 176 250 294 322 402
#     4  10  22  40  65  94 142 181 213 275 342 415
#     4  10  24  43  71  91 129 180 227 288 336 393
#     4  10  22  41  60  94 134 174 219 265 344 410
#
# _framework density 20.717310000000001
#
# number of rings (size 3 to 8) (size 9 to 14) (size 15 to 20)
#    0.000    1.600    1.333    5.200    7.467    2.133 
#    0.000    0.667    0.000   11.200    0.000    0.000 
#    0.000    0.000    0.000    0.000    0.000    0.000 
#
# Total GULP energy -83501.933078 kJ/mol
# GULP energy per Si atom -5566.795539 kJ/mol
# Density = 2.067016 g / cm^3
# Si number density = 20.717310 Si / 1000 Ang^3
#
#
#
# Elastic Constant Matrix: (Units=GPa)
#
#
# Indices 1 2 3 4 5 6 
#
# 1 52.0117 20.3011 3.5822 0.0000 17.1004 0.0000
# 2 20.3011 88.4081 30.7660 0.0000 9.8736 0.0000
# 3 3.5822 30.7660 102.7287 0.0000 31.5306 0.0000
# 4 0.0000 0.0000 0.0000 38.0505 0.0000 -3.5137
# 5 17.1004 9.8736 31.5306 0.0000 35.3968 0.0000
# 6 0.0000 0.0000 0.0000 -3.5137 0.0000 6.5691
#
#
#
# Elastic Compliance Matrix: (Units=1/GPa)
#
#
# Indices 1 2 3 4 5 6 
#
# 1 0.026744 -0.006403 0.006059 0.000000 -0.016531 0.000000
# 2 -0.006403 0.014162 -0.005168 0.000000 0.003747 0.000000
# 3 0.006059 -0.005168 0.015864 0.000000 -0.015617 0.000000
# 4 0.000000 0.000000 0.000000 0.027646 0.000000 0.014787
# 5 -0.016531 0.003747 -0.015617 0.000000 0.049104 0.000000
# 6 0.000000 0.000000 0.000000 0.014787 0.000000 0.160137
#
#
# Mechanical properties :
#
#
# Convention : Reuss Voigt Hill
#
# Bulk Modulus (GPa) = 21.86038 39.16079 30.51059
# Shear Modulus (GPa) = 15.62846 28.56989 22.09918
#
# Velocity S-wave (km/s) = 2.74955 3.71756 3.26958
# Velocity P-wave (km/s) = 4.54475 6.11314 5.38634
#
# Compressibility (1/GPa) = 0.04574485
#
# Stress axis : x y z
#
# Youngs Moduli (GPa) = 37.39205 70.61350 63.03510
#
# Poissons Ratio (x) = 0.45217 -0.38194
# Poissons Ratio (y) = 0.23944 0.32576
# Poissons Ratio (z) = -0.22656 0.36493
#
# Static dielectric constant tensor:
#      x y z
#    x 1.772390 0.000000 -0.017620 
#    y 0.000000 1.762620 0.000000 
#    z -0.017620 0.000000 1.794860 
# 
# From -- ./inp_files/19370.got.cif
#   From: 2010.05.17/outbox.cif.g08.bks.cpg/sg8_10_cif.got.tgz:19370.got - 2010.06.03 19:46:02.
