data_PCOD9132686
_publ_section_title
;
Structure prediction by ZEFSAII (Michael W. Deem and Ramdas Pophale) SiO2 
 PCOD9132686
Probable space group: C M
;
_chemical_formula_sum "Si O2"
_cell_formula_units_Z 28
_cell_length_a 9.675663
_cell_length_b 17.480862
_cell_length_c 8.225812
_cell_angle_alpha 90.000000
_cell_angle_beta 88.529736
_cell_angle_gamma 90.000000
_cell_volume 1390.846986
_symmetry_space_group_name_H-M "C M"
_symmetry_group_IT_number 8
_symmetry_cell_setting 'monoclinic'
loop_
_space_group_symop_operation_xyz
x,y,z
x,-y,z
1/2+x,1/2+y,z
1/2+x,1/2-y,z
loop_
_atom_site_type_symbol
_atom_site_label
_atom_site_fract_x
_atom_site_fract_y
_atom_site_fract_z
Si Si1 0.180330 0.711048 0.145790
Si Si2 0.474780 0.785697 0.689134
Si Si3 0.721090 0.728010 0.493747
Si Si4 0.480944 0.651373 0.086729
Si Si5 0.575742 0.088955 0.910949
Si Si6 0.881766 0.881386 0.773459
Si Si7 0.032252 0.914537 0.436127
O O1 0.191419 0.720103 0.338749
O O2 0.338203 0.699182 0.089710
O O3 0.107250 0.788432 0.083913
O O4 0.097314 0.638735 0.074889
O O5 0.633062 0.766774 0.640362
O O6 0.380053 0.787507 0.530679
O O7 0.474157 0.861039 0.799274
O O8 0.412505 0.709599 0.770250
O O9 0.649570 0.647046 0.467761
O O10 0.476781 0.606861 0.258801
O O11 0.475130 0.597140 0.928279
O O12 0.727202 0.092910 0.820470
O O13 0.538381 0.000000 0.935016
O O14 0.926838 0.907777 0.592126
O O15 0.086126 0.000000 0.431242
#
# Coordination Sequence:
#
# PCOD9132686 Si02
#       7
#     4   4   4   4   4   4   4
#     4  10  20  39  57  89 116 155 208 251 300 364
#     4  11  20  38  63  92 118 157 210 244 310 368
#     4  10  21  37  64  88 114 165 209 251 296 377
#     4  10  21  35  63  86 115 157 207 251 297 369
#     4  11  23  37  62  94 129 158 201 263 317 360
#     4  10  20  39  61  89 118 163 203 249 300 376
#     4  10  22  37  57  88 124 157 202 257 311 360
#
# _framework density 20.131616999999999
#
# number of rings (size 3 to 8) (size 9 to 14) (size 15 to 20)
#    0.000    1.714    2.857    3.000    0.000    3.429 
#    0.000    0.714    0.000    6.857    0.000    0.000 
#    0.000    0.000    0.000    0.000    0.000    0.000 
#
# Total GULP energy -78003.694869 kJ/mol
# GULP energy per Si atom -5571.692491 kJ/mol
# Density = 2.008580 g / cm^3
# Si number density = 20.131617 Si / 1000 Ang^3
#
#
#
# Elastic Constant Matrix: (Units=GPa)
#
#
# Indices 1 2 3 4 5 6 
#
# 1 47.9687 4.2911 15.1230 0.0000 12.7417 0.0000
# 2 4.2911 126.6163 46.0896 0.0000 6.8589 0.0000
# 3 15.1230 46.0896 117.8252 0.0000 15.0675 0.0000
# 4 0.0000 0.0000 0.0000 11.0056 0.0000 3.2597
# 5 12.7417 6.8589 15.0675 0.0000 29.9477 0.0000
# 6 0.0000 0.0000 0.0000 3.2597 0.0000 11.9453
#
#
#
# Elastic Compliance Matrix: (Units=1/GPa)
#
#
# Indices 1 2 3 4 5 6 
#
# 1 0.023911 0.000440 -0.002060 0.000000 -0.009238 0.000000
# 2 0.000440 0.009220 -0.003601 0.000000 -0.000487 0.000000
# 3 -0.002060 -0.003601 0.010626 0.000000 -0.003645 0.000000
# 4 0.000000 0.000000 0.000000 0.098853 0.000000 -0.026976
# 5 -0.009238 -0.000487 -0.003645 0.000000 0.039267 0.000000
# 6 0.000000 0.000000 0.000000 -0.026976 0.000000 0.091076
#
#
# Mechanical properties :
#
#
# Convention : Reuss Voigt Hill
#
# Bulk Modulus (GPa) = 30.01592 47.04639 38.53116
# Shear Modulus (GPa) = 16.97792 25.70681 21.34236
#
# Velocity S-wave (km/s) = 2.90719 3.57730 3.25951
# Velocity P-wave (km/s) = 5.11969 6.36262 5.77469
#
# Compressibility (1/GPa) = 0.03331565
#
# Stress axis : x y z
#
# Youngs Moduli (GPa) = 41.82233 108.45893 94.10711
#
# Poissons Ratio (x) = -0.04770 0.19383
# Poissons Ratio (y) = -0.01839 0.33886
# Poissons Ratio (z) = 0.08614 0.39054
#
# Static dielectric constant tensor:
#      x y z
#    x 1.697300 0.000000 0.031780 
#    y 0.000000 1.698880 0.000000 
#    z 0.031780 0.000000 1.856570 
# 
# From -- ./inp_files/8319.got.cif
#   From: 2010.05.17/outbox.cif.g08.bks.cpg/sg8_5_cif.got.tgz:8319.got - 2010.06.03 19:46:02.
