data_PCOD9132759
_publ_section_title
;
Structure prediction by ZEFSAII (Michael W. Deem and Ramdas Pophale) SiO2 
 PCOD9132759
Probable space group: C M
;
_chemical_formula_sum "Si O2"
_cell_formula_units_Z 32
_cell_length_a 12.163659
_cell_length_b 24.899772
_cell_length_c 5.268433
_cell_angle_alpha 90.000000
_cell_angle_beta 69.585317
_cell_angle_gamma 90.000000
_cell_volume 1495.443239
_symmetry_space_group_name_H-M "C M"
_symmetry_group_IT_number 8
_symmetry_cell_setting 'monoclinic'
loop_
_space_group_symop_operation_xyz
x,y,z
x,-y,z
1/2+x,1/2+y,z
1/2+x,1/2-y,z
loop_
_atom_site_type_symbol
_atom_site_label
_atom_site_fract_x
_atom_site_fract_y
_atom_site_fract_z
Si Si1 0.024590 0.365058 0.663510
Si Si2 0.627685 0.401679 0.912743
Si Si3 0.731277 0.662219 0.456079
Si Si4 0.898130 0.938027 0.876216
Si Si5 0.798869 0.886499 0.462690
Si Si6 0.469576 0.202654 0.198366
Si Si7 0.326039 0.060235 0.052479
Si Si8 0.504000 0.682089 0.356364
O O1 0.159412 0.382416 0.574604
O O2 0.001372 0.337725 0.406793
O O3 0.936200 0.413795 0.811970
O O4 0.005514 0.321297 0.900443
O O5 0.718775 0.355495 0.754464
O O6 0.537178 0.423378 0.776601
O O7 0.712718 0.444553 0.963251
O O8 0.546568 0.370817 0.174288
O O9 0.828258 0.705441 0.317700
O O10 0.600279 0.682060 0.499642
O O11 0.779719 0.606902 0.283826
O O12 0.844407 0.927227 0.643338
O O13 0.886285 0.000000 0.954394
O O14 0.834492 0.903664 0.147646
O O15 0.866994 0.831983 0.498840
O O16 0.517769 0.261765 0.205367
O O17 0.352840 0.000000 0.131954
#
# Coordination Sequence:
#
# PCOD9132759 Si02
#       8
#     4   4   4   4   4   4   4   4
#     4  11  25  46  62  96 132 165 218 264 311 396
#     4  10  20  41  61  94 128 160 217 271 314 384
#     4  10  21  43  62  96 129 161 221 270 310 392
#     4  11  23  40  65  93 125 167 212 263 321 377
#     4  11  24  43  63  92 132 165 214 262 314 389
#     4  11  25  42  67  94 129 170 213 264 321 377
#     4  10  22  40  65  93 128 172 212 268 329 374
#     4  10  24  39  65  94 127 172 209 266 326 375
#
# _framework density 21.398337000000001
#
# number of rings (size 3 to 8) (size 9 to 14) (size 15 to 20)
#    0.000    1.500    2.500    1.500    3.500    2.000 
#    0.000    0.000    0.000    0.000    0.000    0.000 
#    0.000    0.000    0.000    0.000    0.000    0.000 
#
# Total GULP energy -89131.580116 kJ/mol
# GULP energy per Si atom -5570.723757 kJ/mol
# Density = 2.134963 g / cm^3
# Si number density = 21.398337 Si / 1000 Ang^3
#
#
#
# Elastic Constant Matrix: (Units=GPa)
#
#
# Indices 1 2 3 4 5 6 
#
# 1 104.7715 21.7412 17.1428 0.0000 -11.7903 0.0000
# 2 21.7412 76.4094 -10.1338 0.0000 -0.6392 0.0000
# 3 17.1428 -10.1338 54.2445 0.0000 -1.0738 0.0000
# 4 0.0000 0.0000 0.0000 6.8409 0.0000 8.8737
# 5 -11.7903 -0.6392 -1.0738 0.0000 33.7937 0.0000
# 6 0.0000 0.0000 0.0000 8.8737 0.0000 16.0117
#
#
#
# Elastic Compliance Matrix: (Units=1/GPa)
#
#
# Indices 1 2 3 4 5 6 
#
# 1 0.011454 -0.003791 -0.004253 0.000000 0.003789 0.000000
# 2 -0.003791 0.014679 0.003922 0.000000 -0.000921 0.000000
# 3 -0.004253 0.003922 0.020497 0.000000 -0.000758 0.000000
# 4 0.000000 0.000000 0.000000 0.519993 0.000000 -0.288180
# 5 0.003789 -0.000921 -0.000758 0.000000 0.030872 0.000000
# 6 0.000000 0.000000 0.000000 -0.288180 0.000000 0.222164
#
#
# Mechanical properties :
#
#
# Convention : Reuss Voigt Hill
#
# Bulk Modulus (GPa) = 26.05193 32.54732 29.29963
# Shear Modulus (GPa) = 5.94745 25.10761 15.52753
#
# Velocity S-wave (km/s) = 1.66896 3.42913 2.69670
# Velocity P-wave (km/s) = 3.98937 5.56074 4.83926
#
# Compressibility (1/GPa) = 0.03838487
#
# Stress axis : x y z
#
# Youngs Moduli (GPa) = 87.30878 68.12623 48.78804
#
# Poissons Ratio (x) = 0.25829 0.20749
# Poissons Ratio (y) = 0.33101 -0.19135
# Poissons Ratio (z) = 0.37132 -0.26720
#
# Static dielectric constant tensor:
#      x y z
#    x 1.854830 0.000000 -0.010840 
#    y 0.000000 1.780550 0.000000 
#    z -0.010840 0.000000 1.818790 
# 
# From -- ./inp_files/3166.got.cif
#   From: 2010.05.17/outbox.cif.g08.bks.cpg/sg8_2_cif.got.tgz:3166.got - 2010.06.03 19:46:02.
