data_PCOD9132301
_publ_section_title
;
Structure prediction by ZEFSAII (Michael W. Deem and Ramdas Pophale) SiO2 
 PCOD9132301
Probable space group: C M
;
_chemical_formula_sum "Si O2"
_cell_formula_units_Z 32
_cell_length_a 14.672520
_cell_length_b 8.250296
_cell_length_c 25.123296
_cell_angle_alpha 90.000000
_cell_angle_beta 29.903173
_cell_angle_gamma 90.000000
_cell_volume 1516.167420
_symmetry_space_group_name_H-M "C M"
_symmetry_group_IT_number 8
_symmetry_cell_setting 'monoclinic'
loop_
_space_group_symop_operation_xyz
x,y,z
x,-y,z
1/2+x,1/2+y,z
1/2+x,1/2-y,z
loop_
_atom_site_type_symbol
_atom_site_label
_atom_site_fract_x
_atom_site_fract_y
_atom_site_fract_z
Si Si1 0.627340 0.305356 0.479710
Si Si2 0.983109 0.190724 0.346433
Si Si3 0.720214 0.805051 0.706917
Si Si4 0.273164 0.687652 0.121833
Si Si5 0.755301 0.305666 0.300254
Si Si6 0.563045 0.313239 0.073801
Si Si7 0.854980 0.698434 0.847081
Si Si8 0.583557 0.303382 0.890576
O O1 0.616161 0.500000 0.482021
O O2 0.782790 0.264147 0.443497
O O3 0.424733 0.241815 0.594528
O O4 0.701626 0.243169 0.385314
O O5 0.098379 0.223513 0.234163
O O6 0.108121 0.256204 0.331314
O O7 0.964526 0.000000 0.363021
O O8 0.565146 0.750565 0.743565
O O9 0.642011 0.759654 0.804030
O O10 0.728719 0.000000 0.699207
O O11 0.222272 0.500000 0.138542
O O12 0.422534 0.690887 0.094421
O O13 0.386846 0.751489 0.013684
O O14 0.741425 0.500000 0.308322
O O15 0.956609 0.267277 0.176182
O O16 0.593852 0.500000 0.072252
O O17 0.746958 0.243193 0.954730
O O18 0.847674 0.500000 0.852229
O O19 0.739581 0.747627 0.854070
O O20 0.577538 0.500000 0.893455
#
# Coordination Sequence:
#
# PCOD9132301 Si02
#       8
#     4   4   4   4   4   4   4   4
#     4  10  22  38  52  70 102 142 177 209 255 311
#     4  10  20  34  55  81 104 130 170 218 257 293
#     4  10  21  36  53  74 101 136 178 217 252 297
#     4   8  15  30  52  78 108 138 164 196 252 319
#     4   9  19  35  53  75 103 134 168 207 254 306
#     4   8  14  28  52  79 103 129 164 204 249 305
#     4   8  16  33  55  76 101 135 169 201 249 312
#     4   9  18  34  56  79 104 136 170 206 252 305
#
# _framework density 21.105848999999999
#
# number of rings (size 3 to 8) (size 9 to 14) (size 15 to 20)
#    0.000    3.000    0.000    1.875    0.000    4.000 
#    0.000    8.125    0.000    0.000    0.000    0.000 
#    0.000    0.000    0.000    0.000    0.000    0.000 
#
# Total GULP energy -89256.361340 kJ/mol
# GULP energy per Si atom -5578.522584 kJ/mol
# Density = 2.105781 g / cm^3
# Si number density = 21.105849 Si / 1000 Ang^3
#
#
#
# Elastic Constant Matrix: (Units=GPa)
#
#
# Indices 1 2 3 4 5 6 
#
# 1 59.7586 -0.3852 23.3361 0.0000 -16.7917 0.0000
# 2 -0.3852 5.8845 6.1271 0.0000 -4.1864 0.0000
# 3 23.3361 6.1271 67.1711 -0.0002 -25.6322 0.0001
# 4 0.0000 0.0000 -0.0002 24.0964 0.0000 5.3937
# 5 -16.7917 -4.1864 -25.6322 0.0000 36.5337 0.0000
# 6 0.0000 0.0000 0.0001 5.3937 0.0000 6.7585
#
#
#
# Elastic Compliance Matrix: (Units=1/GPa)
#
#
# Indices 1 2 3 4 5 6 
#
# 1 0.021041 0.012382 -0.005746 0.000000 0.007058 0.000000
# 2 0.012382 0.199670 -0.015858 0.000000 0.017445 0.000000
# 3 -0.005746 -0.015858 0.022709 0.000000 0.011474 0.000000
# 4 0.000000 0.000000 0.000000 0.050526 0.000000 -0.040323
# 5 0.007058 0.017445 0.011474 0.000000 0.040666 0.000000
# 6 0.000000 0.000000 0.000000 -0.040323 0.000000 0.180143
#
#
# Mechanical properties :
#
#
# Convention : Reuss Voigt Hill
#
# Bulk Modulus (GPa) = 4.44493 21.21890 12.83192
# Shear Modulus (GPa) = 8.22112 20.39347 14.30729
#
# Velocity S-wave (km/s) = 1.97576 3.11182 2.60644
# Velocity P-wave (km/s) = 2.70471 4.79444 3.89244
#
# Compressibility (1/GPa) = 0.22497533
#
# Stress axis : x y z
#
# Youngs Moduli (GPa) = 47.52641 5.00827 44.03618
#
# Poissons Ratio (x) = -0.06201 0.25303
# Poissons Ratio (y) = -0.58845 0.69831
# Poissons Ratio (z) = 0.27308 0.07942
#
# Static dielectric constant tensor:
#      x y z
#    x 1.807700 0.000000 -0.012040 
#    y 0.000000 1.738310 0.000000 
#    z -0.012040 0.000000 1.762470 
# 
# From -- ./inp_files/26536.got.cif
#   From: 2010.05.17/outbox.cif.g08.bks.cpg/sg8_14_cif.got.tgz:26536.got - 2010.06.03 19:46:02.
