data_PCOD9132176
_publ_section_title
;
Structure prediction by ZEFSAII (Michael W. Deem and Ramdas Pophale) SiO2 
 PCOD9132176
Probable space group: C M
;
_chemical_formula_sum "Si O2"
_cell_formula_units_Z 32
_cell_length_a 8.772041
_cell_length_b 12.997450
_cell_length_c 18.899176
_cell_angle_alpha 90.000000
_cell_angle_beta 49.310380
_cell_angle_gamma 90.000000
_cell_volume 1633.862505
_symmetry_space_group_name_H-M "C M"
_symmetry_group_IT_number 8
_symmetry_cell_setting 'monoclinic'
loop_
_space_group_symop_operation_xyz
x,y,z
x,-y,z
1/2+x,1/2+y,z
1/2+x,1/2-y,z
loop_
_atom_site_type_symbol
_atom_site_label
_atom_site_fract_x
_atom_site_fract_y
_atom_site_fract_z
Si Si1 0.006350 0.777803 0.715810
Si Si2 0.994830 0.616656 0.185120
Si Si3 0.887066 0.808321 0.027530
Si Si4 0.260871 0.619620 0.390138
Si Si5 0.210451 0.110953 0.040260
Si Si6 0.923895 0.619391 0.613218
Si Si7 0.631331 0.227209 0.285969
Si Si8 0.566507 0.813222 0.850866
O O1 0.206376 0.845652 0.649698
O O2 0.023369 0.716285 0.783956
O O3 0.979745 0.697168 0.659854
O O4 0.799327 0.841440 0.784919
O O5 0.918932 0.500000 0.210573
O O6 0.825149 0.699388 0.218149
O O7 0.082545 0.653262 0.234673
O O8 0.191119 0.622238 0.075125
O O9 0.780622 0.697361 0.073989
O O10 0.028354 0.850056 0.046405
O O11 0.018392 0.784705 0.917668
O O12 0.323341 0.500000 0.366843
O O13 0.444452 0.695435 0.352447
O O14 0.090291 0.628177 0.501726
O O15 0.172284 0.658187 0.342379
O O16 0.165388 0.000000 0.084825
O O17 0.403528 0.108378 0.930086
O O18 0.916422 0.500000 0.638839
#
# Coordination Sequence:
#
# PCOD9132176 Si02
#       8
#     4   4   4   4   4   4   4   4
#     4  10  19  37  56  82 117 142 188 244 274 325
#     4  11  22  38  59  85 116 150 191 236 283 333
#     4  10  20  37  55  80 112 147 190 235 275 332
#     4  10  20  39  60  85 118 148 185 229 285 350
#     4  10  20  36  56  76 104 149 190 227 279 327
#     4  10  22  37  60  87 112 151 189 228 290 345
#     4  10  22  37  61  88 115 148 188 231 286 341
#     4   9  18  35  56  77 112 149 186 236 277 329
#
# _framework density 19.585491999999999
#
# number of rings (size 3 to 8) (size 9 to 14) (size 15 to 20)
#    0.750    1.250    1.250    2.625    0.000    1.000 
#    0.000    8.125    0.000   10.500    0.000    0.000 
#    0.000    0.000    0.000    0.000    0.000    0.000 
#
# Total GULP energy -89200.810765 kJ/mol
# GULP energy per Si atom -5575.050673 kJ/mol
# Density = 1.954091 g / cm^3
# Si number density = 19.585492 Si / 1000 Ang^3
#
#
#
# Elastic Constant Matrix: (Units=GPa)
#
#
# Indices 1 2 3 4 5 6 
#
# 1 68.8842 1.9480 17.7703 0.0000 -12.2390 0.0000
# 2 1.9480 83.4242 12.4206 0.0000 -0.6691 0.0000
# 3 17.7703 12.4206 70.2816 -0.0001 -12.9644 0.0001
# 4 0.0000 0.0000 -0.0001 17.9677 0.0000 4.8564
# 5 -12.2390 -0.6691 -12.9644 0.0000 33.3855 0.0000
# 6 0.0000 0.0000 0.0001 4.8564 0.0000 11.1301
#
#
#
# Elastic Compliance Matrix: (Units=1/GPa)
#
#
# Indices 1 2 3 4 5 6 
#
# 1 0.016183 0.000144 -0.003256 0.000000 0.004671 0.000000
# 2 0.000144 0.012325 -0.002326 0.000000 -0.000603 0.000000
# 3 -0.003256 -0.002326 0.016409 0.000000 0.005132 0.000000
# 4 0.000000 0.000000 0.000000 0.063097 0.000000 -0.027531
# 5 0.004671 -0.000603 0.005132 0.000000 0.033646 0.000000
# 6 0.000000 0.000000 0.000000 -0.027531 0.000000 0.101860
#
#
# Mechanical properties :
#
#
# Convention : Reuss Voigt Hill
#
# Bulk Modulus (GPa) = 29.37475 31.87418 30.62447
# Shear Modulus (GPa) = 18.81526 25.19340 22.00433
#
# Velocity S-wave (km/s) = 3.10284 3.59043 3.35550
# Velocity P-wave (km/s) = 5.27897 5.78775 5.53920
#
# Compressibility (1/GPa) = 0.03404284
#
# Stress axis : x y z
#
# Youngs Moduli (GPa) = 61.79382 81.13581 60.94083
#
# Poissons Ratio (x) = -0.01171 0.19840
# Poissons Ratio (y) = -0.00892 0.14174
# Poissons Ratio (z) = 0.20117 0.18872
#
# Static dielectric constant tensor:
#      x y z
#    x 1.676140 0.000000 -0.019770 
#    y 0.000000 1.685970 0.000000 
#    z -0.019770 0.000000 1.690760 
# 
# From -- ./inp_files/30351.got.cif
#   From: 2010.05.17/outbox.cif.g08.bks.cpg/sg8_16_cif.got.tgz:30351.got - 2010.06.03 19:46:02.
