data_PCOD9132591
_publ_section_title
;
Structure prediction by ZEFSAII (Michael W. Deem and Ramdas Pophale) SiO2 
 PCOD9132591
Probable space group: C M
;
_chemical_formula_sum "Si O2"
_cell_formula_units_Z 32
_cell_length_a 31.771087
_cell_length_b 8.887594
_cell_length_c 5.452537
_cell_angle_alpha 90.000000
_cell_angle_beta 95.910971
_cell_angle_gamma 90.000000
_cell_volume 1531.438809
_symmetry_space_group_name_H-M "C M"
_symmetry_group_IT_number 8
_symmetry_cell_setting 'monoclinic'
loop_
_space_group_symop_operation_xyz
x,y,z
x,-y,z
1/2+x,1/2+y,z
1/2+x,1/2-y,z
loop_
_atom_site_type_symbol
_atom_site_label
_atom_site_fract_x
_atom_site_fract_y
_atom_site_fract_z
Si Si1 0.492280 0.662214 0.720950
Si Si2 0.428335 0.327361 0.072988
Si Si3 0.074768 0.833868 0.103472
Si Si4 0.011353 0.664777 0.326921
Si Si5 0.200617 0.318216 0.450205
Si Si6 0.338796 0.180112 0.083150
Si Si7 0.299467 0.317677 0.559149
Si Si8 0.654008 0.182432 0.919572
O O1 0.496327 0.500000 0.584946
O O2 0.503533 0.820254 0.608884
O O3 0.445441 0.667809 0.803906
O O4 0.529946 0.650445 0.939671
O O5 0.419623 0.500000 0.140713
O O6 0.470023 0.260409 0.225205
O O7 0.388053 0.225685 0.093663
O O8 0.109020 0.754969 0.954993
O O9 0.058214 0.731415 0.314676
O O10 0.089282 0.000000 0.187418
O O11 0.009010 0.500000 0.220202
O O12 0.198506 0.500000 0.451980
O O13 0.249651 0.278875 0.513476
O O14 0.182868 0.272977 0.172897
O O15 0.173451 0.267378 0.670475
O O16 0.320911 0.250948 0.325782
O O17 0.333396 0.000000 0.081931
O O18 0.317591 0.250953 0.824897
O O19 0.304213 0.500000 0.564455
O O20 0.651022 0.000000 0.914953
#
# Coordination Sequence:
#
# PCOD9132591 Si02
#       8
#     4   4   4   4   4   4   4   4
#     4   9  20  38  59  81 116 160 207 255 304 371
#     4  10  22  41  62  87 120 165 214 256 313 387
#     4  10  22  39  56  83 120 162 209 254 307 376
#     4  11  22  36  59  87 120 159 203 260 319 368
#     4   9  20  39  65  93 124 161 210 265 316 382
#     4  12  26  43  66 101 140 172 216 278 333 386
#     4  11  23  45  73  98 129 176 225 267 329 406
#     4  10  20  37  62  94 125 159 208 265 319 372
#
# _framework density 20.895382000000001
#
# number of rings (size 3 to 8) (size 9 to 14) (size 15 to 20)
#    0.000    1.750    0.000    4.875    3.500    5.000 
#    0.000    3.750    0.000    0.000    0.000    0.000 
#    0.000    0.000    0.000    0.000    0.000    0.000 
#
# Total GULP energy -89125.135241 kJ/mol
# GULP energy per Si atom -5570.320953 kJ/mol
# Density = 2.084782 g / cm^3
# Si number density = 20.895382 Si / 1000 Ang^3
#
#
#
# Elastic Constant Matrix: (Units=GPa)
#
#
# Indices 1 2 3 4 5 6 
#
# 1 96.1925 20.9238 17.6910 0.0000 -23.9849 0.0000
# 2 20.9238 92.9237 23.5527 0.0000 -15.1285 0.0000
# 3 17.6910 23.5527 73.9198 0.0000 -16.5159 0.0000
# 4 0.0000 0.0000 0.0000 18.7617 0.0000 -6.9337
# 5 -23.9849 -15.1285 -16.5159 0.0000 31.0367 0.0000
# 6 0.0000 0.0000 0.0000 -6.9337 0.0000 5.9051
#
#
#
# Elastic Compliance Matrix: (Units=1/GPa)
#
#
# Indices 1 2 3 4 5 6 
#
# 1 0.013073 -0.001287 -0.000683 0.000000 0.009112 0.000000
# 2 -0.001287 0.012343 -0.002840 0.000000 0.003510 0.000000
# 3 -0.000683 -0.002840 0.016081 0.000000 0.006645 0.000000
# 4 0.000000 0.000000 0.000000 0.094160 0.000000 0.110561
# 5 0.009112 0.003510 0.006645 0.000000 0.044509 0.000000
# 6 0.000000 0.000000 0.000000 0.110561 0.000000 0.299162
#
#
# Mechanical properties :
#
#
# Convention : Reuss Voigt Hill
#
# Bulk Modulus (GPa) = 31.37060 43.04124 37.20592
# Shear Modulus (GPa) = 10.00851 24.53193 17.27022
#
# Velocity S-wave (km/s) = 2.19094 3.43014 2.87803
# Velocity P-wave (km/s) = 4.63099 6.02752 5.37480
#
# Compressibility (1/GPa) = 0.03187698
#
# Stress axis : x y z
#
# Youngs Moduli (GPa) = 76.49078 81.01922 62.18370
#
# Poissons Ratio (x) = 0.10429 0.04245
# Poissons Ratio (y) = 0.09846 0.17663
# Poissons Ratio (z) = 0.05222 0.23013
#
# Static dielectric constant tensor:
#      x y z
#    x 1.705500 0.000000 -0.006270 
#    y 0.000000 1.913300 0.000000 
#    z -0.006270 0.000000 1.961750 
# 
# From -- ./inp_files/6427.got.cif
#   From: 2010.05.17/outbox.cif.g08.bks.cpg/sg8_4_cif.got.tgz:6427.got - 2010.06.03 19:46:02.
