data_PCOD9132979
_publ_section_title
;
Structure prediction by ZEFSAII (Michael W. Deem and Ramdas Pophale) SiO2 
 PCOD9132979
Probable space group: C M
;
_chemical_formula_sum "Si O2"
_cell_formula_units_Z 32
_cell_length_a 25.220629
_cell_length_b 8.604549
_cell_length_c 16.426897
_cell_angle_alpha 90.000000
_cell_angle_beta 153.150750
_cell_angle_gamma 90.000000
_cell_volume 1610.039012
_symmetry_space_group_name_H-M "C M"
_symmetry_group_IT_number 8
_symmetry_cell_setting 'monoclinic'
loop_
_space_group_symop_operation_xyz
x,y,z
x,-y,z
1/2+x,1/2+y,z
1/2+x,1/2-y,z
loop_
_atom_site_type_symbol
_atom_site_label
_atom_site_fract_x
_atom_site_fract_y
_atom_site_fract_z
Si Si1 0.791660 0.313986 0.545580
Si Si2 0.636080 0.184157 0.881424
Si Si3 0.758819 0.685443 0.315292
Si Si4 0.540147 0.684394 0.917045
Si Si5 0.604934 0.812437 0.411951
Si Si6 0.831759 0.686031 0.043163
Si Si7 0.470940 0.317601 0.515325
Si Si8 0.164896 0.684811 0.674246
O O1 0.797420 0.500000 0.553616
O O2 0.788463 0.261598 0.446913
O O3 0.678057 0.258766 0.438582
O O4 0.909002 0.245845 0.746118
O O5 0.601199 0.232845 0.923895
O O6 0.764734 0.233411 0.026771
O O7 0.548111 0.274301 0.700488
O O8 0.620391 0.000000 0.849054
O O9 0.780803 0.500000 0.340784
O O10 0.841090 0.765440 0.361219
O O11 0.623565 0.713235 0.108293
O O12 0.537911 0.500000 0.898614
O O13 0.664372 0.767045 0.579410
O O14 0.609450 0.000000 0.413149
O O15 0.467773 0.767730 0.223642
O O16 0.824719 0.500000 0.043584
O O17 0.758917 0.733686 0.862334
O O18 0.476530 0.500000 0.506484
O O19 0.535920 0.225316 0.532789
O O20 0.183030 0.500000 0.704726
#
# Coordination Sequence:
#
# PCOD9132979 Si02
#       8
#     4   4   4   4   4   4   4   4
#     4  11  24  43  65  89 122 162 206 258 306 360
#     4  11  21  36  59  90 128 163 200 251 309 365
#     4  10  23  41  61  88 123 162 201 250 310 369
#     4  11  23  40  63  90 122 163 205 250 309 369
#     4  10  24  43  64  87 120 165 208 249 304 369
#     4  10  21  39  61  90 122 160 204 252 305 361
#     4  11  21  35  60  92 125 162 201 251 307 364
#     4  10  21  39  61  88 122 163 201 249 308 365
#
# _framework density 19.875295999999999
#
# number of rings (size 3 to 8) (size 9 to 14) (size 15 to 20)
#    0.000    1.500    1.250    5.250    1.750    4.500 
#    0.000    3.750    0.000    0.000    0.000    0.000 
#    0.000    0.000    0.000    0.000    0.000    0.000 
#
# Total GULP energy -89434.992759 kJ/mol
# GULP energy per Si atom -5589.687047 kJ/mol
# Density = 1.983006 g / cm^3
# Si number density = 19.875296 Si / 1000 Ang^3
#
#
#
# Elastic Constant Matrix: (Units=GPa)
#
#
# Indices 1 2 3 4 5 6 
#
# 1 54.7736 -1.8179 6.9077 0.0000 17.0047 0.0000
# 2 -1.8179 22.1437 6.5963 0.0000 6.0336 0.0000
# 3 6.9077 6.5963 62.8700 0.0000 24.6557 0.0000
# 4 0.0000 0.0000 0.0000 21.0470 0.0000 5.8472
# 5 17.0047 6.0336 24.6557 0.0000 30.6122 0.0000
# 6 0.0000 0.0000 0.0000 5.8472 0.0000 33.4775
#
#
#
# Elastic Compliance Matrix: (Units=1/GPa)
#
#
# Indices 1 2 3 4 5 6 
#
# 1 0.023197 0.005438 0.003442 0.000000 -0.016729 0.000000
# 2 0.005438 0.049157 -0.001127 0.000000 -0.011802 0.000000
# 3 0.003442 -0.001127 0.023838 0.000000 -0.020889 0.000000
# 4 0.000000 0.000000 0.000000 0.049936 0.000000 -0.008722
# 5 -0.016729 -0.011802 -0.020889 0.000000 0.061111 0.000000
# 6 0.000000 0.000000 0.000000 -0.008722 0.000000 0.031394
#
#
# Mechanical properties :
#
#
# Convention : Reuss Voigt Hill
#
# Bulk Modulus (GPa) = 8.95278 18.12884 13.54081
# Shear Modulus (GPa) = 19.20412 25.56741 22.38577
#
# Velocity S-wave (km/s) = 3.11180 3.59052 3.35970
# Velocity P-wave (km/s) = 4.17436 5.13130 4.67737
#
# Compressibility (1/GPa) = 0.11169720
#
# Stress axis : x y z
#
# Youngs Moduli (GPa) = 43.10877 20.34291 41.94963
#
# Poissons Ratio (x) = -0.11062 -0.14437
# Poissons Ratio (y) = -0.23441 0.04726
# Poissons Ratio (z) = -0.14836 0.02292
#
# Static dielectric constant tensor:
#      x y z
#    x 1.674780 0.000000 -0.005870 
#    y 0.000000 1.668890 0.000000 
#    z -0.005870 0.000000 1.719370 
# 
# From -- ./inp_files/24832.got.cif
#   From: 2010.05.17/outbox.cif.g08.bks.cpg/sg8_13_cif.got.tgz:24832.got - 2010.06.03 19:46:02.
