data_PCOD9132040
_publ_section_title
;
Structure prediction by ZEFSAII (Michael W. Deem and Ramdas Pophale) SiO2 
 PCOD9132040
Probable space group: C M
;
_chemical_formula_sum "Si O2"
_cell_formula_units_Z 28
_cell_length_a 14.513105
_cell_length_b 13.702607
_cell_length_c 14.638443
_cell_angle_alpha 90.000000
_cell_angle_beta 28.368726
_cell_angle_gamma 90.000000
_cell_volume 1383.195830
_symmetry_space_group_name_H-M "C M"
_symmetry_group_IT_number 8
_symmetry_cell_setting 'monoclinic'
loop_
_space_group_symop_operation_xyz
x,y,z
x,-y,z
1/2+x,1/2+y,z
1/2+x,1/2-y,z
loop_
_atom_site_type_symbol
_atom_site_label
_atom_site_fract_x
_atom_site_fract_y
_atom_site_fract_z
Si Si1 0.786720 0.607274 0.615660
Si Si2 0.687133 0.783018 0.476658
Si Si3 0.466259 0.608620 0.736668
Si Si4 0.936957 0.384332 0.847338
Si Si5 0.115428 0.269836 0.074672
Si Si6 0.719530 0.112131 0.253217
Si Si7 0.546669 0.241321 0.921628
O O1 0.769875 0.500000 0.676300
O O2 0.634488 0.609149 0.666203
O O3 0.731238 0.696672 0.728136
O O4 0.008308 0.615546 0.392401
O O5 0.540817 0.690412 0.600807
O O6 0.602915 0.848227 0.632219
O O7 0.693643 0.846278 0.378678
O O8 0.905030 0.743164 0.302963
O O9 0.447447 0.500000 0.715051
O O10 0.267573 0.642789 0.958307
O O11 0.913065 0.500000 0.866099
O O12 0.998426 0.344682 0.893551
O O13 0.742421 0.326971 0.985446
O O14 0.071173 0.284365 0.005596
O O15 0.786425 0.000000 0.197090
O O16 0.870156 0.181857 0.072688
#
# Coordination Sequence:
#
# PCOD9132040 Si02
#       7
#     4   4   4   4   4   4   4
#     4  10  19  34  59  88 118 154 199 251 309 369
#     4  10  21  41  63  91 126 163 209 263 317 374
#     4  10  21  37  59  90 123 161 205 253 312 370
#     4  11  24  42  64  93 128 168 215 262 320 384
#     4  10  23  41  63  90 125 168 209 262 314 377
#     4  10  22  38  63  94 123 159 208 262 316 375
#     4  11  22  39  63  90 125 163 209 261 318 375
#
# _framework density 20.242975000000001
#
# number of rings (size 3 to 8) (size 9 to 14) (size 15 to 20)
#    0.000    1.714    2.857    2.571    2.000    5.714 
#    0.000    2.143    0.000    0.000    0.000    0.000 
#    0.000    0.000    0.000    0.000    0.000    0.000 
#
# Total GULP energy -78150.320147 kJ/mol
# GULP energy per Si atom -5582.165725 kJ/mol
# Density = 2.019690 g / cm^3
# Si number density = 20.242975 Si / 1000 Ang^3
#
#
#
# Elastic Constant Matrix: (Units=GPa)
#
#
# Indices 1 2 3 4 5 6 
#
# 1 81.3746 23.4450 14.7036 -0.0017 -1.5959 0.0014
# 2 23.4450 132.4409 29.4393 -0.0071 0.0837 0.0034
# 3 14.7036 29.4393 90.4256 -0.0090 -21.8401 0.0036
# 4 -0.0017 -0.0071 -0.0090 12.3825 0.0037 -5.4278
# 5 -1.5959 0.0837 -21.8401 0.0037 36.4269 -0.0007
# 6 0.0014 0.0034 0.0036 -5.4278 -0.0007 12.1335
#
#
#
# Elastic Compliance Matrix: (Units=1/GPa)
#
#
# Indices 1 2 3 4 5 6 
#
# 1 0.013136 -0.001973 -0.001583 -0.000001 -0.000369 -0.000001
# 2 -0.001973 0.008548 -0.002909 0.000003 -0.001850 0.000000
# 3 -0.001583 -0.002909 0.014322 0.000006 0.008524 0.000000
# 4 -0.000001 0.000003 0.000006 0.100458 -0.000006 0.044938
# 5 -0.000369 -0.001850 0.008524 -0.000006 0.032551 -0.000003
# 6 -0.000001 0.000000 0.000000 0.044938 -0.000003 0.102519
#
#
# Mechanical properties :
#
#
# Convention : Reuss Voigt Hill
#
# Bulk Modulus (GPa) = 43.33464 48.82409 46.07937
# Shear Modulus (GPa) = 17.11422 27.96546 22.53984
#
# Velocity S-wave (km/s) = 2.91080 3.72087 3.34048
# Velocity P-wave (km/s) = 5.72282 6.52926 6.13930
#
# Compressibility (1/GPa) = 0.02307623
#
# Stress axis : x y z
#
# Youngs Moduli (GPa) = 76.12600 116.99183 69.82277
#
# Poissons Ratio (x) = 0.23087 0.11050
# Poissons Ratio (y) = 0.15022 0.20310
# Poissons Ratio (z) = 0.12048 0.34030
#
# Static dielectric constant tensor:
#      x y z
#    x 1.754990 0.000000 -0.009170 
#    y 0.000000 1.721480 0.000000 
#    z -0.009170 0.000000 1.724480 
# 
# From -- ./inp_files/26914.got.cif
#   From: 2010.05.17/outbox.cif.g08.bks.cpg/sg8_14_cif.got.tgz:26914.got - 2010.06.03 19:46:02.
