data_PCOD9132577
_publ_section_title
;
Structure prediction by ZEFSAII (Michael W. Deem and Ramdas Pophale) SiO2 
 PCOD9132577
Probable space group: C M
;
_chemical_formula_sum "Si O2"
_cell_formula_units_Z 32
_cell_length_a 9.857302
_cell_length_b 15.829743
_cell_length_c 24.984555
_cell_angle_alpha 90.000000
_cell_angle_beta 154.310862
_cell_angle_gamma 90.000000
_cell_volume 1689.977326
_symmetry_space_group_name_H-M "C M"
_symmetry_group_IT_number 8
_symmetry_cell_setting 'monoclinic'
loop_
_space_group_symop_operation_xyz
x,y,z
x,-y,z
1/2+x,1/2+y,z
1/2+x,1/2-y,z
loop_
_atom_site_type_symbol
_atom_site_label
_atom_site_fract_x
_atom_site_fract_y
_atom_site_fract_z
Si Si1 0.912920 0.734791 0.402340
Si Si2 0.782323 0.740379 0.233910
Si Si3 0.695825 0.099440 0.581620
Si Si4 0.807759 0.661207 0.859876
Si Si5 0.458998 0.594228 0.833019
Si Si6 0.457613 0.596809 0.054047
Si Si7 0.626190 0.333950 0.998008
Si Si8 0.300841 0.901554 0.550385
O O1 0.930654 0.729414 0.344901
O O2 0.550708 0.727547 0.289950
O O3 0.090261 0.659726 0.495953
O O4 0.048024 0.827281 0.466690
O O5 0.656986 0.652375 0.166097
O O6 0.484159 0.802954 0.130585
O O7 0.447123 0.104479 0.542395
O O8 0.018167 0.136814 0.719615
O O9 0.727869 0.000000 0.579205
O O10 0.686554 0.648941 0.877246
O O11 0.101104 0.604433 0.947257
O O12 0.933808 0.756200 0.903739
O O13 0.482552 0.500000 0.818057
O O14 0.095341 0.616747 0.694441
O O15 0.573009 0.596042 0.934107
O O16 0.557518 0.500000 0.087337
O O17 0.498663 0.638352 0.010128
O O18 0.199774 0.000000 0.522349
#
# Coordination Sequence:
#
# PCOD9132577 Si02
#       8
#     4   4   4   4   4   4   4   4
#     4  12  22  43  63  87 120 160 210 253 295 360
#     4  11  25  41  60  86 118 158 208 248 299 353
#     4  10  21  39  63  92 123 160 201 248 306 365
#     4  10  20  38  63  90 121 152 195 245 302 358
#     4  10  20  37  61  91 118 148 195 242 292 362
#     4  11  23  40  61  89 124 156 196 256 309 355
#     4  11  22  39  60  87 120 158 197 241 305 363
#     4   9  20  39  64  90 120 158 199 245 306 366
#
# _framework density 18.935167
#
# number of rings (size 3 to 8) (size 9 to 14) (size 15 to 20)
#    0.000    1.500    2.500    4.500    1.750    2.000 
#    2.250    1.250    0.000    0.000    0.000    0.000 
#    0.000    0.000    0.000    0.000    0.000    0.000 
#
# Total GULP energy -89297.625655 kJ/mol
# GULP energy per Si atom -5581.101603 kJ/mol
# Density = 1.889207 g / cm^3
# Si number density = 18.935167 Si / 1000 Ang^3
#
#
#
# Elastic Constant Matrix: (Units=GPa)
#
#
# Indices 1 2 3 4 5 6 
#
# 1 35.7338 13.7053 16.9217 -0.0005 -2.6278 0.0000
# 2 13.7053 92.4400 37.9499 0.0011 -4.9566 -0.0002
# 3 16.9217 37.9499 66.0570 -0.0023 -3.7948 -0.0005
# 4 -0.0005 0.0011 -0.0023 12.1552 -0.0002 -4.1084
# 5 -2.6278 -4.9566 -3.7948 -0.0002 29.2292 -0.0001
# 6 0.0000 -0.0002 -0.0005 -4.1084 -0.0001 23.5602
#
#
#
# Elastic Compliance Matrix: (Units=1/GPa)
#
#
# Indices 1 2 3 4 5 6 
#
# 1 0.032158 -0.001748 -0.007138 0.000000 0.001668 0.000000
# 2 -0.001748 0.014305 -0.007698 -0.000003 0.001269 -0.000001
# 3 -0.007138 -0.007698 0.021437 0.000005 0.000836 0.000001
# 4 0.000000 -0.000003 0.000005 0.087422 0.000001 0.015245
# 5 0.001668 0.001269 0.000836 0.000001 0.034686 0.000000
# 6 0.000000 -0.000001 0.000001 0.015245 0.000000 0.045103
#
#
# Mechanical properties :
#
#
# Convention : Reuss Voigt Hill
#
# Bulk Modulus (GPa) = 28.79069 36.82049 32.80559
# Shear Modulus (GPa) = 17.86632 21.36584 19.61608
#
# Velocity S-wave (km/s) = 3.07506 3.36276 3.22213
# Velocity P-wave (km/s) = 5.27692 5.87923 5.58620
#
# Compressibility (1/GPa) = 0.03473345
#
# Stress axis : x y z
#
# Youngs Moduli (GPa) = 31.09662 69.90450 46.64771
#
# Poissons Ratio (x) = 0.12220 0.33296
# Poissons Ratio (y) = 0.05436 0.35908
# Poissons Ratio (z) = 0.22196 0.53810
#
# Static dielectric constant tensor:
#      x y z
#    x 1.633930 0.000000 0.006490 
#    y 0.000000 1.641370 0.000000 
#    z 0.006490 0.000000 1.653320 
# 
# From -- ./inp_files/31775.got.cif
#   From: 2010.05.17/outbox.cif.g08.bks.cpg/sg8_16_cif.got.tgz:31775.got - 2010.06.03 19:46:02.
