data_PCOD9132528
_publ_section_title
;
Structure prediction by ZEFSAII (Michael W. Deem and Ramdas Pophale) SiO2 
 PCOD9132528
Probable space group: C M
;
_chemical_formula_sum "Si O2"
_cell_formula_units_Z 24
_cell_length_a 10.082223
_cell_length_b 16.997335
_cell_length_c 5.278728
_cell_angle_alpha 90.000000
_cell_angle_beta 103.840063
_cell_angle_gamma 90.000000
_cell_volume 878.356866
_symmetry_space_group_name_H-M "C M"
_symmetry_group_IT_number 8
_symmetry_cell_setting 'monoclinic'
loop_
_space_group_symop_operation_xyz
x,y,z
x,-y,z
1/2+x,1/2+y,z
1/2+x,1/2-y,z
loop_
_atom_site_type_symbol
_atom_site_label
_atom_site_fract_x
_atom_site_fract_y
_atom_site_fract_z
Si Si1 0.310120 0.649551 0.882490
Si Si2 0.409355 0.085604 0.358985
Si Si3 0.625859 0.368852 0.077130
Si Si4 0.084849 0.802900 0.565553
Si Si5 0.812248 0.908383 0.381052
Si Si6 0.451792 0.182799 0.874008
O O1 0.464595 0.609853 0.988753
O O2 0.240336 0.609642 0.611415
O O3 0.349084 0.740916 0.864613
O O4 0.235259 0.621847 0.099743
O O5 0.420214 0.117110 0.649540
O O6 0.473516 0.000000 0.352633
O O7 0.245865 0.079388 0.238931
O O8 0.457353 0.146193 0.159197
O O9 0.662023 0.359408 0.797682
O O10 0.634041 0.298160 0.297295
O O11 0.939519 0.847268 0.462028
O O12 0.063221 0.730358 0.747581
O O13 0.848373 0.000000 0.380562
#
# Coordination Sequence:
#
# PCOD9132528 Si02
#       6
#     4   4   4   4   4   4
#     4   9  18  32  49  66  98 148 183 209 239 306
#     4  12  23  33  51  82 120 147 165 219 291 336
#     4   9  18  31  47  73 101 133 178 210 259 316
#     4   9  18  33  52  68 100 151 188 214 241 309
#     4   9  15  24  43  71  94 117 163 216 257 288
#     4  10  20  37  51  68 106 148 195 220 247 325
#
# _framework density 27.323744000000001
#
# number of rings (size 3 to 8) (size 9 to 14) (size 15 to 20)
#    0.000    2.667    0.000    6.000    0.000    5.333 
#    0.000    0.000    0.000    0.000    0.000    0.000 
#    0.000  488.000    0.000    0.000    0.000    0.000 
#
# Total GULP energy -66858.213148 kJ/mol
# GULP energy per Si atom -5571.517762 kJ/mol
# Density = 2.726155 g / cm^3
# Si number density = 27.323744 Si / 1000 Ang^3
#
#
#
# Elastic Constant Matrix: (Units=GPa)
#
#
# Indices 1 2 3 4 5 6 
#
# 1 78.6861 15.3957 -4.1298 0.0000 -22.5826 0.0000
# 2 15.3957 143.0670 44.0097 0.0000 -26.7167 0.0000
# 3 -4.1298 44.0097 252.6535 0.0000 -46.1901 0.0000
# 4 0.0000 0.0000 0.0000 4.0156 0.0000 -7.5135
# 5 -22.5826 -26.7167 -46.1901 0.0000 33.7883 0.0000
# 6 0.0000 0.0000 0.0000 -7.5135 0.0000 18.6884
#
#
#
# Elastic Compliance Matrix: (Units=1/GPa)
#
#
# Indices 1 2 3 4 5 6 
#
# 1 0.017507 0.000155 0.003227 0.000000 0.016236 0.000000
# 2 0.000155 0.008222 -0.000296 0.000000 0.006200 0.000000
# 3 0.003227 -0.000296 0.005885 0.000000 0.009967 0.000000
# 4 0.000000 0.000000 0.000000 1.005149 0.000000 0.404113
# 5 0.016236 0.006200 0.009967 0.000000 0.058975 0.000000
# 6 0.000000 0.000000 0.000000 0.404113 0.000000 0.215980
#
#
# Mechanical properties :
#
#
# Convention : Reuss Voigt Hill
#
# Bulk Modulus (GPa) = 26.46447 64.99529 45.72988
# Shear Modulus (GPa) = 3.79322 39.24054 21.51688
#
# Velocity S-wave (km/s) = 1.17952 3.79375 2.80925
# Velocity P-wave (km/s) = 3.40023 6.55963 5.22448
#
# Compressibility (1/GPa) = 0.03778650
#
# Stress axis : x y z
#
# Youngs Moduli (GPa) = 57.11880 121.62584 169.93639
#
# Poissons Ratio (x) = -0.01887 -0.54845
# Poissons Ratio (y) = -0.00886 0.05033
# Poissons Ratio (z) = -0.18434 0.03602
#
# Static dielectric constant tensor:
#      x y z
#    x 2.437010 0.000000 -0.003440 
#    y 0.000000 2.154010 0.000000 
#    z -0.003440 0.000000 2.171590 
# 
# From -- ./inp_files/3880.got.cif
#   From: 2010.05.17/outbox.cif.g08.bks.cpg/sg8_2_cif.got.tgz:3880.got - 2010.06.03 19:46:02.
