data_PCOD9132388
_publ_section_title
;
Structure prediction by ZEFSAII (Michael W. Deem and Ramdas Pophale) SiO2 
 PCOD9132388
Probable space group: C M
;
_chemical_formula_sum "Si O2"
_cell_formula_units_Z 24
_cell_length_a 23.105286
_cell_length_b 7.772057
_cell_length_c 13.297632
_cell_angle_alpha 90.000000
_cell_angle_beta 30.925341
_cell_angle_gamma 90.000000
_cell_volume 1227.206806
_symmetry_space_group_name_H-M "C M"
_symmetry_group_IT_number 8
_symmetry_cell_setting 'monoclinic'
loop_
_space_group_symop_operation_xyz
x,y,z
x,-y,z
1/2+x,1/2+y,z
1/2+x,1/2-y,z
loop_
_atom_site_type_symbol
_atom_site_label
_atom_site_fract_x
_atom_site_fract_y
_atom_site_fract_z
Si Si1 0.297130 0.200140 0.740430
Si Si2 0.094815 0.500000 0.265349
Si Si3 0.321119 0.206952 0.473359
Si Si4 0.045927 0.191252 0.201421
Si Si5 0.181706 0.500000 0.356551
Si Si6 0.937112 0.000000 0.893903
Si Si7 0.644923 0.301994 0.567557
Si Si8 0.351515 0.500000 0.799461
O O1 0.296726 0.257150 0.624972
O O2 0.363362 0.330860 0.713459
O O3 0.332490 0.000000 0.697073
O O4 0.167313 0.206697 0.969821
O O5 0.038306 0.333293 0.299724
O O6 0.108442 0.500000 0.363983
O O7 0.223063 0.500000 0.032111
O O8 0.446705 0.276366 0.269450
O O9 0.227807 0.260124 0.532445
O O10 0.323544 0.000000 0.467767
O O11 0.034980 0.000000 0.259612
O O12 0.153918 0.668396 0.463857
O O13 0.314801 0.500000 0.126930
O O14 0.017406 0.835812 0.797411
O O15 0.924159 0.000000 0.792001
O O16 0.678960 0.500000 0.487883
#
# Coordination Sequence:
#
# PCOD9132388 Si02
#       8
#     4   2   4   4   2   2   4   2
#     4   9  20  35  55  85 117 151 185 234 301 353
#     4   9  20  37  56  87 119 148 192 245 289 354
#     4  10  20  38  57  83 123 147 189 251 285 344
#     4  10  20  35  57  87 117 151 189 234 298 358
#     4  11  22  43  69  83 121 174 197 247 316 348
#     4   9  22  45  61  87 125 160 201 259 298 346
#     4   9  23  43  58  90 125 154 215 255 283 370
#     4   9  18  37  58  81 119 148 192 241 289 358
#
# _framework density 19.556605000000001
#
# number of rings (size 3 to 8) (size 9 to 14) (size 15 to 20)
#    0.500    2.000    0.833    0.000    2.333    3.333 
#    3.000    1.667    0.000    0.000    0.000    0.000 
#    0.000    0.000    0.000    0.000    0.000    0.000 
#
# Total GULP energy -66908.191868 kJ/mol
# GULP energy per Si atom -5575.682656 kJ/mol
# Density = 1.951209 g / cm^3
# Si number density = 19.556605 Si / 1000 Ang^3
#
#
#
# Elastic Constant Matrix: (Units=GPa)
#
#
# Indices 1 2 3 4 5 6 
#
# 1 80.0991 19.4525 -2.0102 0.0001 -12.0227 0.0000
# 2 19.4525 61.8133 11.1653 0.0000 6.3363 0.0000
# 3 -2.0102 11.1653 55.3299 0.0000 -9.5276 0.0000
# 4 0.0001 0.0000 0.0000 24.5702 0.0000 6.2732
# 5 -12.0227 6.3363 -9.5276 0.0000 30.5374 0.0000
# 6 0.0000 0.0000 0.0000 6.2732 0.0000 15.3483
#
#
#
# Elastic Compliance Matrix: (Units=1/GPa)
#
#
# Indices 1 2 3 4 5 6 
#
# 1 0.015346 -0.006276 0.003264 0.000000 0.008362 0.000000
# 2 -0.006276 0.020049 -0.005723 0.000000 -0.008417 0.000000
# 3 0.003264 -0.005723 0.020895 0.000000 0.008992 0.000000
# 4 0.000000 0.000000 0.000000 0.045442 0.000000 -0.018573
# 5 0.008362 -0.008417 0.008992 0.000000 0.040591 0.000000
# 6 0.000000 0.000000 0.000000 -0.018573 0.000000 0.072745
#
#
# Mechanical properties :
#
#
# Convention : Reuss Voigt Hill
#
# Bulk Modulus (GPa) = 25.76002 28.27306 27.01654
# Shear Modulus (GPa) = 20.36839 25.33349 22.85094
#
# Velocity S-wave (km/s) = 3.23074 3.60306 3.42197
# Velocity P-wave (km/s) = 5.20745 5.63896 5.42749
#
# Compressibility (1/GPa) = 0.03881985
#
# Stress axis : x y z
#
# Youngs Moduli (GPa) = 65.16449 49.87696 47.85770
#
# Poissons Ratio (x) = 0.31303 -0.15621
# Poissons Ratio (y) = 0.40897 0.27390
# Poissons Ratio (z) = -0.21269 0.28546
#
# Static dielectric constant tensor:
#      x y z
#    x 1.675450 0.000000 -0.036370 
#    y 0.000000 1.684430 0.000000 
#    z -0.036370 0.000000 1.713080 
# 
# From -- ./inp_files/23662.got.cif
#   From: 2010.05.17/outbox.cif.g08.bks.cpg/sg8_12_cif.got.tgz:23662.got - 2010.06.03 19:46:02.
