data_PCOD9132529
_publ_section_title
;
Structure prediction by ZEFSAII (Michael W. Deem and Ramdas Pophale) SiO2 
 PCOD9132529
Probable space group: C M
;
_chemical_formula_sum "Si O2"
_cell_formula_units_Z 28
_cell_length_a 8.495289
_cell_length_b 12.308524
_cell_length_c 14.292916
_cell_angle_alpha 90.000000
_cell_angle_beta 65.301538
_cell_angle_gamma 90.000000
_cell_volume 1357.810549
_symmetry_space_group_name_H-M "C M"
_symmetry_group_IT_number 8
_symmetry_cell_setting 'monoclinic'
loop_
_space_group_symop_operation_xyz
x,y,z
x,-y,z
1/2+x,1/2+y,z
1/2+x,1/2-y,z
loop_
_atom_site_type_symbol
_atom_site_label
_atom_site_fract_x
_atom_site_fract_y
_atom_site_fract_z
Si Si1 0.254060 0.713326 0.195100
Si Si2 0.194347 0.623337 0.555728
Si Si3 0.413259 0.123535 0.021435
Si Si4 0.615852 0.379666 0.795309
Si Si5 0.776634 0.172703 0.983533
Si Si6 0.452402 0.375926 0.317680
Si Si7 0.402580 0.711010 0.676879
O O1 0.376204 0.811424 0.126689
O O2 0.341583 0.640024 0.250984
O O3 0.091936 0.779196 0.276660
O O4 0.231020 0.648541 0.103371
O O5 0.128391 0.500000 0.568013
O O6 0.327448 0.638592 0.437362
O O7 0.298720 0.642373 0.626198
O O8 0.039135 0.709309 0.592086
O O9 0.358009 0.000000 0.036502
O O10 0.620146 0.132248 0.958472
O O11 0.304286 0.196334 0.976028
O O12 0.692282 0.500000 0.777817
O O13 0.463997 0.371261 0.909656
O O14 0.511185 0.357861 0.724532
O O15 0.763343 0.288597 0.762907
O O16 0.523415 0.500000 0.303331
#
# Coordination Sequence:
#
# PCOD9132529 Si02
#       7
#     4   4   4   4   4   4   4
#     4  10  20  39  54  83 118 146 190 229 272 335
#     4  10  21  39  60  85 113 147 188 238 290 335
#     4  10  20  37  55  75 114 152 182 228 272 317
#     4  11  22  38  60  85 114 151 190 232 284 339
#     4  10  21  37  56  84 115 148 191 228 274 334
#     4  11  22  37  60  84 114 152 190 232 284 337
#     4  10  22  39  61  84 114 146 189 241 286 337
#
# _framework density 20.621434000000001
#
# number of rings (size 3 to 8) (size 9 to 14) (size 15 to 20)
#    0.857    0.857    1.429    3.429    0.000    1.143 
#    0.000    6.429    0.000    6.000    0.000    0.000 
#    0.000    0.000    0.000    0.000    0.000    0.000 
#
# Total GULP energy -78089.132795 kJ/mol
# GULP energy per Si atom -5577.795200 kJ/mol
# Density = 2.057450 g / cm^3
# Si number density = 20.621434 Si / 1000 Ang^3
#
#
#
# Elastic Constant Matrix: (Units=GPa)
#
#
# Indices 1 2 3 4 5 6 
#
# 1 19.2601 -18.2905 -10.8333 0.0000 -4.6229 0.0000
# 2 -18.2905 68.3845 16.5249 0.0000 0.7602 0.0000
# 3 -10.8333 16.5249 62.4247 0.0000 -10.6961 0.0000
# 4 0.0000 0.0000 0.0000 33.1772 0.0000 26.4492
# 5 -4.6229 0.7602 -10.6961 0.0000 28.5654 0.0000
# 6 0.0000 0.0000 0.0000 26.4492 0.0000 40.9122
#
#
#
# Elastic Compliance Matrix: (Units=1/GPa)
#
#
# Indices 1 2 3 4 5 6 
#
# 1 0.080152 0.018360 0.011955 0.000000 0.016959 0.000000
# 2 0.018360 0.019947 -0.001791 0.000000 0.001770 0.000000
# 3 0.011955 -0.001791 0.020204 0.000000 0.009548 0.000000
# 4 0.000000 0.000000 0.000000 0.062196 0.000000 -0.040209
# 5 0.016959 0.001770 0.009548 0.000000 0.041280 0.000000
# 6 0.000000 0.000000 0.000000 -0.040209 0.000000 0.050437
#
#
# Mechanical properties :
#
#
# Convention : Reuss Voigt Hill
#
# Bulk Modulus (GPa) = 5.63846 13.87461 9.75654
# Shear Modulus (GPa) = 18.09731 31.37552 24.73642
#
# Velocity S-wave (km/s) = 2.96564 3.90487 3.46721
# Velocity P-wave (km/s) = 3.80354 5.20323 4.55744
#
# Compressibility (1/GPa) = 0.17735325
#
# Stress axis : x y z
#
# Youngs Moduli (GPa) = 12.47628 50.13272 49.49511
#
# Poissons Ratio (x) = -0.92046 -0.59173
# Poissons Ratio (y) = -0.22907 0.08863
# Poissons Ratio (z) = -0.14916 0.08977
#
# Static dielectric constant tensor:
#      x y z
#    x 1.738470 0.000000 -0.007590 
#    y 0.000000 1.648570 0.000000 
#    z -0.007590 0.000000 1.749020 
# 
# From -- ./inp_files/25127.got.cif
#   From: 2010.05.17/outbox.cif.g08.bks.cpg/sg8_13_cif.got.tgz:25127.got - 2010.06.03 19:46:02.
