data_PCOD9132048
_publ_section_title
;
Structure prediction by ZEFSAII (Michael W. Deem and Ramdas Pophale) SiO2 
 PCOD9132048
Probable space group: C M
;
_chemical_formula_sum "Si O2"
_cell_formula_units_Z 24
_cell_length_a 7.643232
_cell_length_b 22.415754
_cell_length_c 6.299110
_cell_angle_alpha 90.000000
_cell_angle_beta 90.494780
_cell_angle_gamma 90.000000
_cell_volume 1079.178770
_symmetry_space_group_name_H-M "C M"
_symmetry_group_IT_number 8
_symmetry_cell_setting 'monoclinic'
loop_
_space_group_symop_operation_xyz
x,y,z
x,-y,z
1/2+x,1/2+y,z
1/2+x,1/2-y,z
loop_
_atom_site_type_symbol
_atom_site_label
_atom_site_fract_x
_atom_site_fract_y
_atom_site_fract_z
Si Si1 0.446311 0.500000 0.382380
Si Si2 0.599317 0.602862 0.131273
Si Si3 0.946899 0.500000 0.468815
Si Si4 0.790790 0.815577 0.970816
Si Si5 0.114609 0.000000 0.782913
Si Si6 0.611204 0.000000 0.069176
Si Si7 0.901777 0.680070 0.001567
Si Si8 0.589506 0.896851 0.721616
O O1 0.553508 0.559504 0.323606
O O2 0.439168 0.500000 0.636118
O O3 0.279121 0.500000 0.225616
O O4 0.440323 0.647937 0.088503
O O5 0.614157 0.557737 0.931953
O O6 0.772112 0.642843 0.146769
O O7 0.783237 0.500000 0.628390
O O8 0.937465 0.500000 0.214666
O O9 0.054440 0.439695 0.526066
O O10 0.840125 0.746719 0.954720
O O11 0.748506 0.850106 0.747558
O O12 0.601806 0.818411 0.083996
O O13 0.612131 0.057272 0.919023
O O14 0.922449 0.643605 0.780694
#
# Coordination Sequence:
#
# PCOD9132048 Si02
#       8
#     2   4   2   4   2   2   4   4
#     4  11  24  34  58  89 113 153 187 232 290 338
#     4  11  21  40  56  84 123 143 192 236 276 347
#     4  11  22  36  59  86 116 151 185 235 292 336
#     4  10  19  34  61  84 108 153 191 230 284 333
#     4  11  24  34  58  89 113 153 187 232 290 338
#     4  11  22  36  59  86 116 151 185 235 292 336
#     4  10  19  34  61  84 108 153 191 230 284 333
#     4   9  21  38  56  86 115 147 188 230 288 333
#
# _framework density 22.239134
#
# number of rings (size 3 to 8) (size 9 to 14) (size 15 to 20)
#    1.000    0.667    5.000    0.000    4.667    0.000 
#    0.000    0.000    0.000   12.000    0.000    0.000 
#    0.000    0.000    0.000    0.000    0.000    0.000 
#
# Total GULP energy -66975.157400 kJ/mol
# GULP energy per Si atom -5581.263117 kJ/mol
# Density = 2.218852 g / cm^3
# Si number density = 22.239134 Si / 1000 Ang^3
#
#
#
# Elastic Constant Matrix: (Units=GPa)
#
#
# Indices 1 2 3 4 5 6 
#
# 1 123.6870 52.0239 11.5231 0.0000 -0.9828 0.0000
# 2 52.0239 189.4518 26.7153 0.0000 -1.0468 0.0000
# 3 11.5231 26.7153 56.0209 0.0000 1.1040 0.0000
# 4 0.0000 0.0000 0.0000 10.8864 0.0000 -0.4434
# 5 -0.9828 -1.0468 1.1040 0.0000 22.7900 0.0000
# 6 0.0000 0.0000 0.0000 -0.4434 0.0000 35.4337
#
#
#
# Elastic Compliance Matrix: (Units=1/GPa)
#
#
# Indices 1 2 3 4 5 6 
#
# 1 0.009171 -0.002412 -0.000743 0.000000 0.000321 0.000000
# 2 -0.002412 0.006297 -0.002513 0.000000 0.000307 0.000000
# 3 -0.000743 -0.002513 0.019223 0.000000 -0.001079 0.000000
# 4 0.000000 0.000000 0.000000 0.091905 0.000000 0.001150
# 5 0.000321 0.000307 -0.001079 0.000000 0.043959 0.000000
# 6 0.000000 0.000000 0.000000 0.001150 0.000000 0.028236
#
#
# Mechanical properties :
#
#
# Convention : Reuss Voigt Hill
#
# Bulk Modulus (GPa) = 42.81517 61.07600 51.94559
# Shear Modulus (GPa) = 22.94521 32.41518 27.68019
#
# Velocity S-wave (km/s) = 3.21557 3.82196 3.53180
# Velocity P-wave (km/s) = 5.75156 6.85561 6.32771
#
# Compressibility (1/GPa) = 0.02335621
#
# Stress axis : x y z
#
# Youngs Moduli (GPa) = 109.03786 158.81252 52.02171
#
# Poissons Ratio (x) = 0.38304 0.03863
# Poissons Ratio (y) = 0.26299 0.13072
# Poissons Ratio (z) = 0.08097 0.39905
#
# Static dielectric constant tensor:
#      x y z
#    x 1.951660 0.000000 -0.009780 
#    y 0.000000 1.807040 0.000000 
#    z -0.009780 0.000000 1.833000 
# 
# From -- ./inp_files/1610.got.cif
#   From: 2010.05.17/outbox.cif.g08.bks.cpg/sg8_1_cif.got.tgz:1610.got - 2010.06.03 19:46:02.
