data_PCOD9132618
_publ_section_title
;
Structure prediction by ZEFSAII (Michael W. Deem and Ramdas Pophale) SiO2 
 PCOD9132618
Probable space group: C M
;
_chemical_formula_sum "Si O2"
_cell_formula_units_Z 28
_cell_length_a 25.694694
_cell_length_b 10.681395
_cell_length_c 25.032742
_cell_angle_alpha 90.000000
_cell_angle_beta 11.304844
_cell_angle_gamma 90.000000
_cell_volume 1346.791233
_symmetry_space_group_name_H-M "C M"
_symmetry_group_IT_number 8
_symmetry_cell_setting 'monoclinic'
loop_
_space_group_symop_operation_xyz
x,y,z
x,-y,z
1/2+x,1/2+y,z
1/2+x,1/2-y,z
loop_
_atom_site_type_symbol
_atom_site_label
_atom_site_fract_x
_atom_site_fract_y
_atom_site_fract_z
Si Si1 0.351360 0.145871 0.742980
Si Si2 0.757472 0.500000 0.605524
Si Si3 0.605624 0.264953 0.152925
Si Si4 0.340103 0.723323 0.537349
Si Si5 0.265615 0.500000 0.019347
Si Si6 0.877762 0.852229 0.145899
Si Si7 0.846871 0.640391 0.088791
Si Si8 0.098756 0.355800 0.602607
O O1 0.580304 0.152849 0.468113
O O2 0.469712 0.200086 0.678472
O O3 0.303061 0.000000 0.804762
O O4 0.078567 0.188184 0.991031
O O5 0.784499 0.368924 0.608279
O O6 0.004936 0.500000 0.317367
O O7 0.504160 0.500000 0.821632
O O8 0.470822 0.280739 0.346959
O O9 0.741908 0.128285 0.011321
O O10 0.361017 0.286047 0.359009
O O11 0.855758 0.353269 0.889254
O O12 0.058824 0.656261 0.827413
O O13 0.552874 0.662782 0.362469
O O14 0.931933 0.000000 0.077220
O O15 0.905087 0.751901 0.071503
O O16 0.871320 0.500000 0.086411
O O17 0.181029 0.500000 0.510192
#
# Coordination Sequence:
#
# PCOD9132618 Si02
#       8
#     4   2   4   4   2   4   4   4
#     4   9  19  38  62  91 116 146 197 267 312 342
#     4  10  20  38  62  84 110 156 218 264 284 332
#     4  11  22  38  60  87 125 166 203 244 293 366
#     4  11  24  39  61  88 123 166 208 250 300 355
#     4  10  20  38  58  80 120 164 206 248 296 322
#     4  10  21  39  66  88 115 155 210 260 303 363
#     4  12  26  41  60  90 132 164 197 252 316 371
#     4  11  22  36  62  93 122 156 200 250 308 367
#
# _framework density 20.790154999999999
#
# number of rings (size 3 to 8) (size 9 to 14) (size 15 to 20)
#    0.000    1.429    0.000    6.857    2.000    5.714 
#    0.000    0.000    9.429    0.000    0.000    0.000 
#    0.000    0.000    0.000    0.000    0.000    0.000 
#
# Total GULP energy -78149.986224 kJ/mol
# GULP energy per Si atom -5582.141873 kJ/mol
# Density = 2.074284 g / cm^3
# Si number density = 20.790155 Si / 1000 Ang^3
#
#
#
# Elastic Constant Matrix: (Units=GPa)
#
#
# Indices 1 2 3 4 5 6 
#
# 1 45.3495 22.6954 -5.1006 -0.0844 0.4703 -0.0268
# 2 22.6954 98.3243 10.7950 0.0248 2.5683 0.0286
# 3 -5.1006 10.7950 101.2368 -0.0015 -12.6932 0.0299
# 4 -0.0844 0.0248 -0.0015 25.4590 0.1000 -3.6188
# 5 0.4703 2.5683 -12.6932 0.1000 26.2537 0.0082
# 6 -0.0268 0.0286 0.0299 -3.6188 0.0082 23.7191
#
#
#
# Elastic Compliance Matrix: (Units=1/GPa)
#
#
# Indices 1 2 3 4 5 6 
#
# 1 0.025326 -0.006103 0.002070 0.000092 0.001144 0.000047
# 2 -0.006103 0.011828 -0.001810 -0.000028 -0.001923 -0.000022
# 3 0.002070 -0.001810 0.010850 -0.000014 0.005386 -0.000013
# 4 0.000092 -0.000028 -0.000014 0.040151 -0.000160 0.006126
# 5 0.001144 -0.001923 0.005386 -0.000160 0.040862 -0.000042
# 6 0.000047 -0.000022 -0.000013 0.006126 -0.000042 0.043095
#
#
# Mechanical properties :
#
#
# Convention : Reuss Voigt Hill
#
# Bulk Modulus (GPa) = 27.53333 33.52113 30.52723
# Shear Modulus (GPa) = 25.52263 29.52107 27.52185
#
# Velocity S-wave (km/s) = 3.50756 3.77232 3.64234
# Velocity P-wave (km/s) = 5.44758 5.92726 5.69247
#
# Compressibility (1/GPa) = 0.03631962
#
# Stress axis : x y z
#
# Youngs Moduli (GPa) = 39.48435 84.54447 92.16227
#
# Poissons Ratio (x) = 0.51599 -0.19080
# Poissons Ratio (y) = 0.24098 0.16679
# Poissons Ratio (z) = -0.08174 0.15301
#
# Static dielectric constant tensor:
#      x y z
#    x 1.769470 -0.000010 0.015080 
#    y -0.000010 1.808610 0.000030 
#    z 0.015080 0.000030 1.712500 
# 
# From -- ./inp_files/33164.got.cif
#   From: 2010.05.17/outbox.cif.g08.bks.cpg/sg8_17_cif.got.tgz:33164.got - 2010.06.03 19:46:02.
