data_PCOD9132914
_publ_section_title
;
Structure prediction by ZEFSAII (Michael W. Deem and Ramdas Pophale) SiO2 
 PCOD9132914
Probable space group: C M
;
_chemical_formula_sum "Si O2"
_cell_formula_units_Z 32
_cell_length_a 25.454599
_cell_length_b 8.880160
_cell_length_c 26.512273
_cell_angle_alpha 90.000000
_cell_angle_beta 163.552509
_cell_angle_gamma 90.000000
_cell_volume 1696.797005
_symmetry_space_group_name_H-M "C M"
_symmetry_group_IT_number 8
_symmetry_cell_setting 'monoclinic'
loop_
_space_group_symop_operation_xyz
x,y,z
x,-y,z
1/2+x,1/2+y,z
1/2+x,1/2-y,z
loop_
_atom_site_type_symbol
_atom_site_label
_atom_site_fract_x
_atom_site_fract_y
_atom_site_fract_z
Si Si1 0.774310 0.820644 0.827160
Si Si2 0.597278 0.172692 0.260125
Si Si3 0.567877 0.681773 0.541988
Si Si4 0.663544 0.673194 0.826313
Si Si5 0.669998 0.818255 0.218206
Si Si6 0.574474 0.181608 0.846338
Si Si7 0.987123 0.180868 0.258107
Si Si8 0.697694 0.316617 0.551187
O O1 0.686746 0.756298 0.695599
O O2 0.660167 0.759599 0.770446
O O3 0.774739 0.000000 0.827850
O O4 0.984016 0.758986 0.026920
O O5 0.701155 0.227626 0.305528
O O6 0.605645 0.263809 0.319385
O O7 0.649041 0.000000 0.317659
O O8 0.380590 0.175987 0.043332
O O9 0.589157 0.500000 0.564991
O O10 0.351634 0.715196 0.353074
O O11 0.633400 0.732682 0.547075
O O12 0.609137 0.500000 0.769199
O O13 0.556688 0.748584 0.774316
O O14 0.640292 0.000000 0.191422
O O15 0.406022 0.226295 0.727349
O O16 0.573646 0.000000 0.840678
O O17 0.773990 0.227458 0.052579
O O18 0.066718 0.234514 0.384651
O O19 0.991573 0.000000 0.262304
O O20 0.691151 0.500000 0.545796
#
# Coordination Sequence:
#
# PCOD9132914 Si02
#       8
#     4   4   4   4   4   4   4   4
#     4  11  22  36  56  82 113 145 179 226 281 330
#     4   8  15  29  49  75 103 129 163 210 263 318
#     4  10  21  38  58  79 107 146 192 233 268 319
#     4   9  17  32  54  79 107 139 177 217 264 327
#     4   9  19  36  58  82 108 141 183 227 272 327
#     4   9  17  31  52  78 107 136 168 213 268 319
#     4   9  17  30  49  73 100 131 166 206 256 312
#     4   9  19  34  52  76 103 135 180 224 260 312
#
# _framework density 18.859062999999999
#
# number of rings (size 3 to 8) (size 9 to 14) (size 15 to 20)
#    0.000    2.750    0.000    2.250    0.000    5.500 
#    0.000    8.125    0.000    3.000    0.000    0.000 
#    0.000    0.000    0.000    0.000    0.000    0.000 
#
# Total GULP energy -89267.505212 kJ/mol
# GULP energy per Si atom -5579.219076 kJ/mol
# Density = 1.881614 g / cm^3
# Si number density = 18.859063 Si / 1000 Ang^3
#
#
#
# Elastic Constant Matrix: (Units=GPa)
#
#
# Indices 1 2 3 4 5 6 
#
# 1 285.2549 74.6928 138.8148 -0.0242 -7.9437 0.0007
# 2 74.6928 46.7685 55.7439 -0.0429 -4.3194 -0.0071
# 3 138.8148 55.7439 140.3703 -0.0302 -10.8143 -0.0027
# 4 -0.0242 -0.0429 -0.0302 2.8406 0.0063 -6.2561
# 5 -7.9437 -4.3194 -10.8143 0.0063 32.5968 0.0027
# 6 0.0007 -0.0071 -0.0027 -6.2561 0.0027 26.1012
#
#
#
# Elastic Compliance Matrix: (Units=1/GPa)
#
#
# Indices 1 2 3 4 5 6 
#
# 1 0.007565 -0.006010 -0.005145 -0.000179 -0.000660 -0.000045
# 2 -0.006010 0.045375 -0.012033 0.001122 0.000556 0.000280
# 3 -0.005145 -0.012033 0.017211 -0.000112 0.002862 -0.000028
# 4 -0.000179 0.001122 -0.000112 0.745697 -0.000092 0.178733
# 5 -0.000660 0.000556 0.002862 -0.000092 0.031540 -0.000025
# 6 -0.000045 0.000280 -0.000028 0.178733 -0.000025 0.081152
#
#
# Mechanical properties :
#
#
# Convention : Reuss Voigt Hill
#
# Bulk Modulus (GPa) = 42.06139 112.32187 77.19163
# Shear Modulus (GPa) = 5.08730 25.85051 15.46890
#
# Velocity S-wave (km/s) = 1.64420 3.70634 2.86709
# Velocity P-wave (km/s) = 5.09470 8.83198 7.20971
#
# Compressibility (1/GPa) = 0.02377477
#
# Stress axis : x y z
#
# Youngs Moduli (GPa) = 132.19278 22.03863 58.10274
#
# Poissons Ratio (x) = 0.13245 0.29894
# Poissons Ratio (y) = 0.79449 0.69913
# Poissons Ratio (z) = 0.68013 0.26518
#
# Static dielectric constant tensor:
#      x y z
#    x 1.643560 0.000000 0.012790 
#    y 0.000000 1.636220 0.000000 
#    z 0.012790 0.000000 1.672450 
# 
# From -- ./inp_files/16758.got.cif
#   From: 2010.05.17/outbox.cif.g08.bks.cpg/sg8_9_cif.got.tgz:16758.got - 2010.06.03 19:46:02.
