data_PCOD9132378
_publ_section_title
;
Structure prediction by ZEFSAII (Michael W. Deem and Ramdas Pophale) SiO2 
 PCOD9132378
Probable space group: C M
;
_chemical_formula_sum "Si O2"
_cell_formula_units_Z 32
_cell_length_a 19.626665
_cell_length_b 9.138393
_cell_length_c 10.661221
_cell_angle_alpha 90.000000
_cell_angle_beta 134.208400
_cell_angle_gamma 90.000000
_cell_volume 1370.649358
_symmetry_space_group_name_H-M "C M"
_symmetry_group_IT_number 8
_symmetry_cell_setting 'monoclinic'
loop_
_space_group_symop_operation_xyz
x,y,z
x,-y,z
1/2+x,1/2+y,z
1/2+x,1/2-y,z
loop_
_atom_site_type_symbol
_atom_site_label
_atom_site_fract_x
_atom_site_fract_y
_atom_site_fract_z
Si Si1 0.721420 0.665681 0.558490
Si Si2 0.910843 0.669355 0.659631
Si Si3 0.681071 0.832544 0.889447
Si Si4 0.031045 0.669553 0.071416
Si Si5 0.559707 0.832116 0.476521
Si Si6 0.191870 0.827331 0.146023
Si Si7 0.896345 0.827236 0.397590
Si Si8 0.844017 0.667946 0.974793
O O1 0.687049 0.500000 0.494884
O O2 0.801526 0.699406 0.558767
O O3 0.633045 0.771201 0.467847
O O4 0.783052 0.665375 0.766955
O O5 0.917721 0.500000 0.623104
O O6 0.939170 0.779376 0.587315
O O7 0.971880 0.677912 0.864484
O O8 0.618351 0.825715 0.683371
O O9 0.786910 0.781825 0.985864
O O10 0.678888 0.000000 0.932796
O O11 0.648648 0.724013 0.956900
O O12 0.059592 0.500000 0.124557
O O13 0.951767 0.705306 0.074413
O O14 0.121996 0.769899 0.165024
O O15 0.465441 0.739807 0.381292
O O16 0.536057 0.000000 0.421332
O O17 0.293513 0.748197 0.271689
O O18 0.203169 0.000000 0.167961
O O19 0.889075 0.000000 0.375982
O O20 0.839983 0.500000 0.018793
#
# Coordination Sequence:
#
# PCOD9132378 Si02
#       8
#     4   4   4   4   4   4   4   4
#     4   8  15  30  54  83 112 141 175 217 264 314
#     4   9  18  35  59  85 113 143 176 218 267 318
#     4  10  20  35  57  84 113 143 177 220 268 319
#     4   9  18  35  59  85 113 143 176 218 267 318
#     4  10  20  35  57  84 113 143 177 220 268 319
#     4  12  25  39  55  76 107 145 185 228 271 320
#     4  12  25  39  55  76 107 145 185 228 271 320
#     4   8  15  30  54  83 112 141 175 217 264 314
#
# _framework density 23.346598
#
# number of rings (size 3 to 8) (size 9 to 14) (size 15 to 20)
#    0.000    2.250    0.000    5.250    0.000    6.000 
#    0.000    3.750    0.000    6.000    0.000    0.000 
#    0.000    0.000    0.000    0.000    0.000    0.000 
#
# Total GULP energy -89551.730136 kJ/mol
# GULP energy per Si atom -5596.983133 kJ/mol
# Density = 2.329346 g / cm^3
# Si number density = 23.346598 Si / 1000 Ang^3
#
#
#
# Elastic Constant Matrix: (Units=GPa)
#
#
# Indices 1 2 3 4 5 6 
#
# 1 132.6002 91.4222 22.6206 0.0000 27.8137 0.0000
# 2 91.4222 161.0009 42.0810 0.0000 37.6217 0.0000
# 3 22.6206 42.0810 93.6028 0.0000 20.5423 0.0000
# 4 0.0000 0.0000 0.0000 24.5863 0.0000 5.8434
# 5 27.8137 37.6217 20.5423 0.0000 50.5599 0.0000
# 6 0.0000 0.0000 0.0000 5.8434 0.0000 39.7981
#
#
#
# Elastic Compliance Matrix: (Units=1/GPa)
#
#
# Indices 1 2 3 4 5 6 
#
# 1 0.012565 -0.006774 0.000461 0.000000 -0.002059 0.000000
# 2 -0.006774 0.011679 -0.002771 0.000000 -0.003838 0.000000
# 3 0.000461 -0.002771 0.012539 0.000000 -0.003286 0.000000
# 4 0.000000 0.000000 0.000000 0.042144 0.000000 -0.006188
# 5 -0.002059 -0.003838 -0.003286 0.000000 0.025102 0.000000
# 6 0.000000 0.000000 0.000000 -0.006188 0.000000 0.026035
#
#
# Mechanical properties :
#
#
# Convention : Reuss Voigt Hill
#
# Bulk Modulus (GPa) = 53.72348 77.71685 65.72017
# Shear Modulus (GPa) = 32.37535 38.39422 35.38478
#
# Velocity S-wave (km/s) = 3.72792 4.05968 3.89733
# Velocity P-wave (km/s) = 6.44911 7.43877 6.96155
#
# Compressibility (1/GPa) = 0.01861383
#
# Stress axis : x y z
#
# Youngs Moduli (GPa) = 79.58372 85.62375 79.75072
#
# Poissons Ratio (x) = 0.58005 -0.03675
# Poissons Ratio (y) = 0.53914 0.22100
# Poissons Ratio (z) = -0.03667 0.23727
#
# Static dielectric constant tensor:
#      x y z
#    x 1.902830 0.000000 -0.061530 
#    y 0.000000 1.782520 0.000000 
#    z -0.061530 0.000000 2.000620 
# 
# From -- ./inp_files/27790.got.cif
#   From: 2010.05.17/outbox.cif.g08.bks.cpg/sg8_14_cif.got.tgz:27790.got - 2010.06.03 19:46:02.
