data_PCOD9132356
_publ_section_title
;
Structure prediction by ZEFSAII (Michael W. Deem and Ramdas Pophale) SiO2 
 PCOD9132356
Probable space group: C M
;
_chemical_formula_sum "Si O2"
_cell_formula_units_Z 32
_cell_length_a 11.126910
_cell_length_b 24.988954
_cell_length_c 6.543226
_cell_angle_alpha 90.000000
_cell_angle_beta 74.673246
_cell_angle_gamma 90.000000
_cell_volume 1754.636385
_symmetry_space_group_name_H-M "C M"
_symmetry_group_IT_number 8
_symmetry_cell_setting 'monoclinic'
loop_
_space_group_symop_operation_xyz
x,y,z
x,-y,z
1/2+x,1/2+y,z
1/2+x,1/2-y,z
loop_
_atom_site_type_symbol
_atom_site_label
_atom_site_fract_x
_atom_site_fract_y
_atom_site_fract_z
Si Si1 0.377650 0.938491 0.004720
Si Si2 0.993918 0.189896 0.589670
Si Si3 0.163267 0.227914 0.868546
Si Si4 0.129949 0.559909 0.159376
Si Si5 0.391807 0.791288 0.455391
Si Si6 0.227709 0.652898 0.850418
Si Si7 0.212017 0.843916 0.228798
Si Si8 0.539296 0.113032 0.588822
O O1 0.496853 0.937080 0.102791
O O2 0.271908 0.900263 0.142200
O O3 0.339150 0.000000 0.997963
O O4 0.429762 0.914167 0.769726
O O5 0.962053 0.234965 0.434298
O O6 0.868617 0.160067 0.710634
O O7 0.048807 0.220239 0.764046
O O8 0.102353 0.153559 0.445249
O O9 0.285262 0.215746 0.676013
O O10 0.177487 0.288686 0.940689
O O11 0.162588 0.185812 0.050698
O O12 0.180002 0.500000 0.103806
O O13 0.102958 0.571370 0.407622
O O14 0.212336 0.607320 0.027415
O O15 0.321668 0.807523 0.279960
O O16 0.482646 0.838870 0.481073
O O17 0.140214 0.635839 0.701019
#
# Coordination Sequence:
#
# PCOD9132356 Si02
#       8
#     4   4   4   4   4   4   4   4
#     4  10  21  37  58  88 115 145 193 242 290 338
#     4  10  23  38  55  86 122 157 191 226 286 355
#     4  10  21  36  57  85 120 153 185 234 285 345
#     4  10  22  37  59  86 114 150 195 240 288 335
#     4  10  20  35  55  86 118 147 190 227 289 341
#     4  10  23  37  59  85 118 155 191 233 283 344
#     4  11  22  36  61  85 120 153 188 240 286 344
#     4  11  19  36  60  85 115 148 184 240 289 334
#
# _framework density 18.237396
#
# number of rings (size 3 to 8) (size 9 to 14) (size 15 to 20)
#    0.000    1.750    3.750    0.375    1.750    3.500 
#    0.000    0.625    0.000    2.250    0.000    0.000 
#    0.000    0.000    0.000    0.000    0.000    0.000 
#
# Total GULP energy -89336.977727 kJ/mol
# GULP energy per Si atom -5583.561108 kJ/mol
# Density = 1.819589 g / cm^3
# Si number density = 18.237396 Si / 1000 Ang^3
#
#
#
# Elastic Constant Matrix: (Units=GPa)
#
#
# Indices 1 2 3 4 5 6 
#
# 1 68.7881 36.9273 18.7971 0.0000 -14.3030 0.0000
# 2 36.9273 127.6149 36.3453 0.0000 -28.3738 0.0000
# 3 18.7971 36.3453 42.8737 0.0000 -11.4150 0.0000
# 4 0.0000 0.0000 0.0000 19.2104 0.0000 -4.0669
# 5 -14.3030 -28.3738 -11.4150 0.0000 19.2208 0.0000
# 6 0.0000 0.0000 0.0000 -4.0669 0.0000 25.1510
#
#
#
# Elastic Compliance Matrix: (Units=1/GPa)
#
#
# Indices 1 2 3 4 5 6 
#
# 1 0.018585 -0.002533 -0.003937 0.000000 0.007753 0.000000
# 2 -0.002533 0.013643 -0.006645 0.000000 0.014308 0.000000
# 3 -0.003937 -0.006645 0.032418 0.000000 0.006513 0.000000
# 4 0.000000 0.000000 0.000000 0.053900 0.000000 0.008716
# 5 0.007753 0.014308 0.006513 0.000000 0.082786 0.000000
# 6 0.000000 0.000000 0.000000 0.008716 0.000000 0.041169
#
#
# Mechanical properties :
#
#
# Convention : Reuss Voigt Hill
#
# Bulk Modulus (GPa) = 26.03118 47.04621 36.53870
# Shear Modulus (GPa) = 17.75969 22.53026 20.14497
#
# Velocity S-wave (km/s) = 3.12397 3.51862 3.32715
# Velocity P-wave (km/s) = 5.22655 6.50847 5.90241
#
# Compressibility (1/GPa) = 0.03841546
#
# Stress axis : x y z
#
# Youngs Moduli (GPa) = 53.80718 73.29798 30.84709
#
# Poissons Ratio (x) = 0.18565 0.12144
# Poissons Ratio (y) = 0.13629 0.20499
# Poissons Ratio (z) = 0.21183 0.48710
#
# Static dielectric constant tensor:
#      x y z
#    x 1.620400 0.000000 -0.003150 
#    y 0.000000 1.617700 0.000000 
#    z -0.003150 0.000000 1.629100 
# 
# From -- ./inp_files/3157.got.cif
#   From: 2010.05.17/outbox.cif.g08.bks.cpg/sg8_2_cif.got.tgz:3157.got - 2010.06.03 19:46:02.
