data_PCOD9132653
_publ_section_title
;
Structure prediction by ZEFSAII (Michael W. Deem and Ramdas Pophale) SiO2 
 PCOD9132653
Probable space group: C M
;
_chemical_formula_sum "Si O2"
_cell_formula_units_Z 26
_cell_length_a 18.814300
_cell_length_b 7.892865
_cell_length_c 9.925214
_cell_angle_alpha 90.000000
_cell_angle_beta 135.972382
_cell_angle_gamma 90.000000
_cell_volume 1024.355176
_symmetry_space_group_name_H-M "C M"
_symmetry_group_IT_number 8
_symmetry_cell_setting 'monoclinic'
loop_
_space_group_symop_operation_xyz
x,y,z
x,-y,z
1/2+x,1/2+y,z
1/2+x,1/2-y,z
loop_
_atom_site_type_symbol
_atom_site_label
_atom_site_fract_x
_atom_site_fract_y
_atom_site_fract_z
Si Si1 0.526360 0.807030 0.179000
Si Si2 0.536122 0.688992 0.918994
Si Si3 0.396283 0.500000 0.623759
Si Si4 0.248544 0.706084 0.109127
Si Si5 0.199411 0.303677 0.737017
Si Si6 0.969369 0.799850 0.378507
Si Si7 0.254109 0.187719 0.527361
O O1 0.493006 0.803913 0.977384
O O2 0.457056 0.724314 0.198408
O O3 0.633957 0.708237 0.326472
O O4 0.544941 0.000000 0.243661
O O5 0.495224 0.500000 0.909192
O O6 0.655054 0.715202 0.063622
O O7 0.482037 0.657828 0.703366
O O8 0.313238 0.347847 0.546993
O O9 0.243155 0.500000 0.119303
O O10 0.363036 0.761767 0.297002
O O11 0.227538 0.749185 0.925408
O O12 0.228081 0.500000 0.759756
O O13 0.251415 0.203291 0.686368
O O14 0.076797 0.286460 0.555657
O O15 0.977399 0.000000 0.413094
O O16 0.289362 0.000000 0.534333
#
# Coordination Sequence:
#
# PCOD9132653 Si02
#       7
#     4   4   2   4   4   4   4
#     4  11  21  39  66  95 130 163 214 267 318 385
#     4  10  24  41  60  86 128 164 210 270 314 381
#     4  10  24  44  62  94 132 164 216 272 320 386
#     4  10  23  42  63  85 126 175 213 261 321 387
#     4  10  20  38  63  94 132 159 214 270 313 384
#     4  10  21  38  63  94 123 165 212 260 322 377
#     4  11  21  39  68  99 128 167 213 268 328 378
#
# _framework density 25.381822
#
# number of rings (size 3 to 8) (size 9 to 14) (size 15 to 20)
#    0.462    1.231    1.538    4.615    2.154    3.692 
#    2.769    0.000    0.000    0.000    0.000    0.000 
#    0.000    0.000    0.000    0.000    0.000    0.000 
#
# Total GULP energy -72406.083211 kJ/mol
# GULP energy per Si atom -5569.698709 kJ/mol
# Density = 2.532405 g / cm^3
# Si number density = 25.381822 Si / 1000 Ang^3
#
#
#
# Elastic Constant Matrix: (Units=GPa)
#
#
# Indices 1 2 3 4 5 6 
#
# 1 105.9849 14.9051 50.6238 0.0000 22.9632 0.0000
# 2 14.9051 113.1940 20.0561 0.0000 3.7760 0.0000
# 3 50.6238 20.0561 84.2112 0.0000 10.6496 0.0000
# 4 0.0000 0.0000 0.0000 23.0455 0.0000 7.3804
# 5 22.9632 3.7760 10.6496 0.0000 52.7400 0.0000
# 6 0.0000 0.0000 0.0000 7.3804 0.0000 29.4920
#
#
#
# Elastic Compliance Matrix: (Units=1/GPa)
#
#
# Indices 1 2 3 4 5 6 
#
# 1 0.014253 -0.000322 -0.007912 0.000000 -0.004585 0.000000
# 2 -0.000322 0.009233 -0.001990 0.000000 -0.000119 0.000000
# 3 -0.007912 -0.001990 0.017088 0.000000 0.000137 0.000000
# 4 0.000000 0.000000 0.000000 0.047173 0.000000 -0.011805
# 5 -0.004585 -0.000119 0.000137 0.000000 0.020938 0.000000
# 6 0.000000 0.000000 0.000000 -0.011805 0.000000 0.036862
#
#
# Mechanical properties :
#
#
# Convention : Reuss Voigt Hill
#
# Bulk Modulus (GPa) = 49.68715 52.72891 51.20803
# Shear Modulus (GPa) = 28.95117 35.57583 32.26350
#
# Velocity S-wave (km/s) = 3.38098 3.74789 3.56915
# Velocity P-wave (km/s) = 5.90421 6.28874 6.09951
#
# Compressibility (1/GPa) = 0.02012593
#
# Stress axis : x y z
#
# Youngs Moduli (GPa) = 70.16012 108.30200 58.52123
#
# Poissons Ratio (x) = 0.03488 0.46300
# Poissons Ratio (y) = 0.02259 0.11648
# Poissons Ratio (z) = 0.55509 0.21557
#
# Static dielectric constant tensor:
#      x y z
#    x 2.061300 0.000000 -0.196680 
#    y 0.000000 1.903760 0.000000 
#    z -0.196680 0.000000 2.320000 
# 
# From -- ./inp_files/23930.got.cif
#   From: 2010.05.17/outbox.cif.g08.bks.cpg/sg8_12_cif.got.tgz:23930.got - 2010.06.03 19:46:02.
