data_PCOD9132707
_publ_section_title
;
Structure prediction by ZEFSAII (Michael W. Deem and Ramdas Pophale) SiO2 
 PCOD9132707
Probable space group: C M
;
_chemical_formula_sum "Si O2"
_cell_formula_units_Z 32
_cell_length_a 8.874679
_cell_length_b 19.509758
_cell_length_c 13.892382
_cell_angle_alpha 90.000000
_cell_angle_beta 146.859305
_cell_angle_gamma 90.000000
_cell_volume 1315.006206
_symmetry_space_group_name_H-M "C M"
_symmetry_group_IT_number 8
_symmetry_cell_setting 'monoclinic'
loop_
_space_group_symop_operation_xyz
x,y,z
x,-y,z
1/2+x,1/2+y,z
1/2+x,1/2-y,z
loop_
_atom_site_type_symbol
_atom_site_label
_atom_site_fract_x
_atom_site_fract_y
_atom_site_fract_z
Si Si1 0.956270 0.417472 0.132340
Si Si2 0.831159 0.312471 0.238147
Si Si3 0.775964 0.581296 0.369888
Si Si4 0.699375 0.204678 0.869161
Si Si5 0.153721 0.073419 0.775494
Si Si6 0.503475 0.332461 0.374855
Si Si7 0.713061 0.070698 0.950310
Si Si8 0.642685 0.705715 0.665327
O O1 0.001665 0.500000 0.177994
O O2 0.865864 0.368577 0.171883
O O3 0.226845 0.379520 0.233828
O O4 0.726848 0.415412 0.925487
O O5 0.909416 0.358600 0.374195
O O6 0.989554 0.240089 0.309650
O O7 0.513663 0.283607 0.069606
O O8 0.866246 0.500000 0.418769
O O9 0.722931 0.615627 0.444955
O O10 0.472827 0.580404 0.157907
O O11 0.692756 0.124175 0.856065
O O12 0.585529 0.236894 0.712044
O O13 0.476686 0.215828 0.834338
O O14 0.445550 0.070337 0.874377
O O15 0.027616 0.138596 0.657997
O O16 0.013379 0.000000 0.686412
O O17 0.547316 0.305226 0.506508
O O18 0.749407 0.000000 0.918617
#
# Coordination Sequence:
#
# PCOD9132707 Si02
#       8
#     4   4   4   4   4   4   4   4
#     4  11  23  42  70 102 130 167 222 279 331 386
#     4  11  25  40  69  98 131 167 220 276 331 385
#     4  10  20  39  64  91 124 166 213 264 318 383
#     4  10  24  41  64  91 127 173 216 270 324 384
#     4   9  18  37  63  90 121 161 211 263 314 378
#     4  12  25  40  67  97 132 176 217 269 327 400
#     4   8  15  34  62  90 115 153 209 265 310 369
#     4  11  26  41  63  93 136 171 218 266 329 389
#
# _framework density 24.334485000000001
#
# number of rings (size 3 to 8) (size 9 to 14) (size 15 to 20)
#    0.000    1.750    1.250    2.250   10.500    1.500 
#    0.000    0.000    0.000    0.000    0.000    0.000 
#    0.000    0.000    0.000    0.000    0.000    0.000 
#
# Total GULP energy -89175.238455 kJ/mol
# GULP energy per Si atom -5573.452403 kJ/mol
# Density = 2.427910 g / cm^3
# Si number density = 24.334485 Si / 1000 Ang^3
#
#
#
# Elastic Constant Matrix: (Units=GPa)
#
#
# Indices 1 2 3 4 5 6 
#
# 1 74.4419 35.0103 27.6386 -0.0064 0.8340 -0.0034
# 2 35.0103 171.0207 49.9780 -0.0034 -29.9920 -0.0029
# 3 27.6386 49.9780 46.9195 0.0028 -18.3571 0.0040
# 4 -0.0064 -0.0034 0.0028 -66.7277 0.0041 -84.5432
# 5 0.8340 -29.9920 -18.3571 0.0041 37.5043 0.0053
# 6 -0.0034 -0.0029 0.0040 -84.5432 0.0053 -28.6571
#
#
#
# Elastic Compliance Matrix: (Units=1/GPa)
#
#
# Indices 1 2 3 4 5 6 
#
# 1 0.018910 -0.001586 -0.012505 -0.000001 -0.007810 -0.000001
# 2 -0.001586 0.008890 -0.007100 0.000000 0.003670 0.000000
# 3 -0.012505 -0.007100 0.042213 0.000003 0.015262 0.000001
# 4 -0.000001 0.000000 0.000003 0.005474 0.000003 -0.016149
# 5 -0.007810 0.003670 0.015262 0.000003 0.037242 0.000000
# 6 -0.000001 0.000000 0.000001 -0.016149 0.000000 0.012746
#
#
# Mechanical properties :
#
#
# Convention : Reuss Voigt Hill
#
# Bulk Modulus (GPa) = 36.19060 57.51509 46.85284
# Shear Modulus (GPa) = 28.23801 0.40759 14.32280
#
# Velocity S-wave (km/s) = 3.41018 0.40970 2.42870
# Velocity P-wave (km/s) = 5.51454 4.88982 5.21155
#
# Compressibility (1/GPa) = 0.02763149
#
# Stress axis : x y z
#
# Youngs Moduli (GPa) = 52.88332 112.48198 23.68945
#
# Poissons Ratio (x) = 0.17843 0.29623
# Poissons Ratio (y) = 0.08389 0.16819
# Poissons Ratio (z) = 0.66129 0.79858
#
# Static dielectric constant tensor:
#      x y z
#    x 2.004010 0.000000 0.098340 
#    y 0.000000 2.066300 0.000000 
#    z 0.098340 0.000000 1.977440 
# 
# From -- ./inp_files/19275.got.cif
#   From: 2010.05.17/outbox.cif.g08.bks.cpg/sg8_10_cif.got.tgz:19275.got - 2010.06.03 19:46:02.
