data_PCOD9132791
_publ_section_title
;
Structure prediction by ZEFSAII (Michael W. Deem and Ramdas Pophale) SiO2 
 PCOD9132791
Probable space group: C M
;
_chemical_formula_sum "Si O2"
_cell_formula_units_Z 26
_cell_length_a 7.287841
_cell_length_b 27.643256
_cell_length_c 6.643134
_cell_angle_alpha 90.000000
_cell_angle_beta 62.133973
_cell_angle_gamma 90.000000
_cell_volume 1183.135410
_symmetry_space_group_name_H-M "C M"
_symmetry_group_IT_number 8
_symmetry_cell_setting 'monoclinic'
loop_
_space_group_symop_operation_xyz
x,y,z
x,-y,z
1/2+x,1/2+y,z
1/2+x,1/2-y,z
loop_
_atom_site_type_symbol
_atom_site_label
_atom_site_fract_x
_atom_site_fract_y
_atom_site_fract_z
Si Si1 0.114720 0.912945 0.776820
Si Si2 0.581710 0.080554 0.623677
Si Si3 0.596771 0.218375 0.548990
Si Si4 0.551000 0.833352 0.958377
Si Si5 0.844193 0.000000 0.730004
Si Si6 0.330732 0.643928 0.189721
Si Si7 0.727466 0.676733 0.462872
O O1 0.347109 0.933292 0.686017
O O2 0.124444 0.872305 0.594920
O O3 0.962616 0.956549 0.798240
O O4 0.039861 0.882714 0.012035
O O5 0.558642 0.122525 0.800928
O O6 0.722926 0.041027 0.655192
O O7 0.693739 0.102916 0.370702
O O8 0.579753 0.211730 0.796559
O O9 0.797764 0.190366 0.351789
O O10 0.595019 0.274978 0.509199
O O11 0.404351 0.192048 0.536151
O O12 0.728708 0.839314 0.032734
O O13 0.342649 0.831845 0.194115
#
# Coordination Sequence:
#
# PCOD9132791 Si02
#       7
#     4   4   4   4   2   4   4
#     4  12  25  48  75 109 143 198 247 301 381 433
#     4  11  24  51  70 105 147 186 248 311 363 438
#     4  10  24  41  68 110 150 195 242 298 358 445
#     4  10  20  46  69  96 156 191 233 311 351 424
#     4  12  28  46  82 106 142 196 252 316 376 432
#     4  10  23  46  71 105 149 187 246 303 360 447
#     4  11  25  41  69 109 150 197 244 294 364 447
#
# _framework density 21.975507
#
# number of rings (size 3 to 8) (size 9 to 14) (size 15 to 20)
#    0.000    1.231    6.154    0.462    4.308    4.308 
#    0.000    3.846    0.000    0.000    0.000    0.000 
#    0.000    0.000    0.000    0.000    0.000    0.000 
#
# Total GULP energy -72376.597350 kJ/mol
# GULP energy per Si atom -5567.430565 kJ/mol
# Density = 2.192549 g / cm^3
# Si number density = 21.975507 Si / 1000 Ang^3
#
#
#
# Elastic Constant Matrix: (Units=GPa)
#
#
# Indices 1 2 3 4 5 6 
#
# 1 74.2589 29.8047 35.0725 0.0000 16.4722 0.0000
# 2 29.8047 108.5782 18.8778 0.0000 3.6060 0.0000
# 3 35.0725 18.8778 135.8727 0.0000 0.3061 0.0000
# 4 0.0000 0.0000 0.0000 5.5439 0.0000 10.1431
# 5 16.4722 3.6060 0.3061 0.0000 23.5514 0.0000
# 6 0.0000 0.0000 0.0000 10.1431 0.0000 29.3049
#
#
#
# Elastic Compliance Matrix: (Units=1/GPa)
#
#
# Indices 1 2 3 4 5 6 
#
# 1 0.020403 -0.004345 -0.004632 0.000000 -0.013544 0.000000
# 2 -0.004345 0.010412 -0.000328 0.000000 0.001449 0.000000
# 3 -0.004632 -0.000328 0.008594 0.000000 0.003178 0.000000
# 4 0.000000 0.000000 0.000000 0.491846 0.000000 -0.170239
# 5 -0.013544 0.001449 0.003178 0.000000 0.051670 0.000000
# 6 0.000000 0.000000 0.000000 -0.170239 0.000000 0.093047
#
#
# Mechanical properties :
#
#
# Convention : Reuss Voigt Hill
#
# Bulk Modulus (GPa) = 48.08430 54.02442 51.05436
# Shear Modulus (GPa) = 7.12742 27.34369 17.23555
#
# Velocity S-wave (km/s) = 1.80288 3.53126 2.80359
# Velocity P-wave (km/s) = 5.12467 6.42368 5.81059
#
# Compressibility (1/GPa) = 0.02079681
#
# Stress axis : x y z
#
# Youngs Moduli (GPa) = 49.01312 96.04598 116.36058
#
# Poissons Ratio (x) = 0.41735 0.53901
# Poissons Ratio (y) = 0.21298 0.03819
# Poissons Ratio (z) = 0.22704 0.03152
#
# Static dielectric constant tensor:
#      x y z
#    x 1.898320 0.000000 -0.042110 
#    y 0.000000 1.787520 0.000000 
#    z -0.042110 0.000000 1.793360 
# 
# From -- ./inp_files/1844.got.cif
#   From: 2010.05.17/outbox.cif.g08.bks.cpg/sg8_1_cif.got.tgz:1844.got - 2010.06.03 19:46:02.
