data_PCOD9132915
_publ_section_title
;
Structure prediction by ZEFSAII (Michael W. Deem and Ramdas Pophale) SiO2 
 PCOD9132915
Probable space group: C M
;
_chemical_formula_sum "Si O2"
_cell_formula_units_Z 32
_cell_length_a 21.088187
_cell_length_b 8.560309
_cell_length_c 12.623759
_cell_angle_alpha 90.000000
_cell_angle_beta 127.716800
_cell_angle_gamma 90.000000
_cell_volume 1802.677863
_symmetry_space_group_name_H-M "C M"
_symmetry_group_IT_number 8
_symmetry_cell_setting 'monoclinic'
loop_
_space_group_symop_operation_xyz
x,y,z
x,-y,z
1/2+x,1/2+y,z
1/2+x,1/2-y,z
loop_
_atom_site_type_symbol
_atom_site_label
_atom_site_fract_x
_atom_site_fract_y
_atom_site_fract_z
Si Si1 0.097600 0.311039 0.609280
Si Si2 0.274971 0.187424 0.756103
Si Si3 0.574218 0.685517 0.019431
Si Si4 0.515328 0.812574 0.742906
Si Si5 0.435315 0.810951 0.031264
Si Si6 0.685993 0.811912 0.307723
Si Si7 0.336512 0.312384 0.593569
Si Si8 0.045556 0.310590 0.328060
O O1 0.096837 0.500000 0.607358
O O2 0.189212 0.256415 0.697992
O O3 0.054669 0.254778 0.457232
O O4 0.053547 0.259430 0.671009
O O5 0.302340 0.245079 0.668399
O O6 0.270313 0.000000 0.750640
O O7 0.345747 0.235878 0.909156
O O8 0.570382 0.500000 0.009545
O O9 0.567565 0.756374 0.895981
O O10 0.497586 0.747385 0.007784
O O11 0.651625 0.737694 0.165840
O O12 0.425729 0.747629 0.665254
O O13 0.511727 0.000000 0.740475
O O14 0.469297 0.760413 0.180305
O O15 0.439561 0.000000 0.030872
O O16 0.182028 0.500000 0.293085
O O17 0.774378 0.767674 0.436851
O O18 0.623822 0.767925 0.338477
O O19 0.336680 0.500000 0.601629
O O20 0.044038 0.500000 0.330146
#
# Coordination Sequence:
#
# PCOD9132915 Si02
#       8
#     4   4   4   4   4   4   4   4
#     4  10  21  38  58  79 110 152 191 229 279 340
#     4  11  21  33  55  85 116 146 184 234 279 329
#     4  11  21  33  54  82 112 146 188 234 280 334
#     4  11  23  38  56  80 115 155 193 233 282 334
#     4   9  18  33  54  80 111 145 180 226 281 331
#     4   9  18  34  57  81 110 143 181 231 285 337
#     4  11  21  36  59  84 112 148 190 235 281 333
#     4   8  14  31  55  77 102 139 183 220 271 332
#
# _framework density 17.751369
#
# number of rings (size 3 to 8) (size 9 to 14) (size 15 to 20)
#    0.000    2.000    2.500    3.000    0.000    2.500 
#    0.000    1.250    0.000    1.500    0.000    0.000 
#    0.000    0.000    0.000    0.000    0.000    0.000 
#
# Total GULP energy -89286.935323 kJ/mol
# GULP energy per Si atom -5580.433458 kJ/mol
# Density = 1.771097 g / cm^3
# Si number density = 17.751369 Si / 1000 Ang^3
#
#
#
# Elastic Constant Matrix: (Units=GPa)
#
#
# Indices 1 2 3 4 5 6 
#
# 1 92.1102 14.9080 61.2348 0.0000 -8.0316 0.0000
# 2 14.9080 22.9923 24.3083 0.0000 -1.4525 0.0000
# 3 61.2348 24.3083 163.2195 0.0000 -7.6892 0.0000
# 4 0.0000 0.0000 0.0000 24.0981 0.0000 7.0684
# 5 -8.0316 -1.4525 -7.6892 0.0000 25.5646 0.0000
# 6 0.0000 0.0000 0.0000 7.0684 0.0000 20.2528
#
#
#
# Elastic Compliance Matrix: (Units=1/GPa)
#
#
# Indices 1 2 3 4 5 6 
#
# 1 0.015062 -0.004452 -0.004845 0.000000 0.003022 0.000000
# 2 -0.004452 0.052947 -0.006227 0.000000 -0.000264 0.000000
# 3 -0.004845 -0.006227 0.008910 0.000000 0.000804 0.000000
# 4 0.000000 0.000000 0.000000 0.046230 0.000000 -0.016135
# 5 0.003022 -0.000264 0.000804 0.000000 0.040293 0.000000
# 6 0.000000 0.000000 0.000000 -0.016135 0.000000 0.055007
#
#
# Mechanical properties :
#
#
# Convention : Reuss Voigt Hill
#
# Bulk Modulus (GPa) = 21.80156 53.24712 37.52434
# Shear Modulus (GPa) = 18.88307 25.84115 22.36211
#
# Velocity S-wave (km/s) = 3.26506 3.81954 3.55313
# Velocity P-wave (km/s) = 5.14999 7.03655 6.16585
#
# Compressibility (1/GPa) = 0.04586829
#
# Stress axis : x y z
#
# Youngs Moduli (GPa) = 66.39318 18.88686 112.23573
#
# Poissons Ratio (x) = 0.08409 0.54381
# Poissons Ratio (y) = 0.29561 0.69894
# Poissons Ratio (z) = 0.32169 0.11762
#
# Static dielectric constant tensor:
#      x y z
#    x 1.566770 0.000000 0.000200 
#    y 0.000000 1.602280 0.000000 
#    z 0.000200 0.000000 1.633830 
# 
# From -- ./inp_files/23860.got.cif
#   From: 2010.05.17/outbox.cif.g08.bks.cpg/sg8_12_cif.got.tgz:23860.got - 2010.06.03 19:46:02.
