data_PCOD9132300
_publ_section_title
;
Structure prediction by ZEFSAII (Michael W. Deem and Ramdas Pophale) SiO2 
 PCOD9132300
Probable space group: C M
;
_chemical_formula_sum "Si O2"
_cell_formula_units_Z 32
_cell_length_a 12.426313
_cell_length_b 21.592898
_cell_length_c 9.240244
_cell_angle_alpha 90.000000
_cell_angle_beta 44.006660
_cell_angle_gamma 90.000000
_cell_volume 1722.503861
_symmetry_space_group_name_H-M "C M"
_symmetry_group_IT_number 8
_symmetry_cell_setting 'monoclinic'
loop_
_space_group_symop_operation_xyz
x,y,z
x,-y,z
1/2+x,1/2+y,z
1/2+x,1/2-y,z
loop_
_atom_site_type_symbol
_atom_site_label
_atom_site_fract_x
_atom_site_fract_y
_atom_site_fract_z
Si Si1 0.757430 0.686513 0.181300
Si Si2 0.741626 0.195482 0.380125
Si Si3 0.609134 0.682646 0.012336
Si Si4 0.787852 0.568904 0.332850
Si Si5 0.243868 0.930281 0.717606
Si Si6 0.116201 0.432775 0.858381
Si Si7 0.074912 0.431531 0.553577
Si Si8 0.631938 0.199362 0.809846
O O1 0.698577 0.750354 0.309713
O O2 0.716063 0.626931 0.318609
O O3 0.691839 0.676296 0.085817
O O4 0.944875 0.691861 0.994924
O O5 0.673506 0.127747 0.410501
O O6 0.680525 0.211876 0.598788
O O7 0.926540 0.191512 0.209026
O O8 0.638454 0.623050 0.884906
O O9 0.674568 0.743535 0.869477
O O10 0.724884 0.500000 0.357791
O O11 0.774504 0.577913 0.517372
O O12 0.966925 0.567699 0.106881
O O13 0.406730 0.926509 0.644943
O O14 0.181793 0.000000 0.799650
O O15 0.195427 0.500000 0.801596
O O16 0.063728 0.430271 0.739845
O O17 0.200562 0.366981 0.795041
O O18 0.138645 0.500000 0.453600
#
# Coordination Sequence:
#
# PCOD9132300 Si02
#       8
#     4   4   4   4   4   4   4   4
#     4  10  21  35  53  76 105 140 177 220 266 314
#     4  10  21  35  53  78 108 142 176 219 269 311
#     4  11  22  34  52  79 107 139 179 223 266 310
#     4   9  17  31  53  78 101 130 173 220 260 305
#     4  10  20  34  55  80 105 137 176 218 264 317
#     4   8  14  28  51  75  99 129 169 213 252 298
#     4   9  18  34  56  80 107 141 177 214 260 315
#     4   9  19  35  51  74 106 138 175 217 265 316
#
# _framework density 18.577607
#
# number of rings (size 3 to 8) (size 9 to 14) (size 15 to 20)
#    0.000    2.500    0.000    3.000    0.000    7.000 
#    0.000    0.000    0.000    0.000    0.000    8.750 
#    0.000    0.000    0.000    0.000    0.000    0.000 
#
# Total GULP energy -89174.897883 kJ/mol
# GULP energy per Si atom -5573.431118 kJ/mol
# Density = 1.853532 g / cm^3
# Si number density = 18.577607 Si / 1000 Ang^3
#
#
#
# Elastic Constant Matrix: (Units=GPa)
#
#
# Indices 1 2 3 4 5 6 
#
# 1 30.6462 30.4387 10.9348 0.0000 12.7826 0.0000
# 2 30.4387 153.9163 61.8568 0.0000 24.2013 0.0000
# 3 10.9348 61.8568 68.3873 0.0000 19.1572 0.0000
# 4 0.0000 0.0000 0.0000 30.9630 0.0000 0.7379
# 5 12.7826 24.2013 19.1572 0.0000 15.8651 0.0000
# 6 0.0000 0.0000 0.0000 0.7379 0.0000 19.6646
#
#
#
# Elastic Compliance Matrix: (Units=1/GPa)
#
#
# Indices 1 2 3 4 5 6 
#
# 1 0.056348 -0.008551 0.011770 0.000000 -0.046567 0.000000
# 2 -0.008551 0.011997 -0.009501 0.000000 0.000062 0.000000
# 3 0.011770 -0.009501 0.030119 0.000000 -0.031358 0.000000
# 4 0.000000 0.000000 0.000000 0.032326 0.000000 -0.001213
# 5 -0.046567 0.000062 -0.031358 0.000000 0.138320 0.000000
# 6 0.000000 0.000000 0.000000 -0.001213 0.000000 0.050898
#
#
# Mechanical properties :
#
#
# Convention : Reuss Voigt Hill
#
# Bulk Modulus (GPa) = 11.64180 51.04560 31.34370
# Shear Modulus (GPa) = 13.84252 23.27984 18.56118
#
# Velocity S-wave (km/s) = 2.73265 3.54377 3.16431
# Velocity P-wave (km/s) = 4.02947 6.65440 5.50080
#
# Compressibility (1/GPa) = 0.08589740
#
# Stress axis : x y z
#
# Youngs Moduli (GPa) = 17.74700 83.35534 33.20159
#
# Poissons Ratio (x) = 0.71281 -0.39078
# Poissons Ratio (y) = 0.15176 0.31546
# Poissons Ratio (z) = -0.20888 0.79199
#
# Static dielectric constant tensor:
#      x y z
#    x 1.600610 0.000000 -0.004590 
#    y 0.000000 1.706550 0.000000 
#    z -0.004590 0.000000 1.624870 
# 
# From -- ./inp_files/11430.got.cif
#   From: 2010.05.17/outbox.cif.g08.bks.cpg/sg8_6_cif.got.tgz:11430.got - 2010.06.03 19:46:02.
