data_PCOD9132007
_publ_section_title
;
Structure prediction by ZEFSAII (Michael W. Deem and Ramdas Pophale) SiO2 
 PCOD9132007
Probable space group: C M
;
_chemical_formula_sum "Si O2"
_cell_formula_units_Z 32
_cell_length_a 19.937801
_cell_length_b 8.723989
_cell_length_c 8.095705
_cell_angle_alpha 90.000000
_cell_angle_beta 72.123189
_cell_angle_gamma 90.000000
_cell_volume 1340.156919
_symmetry_space_group_name_H-M "C M"
_symmetry_group_IT_number 8
_symmetry_cell_setting 'monoclinic'
loop_
_space_group_symop_operation_xyz
x,y,z
x,-y,z
1/2+x,1/2+y,z
1/2+x,1/2-y,z
loop_
_atom_site_type_symbol
_atom_site_label
_atom_site_fract_x
_atom_site_fract_y
_atom_site_fract_z
Si Si1 0.590600 0.180466 0.474930
Si Si2 0.260288 0.823929 0.661975
Si Si3 0.725207 0.815796 0.178983
Si Si4 0.883044 0.177424 0.759791
Si Si5 0.514878 0.318984 0.845312
Si Si6 0.976543 0.174496 0.351416
Si Si7 0.352439 0.821325 0.256897
Si Si8 0.639110 0.180475 0.926557
O O1 0.670178 0.219484 0.367004
O O2 0.559960 0.278519 0.647367
O O3 0.541175 0.216995 0.353520
O O4 0.585011 0.000000 0.518462
O O5 0.316118 0.776870 0.761739
O O6 0.303610 0.808379 0.459478
O O7 0.192522 0.717012 0.735702
O O8 0.237653 0.000000 0.696191
O O9 0.801430 0.747080 0.156200
O O10 0.731412 0.000000 0.165131
O O11 0.683223 0.760561 0.049598
O O12 0.929133 0.172670 0.555458
O O13 0.936615 0.239433 0.858556
O O14 0.862568 0.000000 0.810502
O O15 0.508386 0.500000 0.867268
O O16 0.563158 0.253523 0.953321
O O17 0.923880 0.232130 0.248857
O O18 0.999817 0.000000 0.303125
O O19 0.367553 0.000000 0.218234
O O20 0.629712 0.000000 0.950022
#
# Coordination Sequence:
#
# PCOD9132007 Si02
#       8
#     4   4   4   4   4   4   4   4
#     4  10  19  34  57  82 108 139 176 218 264 312
#     4  10  20  34  55  83 109 135 173 218 262 313
#     4  10  23  39  53  74 106 143 181 220 262 311
#     4   8  16  31  52  78 107 137 169 211 260 309
#     4  10  20  35  56  83 110 136 173 218 264 316
#     4   9  17  31  53  81 111 139 171 214 262 312
#     4  10  20  34  56  83 108 137 175 218 264 315
#     4  11  23  38  54  74 105 144 182 219 262 312
#
# _framework density 23.877801999999999
#
# number of rings (size 3 to 8) (size 9 to 14) (size 15 to 20)
#    0.000    2.250    0.000    3.750    0.000    9.000 
#    0.000    1.250    0.000    3.000    0.000    0.000 
#    0.000    0.000    0.000    0.000    0.000    0.000 
#
# Total GULP energy -89527.096781 kJ/mol
# GULP energy per Si atom -5595.443549 kJ/mol
# Density = 2.382345 g / cm^3
# Si number density = 23.877802 Si / 1000 Ang^3
#
#
#
# Elastic Constant Matrix: (Units=GPa)
#
#
# Indices 1 2 3 4 5 6 
#
# 1 150.8006 25.2088 25.9259 0.0000 26.0471 0.0000
# 2 25.2088 40.2511 -5.3665 0.0000 11.3226 0.0000
# 3 25.9259 -5.3665 78.3559 0.0000 19.9621 0.0000
# 4 0.0000 0.0000 0.0000 18.8560 0.0000 14.9799
# 5 26.0471 11.3226 19.9621 0.0000 53.8579 0.0000
# 6 0.0000 0.0000 0.0000 14.9799 0.0000 30.5446
#
#
#
# Elastic Compliance Matrix: (Units=1/GPa)
#
#
# Indices 1 2 3 4 5 6 
#
# 1 0.008242 -0.004940 -0.002556 0.000000 -0.002000 0.000000
# 2 -0.004940 0.030297 0.005216 0.000000 -0.005914 0.000000
# 3 -0.002556 0.005216 0.015382 0.000000 -0.005562 0.000000
# 4 0.000000 0.000000 0.000000 0.086885 0.000000 -0.042611
# 5 -0.002000 -0.005914 -0.005562 0.000000 0.022839 0.000000
# 6 0.000000 0.000000 0.000000 -0.042611 0.000000 0.053636
#
#
# Mechanical properties :
#
#
# Convention : Reuss Voigt Hill
#
# Bulk Modulus (GPa) = 20.25875 40.10490 30.18182
# Shear Modulus (GPa) = 20.98243 35.56101 28.27172
#
# Velocity S-wave (km/s) = 2.96757 3.86332 3.44469
# Velocity P-wave (km/s) = 4.49942 6.06075 5.33748
#
# Compressibility (1/GPa) = 0.04936140
#
# Stress axis : x y z
#
# Youngs Moduli (GPa) = 121.33048 33.00684 65.01058
#
# Poissons Ratio (x) = 0.16305 0.16615
# Poissons Ratio (y) = 0.59937 -0.33910
# Poissons Ratio (z) = 0.31010 -0.17216
#
# Static dielectric constant tensor:
#      x y z
#    x 1.882580 0.000000 -0.001030 
#    y 0.000000 1.798180 0.000000 
#    z -0.001030 0.000000 2.037280 
# 
# From -- ./inp_files/15844.got.cif
#   From: 2010.05.17/outbox.cif.g08.bks.cpg/sg8_8_cif.got.tgz:15844.got - 2010.06.03 19:46:02.
