data_PCOD9132063
_publ_section_title
;
Structure prediction by ZEFSAII (Michael W. Deem and Ramdas Pophale) SiO2 
 PCOD9132063
Probable space group: C M
;
_chemical_formula_sum "Si O2"
_cell_formula_units_Z 32
_cell_length_a 20.732232
_cell_length_b 7.356464
_cell_length_c 21.771322
_cell_angle_alpha 90.000000
_cell_angle_beta 24.017642
_cell_angle_gamma 90.000000
_cell_volume 1351.492064
_symmetry_space_group_name_H-M "C M"
_symmetry_group_IT_number 8
_symmetry_cell_setting 'monoclinic'
loop_
_space_group_symop_operation_xyz
x,y,z
x,-y,z
1/2+x,1/2+y,z
1/2+x,1/2-y,z
loop_
_atom_site_type_symbol
_atom_site_label
_atom_site_fract_x
_atom_site_fract_y
_atom_site_fract_z
Si Si1 0.081590 0.796577 0.211940
Si Si2 0.109736 0.777953 0.939703
Si Si3 0.406793 0.792753 0.595309
Si Si4 0.741922 0.722194 0.956326
Si Si5 0.262519 0.297188 0.256013
Si Si6 0.846542 0.778763 0.512344
Si Si7 0.096165 0.281079 0.628201
Si Si8 0.329006 0.792534 0.331815
O O1 0.009706 0.717808 0.336679
O O2 0.931979 0.802909 0.294874
O O3 0.136799 0.000000 0.179072
O O4 0.200184 0.708701 0.060825
O O5 0.265743 0.721780 0.763412
O O6 0.145519 0.723581 0.979415
O O7 0.107158 0.000000 0.938920
O O8 0.926528 0.720385 0.082075
O O9 0.584628 0.713711 0.422778
O O10 0.328322 0.791214 0.596270
O O11 0.440036 0.000000 0.587774
O O12 0.728676 0.500000 0.970761
O O13 0.919350 0.775442 0.790837
O O14 0.236471 0.500000 0.253252
O O15 0.323421 0.306344 0.272966
O O16 0.706662 0.721967 0.588360
O O17 0.849651 0.000000 0.511017
O O18 0.101820 0.500000 0.620914
O O19 0.156240 0.208534 0.511377
O O20 0.381948 0.000000 0.279048
#
# Coordination Sequence:
#
# PCOD9132063 Si02
#       8
#     4   4   4   4   4   4   4   4
#     4   9  17  33  57  78 101 139 178 217 261 318
#     4   9  17  31  55  83 104 129 174 227 269 314
#     4  10  21  36  56  78 102 142 190 226 262 316
#     4   9  15  29  57  85 102 125 174 231 269 311
#     4  10  19  35  57  77 103 141 185 227 266 316
#     4   9  19  35  52  75 107 141 177 218 264 314
#     4   9  18  33  55  79 103 139 184 219 263 324
#     4  11  20  30  49  79 112 140 168 213 274 327
#
# _framework density 23.677533
#
# number of rings (size 3 to 8) (size 9 to 14) (size 15 to 20)
#    0.000    2.500    1.250    2.625    0.000    4.500 
#    2.250    1.250    0.000    0.000    0.000    0.000 
#    0.000    0.000    0.000    0.000    0.000    0.000 
#
# Total GULP energy -89072.124836 kJ/mol
# GULP energy per Si atom -5567.007802 kJ/mol
# Density = 2.362364 g / cm^3
# Si number density = 23.677533 Si / 1000 Ang^3
#
#
#
# Elastic Constant Matrix: (Units=GPa)
#
#
# Indices 1 2 3 4 5 6 
#
# 1 51.2843 -0.2894 18.2672 0.0004 10.2551 -0.0005
# 2 -0.2894 97.5234 10.7535 0.0010 -0.9624 -0.0008
# 3 18.2672 10.7535 187.6938 0.0006 -11.3844 -0.0004
# 4 0.0004 0.0010 0.0006 -27.2893 -0.0003 25.0563
# 5 10.2551 -0.9624 -11.3844 -0.0003 35.7961 0.0004
# 6 -0.0005 -0.0008 -0.0004 25.0563 0.0004 -10.8230
#
#
#
# Elastic Compliance Matrix: (Units=1/GPa)
#
#
# Indices 1 2 3 4 5 6 
#
# 1 0.021828 0.000278 -0.002569 0.000001 -0.007063 0.000000
# 2 0.000278 0.010323 -0.000618 0.000000 0.000001 0.000000
# 3 -0.002569 -0.000618 0.005768 0.000000 0.002554 0.000000
# 4 0.000001 0.000000 0.000000 0.032554 -0.000001 0.075366
# 5 -0.007063 0.000001 0.002554 -0.000001 0.030772 0.000000
# 6 0.000000 0.000000 0.000000 0.075366 0.000000 0.082082
#
#
# Mechanical properties :
#
#
# Convention : Reuss Voigt Hill
#
# Bulk Modulus (GPa) = 31.15126 43.77378 37.46252
# Shear Modulus (GPa) = 25.01935 20.05476 22.53705
#
# Velocity S-wave (km/s) = 3.25417 2.91348 3.08853
# Velocity P-wave (km/s) = 5.22538 5.46309 5.34556
#
# Compressibility (1/GPa) = 0.03210143
#
# Stress axis : x y z
#
# Youngs Moduli (GPa) = 45.81261 96.87124 173.36562
#
# Poissons Ratio (x) = -0.02696 0.44533
# Poissons Ratio (y) = -0.01275 0.10722
# Poissons Ratio (z) = 0.11768 0.05991
#
# Static dielectric constant tensor:
#      x y z
#    x 1.830980 0.000000 -0.020080 
#    y 0.000000 2.039650 0.000000 
#    z -0.020080 0.000000 2.061420 
# 
# From -- ./inp_files/16794.got.cif
#   From: 2010.05.17/outbox.cif.g08.bks.cpg/sg8_9_cif.got.tgz:16794.got - 2010.06.03 19:46:02.
