data_PCOD9132711
_publ_section_title
;
Structure prediction by ZEFSAII (Michael W. Deem and Ramdas Pophale) SiO2 
 PCOD9132711
Probable space group: C M
;
_chemical_formula_sum "Si O2"
_cell_formula_units_Z 32
_cell_length_a 20.054357
_cell_length_b 8.641327
_cell_length_c 24.297407
_cell_angle_alpha 90.000000
_cell_angle_beta 156.771510
_cell_angle_gamma 90.000000
_cell_volume 1660.675583
_symmetry_space_group_name_H-M "C M"
_symmetry_group_IT_number 8
_symmetry_cell_setting 'monoclinic'
loop_
_space_group_symop_operation_xyz
x,y,z
x,-y,z
1/2+x,1/2+y,z
1/2+x,1/2-y,z
loop_
_atom_site_type_symbol
_atom_site_label
_atom_site_fract_x
_atom_site_fract_y
_atom_site_fract_z
Si Si1 0.161120 0.187822 0.102570
Si Si2 0.640644 0.185150 0.311848
Si Si3 0.639430 0.321726 0.810496
Si Si4 0.347236 0.685413 0.788551
Si Si5 0.019393 0.821752 0.595592
Si Si6 0.325275 0.687674 0.645818
Si Si7 0.997285 0.817681 0.093139
Si Si8 0.024842 0.815315 0.341793
O O1 0.341590 0.252161 0.220979
O O2 0.109664 0.233014 0.125902
O O3 0.167032 0.000000 0.105512
O O4 0.009719 0.240588 0.946805
O O5 0.534851 0.229416 0.178026
O O6 0.571151 0.256750 0.315577
O O7 0.831668 0.240647 0.443907
O O8 0.646742 0.000000 0.323965
O O9 0.691473 0.500000 0.861776
O O10 0.547231 0.321967 0.682031
O O11 0.501588 0.271305 0.750299
O O12 0.803096 0.215940 0.931293
O O13 0.360766 0.500000 0.797381
O O14 0.173164 0.731087 0.685552
O O15 0.336306 0.739820 0.717317
O O16 0.027126 0.000000 0.581941
O O17 0.310664 0.500000 0.632873
O O18 0.168441 0.755356 0.492870
O O19 0.024759 0.000000 0.122253
O O20 0.022960 0.000000 0.340757
#
# Coordination Sequence:
#
# PCOD9132711 Si02
#       8
#     4   4   4   4   4   4   4   4
#     4  10  23  43  63  88 128 171 206 251 309 372
#     4  11  24  44  66  90 125 167 208 254 313 376
#     4  10  20  39  65  90 118 162 212 256 307 368
#     4  10  22  40  65  93 122 162 207 251 308 370
#     4  10  21  39  64  90 120 158 206 258 309 364
#     4  10  22  42  65  91 123 166 211 249 307 376
#     4  11  24  41  63  95 128 163 210 258 309 366
#     4  12  26  42  63  93 126 163 210 261 312 366
#
# _framework density 19.269265000000001
#
# number of rings (size 3 to 8) (size 9 to 14) (size 15 to 20)
#    0.000    1.500    2.500    1.875    3.500    3.500 
#    0.000    0.000    0.000    0.000    0.000    0.000 
#    0.000    0.000    0.000    0.000    0.000    0.000 
#
# Total GULP energy -89382.621120 kJ/mol
# GULP energy per Si atom -5586.413820 kJ/mol
# Density = 1.922541 g / cm^3
# Si number density = 19.269265 Si / 1000 Ang^3
#
#
#
# Elastic Constant Matrix: (Units=GPa)
#
#
# Indices 1 2 3 4 5 6 
#
# 1 99.4733 20.7442 2.3630 -0.0027 4.6919 0.0006
# 2 20.7442 28.1299 9.8202 0.0096 2.6817 -0.0021
# 3 2.3630 9.8202 37.5004 0.0092 9.4151 -0.0025
# 4 -0.0027 0.0096 0.0092 30.3729 -0.0050 2.0725
# 5 4.6919 2.6817 9.4151 -0.0050 33.0644 0.0002
# 6 0.0006 -0.0021 -0.0025 2.0725 0.0002 22.7688
#
#
#
# Elastic Compliance Matrix: (Units=1/GPa)
#
#
# Indices 1 2 3 4 5 6 
#
# 1 0.012052 -0.009477 0.002110 0.000003 -0.001542 -0.000001
# 2 -0.009477 0.046581 -0.011836 -0.000012 0.000937 0.000004
# 3 0.002110 -0.011836 0.031736 -0.000007 -0.008376 0.000003
# 4 0.000003 -0.000012 -0.000007 0.033130 0.000008 -0.003016
# 5 -0.001542 0.000937 -0.008376 0.000008 0.032772 -0.000002
# 6 -0.000001 0.000004 0.000003 -0.003016 -0.000002 0.044194
#
#
# Mechanical properties :
#
#
# Convention : Reuss Voigt Hill
#
# Bulk Modulus (GPa) = 19.24511 25.66204 22.45357
# Shear Modulus (GPa) = 19.51658 26.05297 22.78477
#
# Velocity S-wave (km/s) = 3.18596 3.68101 3.44239
# Velocity P-wave (km/s) = 4.85210 5.60473 5.24194
#
# Compressibility (1/GPa) = 0.05196126
#
# Stress axis : x y z
#
# Youngs Moduli (GPa) = 82.97436 21.46809 31.51003
#
# Poissons Ratio (x) = 0.20345 -0.06647
# Poissons Ratio (y) = 0.78635 0.37296
# Poissons Ratio (z) = -0.17504 0.25410
#
# Static dielectric constant tensor:
#      x y z
#    x 1.659360 0.000000 -0.002930 
#    y 0.000000 1.670640 0.000000 
#    z -0.002930 0.000000 1.642100 
# 
# From -- ./inp_files/33056.got.cif
#   From: 2010.05.17/outbox.cif.g08.bks.cpg/sg8_17_cif.got.tgz:33056.got - 2010.06.03 19:46:02.
