data_PCOD9132794
_publ_section_title
;
Structure prediction by ZEFSAII (Michael W. Deem and Ramdas Pophale) SiO2 
 PCOD9132794
Probable space group: C M
;
_chemical_formula_sum "Si O2"
_cell_formula_units_Z 32
_cell_length_a 5.362472
_cell_length_b 26.937614
_cell_length_c 11.585548
_cell_angle_alpha 90.000000
_cell_angle_beta 57.634733
_cell_angle_gamma 90.000000
_cell_volume 1413.575022
_symmetry_space_group_name_H-M "C M"
_symmetry_group_IT_number 8
_symmetry_cell_setting 'monoclinic'
loop_
_space_group_symop_operation_xyz
x,y,z
x,-y,z
1/2+x,1/2+y,z
1/2+x,1/2-y,z
loop_
_atom_site_type_symbol
_atom_site_label
_atom_site_fract_x
_atom_site_fract_y
_atom_site_fract_z
Si Si1 0.069250 0.375942 0.248750
Si Si2 0.792101 0.559777 0.881036
Si Si3 0.332577 0.444147 0.355423
Si Si4 0.913887 0.727722 0.193001
Si Si5 0.938143 0.773586 0.520726
Si Si6 0.606189 0.940342 0.034880
Si Si7 0.512597 0.619420 0.525597
Si Si8 0.247737 0.055036 0.640057
O O1 0.331812 0.403834 0.252580
O O2 0.074211 0.325208 0.174779
O O3 0.841307 0.362459 0.407139
O O4 0.958004 0.416869 0.184422
O O5 0.802034 0.500000 0.889058
O O6 0.448714 0.574735 0.962178
O O7 0.895015 0.570129 0.724458
O O8 0.963794 0.577794 0.950828
O O9 0.434171 0.500000 0.298562
O O10 0.452843 0.422181 0.444705
O O11 0.988259 0.449557 0.479529
O O12 0.190313 0.765681 0.140095
O O13 0.664277 0.733890 0.356180
O O14 0.149137 0.759631 0.574666
O O15 0.831674 0.830580 0.552856
O O16 0.594845 0.000000 0.043001
O O17 0.522412 0.595241 0.648301
O O18 0.110128 0.000000 0.690568
#
# Coordination Sequence:
#
# PCOD9132794 Si02
#       8
#     4   4   4   4   4   4   4   4
#     4  10  22  34  52  78 114 143 178 214 272 332
#     4   9  20  36  55  76 103 141 187 228 260 297
#     4  10  21  33  50  78 113 150 180 212 263 326
#     4   9  19  32  52  76 103 137 177 222 264 309
#     4   9  19  32  51  74 106 139 175 221 263 313
#     4  10  21  36  54  78 107 144 181 219 263 317
#     4  10  21  32  54  79 110 146 178 215 272 330
#     4   9  19  35  52  77 108 142 184 227 262 310
#
# _framework density 22.637640999999999
#
# number of rings (size 3 to 8) (size 9 to 14) (size 15 to 20)
#    0.000    2.500    0.000    0.750   14.000    1.500 
#    0.000    0.000    0.000    0.000    0.000    5.250 
#    0.000    0.000    0.000    0.000    0.000    0.000 
#
# Total GULP energy -89114.782559 kJ/mol
# GULP energy per Si atom -5569.673910 kJ/mol
# Density = 2.258612 g / cm^3
# Si number density = 22.637641 Si / 1000 Ang^3
#
#
#
# Elastic Constant Matrix: (Units=GPa)
#
#
# Indices 1 2 3 4 5 6 
#
# 1 108.4642 5.3258 21.4338 0.0000 25.6121 0.0000
# 2 5.3258 46.5887 -5.3767 0.0000 0.3504 0.0000
# 3 21.4338 -5.3767 65.0001 0.0000 12.7628 0.0000
# 4 0.0000 0.0000 0.0000 3.4420 0.0000 1.0165
# 5 25.6121 0.3504 12.7628 0.0000 32.5708 0.0000
# 6 0.0000 0.0000 0.0000 1.0165 0.0000 21.0593
#
#
#
# Elastic Compliance Matrix: (Units=1/GPa)
#
#
# Indices 1 2 3 4 5 6 
#
# 1 0.011716 -0.001550 -0.002368 0.000000 -0.008268 0.000000
# 2 -0.001550 0.021907 0.002308 0.000000 0.000079 0.000000
# 3 -0.002368 0.002308 0.017329 0.000000 -0.004953 0.000000
# 4 0.000000 0.000000 0.000000 0.294733 0.000000 -0.014227
# 5 -0.008268 0.000079 -0.004953 0.000000 0.039144 0.000000
# 6 0.000000 0.000000 0.000000 -0.014227 0.000000 0.048172
#
#
# Mechanical properties :
#
#
# Convention : Reuss Voigt Hill
#
# Bulk Modulus (GPa) = 20.95074 29.20208 25.07641
# Shear Modulus (GPa) = 11.05869 24.65910 17.85890
#
# Velocity S-wave (km/s) = 2.21262 3.30403 2.81179
# Velocity P-wave (km/s) = 3.97524 5.24245 4.65219
#
# Compressibility (1/GPa) = 0.04773101
#
# Stress axis : x y z
#
# Youngs Moduli (GPa) = 85.35202 45.64667 57.70702
#
# Poissons Ratio (x) = 0.07077 0.13666
# Poissons Ratio (y) = 0.13233 -0.13318
# Poissons Ratio (z) = 0.20213 -0.10535
#
# Static dielectric constant tensor:
#      x y z
#    x 1.965640 0.000000 -0.087890 
#    y 0.000000 1.886170 0.000000 
#    z -0.087890 0.000000 1.910210 
# 
# From -- ./inp_files/18186.got.cif
#   From: 2010.05.17/outbox.cif.g08.bks.cpg/sg8_10_cif.got.tgz:18186.got - 2010.06.03 19:46:02.
