data_PCOD9132693
_publ_section_title
;
Structure prediction by ZEFSAII (Michael W. Deem and Ramdas Pophale) SiO2 
 PCOD9132693
Probable space group: C M
;
_chemical_formula_sum "Si O2"
_cell_formula_units_Z 32
_cell_length_a 7.871295
_cell_length_b 24.032565
_cell_length_c 13.885570
_cell_angle_alpha 90.000000
_cell_angle_beta 141.903164
_cell_angle_gamma 90.000000
_cell_volume 1620.652315
_symmetry_space_group_name_H-M "C M"
_symmetry_group_IT_number 8
_symmetry_cell_setting 'monoclinic'
loop_
_space_group_symop_operation_xyz
x,y,z
x,-y,z
1/2+x,1/2+y,z
1/2+x,1/2-y,z
loop_
_atom_site_type_symbol
_atom_site_label
_atom_site_fract_x
_atom_site_fract_y
_atom_site_fract_z
Si Si1 0.661040 0.826913 0.921410
Si Si2 0.913694 0.934999 0.774074
Si Si3 0.314710 0.933555 0.135245
Si Si4 0.126520 0.674396 0.589183
Si Si5 0.930019 0.561104 0.868421
Si Si6 0.167240 0.135990 0.259068
Si Si7 0.640082 0.255207 0.751618
Si Si8 0.818493 0.936775 0.232217
O O1 0.549485 0.889587 0.857308
O O2 0.759138 0.793068 0.873272
O O3 0.394279 0.793039 0.835264
O O4 0.904980 0.828571 0.107569
O O5 0.126989 0.930466 0.778354
O O6 0.690517 0.886870 0.659833
O O7 0.822166 0.000000 0.736023
O O8 0.092463 0.924031 0.950702
O O9 0.235452 0.903150 0.198112
O O10 0.614300 0.917015 0.225859
O O11 0.322106 0.000000 0.154337
O O12 0.418482 0.703503 0.698146
O O13 0.995523 0.718622 0.604372
O O14 0.936528 0.668486 0.411445
O O15 0.946659 0.500000 0.830246
O O16 0.124129 0.560735 0.050087
O O17 0.065961 0.101548 0.307593
O O18 0.906822 0.000000 0.292836
#
# Coordination Sequence:
#
# PCOD9132693 Si02
#       8
#     4   4   4   4   4   4   4   4
#     4  10  20  39  62  88 108 157 210 246 292 361
#     4   9  17  33  60  90 121 157 196 241 298 362
#     4   9  18  35  60  89 123 165 204 241 292 365
#     4  11  23  41  58  89 121 160 195 252 316 356
#     4   8  14  29  57  87 115 147 192 242 288 347
#     4  11  22  35  60  93 118 153 202 260 304 354
#     4  10  23  42  62  76 120 163 205 250 295 363
#     4   8  16  32  53  84 124 158 189 236 297 356
#
# _framework density 19.745135000000001
#
# number of rings (size 3 to 8) (size 9 to 14) (size 15 to 20)
#    0.000    2.500    1.250    2.625    0.000    2.500 
#    4.500    0.625    0.000    0.000    0.000    0.000 
#    0.000    0.000    0.000    0.000    0.000    0.000 
#
# Total GULP energy -89165.812427 kJ/mol
# GULP energy per Si atom -5572.863277 kJ/mol
# Density = 1.970019 g / cm^3
# Si number density = 19.745135 Si / 1000 Ang^3
#
#
#
# Elastic Constant Matrix: (Units=GPa)
#
#
# Indices 1 2 3 4 5 6 
#
# 1 36.4265 24.9921 6.5941 0.0000 2.1781 0.0000
# 2 24.9921 104.6576 33.9285 0.0000 -2.7329 0.0000
# 3 6.5941 33.9285 61.2069 0.0000 -0.8616 0.0000
# 4 0.0000 0.0000 0.0000 13.9472 0.0000 -15.5859
# 5 2.1781 -2.7329 -0.8616 0.0000 13.7066 0.0000
# 6 0.0000 0.0000 0.0000 -15.5859 0.0000 -21.6626
#
#
#
# Elastic Compliance Matrix: (Units=1/GPa)
#
#
# Indices 1 2 3 4 5 6 
#
# 1 0.033529 -0.008516 0.001010 0.000000 -0.006962 0.000000
# 2 -0.008516 0.013862 -0.006714 0.000000 0.003695 0.000000
# 3 0.001010 -0.006714 0.019948 0.000000 -0.000245 0.000000
# 4 0.000000 0.000000 0.000000 0.039744 0.000000 -0.028595
# 5 -0.006962 0.003695 -0.000245 0.000000 0.074785 0.000000
# 6 0.000000 0.000000 0.000000 -0.028595 0.000000 -0.025589
#
#
# Mechanical properties :
#
#
# Convention : Reuss Voigt Hill
#
# Bulk Modulus (GPa) = 25.70817 37.03559 31.37188
# Shear Modulus (GPa) = 25.29280 10.31667 17.80474
#
# Velocity S-wave (km/s) = 3.58294 2.28829 3.00614
# Velocity P-wave (km/s) = 5.49225 5.07732 5.28886
#
# Compressibility (1/GPa) = 0.03889814
#
# Stress axis : x y z
#
# Youngs Moduli (GPa) = 29.82519 72.14074 50.13110
#
# Poissons Ratio (x) = 0.61435 -0.05065
# Poissons Ratio (y) = 0.25399 0.33660
# Poissons Ratio (z) = -0.03014 0.48438
#
# Static dielectric constant tensor:
#      x y z
#    x 1.744950 0.000000 -0.011130 
#    y 0.000000 1.693080 0.000000 
#    z -0.011130 0.000000 1.683970 
# 
# From -- ./inp_files/25590.got.cif
#   From: 2010.05.17/outbox.cif.g08.bks.cpg/sg8_13_cif.got.tgz:25590.got - 2010.06.03 19:46:02.
