data_PCOD9132239
_publ_section_title
;
Structure prediction by ZEFSAII (Michael W. Deem and Ramdas Pophale) SiO2 
 PCOD9132239
Probable space group: C M
;
_chemical_formula_sum "Si O2"
_cell_formula_units_Z 22
_cell_length_a 30.129209
_cell_length_b 7.440997
_cell_length_c 9.565021
_cell_angle_alpha 90.000000
_cell_angle_beta 37.346344
_cell_angle_gamma 90.000000
_cell_volume 1300.857828
_symmetry_space_group_name_H-M "C M"
_symmetry_group_IT_number 8
_symmetry_cell_setting 'monoclinic'
loop_
_space_group_symop_operation_xyz
x,y,z
x,-y,z
1/2+x,1/2+y,z
1/2+x,1/2-y,z
loop_
_atom_site_type_symbol
_atom_site_label
_atom_site_fract_x
_atom_site_fract_y
_atom_site_fract_z
Si Si1 0.059238 0.000000 0.459828
Si Si2 0.032865 0.000000 0.990538
Si Si3 0.723242 0.500000 0.928190
Si Si4 0.703370 0.500000 0.648883
Si Si5 0.444601 0.500000 0.495894
Si Si6 0.804118 0.202783 0.896576
Si Si7 0.232487 0.707700 0.356925
Si Si8 0.062542 0.711115 0.690360
O O1 0.048105 0.825141 0.586268
O O2 0.005161 0.000000 0.464203
O O3 0.142064 0.000000 0.196231
O O4 0.026160 0.175567 0.908035
O O5 0.115799 0.000000 0.842545
O O6 0.979141 0.000000 0.256184
O O7 0.719350 0.500000 0.771612
O O8 0.766290 0.329018 0.880198
O O9 0.735017 0.328903 0.487214
O O10 0.389603 0.668662 0.655294
O O11 0.771366 0.000000 0.971143
O O12 0.786113 0.267675 0.098088
O O13 0.247196 0.500000 0.353082
O O14 0.149993 0.722485 0.501876
O O15 0.042957 0.500000 0.733383
#
# Coordination Sequence:
#
# PCOD9132239 Si02
#       8
#     2   2   2   2   2   4   4   4
#     4  11  20  35  62  89 114 142 201 248 267 332
#     4   9  18  37  56  81 121 155 177 232 298 343
#     4  12  20  36  61  88 111 151 200 238 279 332
#     4  10  20  30  57  89 108 138 195 247 271 317
#     4  10  22  42  56  83 126 152 181 235 303 338
#     4   9  21  38  60  78 115 157 187 227 290 347
#     4   9  16  33  56  83 108 145 188 231 280 330
#     4   9  18  34  60  87 112 148 194 238 280 334
#
# _framework density 16.911918
#
# number of rings (size 3 to 8) (size 9 to 14) (size 15 to 20)
#    0.545    1.818    2.727    1.091    0.000    0.727 
#    3.273    3.636    0.000    0.000    0.000    0.000 
#    0.000    0.000    0.000    0.000    0.000    0.000 
#
# Total GULP energy -61278.988355 kJ/mol
# GULP energy per Si atom -5570.817123 kJ/mol
# Density = 1.687343 g / cm^3
# Si number density = 16.911918 Si / 1000 Ang^3
#
#
#
# Elastic Constant Matrix: (Units=GPa)
#
#
# Indices 1 2 3 4 5 6 
#
# 1 92.8444 53.7571 54.1289 0.0000 18.8124 0.0000
# 2 53.7571 115.0420 51.2032 0.0000 18.7040 0.0000
# 3 54.1289 51.2032 132.7777 0.0000 25.4043 0.0000
# 4 0.0000 0.0000 0.0000 19.9294 0.0000 2.2957
# 5 18.8124 18.7040 25.4043 0.0000 30.8508 0.0000
# 6 0.0000 0.0000 0.0000 2.2957 0.0000 -18.3259
#
#
#
# Elastic Compliance Matrix: (Units=1/GPa)
#
#
# Indices 1 2 3 4 5 6 
#
# 1 0.017159 -0.005578 -0.004142 0.000000 -0.003671 0.000000
# 2 -0.005578 0.012654 -0.002123 0.000000 -0.002522 0.000000
# 3 -0.004142 -0.002123 0.011050 0.000000 -0.005286 0.000000
# 4 0.000000 0.000000 0.000000 0.049463 0.000000 0.006196
# 5 -0.003671 -0.002522 -0.005286 0.000000 0.040535 0.000000
# 6 0.000000 0.000000 0.000000 0.006196 0.000000 -0.053791
#
#
# Mechanical properties :
#
#
# Convention : Reuss Voigt Hill
#
# Bulk Modulus (GPa) = 58.21681 73.20475 65.71078
# Shear Modulus (GPa) = 46.95675 18.59584 32.77629
#
# Velocity S-wave (km/s) = 5.27501 3.31957 4.40711
# Velocity P-wave (km/s) = 8.46164 7.62054 8.05208
#
# Compressibility (1/GPa) = 0.01717717
#
# Stress axis : x y z
#
# Youngs Moduli (GPa) = 58.27956 79.02659 90.49702
#
# Poissons Ratio (x) = 0.44079 0.37481
# Poissons Ratio (y) = 0.32507 0.19216
# Poissons Ratio (z) = 0.24138 0.16780
#
# Static dielectric constant tensor:
#      x y z
#    x 1.537740 0.000000 -0.006170 
#    y 0.000000 1.585760 0.000000 
#    z -0.006170 0.000000 1.570750 
# 
# From -- ./inp_files/17631.got.cif
#   From: 2010.05.17/outbox.cif.g08.bks.cpg/sg8_9_cif.got.tgz:17631.got - 2010.06.03 19:46:02.
