data_PCOD9132051
_publ_section_title
;
Structure prediction by ZEFSAII (Michael W. Deem and Ramdas Pophale) SiO2 
 PCOD9132051
Probable space group: C M
;
_chemical_formula_sum "Si O2"
_cell_formula_units_Z 32
_cell_length_a 16.656172
_cell_length_b 15.545228
_cell_length_c 11.318109
_cell_angle_alpha 90.000000
_cell_angle_beta 33.531858
_cell_angle_gamma 90.000000
_cell_volume 1618.826398
_symmetry_space_group_name_H-M "C M"
_symmetry_group_IT_number 8
_symmetry_cell_setting 'monoclinic'
loop_
_space_group_symop_operation_xyz
x,y,z
x,-y,z
1/2+x,1/2+y,z
1/2+x,1/2-y,z
loop_
_atom_site_type_symbol
_atom_site_label
_atom_site_fract_x
_atom_site_fract_y
_atom_site_fract_z
Si Si1 0.228900 0.903595 0.185340
Si Si2 0.301947 0.097940 0.643943
Si Si3 0.818725 0.219131 0.527420
Si Si4 0.293789 0.326741 0.989063
Si Si5 0.596574 0.098179 0.435071
Si Si6 0.123198 0.832645 0.076785
Si Si7 0.016799 0.306262 0.776125
Si Si8 0.913743 0.901316 0.623642
O O1 0.172361 0.898977 0.118768
O O2 0.083586 0.875245 0.432189
O O3 0.262329 0.000000 0.179424
O O4 0.377545 0.851400 0.008121
O O5 0.325549 0.177202 0.526046
O O6 0.447906 0.095168 0.542967
O O7 0.273897 0.000000 0.635760
O O8 0.179248 0.132593 0.884176
O O9 0.660056 0.194883 0.677935
O O10 0.849544 0.170310 0.613776
O O11 0.951971 0.184708 0.285354
O O12 0.210889 0.355764 0.208134
O O13 0.201441 0.253330 0.032444
O O14 0.449429 0.286405 0.830389
O O15 0.325339 0.398586 0.853322
O O16 0.558808 0.146944 0.602165
O O17 0.642297 0.000000 0.404329
O O18 0.912098 0.000000 0.579119
#
# Coordination Sequence:
#
# PCOD9132051 Si02
#       8
#     4   4   4   4   4   4   4   4
#     4   9  18  35  60  89 117 156 207 254 303 368
#     4  11  21  39  67  94 122 165 217 264 311 376
#     4  11  23  41  58  98 128 162 203 263 326 374
#     4  11  21  39  61  90 123 165 211 252 307 372
#     4  11  22  39  65  94 121 162 219 265 304 371
#     4  10  19  34  62  86 122 158 204 252 305 372
#     4  11  24  36  63  89 129 163 201 261 321 374
#     4  10  21  39  65  92 124 163 210 257 311 379
#
# _framework density 19.767406999999999
#
# number of rings (size 3 to 8) (size 9 to 14) (size 15 to 20)
#    0.000    1.500    5.000    1.125    3.500    2.500 
#    0.000    2.500    0.000    0.000    0.000    0.000 
#    0.000    0.000    0.000    0.000    0.000    0.000 
#
# Total GULP energy -89220.047624 kJ/mol
# GULP energy per Si atom -5576.252977 kJ/mol
# Density = 1.972242 g / cm^3
# Si number density = 19.767407 Si / 1000 Ang^3
#
#
#
# Elastic Constant Matrix: (Units=GPa)
#
#
# Indices 1 2 3 4 5 6 
#
# 1 38.0967 31.6783 31.3016 0.0000 -28.7132 0.0000
# 2 31.6783 102.5866 52.3067 0.0000 -9.1853 0.0000
# 3 31.3016 52.3067 102.7625 0.0000 -10.0352 0.0000
# 4 0.0000 0.0000 0.0000 24.3395 0.0000 -1.3876
# 5 -28.7132 -9.1853 -10.0352 0.0000 32.2026 0.0000
# 6 0.0000 0.0000 0.0000 -1.3876 0.0000 -4.7515
#
#
#
# Elastic Compliance Matrix: (Units=1/GPa)
#
#
# Indices 1 2 3 4 5 6 
#
# 1 0.183734 -0.030193 -0.026239 0.000000 0.147037 0.000000
# 2 -0.030193 0.018219 -0.002267 0.000000 -0.022431 0.000000
# 3 -0.026239 -0.002267 0.017049 0.000000 -0.018729 0.000000
# 4 0.000000 0.000000 0.000000 0.040413 0.000000 -0.011802
# 5 0.147037 -0.022431 -0.018729 0.000000 0.149923 0.000000
# 6 0.000000 0.000000 0.000000 -0.011802 0.000000 -0.207013
#
#
# Mechanical properties :
#
#
# Convention : Reuss Voigt Hill
#
# Bulk Modulus (GPa) = 9.84210 52.66878 31.25544
# Shear Modulus (GPa) = 14.14072 18.90206 16.52139
#
# Velocity S-wave (km/s) = 2.67751 3.09564 2.89414
# Velocity P-wave (km/s) = 3.81425 6.28327 5.19750
#
# Compressibility (1/GPa) = 0.10160431
#
# Stress axis : x y z
#
# Youngs Moduli (GPa) = 5.44265 54.88821 58.65602
#
# Poissons Ratio (x) = 1.65722 1.53906
# Poissons Ratio (y) = 0.16433 0.13299
# Poissons Ratio (z) = 0.14281 0.12445
#
# Static dielectric constant tensor:
#      x y z
#    x 1.667780 0.000000 0.019790 
#    y 0.000000 1.757600 0.000000 
#    z 0.019790 0.000000 1.724330 
# 
# From -- ./inp_files/23327.got.cif
#   From: 2010.05.17/outbox.cif.g08.bks.cpg/sg8_12_cif.got.tgz:23327.got - 2010.06.03 19:46:02.
