data_PCOD9132487
_publ_section_title
;
Structure prediction by ZEFSAII (Michael W. Deem and Ramdas Pophale) SiO2 
 PCOD9132487
Probable space group: C M
;
_chemical_formula_sum "Si O2"
_cell_formula_units_Z 26
_cell_length_a 5.451296
_cell_length_b 20.601319
_cell_length_c 9.125781
_cell_angle_alpha 90.000000
_cell_angle_beta 103.981021
_cell_angle_gamma 90.000000
_cell_volume 994.500017
_symmetry_space_group_name_H-M "C M"
_symmetry_group_IT_number 8
_symmetry_cell_setting 'monoclinic'
loop_
_space_group_symop_operation_xyz
x,y,z
x,-y,z
1/2+x,1/2+y,z
1/2+x,1/2-y,z
loop_
_atom_site_type_symbol
_atom_site_label
_atom_site_fract_x
_atom_site_fract_y
_atom_site_fract_z
Si Si1 0.961890 0.930819 0.212210
Si Si2 0.630849 0.597428 0.791042
Si Si3 0.728572 0.930998 0.500291
Si Si4 0.912992 0.678947 0.588682
Si Si5 0.091804 0.212179 0.273944
Si Si6 0.483345 0.000000 0.014968
Si Si7 0.082048 0.767445 0.874019
O O1 0.888214 0.929014 0.373955
O O2 0.084229 0.860675 0.203989
O O3 0.112012 0.000000 0.203784
O O4 0.697834 0.944208 0.092324
O O5 0.409759 0.565546 0.666251
O O6 0.506875 0.658260 0.853121
O O7 0.813907 0.627402 0.693783
O O8 0.788169 0.555078 0.923760
O O9 0.577842 0.864428 0.500374
O O10 0.580206 0.000000 0.474948
O O11 0.050656 0.732287 0.710325
O O12 0.684951 0.704907 0.456676
O O13 0.313125 0.256919 0.239688
O O14 0.378503 0.765441 0.947357
#
# Coordination Sequence:
#
# PCOD9132487 Si02
#       7
#     4   4   4   4   4   2   4
#     4   9  23  46  70 100 146 199 237 303 360 432
#     4  11  21  38  68  96 136 184 231 292 356 429
#     4  11  21  39  70 101 139 184 245 298 358 430
#     4  11  23  36  67 109 144 170 230 305 376 422
#     4  12  24  42  78 114 148 184 242 309 375 437
#     4  10  24  46  70  88 148 194 246 288 352 434
#     4  10  20  36  60 102 139 173 213 290 364 424
#
# _framework density 26.143792000000001
#
# number of rings (size 3 to 8) (size 9 to 14) (size 15 to 20)
#    0.462    0.923    3.846    2.769    1.077    0.615 
#    0.000    3.846   13.538    0.000    0.000    0.000 
#    0.000    0.000    0.000    0.000    0.000    0.000 
#
# Total GULP energy -72472.135871 kJ/mol
# GULP energy per Si atom -5574.779682 kJ/mol
# Density = 2.608429 g / cm^3
# Si number density = 26.143792 Si / 1000 Ang^3
#
#
#
# Elastic Constant Matrix: (Units=GPa)
#
#
# Indices 1 2 3 4 5 6 
#
# 1 65.4500 37.3467 40.6380 0.0000 22.9152 0.0000
# 2 37.3467 170.4281 43.5200 0.0000 14.9940 0.0000
# 3 40.6380 43.5200 112.2048 0.0000 21.5344 0.0000
# 4 0.0000 0.0000 0.0000 48.2019 0.0000 12.1771
# 5 22.9152 14.9940 21.5344 0.0000 59.2086 0.0000
# 6 0.0000 0.0000 0.0000 12.1771 0.0000 28.2740
#
#
#
# Elastic Compliance Matrix: (Units=1/GPa)
#
#
# Indices 1 2 3 4 5 6 
#
# 1 0.022714 -0.002939 -0.005958 0.000000 -0.005880 0.000000
# 2 -0.002939 0.006927 -0.001617 0.000000 -0.000029 0.000000
# 3 -0.005958 -0.001617 0.012015 0.000000 -0.001654 0.000000
# 4 0.000000 0.000000 0.000000 0.023279 0.000000 -0.010026
# 5 -0.005880 -0.000029 -0.001654 0.000000 0.019774 0.000000
# 6 0.000000 0.000000 0.000000 -0.010026 0.000000 0.039686
#
#
# Mechanical properties :
#
#
# Convention : Reuss Voigt Hill
#
# Bulk Modulus (GPa) = 48.47763 65.67692 57.07728
# Shear Modulus (GPa) = 32.83046 42.24212 37.53629
#
# Velocity S-wave (km/s) = 3.54752 4.02401 3.79326
# Velocity P-wave (km/s) = 5.94667 6.83858 6.40816
#
# Compressibility (1/GPa) = 0.02062807
#
# Stress axis : x y z
#
# Youngs Moduli (GPa) = 44.02650 144.36385 83.23053
#
# Poissons Ratio (x) = 0.42423 0.49590
# Poissons Ratio (y) = 0.12938 0.13457
# Poissons Ratio (z) = 0.26232 0.23342
#
# Static dielectric constant tensor:
#      x y z
#    x 2.067710 0.000000 -0.024550 
#    y 0.000000 1.912490 0.000000 
#    z -0.024550 0.000000 2.059410 
# 
# From -- ./inp_files/18082.got.cif
#   From: 2010.05.17/outbox.cif.g08.bks.cpg/sg8_10_cif.got.tgz:18082.got - 2010.06.03 19:46:02.
