data_PCOD9132022
_publ_section_title
;
Structure prediction by ZEFSAII (Michael W. Deem and Ramdas Pophale) SiO2 
 PCOD9132022
Probable space group: C M
;
_chemical_formula_sum "Si O2"
_cell_formula_units_Z 32
_cell_length_a 13.082911
_cell_length_b 16.074056
_cell_length_c 12.581898
_cell_angle_alpha 90.000000
_cell_angle_beta 147.036135
_cell_angle_gamma 90.000000
_cell_volume 1439.669256
_symmetry_space_group_name_H-M "C M"
_symmetry_group_IT_number 8
_symmetry_cell_setting 'monoclinic'
loop_
_space_group_symop_operation_xyz
x,y,z
x,-y,z
1/2+x,1/2+y,z
1/2+x,1/2-y,z
loop_
_atom_site_type_symbol
_atom_site_label
_atom_site_fract_x
_atom_site_fract_y
_atom_site_fract_z
Si Si1 0.455040 0.749869 0.589930
Si Si2 0.447046 0.851546 0.373173
Si Si3 0.034781 0.092794 0.524487
Si Si4 0.899367 0.772018 0.979707
Si Si5 0.081688 0.196458 0.362027
Si Si6 0.857553 0.096540 0.756656
Si Si7 0.943229 0.404227 0.990933
Si Si8 0.221850 0.093097 0.995708
O O1 0.425676 0.823058 0.475250
O O2 0.428088 0.663079 0.500805
O O3 0.677915 0.752611 0.811948
O O4 0.297994 0.773382 0.539443
O O5 0.468134 0.767889 0.323879
O O6 0.644697 0.897853 0.533317
O O7 0.284292 0.900898 0.171986
O O8 0.054354 0.119163 0.418015
O O9 0.956434 0.000000 0.468077
O O10 0.246503 0.091880 0.755807
O O11 0.883123 0.843362 0.878098
O O12 0.008265 0.691230 0.022464
O O13 0.999485 0.806623 0.171964
O O14 0.193415 0.000000 0.932022
O O15 0.012619 0.128348 0.807164
O O16 0.022968 0.500000 0.050858
O O17 0.895047 0.383920 0.072491
O O18 0.897062 0.000000 0.815801
#
# Coordination Sequence:
#
# PCOD9132022 Si02
#       8
#     4   4   4   4   4   4   4   4
#     4   9  21  38  58  85 114 153 194 239 291 343
#     4  10  20  35  56  85 117 144 192 243 279 343
#     4   9  20  39  59  85 121 154 194 247 293 347
#     4  10  20  38  58  85 118 152 188 244 286 346
#     4  11  21  36  62  86 111 157 200 230 293 355
#     4  10  22  36  56  86 116 151 189 231 290 349
#     4   9  18  36  58  80 111 150 189 238 290 334
#     4  10  19  34  58  84 112 147 187 236 290 339
#
# _framework density 22.227326999999999
#
# number of rings (size 3 to 8) (size 9 to 14) (size 15 to 20)
#    0.000    2.250    1.250    1.875    3.500    0.500 
#    0.000    4.375    0.000    3.000    0.000    0.000 
#    0.000    0.000    0.000    0.000    0.000    0.000 
#
# Total GULP energy -89084.016990 kJ/mol
# GULP energy per Si atom -5567.751062 kJ/mol
# Density = 2.217674 g / cm^3
# Si number density = 22.227327 Si / 1000 Ang^3
#
#
#
# Elastic Constant Matrix: (Units=GPa)
#
#
# Indices 1 2 3 4 5 6 
#
# 1 33.1511 12.6061 10.2889 0.0000 8.5317 0.0000
# 2 12.6061 94.4104 14.9641 0.0000 -2.2909 0.0000
# 3 10.2889 14.9641 90.2961 0.0000 -3.0569 0.0000
# 4 0.0000 0.0000 0.0000 8.1504 0.0000 2.6178
# 5 8.5317 -2.2909 -3.0569 0.0000 30.3455 0.0000
# 6 0.0000 0.0000 0.0000 2.6178 0.0000 10.6284
#
#
#
# Elastic Compliance Matrix: (Units=1/GPa)
#
#
# Indices 1 2 3 4 5 6 
#
# 1 0.035778 -0.004452 -0.003704 0.000000 -0.010768 0.000000
# 2 -0.004452 0.011444 -0.001322 0.000000 0.001982 0.000000
# 3 -0.003704 -0.001322 0.011788 0.000000 0.002129 0.000000
# 4 0.000000 0.000000 0.000000 0.133233 0.000000 -0.032815
# 5 -0.010768 0.001982 0.002129 0.000000 0.036345 0.000000
# 6 0.000000 0.000000 0.000000 -0.032815 0.000000 0.102170
#
#
# Mechanical properties :
#
#
# Convention : Reuss Voigt Hill
#
# Bulk Modulus (GPa) = 24.96527 32.61954 28.79240
# Shear Modulus (GPa) = 13.77160 21.82474 17.79817
#
# Velocity S-wave (km/s) = 2.49184 3.13691 2.83279
# Velocity P-wave (km/s) = 4.41986 5.27518 4.86635
#
# Compressibility (1/GPa) = 0.04005565
#
# Stress axis : x y z
#
# Youngs Moduli (GPa) = 27.94978 87.38121 84.83284
#
# Poissons Ratio (x) = 0.38898 0.31419
# Poissons Ratio (y) = 0.12442 0.11217
# Poissons Ratio (z) = 0.10352 0.11554
#
# Static dielectric constant tensor:
#      x y z
#    x 1.895650 0.000000 0.033190 
#    y 0.000000 1.966130 0.000000 
#    z 0.033190 0.000000 1.861210 
# 
# From -- ./inp_files/27018.got.cif
#   From: 2010.05.17/outbox.cif.g08.bks.cpg/sg8_14_cif.got.tgz:27018.got - 2010.06.03 19:46:02.
