data_PCOD9132406
_publ_section_title
;
Structure prediction by ZEFSAII (Michael W. Deem and Ramdas Pophale) SiO2 
 PCOD9132406
Probable space group: C M
;
_chemical_formula_sum "Si O2"
_cell_formula_units_Z 32
_cell_length_a 20.420379
_cell_length_b 8.747126
_cell_length_c 25.429725
_cell_angle_alpha 90.000000
_cell_angle_beta 156.752654
_cell_angle_gamma 90.000000
_cell_volume 1792.831184
_symmetry_space_group_name_H-M "C M"
_symmetry_group_IT_number 8
_symmetry_cell_setting 'monoclinic'
loop_
_space_group_symop_operation_xyz
x,y,z
x,-y,z
1/2+x,1/2+y,z
1/2+x,1/2-y,z
loop_
_atom_site_type_symbol
_atom_site_label
_atom_site_fract_x
_atom_site_fract_y
_atom_site_fract_z
Si Si1 0.767260 0.318389 0.639280
Si Si2 0.248813 0.817160 0.276553
Si Si3 0.564229 0.318935 0.798084
Si Si4 0.415491 0.317103 0.090407
Si Si5 0.557156 0.817407 0.302950
Si Si6 0.926574 0.317722 0.588534
Si Si7 0.446657 0.682418 0.329248
Si Si8 0.032899 0.816769 0.560895
O O1 0.802854 0.500000 0.663401
O O2 0.619400 0.288568 0.488204
O O3 0.688999 0.282358 0.638352
O O4 0.928256 0.225982 0.741572
O O5 0.303493 0.747533 0.261250
O O6 0.372204 0.744150 0.410784
O O7 0.061671 0.784731 0.156294
O O8 0.273416 0.000000 0.294384
O O9 0.566807 0.500000 0.792461
O O10 0.504419 0.238784 0.700325
O O11 0.743603 0.258064 0.946852
O O12 0.396863 0.500000 0.080371
O O13 0.477077 0.252343 0.191572
O O14 0.744298 0.754777 0.447010
O O15 0.459178 0.762316 0.282369
O O16 0.560386 0.000000 0.302214
O O17 0.910905 0.500000 0.577004
O O18 0.033960 0.261440 0.618179
O O19 0.430440 0.500000 0.311537
O O20 0.020222 0.000000 0.556672
#
# Coordination Sequence:
#
# PCOD9132406 Si02
#       8
#     4   4   4   4   4   4   4   4
#     4   9  19  36  58  85 120 157 194 240 298 354
#     4  10  20  35  58  87 120 156 197 243 296 353
#     4  12  25  40  61  88 120 159 202 247 296 354
#     4  11  24  42  62  86 122 162 197 241 301 361
#     4  12  23  37  61  91 121 153 201 252 293 348
#     4  12  23  38  60  88 122 157 199 247 299 353
#     4  10  20  35  59  88 121 156 195 244 298 349
#     4  10  20  35  59  89 120 152 195 248 299 348
#
# _framework density 17.848863000000001
#
# number of rings (size 3 to 8) (size 9 to 14) (size 15 to 20)
#    0.000    1.250    2.500    5.625    0.000    4.000 
#    0.000    1.250    0.000    6.000    0.000    0.000 
#    0.000    0.000    0.000    0.000    0.000    0.000 
#
# Total GULP energy -89440.254377 kJ/mol
# GULP energy per Si atom -5590.015899 kJ/mol
# Density = 1.780824 g / cm^3
# Si number density = 17.848863 Si / 1000 Ang^3
#
#
#
# Elastic Constant Matrix: (Units=GPa)
#
#
# Indices 1 2 3 4 5 6 
#
# 1 114.7534 38.2914 37.7076 0.0002 13.8035 0.0000
# 2 38.2914 80.0131 23.5003 0.0002 19.8845 0.0000
# 3 37.7076 23.5003 73.1709 -0.0004 8.4813 -0.0002
# 4 0.0002 0.0002 -0.0004 28.8260 -0.0001 1.0616
# 5 13.8035 19.8845 8.4813 -0.0001 23.5951 0.0000
# 6 0.0000 0.0000 -0.0002 1.0616 0.0000 34.7615
#
#
#
# Elastic Compliance Matrix: (Units=1/GPa)
#
#
# Indices 1 2 3 4 5 6 
#
# 1 0.011723 -0.003752 -0.004600 0.000000 -0.002043 0.000000
# 2 -0.003752 0.018024 -0.002451 0.000000 -0.012113 0.000000
# 3 -0.004600 -0.002451 0.016980 0.000000 -0.001347 0.000000
# 4 0.000000 0.000000 0.000000 0.034730 0.000000 -0.001061
# 5 -0.002043 -0.012113 -0.001347 0.000000 0.054270 0.000000
# 6 0.000000 0.000000 0.000000 -0.001061 0.000000 0.028800
#
#
# Mechanical properties :
#
#
# Convention : Reuss Voigt Hill
#
# Bulk Modulus (GPa) = 39.80529 51.88178 45.84353
# Shear Modulus (GPa) = 25.70611 28.66573 27.18592
#
# Velocity S-wave (km/s) = 3.79913 4.01187 3.90695
# Velocity P-wave (km/s) = 6.44936 7.11270 6.78914
#
# Compressibility (1/GPa) = 0.02512229
#
# Stress axis : x y z
#
# Youngs Moduli (GPa) = 85.29908 55.48269 58.89128
#
# Poissons Ratio (x) = 0.20815 0.27089
# Poissons Ratio (y) = 0.32001 0.14436
# Poissons Ratio (z) = 0.39235 0.13600
#
# Static dielectric constant tensor:
#      x y z
#    x 1.617650 0.000000 0.014860 
#    y 0.000000 1.591450 0.000000 
#    z 0.014860 0.000000 1.574240 
# 
# From -- ./inp_files/33064.got.cif
#   From: 2010.05.17/outbox.cif.g08.bks.cpg/sg8_17_cif.got.tgz:33064.got - 2010.06.03 19:46:02.
