data_PCOD9132338
_publ_section_title
;
Structure prediction by ZEFSAII (Michael W. Deem and Ramdas Pophale) SiO2 
 PCOD9132338
Probable space group: C M
;
_chemical_formula_sum "Si O2"
_cell_formula_units_Z 32
_cell_length_a 21.814207
_cell_length_b 9.138941
_cell_length_c 19.387977
_cell_angle_alpha 90.000000
_cell_angle_beta 21.520667
_cell_angle_gamma 90.000000
_cell_volume 1417.884023
_symmetry_space_group_name_H-M "C M"
_symmetry_group_IT_number 8
_symmetry_cell_setting 'monoclinic'
loop_
_space_group_symop_operation_xyz
x,y,z
x,-y,z
1/2+x,1/2+y,z
1/2+x,1/2-y,z
loop_
_atom_site_type_symbol
_atom_site_label
_atom_site_fract_x
_atom_site_fract_y
_atom_site_fract_z
Si Si1 0.710710 0.169674 0.592050
Si Si2 0.498909 0.331587 0.922010
Si Si3 0.540129 0.329100 0.341982
Si Si4 0.084331 0.174399 0.039106
Si Si5 0.591754 0.825560 0.572174
Si Si6 0.252825 0.177317 0.000539
Si Si7 0.304024 0.826165 0.241570
Si Si8 0.837775 0.665229 0.661476
O O1 0.568714 0.263912 0.778429
O O2 0.881539 0.185451 0.455750
O O3 0.724094 0.197092 0.496459
O O4 0.658558 0.000000 0.653300
O O5 0.447734 0.500000 0.968699
O O6 0.667384 0.328513 0.793697
O O7 0.360157 0.240737 0.109301
O O8 0.571393 0.500000 0.320884
O O9 0.475664 0.262196 0.480317
O O10 0.692671 0.264867 0.137505
O O11 0.953881 0.274817 0.135967
O O12 0.042478 0.000000 0.073397
O O13 0.112581 0.204662 0.089446
O O14 0.264250 0.197355 0.813561
O O15 0.423981 0.774237 0.786265
O O16 0.646227 0.744003 0.446127
O O17 0.581483 0.000000 0.569070
O O18 0.265122 0.000000 0.993929
O O19 0.291575 0.000000 0.250119
O O20 0.900462 0.500000 0.595048
#
# Coordination Sequence:
#
# PCOD9132338 Si02
#       8
#     4   4   4   4   4   4   4   4
#     4   9  17  30  51  77 103 131 166 209 255 304
#     4   9  17  31  52  76 101 129 166 212 260 307
#     4   9  16  28  48  72  96 124 160 202 245 293
#     4   9  17  33  55  76  99 130 171 212 252 302
#     4  10  20  35  53  73 103 142 177 209 252 304
#     4   9  18  33  53  74  98 134 176 210 244 297
#     4  11  21  33  52  78 105 133 171 216 259 303
#     4   8  15  27  46  72  97 121 153 200 251 296
#
# _framework density 22.568842
#
# number of rings (size 3 to 8) (size 9 to 14) (size 15 to 20)
#    0.000    2.750    0.000    3.000    0.000    5.500 
#    0.000    5.625    0.000    3.000    0.000    0.000 
#    0.000    0.000    0.000    0.000    0.000    0.000 
#
# Total GULP energy -89365.453134 kJ/mol
# GULP energy per Si atom -5585.340821 kJ/mol
# Density = 2.251747 g / cm^3
# Si number density = 22.568842 Si / 1000 Ang^3
#
#
#
# Elastic Constant Matrix: (Units=GPa)
#
#
# Indices 1 2 3 4 5 6 
#
# 1 75.3339 15.8943 24.7341 -0.0002 18.7625 0.0001
# 2 15.8943 83.5631 78.8791 -0.0008 22.1472 0.0008
# 3 24.7341 78.8791 151.8001 0.0005 35.0523 -0.0001
# 4 -0.0002 -0.0008 0.0005 35.2521 0.0000 9.4688
# 5 18.7625 22.1472 35.0523 0.0000 46.7404 -0.0001
# 6 0.0001 0.0008 -0.0001 9.4688 -0.0001 6.4408
#
#
#
# Elastic Compliance Matrix: (Units=1/GPa)
#
#
# Indices 1 2 3 4 5 6 
#
# 1 0.014964 -0.000608 -0.000970 0.000000 -0.004992 -0.000001
# 2 -0.000608 0.023735 -0.011724 0.000003 -0.002210 -0.000007
# 3 -0.000970 -0.011724 0.013866 -0.000001 -0.004454 0.000004
# 4 0.000000 0.000003 -0.000001 0.046879 0.000000 -0.068918
# 5 -0.004992 -0.002210 -0.004454 0.000000 0.027786 0.000002
# 6 -0.000001 -0.000007 0.000004 -0.068918 0.000002 0.256579
#
#
# Mechanical properties :
#
#
# Convention : Reuss Voigt Hill
#
# Bulk Modulus (GPa) = 38.51749 61.07913 49.79831
# Shear Modulus (GPa) = 11.93126 30.43263 21.18195
#
# Velocity S-wave (km/s) = 2.30176 3.67609 3.06690
# Velocity P-wave (km/s) = 4.91608 6.71866 5.88677
#
# Compressibility (1/GPa) = 0.02596223
#
# Stress axis : x y z
#
# Youngs Moduli (GPa) = 66.82672 42.13136 72.11766
#
# Poissons Ratio (x) = 0.02562 0.06993
# Poissons Ratio (y) = 0.04063 0.84551
# Poissons Ratio (z) = 0.06480 0.49395
#
# Static dielectric constant tensor:
#      x y z
#    x 1.911540 0.000000 -0.048210 
#    y 0.000000 1.755150 0.000000 
#    z -0.048210 0.000000 1.875270 
# 
# From -- ./inp_files/31645.got.cif
#   From: 2010.05.17/outbox.cif.g08.bks.cpg/sg8_16_cif.got.tgz:31645.got - 2010.06.03 19:46:02.
