data_PCOD9132769
_publ_section_title
;
Structure prediction by ZEFSAII (Michael W. Deem and Ramdas Pophale) SiO2 
 PCOD9132769
Probable space group: C M
;
_chemical_formula_sum "Si O2"
_cell_formula_units_Z 26
_cell_length_a 21.403521
_cell_length_b 7.647180
_cell_length_c 13.878809
_cell_angle_alpha 90.000000
_cell_angle_beta 149.597647
_cell_angle_gamma 90.000000
_cell_volume 1149.604959
_symmetry_space_group_name_H-M "C M"
_symmetry_group_IT_number 8
_symmetry_cell_setting 'monoclinic'
loop_
_space_group_symop_operation_xyz
x,y,z
x,-y,z
1/2+x,1/2+y,z
1/2+x,1/2-y,z
loop_
_atom_site_type_symbol
_atom_site_label
_atom_site_fract_x
_atom_site_fract_y
_atom_site_fract_z
Si Si1 0.320730 0.212225 0.893630
Si Si2 0.065499 0.792636 0.892506
Si Si3 0.061388 0.699951 0.334058
Si Si4 0.317295 0.795703 0.669624
Si Si5 0.074460 0.213036 0.679031
Si Si6 0.831111 0.300579 0.242085
Si Si7 0.459020 0.500000 0.305862
O O1 0.326499 0.274487 0.791342
O O2 0.198948 0.270003 0.789764
O O3 0.320776 0.000000 0.894111
O O4 0.447551 0.262728 0.116344
O O5 0.076754 0.745013 0.794872
O O6 0.945593 0.721730 0.785012
O O7 0.049130 0.000000 0.873843
O O8 0.200075 0.753896 0.116173
O O9 0.039852 0.500000 0.336623
O O10 0.195124 0.708687 0.462326
O O11 0.060326 0.843604 0.416769
O O12 0.291957 0.000000 0.639428
O O13 0.949316 0.289778 0.468304
O O14 0.064027 0.000000 0.651134
O O15 0.818179 0.500000 0.186892
O O16 0.860027 0.155373 0.201407
#
# Coordination Sequence:
#
# PCOD9132769 Si02
#       7
#     4   4   4   4   4   4   2
#     4   9  21  41  66  96 132 175 220 277 338 396
#     4  10  24  44  66  95 137 183 226 277 337 401
#     4  11  23  43  67  96 136 178 220 279 335 401
#     4  11  23  42  69  98 137 179 226 281 336 400
#     4  10  20  41  69  95 133 176 223 280 337 398
#     4  11  24  42  66  98 136 177 221 281 333 400
#     4  12  22  40  66 100 132 174 214 274 342 398
#
# _framework density 22.616464000000001
#
# number of rings (size 3 to 8) (size 9 to 14) (size 15 to 20)
#    0.000    1.538    1.538    2.769    3.231    4.308 
#    6.923    4.615    0.000    0.000    0.000    0.000 
#    0.000    0.000    0.000    0.000    0.000    0.000 
#
# Total GULP energy -72393.486912 kJ/mol
# GULP energy per Si atom -5568.729762 kJ/mol
# Density = 2.256499 g / cm^3
# Si number density = 22.616464 Si / 1000 Ang^3
#
#
#
# Elastic Constant Matrix: (Units=GPa)
#
#
# Indices 1 2 3 4 5 6 
#
# 1 111.1606 30.4381 67.7530 0.0000 46.9965 0.0000
# 2 30.4381 106.6675 25.4677 0.0000 9.5012 0.0000
# 3 67.7530 25.4677 171.8769 0.0000 41.4437 0.0000
# 4 0.0000 0.0000 0.0000 10.4599 0.0000 18.0737
# 5 46.9965 9.5012 41.4437 0.0000 48.3138 0.0000
# 6 0.0000 0.0000 0.0000 18.0737 0.0000 27.5488
#
#
#
# Elastic Compliance Matrix: (Units=1/GPa)
#
#
# Indices 1 2 3 4 5 6 
#
# 1 0.017585 -0.003036 -0.003154 0.000000 -0.013803 0.000000
# 2 -0.003036 0.010271 -0.000694 0.000000 0.001528 0.000000
# 3 -0.003154 -0.000694 0.008058 0.000000 -0.003708 0.000000
# 4 0.000000 0.000000 0.000000 -0.715508 0.000000 0.469418
# 5 -0.013803 0.001528 -0.003708 0.000000 0.037005 0.000000
# 6 0.000000 0.000000 0.000000 0.469418 0.000000 -0.271668
#
#
# Mechanical properties :
#
#
# Convention : Reuss Voigt Hill
#
# Bulk Modulus (GPa) = 45.15084 70.78028 57.96556
# Shear Modulus (GPa) = -5.59843 35.00091 14.70124
#
# Velocity S-wave (km/s) = -1.57504 3.93820 2.55232
# Velocity P-wave (km/s) = 4.08649 7.21409 5.86270
#
# Compressibility (1/GPa) = 0.02214798
#
# Stress axis : x y z
#
# Youngs Moduli (GPa) = 56.86552 97.36482 124.09615
#
# Poissons Ratio (x) = 0.29555 0.39139
# Poissons Ratio (y) = 0.17262 0.08609
# Poissons Ratio (z) = 0.17935 0.06754
#
# Static dielectric constant tensor:
#      x y z
#    x 1.893150 0.000000 -0.034040 
#    y 0.000000 1.861910 0.000000 
#    z -0.034040 0.000000 1.945170 
# 
# From -- ./inp_files/27806.got.cif
#   From: 2010.05.17/outbox.cif.g08.bks.cpg/sg8_14_cif.got.tgz:27806.got - 2010.06.03 19:46:02.
