data_PCOD9132197
_publ_section_title
;
Structure prediction by ZEFSAII (Michael W. Deem and Ramdas Pophale) SiO2 
 PCOD9132197
Probable space group: C M
;
_chemical_formula_sum "Si O2"
_cell_formula_units_Z 24
_cell_length_a 20.957505
_cell_length_b 8.584880
_cell_length_c 19.489682
_cell_angle_alpha 90.000000
_cell_angle_beta 158.236753
_cell_angle_gamma 90.000000
_cell_volume 1300.126742
_symmetry_space_group_name_H-M "C M"
_symmetry_group_IT_number 8
_symmetry_cell_setting 'monoclinic'
loop_
_space_group_symop_operation_xyz
x,y,z
x,-y,z
1/2+x,1/2+y,z
1/2+x,1/2-y,z
loop_
_atom_site_type_symbol
_atom_site_label
_atom_site_fract_x
_atom_site_fract_y
_atom_site_fract_z
Si Si1 0.910850 0.686659 0.100450
Si Si2 0.591831 0.311687 0.686575
Si Si3 0.214462 0.814789 0.309982
Si Si4 0.908482 0.188638 0.251707
Si Si5 0.713708 0.689496 0.656032
Si Si6 0.605806 0.811415 0.052526
O O1 0.918882 0.500000 0.106461
O O2 0.903505 0.744317 0.170827
O O3 0.076464 0.752587 0.226568
O O4 0.740467 0.735153 0.888039
O O5 0.579777 0.500000 0.674578
O O6 0.406238 0.243145 0.517983
O O7 0.648126 0.262967 0.665961
O O8 0.163514 0.750477 0.184094
O O9 0.210107 0.000000 0.304515
O O10 0.742735 0.235060 0.131413
O O11 0.078752 0.239568 0.463473
O O12 0.910210 0.000000 0.249688
O O13 0.713425 0.500000 0.655503
O O14 0.910553 0.739572 0.842221
O O15 0.607580 0.000000 0.058156
#
# Coordination Sequence:
#
# PCOD9132197 Si02
#       6
#     4   4   4   4   4   4
#     4  11  24  42  63  87 123 163 201 247 301 360
#     4  10  20  39  65  88 116 160 208 245 292 359
#     4  12  24  37  60  93 125 155 199 254 303 354
#     4  10  21  37  59  89 125 157 194 246 301 356
#     4   9  17  34  62  89 114 154 202 241 286 353
#     4  10  19  37  63  88 117 159 204 241 291 360
#
# _framework density 18.459738999999999
#
# number of rings (size 3 to 8) (size 9 to 14) (size 15 to 20)
#    0.000    1.667    3.333    2.000    0.000    3.333 
#    0.000    2.500    0.000    0.000    0.000    0.000 
#    0.000    0.000    0.000    0.000    0.000    0.000 
#
# Total GULP energy -67043.300742 kJ/mol
# GULP energy per Si atom -5586.941728 kJ/mol
# Density = 1.841772 g / cm^3
# Si number density = 18.459739 Si / 1000 Ang^3
#
#
#
# Elastic Constant Matrix: (Units=GPa)
#
#
# Indices 1 2 3 4 5 6 
#
# 1 179.3802 40.2657 112.4155 0.0000 2.4481 0.0000
# 2 40.2657 26.4467 42.5310 0.0000 3.8897 0.0000
# 3 112.4155 42.5310 208.0355 0.0000 10.4476 0.0000
# 4 0.0000 0.0000 0.0000 -3.0520 0.0000 -7.5539
# 5 2.4481 3.8897 10.4476 0.0000 36.9248 0.0000
# 6 0.0000 0.0000 0.0000 -7.5539 0.0000 31.1540
#
#
#
# Elastic Compliance Matrix: (Units=1/GPa)
#
#
# Indices 1 2 3 4 5 6 
#
# 1 0.009887 -0.009758 -0.003415 0.000000 0.001339 0.000000
# 2 -0.009758 0.066234 -0.008064 0.000000 -0.004048 0.000000
# 3 -0.003415 -0.008064 0.008366 0.000000 -0.001291 0.000000
# 4 0.000000 0.000000 0.000000 -0.204767 0.000000 -0.049650
# 5 0.001339 -0.004048 -0.001291 0.000000 0.027785 0.000000
# 6 0.000000 0.000000 0.000000 -0.049650 0.000000 0.020060
#
#
# Mechanical properties :
#
#
# Convention : Reuss Voigt Hill
#
# Bulk Modulus (GPa) = 23.80321 89.36520 56.58421
# Shear Modulus (GPa) = -313.36289 27.58204 -142.89043
#
# Velocity S-wave (km/s) = -13.04313 3.86965 -8.80764
# Velocity P-wave (km/s) = 14.62561 8.27536 8.52722
#
# Compressibility (1/GPa) = 0.04201114
#
# Stress axis : x y z
#
# Youngs Moduli (GPa) = 101.14301 15.09800 119.53622
#
# Poissons Ratio (x) = 0.14733 0.40819
# Poissons Ratio (y) = 0.98700 0.96400
# Poissons Ratio (z) = 0.34538 0.12176
#
# Static dielectric constant tensor:
#      x y z
#    x 1.594580 0.000000 0.003960 
#    y 0.000000 1.627240 0.000000 
#    z 0.003960 0.000000 1.631010 
# 
# From -- ./inp_files/15563.got.cif
#   From: 2010.05.17/outbox.cif.g08.bks.cpg/sg8_8_cif.got.tgz:15563.got - 2010.06.03 19:46:02.
