data_PCOD9132263
_publ_section_title
;
Structure prediction by ZEFSAII (Michael W. Deem and Ramdas Pophale) SiO2 
 PCOD9132263
Probable space group: C M
;
_chemical_formula_sum "Si O2"
_cell_formula_units_Z 32
_cell_length_a 21.392167
_cell_length_b 9.085885
_cell_length_c 22.623892
_cell_angle_alpha 90.000000
_cell_angle_beta 158.514487
_cell_angle_gamma 90.000000
_cell_volume 1610.593330
_symmetry_space_group_name_H-M "C M"
_symmetry_group_IT_number 8
_symmetry_cell_setting 'monoclinic'
loop_
_space_group_symop_operation_xyz
x,y,z
x,-y,z
1/2+x,1/2+y,z
1/2+x,1/2-y,z
loop_
_atom_site_type_symbol
_atom_site_label
_atom_site_fract_x
_atom_site_fract_y
_atom_site_fract_z
Si Si1 0.585070 0.328372 0.427990
Si Si2 0.645592 0.659625 0.613688
Si Si3 0.818056 0.837209 0.851679
Si Si4 0.824761 0.162700 0.414997
Si Si5 0.005515 0.666845 0.668287
Si Si6 0.241077 0.176733 0.103172
Si Si7 0.991070 0.677585 0.786577
Si Si8 0.141122 0.326309 0.139239
O O1 0.570487 0.500000 0.397118
O O2 0.551559 0.320263 0.469170
O O3 0.436712 0.235042 0.266043
O O4 0.786905 0.287501 0.604114
O O5 0.737893 0.500000 0.690323
O O6 0.753782 0.799160 0.728937
O O7 0.508578 0.647455 0.545163
O O8 0.667173 0.836918 0.766802
O O9 0.897312 0.000000 0.922759
O O10 0.941964 0.702703 0.973219
O O11 0.721221 0.235336 0.270488
O O12 0.857860 0.244861 0.504857
O O13 0.753647 0.000000 0.363350
O O14 0.943647 0.500000 0.621357
O O15 0.054240 0.719066 0.776333
O O16 0.189098 0.240984 0.121827
O O17 0.236811 0.000000 0.098900
O O18 0.105538 0.242756 0.936681
O O19 0.005880 0.500000 0.808651
O O20 0.183051 0.500000 0.170724
#
# Coordination Sequence:
#
# PCOD9132263 Si02
#       8
#     4   4   4   4   4   4   4   4
#     4  10  20  38  63  88 117 159 207 248 297 364
#     4   9  16  31  54  80 108 144 189 235 290 355
#     4  10  20  33  53  85 119 151 190 244 305 351
#     4   9  18  33  56  81 109 146 187 234 289 350
#     4   9  20  39  59  83 115 153 199 246 293 345
#     4  12  25  39  61  94 128 158 195 254 314 360
#     4  10  22  42  66  88 118 167 215 249 292 359
#     4  11  21  37  58  85 118 154 196 238 294 368
#
# _framework density 19.868455000000001
#
# number of rings (size 3 to 8) (size 9 to 14) (size 15 to 20)
#    0.000    2.000    1.250    2.625    0.000    4.000 
#    2.250    0.000    0.000    0.000    0.000    0.000 
#    0.000    0.000    0.000    0.000    0.000    0.000 
#
# Total GULP energy -89081.753286 kJ/mol
# GULP energy per Si atom -5567.609580 kJ/mol
# Density = 1.982323 g / cm^3
# Si number density = 19.868455 Si / 1000 Ang^3
#
#
#
# Elastic Constant Matrix: (Units=GPa)
#
#
# Indices 1 2 3 4 5 6 
#
# 1 56.0309 37.0710 41.6424 0.0000 -23.0613 0.0000
# 2 37.0710 78.3990 60.3237 -0.0005 -12.9619 0.0001
# 3 41.6424 60.3237 117.7229 0.0004 -21.9863 0.0007
# 4 0.0000 -0.0005 0.0004 26.6962 0.0002 -6.3816
# 5 -23.0613 -12.9619 -21.9863 0.0002 31.2445 0.0002
# 6 0.0000 0.0001 0.0007 -6.3816 0.0002 16.6105
#
#
#
# Elastic Compliance Matrix: (Units=1/GPa)
#
#
# Indices 1 2 3 4 5 6 
#
# 1 0.035607 -0.011105 -0.003289 0.000000 0.019360 0.000000
# 2 -0.011105 0.024569 -0.009543 0.000001 -0.004719 0.000001
# 3 -0.003289 -0.009543 0.015376 -0.000001 0.004433 -0.000001
# 4 0.000000 0.000001 -0.000001 0.041247 -0.000001 0.015846
# 5 0.019360 -0.004719 0.004433 -0.000001 0.047457 -0.000001
# 6 0.000000 0.000001 -0.000001 0.015846 -0.000001 0.066291
#
#
# Mechanical properties :
#
#
# Convention : Reuss Voigt Hill
#
# Bulk Modulus (GPa) = 36.13013 58.91411 47.52212
# Shear Modulus (GPa) = 17.38248 22.45129 19.91688
#
# Velocity S-wave (km/s) = 2.96104 3.36519 3.16956
# Velocity P-wave (km/s) = 5.46942 6.69446 6.11270
#
# Compressibility (1/GPa) = 0.02767773
#
# Stress axis : x y z
#
# Youngs Moduli (GPa) = 28.08400 40.70233 65.03730
#
# Poissons Ratio (x) = 0.45201 0.21392
# Poissons Ratio (y) = 0.31188 0.62062
# Poissons Ratio (z) = 0.09237 0.38840
#
# Static dielectric constant tensor:
#      x y z
#    x 1.737600 0.000000 0.029370 
#    y 0.000000 1.725840 0.000000 
#    z 0.029370 0.000000 1.765670 
# 
# From -- ./inp_files/32360.got.cif
#   From: 2010.05.17/outbox.cif.g08.bks.cpg/sg8_17_cif.got.tgz:32360.got - 2010.06.03 19:46:02.
