data_PCOD9132133
_publ_section_title
;
Structure prediction by ZEFSAII (Michael W. Deem and Ramdas Pophale) SiO2 
 PCOD9132133
Probable space group: C M
;
_chemical_formula_sum "Si O2"
_cell_formula_units_Z 32
_cell_length_a 14.643358
_cell_length_b 8.769803
_cell_length_c 14.203847
_cell_angle_alpha 90.000000
_cell_angle_beta 105.405028
_cell_angle_gamma 90.000000
_cell_volume 1758.514754
_symmetry_space_group_name_H-M "C M"
_symmetry_group_IT_number 8
_symmetry_cell_setting 'monoclinic'
loop_
_space_group_symop_operation_xyz
x,y,z
x,-y,z
1/2+x,1/2+y,z
1/2+x,1/2-y,z
loop_
_atom_site_type_symbol
_atom_site_label
_atom_site_fract_x
_atom_site_fract_y
_atom_site_fract_z
Si Si1 0.252210 0.818289 0.712210
Si Si2 0.766206 0.315650 0.504622
Si Si3 0.593117 0.179990 0.984578
Si Si4 0.429063 0.319851 0.840927
Si Si5 0.089230 0.678984 0.774478
Si Si6 0.576437 0.316499 0.340993
Si Si7 0.191782 0.316330 0.202616
Si Si8 0.876124 0.683989 0.351260
O O1 0.276277 0.760778 0.613863
O O2 0.324519 0.744961 0.805904
O O3 0.147519 0.767898 0.713047
O O4 0.260713 0.000000 0.717169
O O5 0.771144 0.500000 0.508874
O O6 0.661770 0.277552 0.436574
O O7 0.842875 0.267140 0.447534
O O8 0.492943 0.266588 0.946807
O O9 0.636497 0.199772 0.891636
O O10 0.573011 0.000000 0.989314
O O11 0.658644 0.226941 0.088472
O O12 0.429559 0.500000 0.834740
O O13 0.485680 0.245239 0.768112
O O14 0.084746 0.500000 0.752264
O O15 0.572829 0.500000 0.330839
O O16 0.611712 0.242706 0.252993
O O17 0.476125 0.253284 0.348058
O O18 0.199702 0.500000 0.210585
O O19 0.290700 0.241425 0.261058
O O20 0.880236 0.500000 0.349536
#
# Coordination Sequence:
#
# PCOD9132133 Si02
#       8
#     4   4   4   4   4   4   4   4
#     4  11  20  35  57  82 109 144 182 223 270 320
#     4   8  19  36  55  78 110 143 179 224 270 316
#     4   8  18  37  57  77 110 144 177 224 271 314
#     4  10  20  35  54  78 108 143 181 222 266 316
#     4   9  19  37  54  76 108 142 179 225 266 313
#     4  10  20  37  57  82 111 142 178 223 270 322
#     4  10  19  36  59  83 109 141 179 223 271 320
#     4  10  20  37  57  82 111 143 179 220 268 325
#
# _framework density 18.197174
#
# number of rings (size 3 to 8) (size 9 to 14) (size 15 to 20)
#    0.750    1.750    0.000    3.375    0.000    2.000 
#    2.250   10.000    0.000    0.000    0.000    0.000 
#    0.000    0.000    0.000    0.000    0.000    0.000 
#
# Total GULP energy -89108.078447 kJ/mol
# GULP energy per Si atom -5569.254903 kJ/mol
# Density = 1.815576 g / cm^3
# Si number density = 18.197174 Si / 1000 Ang^3
#
#
#
# Elastic Constant Matrix: (Units=GPa)
#
#
# Indices 1 2 3 4 5 6 
#
# 1 92.1255 14.8836 7.4910 0.0000 -7.3709 0.0000
# 2 14.8836 26.3331 49.2134 0.0000 5.0502 0.0000
# 3 7.4910 49.2134 20.0954 0.0000 -8.5152 0.0000
# 4 0.0000 0.0000 0.0000 18.7357 0.0000 -3.2404
# 5 -7.3709 5.0502 -8.5152 0.0000 9.6579 0.0000
# 6 0.0000 0.0000 0.0000 -3.2404 0.0000 28.8820
#
#
#
# Elastic Compliance Matrix: (Units=1/GPa)
#
#
# Indices 1 2 3 4 5 6 
#
# 1 0.011435 0.000809 -0.004350 0.000000 0.004469 0.000000
# 2 0.000809 -0.004818 0.020478 0.000000 0.021192 0.000000
# 3 -0.004350 0.020478 -0.007522 0.000000 -0.020660 0.000000
# 4 0.000000 0.000000 0.000000 0.054430 0.000000 0.006107
# 5 0.004469 0.021192 -0.020660 0.000000 0.077656 0.000000
# 6 0.000000 0.000000 0.000000 0.006107 0.000000 0.035309
#
#
# Mechanical properties :
#
#
# Convention : Reuss Voigt Hill
#
# Bulk Modulus (GPa) = 30.33050 31.30332 30.81691
# Shear Modulus (GPa) = 34.81778 15.91952 25.36865
#
# Velocity S-wave (km/s) = 4.37894 2.96097 3.73781
# Velocity P-wave (km/s) = 6.50160 5.37861 5.96658
#
# Compressibility (1/GPa) = 0.03297011
#
# Stress axis : x y z
#
# Youngs Moduli (GPa) = 87.44799 -207.54441 -132.94380
#
# Poissons Ratio (x) = 0.16787 -0.57828
# Poissons Ratio (y) = -0.07073 2.72248
# Poissons Ratio (z) = 0.38038 4.25019
#
# Static dielectric constant tensor:
#      x y z
#    x 1.609200 0.000000 -0.014820 
#    y 0.000000 1.603490 0.000000 
#    z -0.014820 0.000000 1.651650 
# 
# From -- ./inp_files/26464.got.cif
#   From: 2010.05.17/outbox.cif.g08.bks.cpg/sg8_14_cif.got.tgz:26464.got - 2010.06.03 19:46:02.
