data_PCOD9132424
_publ_section_title
;
Structure prediction by ZEFSAII (Michael W. Deem and Ramdas Pophale) SiO2 
 PCOD9132424
Probable space group: C M
;
_chemical_formula_sum "Si O2"
_cell_formula_units_Z 28
_cell_length_a 18.016600
_cell_length_b 11.801228
_cell_length_c 5.430884
_cell_angle_alpha 90.000000
_cell_angle_beta 90.156608
_cell_angle_gamma 90.000000
_cell_volume 1154.699405
_symmetry_space_group_name_H-M "C M"
_symmetry_group_IT_number 8
_symmetry_cell_setting 'monoclinic'
loop_
_space_group_symop_operation_xyz
x,y,z
x,-y,z
1/2+x,1/2+y,z
1/2+x,1/2-y,z
loop_
_atom_site_type_symbol
_atom_site_label
_atom_site_fract_x
_atom_site_fract_y
_atom_site_fract_z
Si Si1 0.293490 0.266089 0.042970
Si Si2 0.370877 0.127754 0.394761
Si Si3 0.714579 0.620859 0.655580
Si Si4 0.644300 0.234295 0.303760
Si Si5 0.438124 0.631210 0.540678
Si Si6 0.532908 0.373116 0.038564
Si Si7 0.671119 0.000000 0.397203
Si Si8 0.269946 0.500000 0.895629
O O1 0.355839 0.176478 0.118924
O O2 0.232862 0.285716 0.258898
O O3 0.238831 0.214812 0.843999
O O4 0.318030 0.387740 0.946198
O O5 0.288061 0.108423 0.492794
O O6 0.397488 0.244271 0.530561
O O7 0.406199 0.000000 0.404151
O O8 0.701574 0.500000 0.775944
O O9 0.645822 0.662471 0.495131
O O10 0.594692 0.276574 0.079395
O O11 0.621710 0.113442 0.409272
O O12 0.403881 0.500000 0.538652
O O13 0.480953 0.635610 0.279476
O O14 0.488960 0.636491 0.783337
O O15 0.564972 0.500000 0.048010
O O16 0.728149 0.000000 0.631382
O O17 0.708635 0.000000 0.120085
#
# Coordination Sequence:
#
# PCOD9132424 Si02
#       8
#     4   4   4   4   4   4   2   2
#     4  10  21  36  61  93 127 164 202 254 314 382
#     4  10  23  42  61  92 127 162 210 264 312 371
#     4  10  20  35  60  92 124 160 202 251 316 379
#     4  10  21  38  59  92 127 161 201 254 318 371
#     4  10  24  46  66  92 122 164 219 261 306 366
#     4  10  23  43  67  92 122 161 212 263 305 368
#     4  10  20  36  56  86 130 162 196 248 289 376
#     4  10  20  36  56  88 130 164 202 240 299 364
#
# _framework density 24.248735
#
# number of rings (size 3 to 8) (size 9 to 14) (size 15 to 20)
#    0.000    2.000    1.429    0.857    5.000    1.714 
#    5.143    0.000    0.000    0.000    0.000    0.000 
#    0.000    0.000    0.000    0.000    0.000    0.000 
#
# Total GULP energy -77975.651896 kJ/mol
# GULP energy per Si atom -5569.689421 kJ/mol
# Density = 2.419354 g / cm^3
# Si number density = 24.248735 Si / 1000 Ang^3
#
#
#
# Elastic Constant Matrix: (Units=GPa)
#
#
# Indices 1 2 3 4 5 6 
#
# 1 44.6800 56.9592 27.9895 0.0000 2.8405 0.0000
# 2 56.9592 226.3330 36.9061 0.0000 19.1273 0.0000
# 3 27.9895 36.9061 122.5692 0.0000 11.1710 0.0000
# 4 0.0000 0.0000 0.0000 78.4000 0.0000 21.4792
# 5 2.8405 19.1273 11.1710 0.0000 30.2237 0.0000
# 6 0.0000 0.0000 0.0000 21.4792 0.0000 16.6965
#
#
#
# Elastic Compliance Matrix: (Units=1/GPa)
#
#
# Indices 1 2 3 4 5 6 
#
# 1 0.037086 -0.008679 -0.006249 0.000000 0.004317 0.000000
# 2 -0.008679 0.006869 0.000244 0.000000 -0.003621 0.000000
# 3 -0.006249 0.000244 0.009803 0.000000 -0.003190 0.000000
# 4 0.000000 0.000000 0.000000 0.019697 0.000000 -0.025340
# 5 0.004317 -0.003621 -0.003190 0.000000 0.036152 0.000000
# 6 0.000000 0.000000 0.000000 -0.025340 0.000000 0.092491
#
#
# Mechanical properties :
#
#
# Convention : Reuss Voigt Hill
#
# Bulk Modulus (GPa) = 41.00180 70.81020 55.90600
# Shear Modulus (GPa) = 20.86848 43.17919 32.02384
#
# Velocity S-wave (km/s) = 2.93678 4.22439 3.63800
# Velocity P-wave (km/s) = 5.33340 7.28416 6.38373
#
# Compressibility (1/GPa) = 0.02438917
#
# Stress axis : x y z
#
# Youngs Moduli (GPa) = 26.96468 145.58828 102.00938
#
# Poissons Ratio (x) = 1.26354 0.63745
# Poissons Ratio (y) = 0.23402 -0.02486
# Poissons Ratio (z) = 0.16850 -0.03548
#
# Static dielectric constant tensor:
#      x y z
#    x 2.039920 0.000000 -0.133880 
#    y 0.000000 2.049720 0.000000 
#    z -0.133880 0.000000 1.973000 
# 
# From -- ./inp_files/5416.got.cif
#   From: 2010.05.17/outbox.cif.g08.bks.cpg/sg8_3_cif.got.tgz:5416.got - 2010.06.03 19:46:02.
