data_PCOD9132087
_publ_section_title
;
Structure prediction by ZEFSAII (Michael W. Deem and Ramdas Pophale) SiO2 
 PCOD9132087
Probable space group: C M
;
_chemical_formula_sum "Si O2"
_cell_formula_units_Z 32
_cell_length_a 28.452173
_cell_length_b 8.714539
_cell_length_c 21.546707
_cell_angle_alpha 90.000000
_cell_angle_beta 160.738091
_cell_angle_gamma 90.000000
_cell_volume 1762.405310
_symmetry_space_group_name_H-M "C M"
_symmetry_group_IT_number 8
_symmetry_cell_setting 'monoclinic'
loop_
_space_group_symop_operation_xyz
x,y,z
x,-y,z
1/2+x,1/2+y,z
1/2+x,1/2-y,z
loop_
_atom_site_type_symbol
_atom_site_label
_atom_site_fract_x
_atom_site_fract_y
_atom_site_fract_z
Si Si1 0.774800 0.677966 0.659830
Si Si2 0.170154 0.814281 0.725575
Si Si3 0.199844 0.817389 0.250420
Si Si4 0.030659 0.683903 0.675770
Si Si5 0.191613 0.817296 0.994850
Si Si6 0.948949 0.677617 0.007345
Si Si7 0.007222 0.186310 0.394878
Si Si8 0.550934 0.814809 0.942987
O O1 0.752313 0.500000 0.614581
O O2 0.859498 0.678931 0.831137
O O3 0.620431 0.743209 0.484097
O O4 0.888978 0.743110 0.753876
O O5 0.333375 0.766895 0.913574
O O6 0.104906 0.740214 0.705186
O O7 0.073259 0.775565 0.544752
O O8 0.170416 0.000000 0.731157
O O9 0.363216 0.774506 0.466274
O O10 0.191891 0.000000 0.231580
O O11 0.144330 0.736611 0.118539
O O12 0.092011 0.769582 0.171076
O O13 0.041033 0.500000 0.693133
O O14 0.108455 0.759389 0.830883
O O15 0.116327 0.750378 0.962120
O O16 0.192031 0.000000 0.998001
O O17 0.352687 0.755498 0.194115
O O18 0.984640 0.500000 0.064691
O O19 0.000949 0.000000 0.383909
O O20 0.549036 0.000000 0.938891
#
# Coordination Sequence:
#
# PCOD9132087 Si02
#       8
#     4   4   4   4   4   4   4   4
#     4   7  13  28  53  82 106 132 169 209 250 307
#     4   9  18  34  58  85 109 137 175 216 259 313
#     4  10  20  34  55  84 111 136 175 221 261 309
#     4  11  24  39  53  73 105 144 183 221 264 313
#     4  12  25  38  52  75 107 141 181 224 264 311
#     4   8  15  30  53  81 110 138 170 210 260 314
#     4   9  17  34  59  83 108 139 173 210 259 315
#     4  10  19  35  59  83 108 139 174 213 263 318
#
# _framework density 18.157004000000001
#
# number of rings (size 3 to 8) (size 9 to 14) (size 15 to 20)
#    0.000    2.500    0.000    5.250    0.000    5.000 
#    0.000    6.875    0.000    1.500    0.000    0.000 
#    0.000    0.000    0.000    0.000    0.000    0.000 
#
# Total GULP energy -89217.104645 kJ/mol
# GULP energy per Si atom -5576.069040 kJ/mol
# Density = 1.811568 g / cm^3
# Si number density = 18.157004 Si / 1000 Ang^3
#
#
#
# Elastic Constant Matrix: (Units=GPa)
#
#
# Indices 1 2 3 4 5 6 
#
# 1 98.2177 50.6479 126.8146 0.0000 37.2787 0.0000
# 2 50.6479 54.5982 53.2282 0.0000 10.0254 0.0000
# 3 126.8146 53.2282 122.6197 0.0000 34.3892 0.0000
# 4 0.0000 0.0000 0.0000 23.9071 0.0000 1.0366
# 5 37.2787 10.0254 34.3892 0.0000 31.2954 0.0000
# 6 0.0000 0.0000 0.0000 1.0366 0.0000 21.9248
#
#
#
# Elastic Compliance Matrix: (Units=1/GPa)
#
#
# Indices 1 2 3 4 5 6 
#
# 1 -0.029761 -0.003931 0.032075 0.000000 0.001465 0.000000
# 2 -0.003931 0.032395 -0.012141 0.000000 0.007647 0.000000
# 3 0.032075 -0.012141 -0.014631 0.000000 -0.018241 0.000000
# 4 0.000000 0.000000 0.000000 0.041914 0.000000 -0.001982
# 5 0.001465 0.007647 -0.018241 0.000000 0.047803 0.000000
# 6 0.000000 0.000000 0.000000 -0.001982 0.000000 0.045704
#
#
# Mechanical properties :
#
#
# Convention : Reuss Voigt Hill
#
# Bulk Modulus (GPa) = 49.97989 81.86855 65.92422
# Shear Modulus (GPa) = 50.97436 18.40846 34.69141
#
# Velocity S-wave (km/s) = 5.30426 3.18755 4.37582
# Velocity P-wave (km/s) = 8.06845 7.66384 7.86874
#
# Compressibility (1/GPa) = 0.02000805
#
# Stress axis : x y z
#
# Youngs Moduli (GPa) = -33.60093 30.86919 -68.34797
#
# Poissons Ratio (x) = 0.12135 2.19226
# Poissons Ratio (y) = -0.13209 -0.82982
# Poissons Ratio (z) = 1.07775 0.37478
#
# Static dielectric constant tensor:
#      x y z
#    x 1.621140 0.000000 0.035910 
#    y 0.000000 1.609110 0.000000 
#    z 0.035910 0.000000 1.618240 
# 
# From -- ./inp_files/31351.got.cif
#   From: 2010.05.17/outbox.cif.g08.bks.cpg/sg8_16_cif.got.tgz:31351.got - 2010.06.03 19:46:02.
