data_PCOD9132556
_publ_section_title
;
Structure prediction by ZEFSAII (Michael W. Deem and Ramdas Pophale) SiO2 
 PCOD9132556
Probable space group: C M
;
_chemical_formula_sum "Si O2"
_cell_formula_units_Z 28
_cell_length_a 19.287613
_cell_length_b 13.601097
_cell_length_c 9.090312
_cell_angle_alpha 90.000000
_cell_angle_beta 40.576789
_cell_angle_gamma 90.000000
_cell_volume 1551.158570
_symmetry_space_group_name_H-M "C M"
_symmetry_group_IT_number 8
_symmetry_cell_setting 'monoclinic'
loop_
_space_group_symop_operation_xyz
x,y,z
x,-y,z
1/2+x,1/2+y,z
1/2+x,1/2-y,z
loop_
_atom_site_type_symbol
_atom_site_label
_atom_site_fract_x
_atom_site_fract_y
_atom_site_fract_z
Si Si1 0.710620 0.737852 0.009510
Si Si2 0.403944 0.883494 0.573925
Si Si3 0.012199 0.293417 0.124520
Si Si4 0.631817 0.885816 0.664924
Si Si5 0.870474 0.114099 0.900153
Si Si6 0.870368 0.112331 0.250319
Si Si7 0.063421 0.749234 0.507316
O O1 0.618359 0.766015 0.044432
O O2 0.651060 0.706715 0.255765
O O3 0.791173 0.659468 0.809920
O O4 0.781892 0.830507 0.946421
O O5 0.433065 0.850993 0.361373
O O6 0.493321 0.829905 0.529291
O O7 0.408624 0.000000 0.581684
O O8 0.953078 0.194412 0.167533
O O9 0.050958 0.357923 0.924763
O O10 0.755505 0.875024 0.512700
O O11 0.611773 0.809960 0.565427
O O12 0.618363 0.000000 0.641006
O O13 0.982235 0.167450 0.690617
O O14 0.873813 0.000000 0.856269
O O15 0.848983 0.122225 0.109562
O O16 0.907690 0.000000 0.216037
#
# Coordination Sequence:
#
# PCOD9132556 Si02
#       7
#     4   4   4   4   4   4   4
#     4  10  22  38  60  83 117 156 191 245 291 346
#     4  10  22  39  57  83 117 157 196 237 292 351
#     4  11  22  39  58  87 122 154 195 244 297 345
#     4  11  21  35  59  88 117 155 198 243 292 349
#     4  10  20  37  61  88 114 150 196 241 289 348
#     4  10  21  37  60  88 119 154 195 244 292 347
#     4  10  20  37  59  87 116 150 193 248 291 346
#
# _framework density 18.051024999999999
#
# number of rings (size 3 to 8) (size 9 to 14) (size 15 to 20)
#    0.000    1.714    2.857    1.714    0.000    4.000 
#    0.000    8.571    0.000    0.857    0.000    0.000 
#    0.000    0.000    0.000    0.000    0.000    0.000 
#
# Total GULP energy -78141.446227 kJ/mol
# GULP energy per Si atom -5581.531873 kJ/mol
# Density = 1.800994 g / cm^3
# Si number density = 18.051025 Si / 1000 Ang^3
#
#
#
# Elastic Constant Matrix: (Units=GPa)
#
#
# Indices 1 2 3 4 5 6 
#
# 1 43.9739 16.1445 18.2322 0.0000 -8.0810 0.0000
# 2 16.1445 100.1436 51.8882 0.0000 -12.1539 0.0000
# 3 18.2322 51.8882 138.1940 0.0000 -0.2321 0.0000
# 4 0.0000 0.0000 0.0000 26.0351 0.0000 2.2657
# 5 -8.0810 -12.1539 -0.2321 0.0000 27.6901 0.0000
# 6 0.0000 0.0000 0.0000 2.2657 0.0000 18.6151
#
#
#
# Elastic Compliance Matrix: (Units=1/GPa)
#
#
# Indices 1 2 3 4 5 6 
#
# 1 0.025784 -0.001980 -0.002647 0.000000 0.006634 0.000000
# 2 -0.001980 0.013414 -0.004767 0.000000 0.005270 0.000000
# 3 -0.002647 -0.004767 0.009371 0.000000 -0.002786 0.000000
# 4 0.000000 0.000000 0.000000 0.038821 0.000000 -0.004725
# 5 0.006634 0.005270 -0.002786 0.000000 0.040340 0.000000
# 6 0.000000 0.000000 0.000000 -0.004725 0.000000 0.054295
#
#
# Mechanical properties :
#
#
# Convention : Reuss Voigt Hill
#
# Bulk Modulus (GPa) = 33.57809 50.53792 42.05800
# Shear Modulus (GPa) = 23.72599 27.53784 25.63191
#
# Velocity S-wave (km/s) = 3.62938 3.91007 3.77234
# Velocity P-wave (km/s) = 6.01709 6.96010 6.50570
#
# Compressibility (1/GPa) = 0.02978133
#
# Stress axis : x y z
#
# Youngs Moduli (GPa) = 38.78323 74.54770 106.71787
#
# Poissons Ratio (x) = 0.14761 0.28250
# Poissons Ratio (y) = 0.07680 0.50868
# Poissons Ratio (z) = 0.10267 0.35534
#
# Static dielectric constant tensor:
#      x y z
#    x 1.606270 0.000000 0.011050 
#    y 0.000000 1.572070 0.000000 
#    z 0.011050 0.000000 1.639400 
# 
# From -- ./inp_files/10498.got.cif
#   From: 2010.05.17/outbox.cif.g08.bks.cpg/sg8_6_cif.got.tgz:10498.got - 2010.06.03 19:46:02.
