data_PCOD9132646
_publ_section_title
;
Structure prediction by ZEFSAII (Michael W. Deem and Ramdas Pophale) SiO2 
 PCOD9132646
Probable space group: C M
;
_chemical_formula_sum "Si O2"
_cell_formula_units_Z 32
_cell_length_a 16.780003
_cell_length_b 9.116708
_cell_length_c 21.241114
_cell_angle_alpha 90.000000
_cell_angle_beta 149.812190
_cell_angle_gamma 90.000000
_cell_volume 1633.931254
_symmetry_space_group_name_H-M "C M"
_symmetry_group_IT_number 8
_symmetry_cell_setting 'monoclinic'
loop_
_space_group_symop_operation_xyz
x,y,z
x,-y,z
1/2+x,1/2+y,z
1/2+x,1/2-y,z
loop_
_atom_site_type_symbol
_atom_site_label
_atom_site_fract_x
_atom_site_fract_y
_atom_site_fract_z
Si Si1 0.006710 0.322528 0.657200
Si Si2 0.421143 0.167280 0.734477
Si Si3 0.435629 0.338572 0.220122
Si Si4 0.731008 0.827625 0.390634
Si Si5 0.617713 0.825450 0.068193
Si Si6 0.832155 0.176225 0.805357
Si Si7 0.562621 0.344389 0.448333
Si Si8 0.293990 0.830080 0.303796
O O1 0.985955 0.500000 0.640979
O O2 0.156528 0.286392 0.713598
O O3 0.026987 0.284254 0.746004
O O4 0.849436 0.244744 0.522624
O O5 0.387009 0.259578 0.774627
O O6 0.247486 0.159911 0.584569
O O7 0.468840 0.000000 0.785107
O O8 0.455217 0.500000 0.202584
O O9 0.544496 0.210872 0.268520
O O10 0.250980 0.306844 0.104391
O O11 0.508708 0.353020 0.339846
O O12 0.772361 0.748614 0.354488
O O13 0.755463 0.000000 0.407686
O O14 0.693275 0.752274 0.181580
O O15 0.597682 0.000000 0.063372
O O16 0.458212 0.745523 0.939610
O O17 0.841979 0.000000 0.810228
O O18 0.504992 0.500000 0.438924
O O19 0.478585 0.199778 0.415718
O O20 0.255534 0.000000 0.278934
#
# Coordination Sequence:
#
# PCOD9132646 Si02
#       8
#     4   4   4   4   4   4   4   4
#     4  10  22  42  64  90 126 168 206 250 309 374
#     4  10  20  38  63  88 121 166 208 248 307 372
#     4   9  18  36  60  84 114 153 191 239 300 362
#     4  12  23  35  57  92 126 155 197 251 305 363
#     4  10  22  43  65  84 114 158 205 250 302 364
#     4  11  24  41  63  91 123 162 212 261 305 361
#     4   9  17  33  58  85 116 152 194 241 295 361
#     4  11  22  36  58  86 120 158 197 246 307 367
#
# _framework density 19.584665999999999
#
# number of rings (size 3 to 8) (size 9 to 14) (size 15 to 20)
#    0.000    1.750    1.250    4.500    0.000    6.500 
#    2.250    0.000    0.000    0.000    0.000    0.000 
#    0.000    0.000    0.000    0.000    0.000    0.000 
#
# Total GULP energy -89124.513301 kJ/mol
# GULP energy per Si atom -5570.282081 kJ/mol
# Density = 1.954009 g / cm^3
# Si number density = 19.584666 Si / 1000 Ang^3
#
#
#
# Elastic Constant Matrix: (Units=GPa)
#
#
# Indices 1 2 3 4 5 6 
#
# 1 84.1157 43.6791 3.3479 0.0001 -9.6376 0.0000
# 2 43.6791 94.9630 18.2906 -0.0001 -0.7872 0.0000
# 3 3.3479 18.2906 43.9836 -0.0004 4.5570 -0.0001
# 4 0.0001 -0.0001 -0.0004 24.8049 -0.0002 -0.1557
# 5 -9.6376 -0.7872 4.5570 -0.0002 16.4043 -0.0001
# 6 0.0000 0.0000 -0.0001 -0.1557 -0.0001 28.5746
#
#
#
# Elastic Compliance Matrix: (Units=1/GPa)
#
#
# Indices 1 2 3 4 5 6 
#
# 1 0.017056 -0.007969 0.001047 0.000000 0.009347 0.000000
# 2 -0.007969 0.015230 -0.005475 0.000000 -0.002430 0.000000
# 3 0.001047 -0.005475 0.025634 0.000000 -0.006768 0.000000
# 4 0.000000 0.000000 0.000000 0.040316 0.000000 0.000220
# 5 0.009347 -0.002430 -0.006768 0.000000 0.068214 0.000000
# 6 0.000000 0.000000 0.000000 0.000220 0.000000 0.034997
#
#
# Mechanical properties :
#
#
# Convention : Reuss Voigt Hill
#
# Bulk Modulus (GPa) = 30.18753 39.29969 34.74361
# Shear Modulus (GPa) = 21.07177 24.47308 22.77243
#
# Velocity S-wave (km/s) = 3.28370 3.53881 3.41364
# Velocity P-wave (km/s) = 5.46116 6.06693 5.77200
#
# Compressibility (1/GPa) = 0.03312626
#
# Stress axis : x y z
#
# Youngs Moduli (GPa) = 58.63089 65.65837 39.01045
#
# Poissons Ratio (x) = 0.52325 -0.04086
# Poissons Ratio (y) = 0.46724 0.21359
# Poissons Ratio (z) = -0.06141 0.35949
#
# Static dielectric constant tensor:
#      x y z
#    x 1.873270 0.000000 0.056430 
#    y 0.000000 1.706990 0.000000 
#    z 0.056430 0.000000 1.705590 
# 
# From -- ./inp_files/32131.got.cif
#   From: 2010.05.17/outbox.cif.g08.bks.cpg/sg8_17_cif.got.tgz:32131.got - 2010.06.03 19:46:02.
