data_PCOD9132515
_publ_section_title
;
Structure prediction by ZEFSAII (Michael W. Deem and Ramdas Pophale) SiO2 
 PCOD9132515
Probable space group: C M
;
_chemical_formula_sum "Si O2"
_cell_formula_units_Z 26
_cell_length_a 22.651075
_cell_length_b 7.816487
_cell_length_c 7.086392
_cell_angle_alpha 90.000000
_cell_angle_beta 89.487974
_cell_angle_gamma 90.000000
_cell_volume 1254.608596
_symmetry_space_group_name_H-M "C M"
_symmetry_group_IT_number 8
_symmetry_cell_setting 'monoclinic'
loop_
_space_group_symop_operation_xyz
x,y,z
x,-y,z
1/2+x,1/2+y,z
1/2+x,1/2-y,z
loop_
_atom_site_type_symbol
_atom_site_label
_atom_site_fract_x
_atom_site_fract_y
_atom_site_fract_z
Si Si1 0.483550 0.793902 0.947580
Si Si2 0.111535 0.695668 0.049566
Si Si3 0.221645 0.000000 0.649943
Si Si4 0.139860 0.686251 0.598561
Si Si5 0.513254 0.299251 0.519724
Si Si6 0.812555 0.500000 0.353372
Si Si7 0.697145 0.500000 0.098605
Si Si8 0.402875 0.300227 0.267349
O O1 0.543364 0.746816 0.060191
O O2 0.492317 0.729767 0.735492
O O3 0.480777 0.000000 0.945475
O O4 0.426908 0.719421 0.053741
O O5 0.118458 0.500000 0.115815
O O6 0.123973 0.691600 0.822790
O O7 0.156432 0.832955 0.131221
O O8 0.186345 0.836190 0.572902
O O9 0.287329 0.000000 0.566710
O O10 0.216233 0.000000 0.876665
O O11 0.164556 0.500000 0.553474
O O12 0.077045 0.711731 0.497669
O O13 0.522944 0.500000 0.488328
O O14 0.459300 0.242749 0.390962
O O15 0.850794 0.668740 0.310430
O O16 0.755003 0.500000 0.222852
O O17 0.389634 0.500000 0.307223
#
# Coordination Sequence:
#
# PCOD9132515 Si02
#       8
#     4   4   2   4   4   2   2   4
#     4  10  20  36  64  96 126 158 192 250 320 372
#     4   8  17  33  58  95 123 146 190 243 307 375
#     4  10  22  42  62  86 124 158 201 256 300 362
#     4   9  17  33  61  95 123 150 191 246 311 374
#     4  10  20  36  62  95 128 159 193 249 318 372
#     4  12  28  44  58  86 118 168 228 248 284 360
#     4  10  22  40  64  86 118 164 197 250 306 350
#     4  11  26  43  59  86 124 164 213 258 293 359
#
# _framework density 20.723595
#
# number of rings (size 3 to 8) (size 9 to 14) (size 15 to 20)
#    0.000    2.154    1.538    1.846    6.462    3.692 
#    0.000    1.538    0.000    0.000    0.000    0.000 
#    0.000    0.000    0.000    0.000    0.000    0.000 
#
# Total GULP energy -72675.688410 kJ/mol
# GULP energy per Si atom -5590.437570 kJ/mol
# Density = 2.067643 g / cm^3
# Si number density = 20.723595 Si / 1000 Ang^3
#
#
#
# Elastic Constant Matrix: (Units=GPa)
#
#
# Indices 1 2 3 4 5 6 
#
# 1 91.6271 55.1970 20.6626 0.0000 -14.1424 0.0000
# 2 55.1970 117.2548 2.3981 0.0000 -3.8114 0.0000
# 3 20.6626 2.3981 64.1453 0.0000 -5.3829 0.0000
# 4 0.0000 0.0000 0.0000 8.7197 0.0000 2.6119
# 5 -14.1424 -3.8114 -5.3829 0.0000 40.5312 0.0000
# 6 0.0000 0.0000 0.0000 2.6119 0.0000 33.0788
#
#
#
# Elastic Compliance Matrix: (Units=1/GPa)
#
#
# Indices 1 2 3 4 5 6 
#
# 1 0.017603 -0.008031 -0.004973 0.000000 0.004726 0.000000
# 2 -0.008031 0.012223 0.002014 0.000000 -0.001385 0.000000
# 3 -0.004973 0.002014 0.017178 0.000000 0.000735 0.000000
# 4 0.000000 0.000000 0.000000 0.117461 0.000000 -0.009275
# 5 0.004726 -0.001385 0.000735 0.000000 0.026289 0.000000
# 6 0.000000 0.000000 0.000000 -0.009275 0.000000 0.030963
#
#
# Mechanical properties :
#
#
# Convention : Reuss Voigt Hill
#
# Bulk Modulus (GPa) = 39.96432 47.72697 43.84564
# Shear Modulus (GPa) = 19.83823 29.45056 24.64440
#
# Velocity S-wave (km/s) = 3.09735 3.77385 3.45221
# Velocity P-wave (km/s) = 5.66725 6.48610 6.09045
#
# Compressibility (1/GPa) = 0.02502232
#
# Stress axis : x y z
#
# Youngs Moduli (GPa) = 56.80898 81.81430 58.21368
#
# Poissons Ratio (x) = 0.65706 0.28952
# Poissons Ratio (y) = 0.45624 -0.11723
# Poissons Ratio (z) = 0.28253 -0.16476
#
# Static dielectric constant tensor:
#      x y z
#    x 1.696340 0.000000 -0.007020 
#    y 0.000000 1.734920 0.000000 
#    z -0.007020 0.000000 1.811960 
# 
# From -- ./inp_files/14485.got.cif
#   From: 2010.05.17/outbox.cif.g08.bks.cpg/sg8_8_cif.got.tgz:14485.got - 2010.06.03 19:46:02.
