data_PCOD9132217
_publ_section_title
;
Structure prediction by ZEFSAII (Michael W. Deem and Ramdas Pophale) SiO2 
 PCOD9132217
Probable space group: C M
;
_chemical_formula_sum "Si O2"
_cell_formula_units_Z 24
_cell_length_a 24.035051
_cell_length_b 7.839462
_cell_length_c 10.345012
_cell_angle_alpha 90.000000
_cell_angle_beta 138.144259
_cell_angle_gamma 90.000000
_cell_volume 1300.635806
_symmetry_space_group_name_H-M "C M"
_symmetry_group_IT_number 8
_symmetry_cell_setting 'monoclinic'
loop_
_space_group_symop_operation_xyz
x,y,z
x,-y,z
1/2+x,1/2+y,z
1/2+x,1/2-y,z
loop_
_atom_site_type_symbol
_atom_site_label
_atom_site_fract_x
_atom_site_fract_y
_atom_site_fract_z
Si Si1 0.924021 0.000000 0.032200
Si Si2 0.996989 0.000000 0.731895
Si Si3 0.834973 0.000000 0.602509
Si Si4 0.583527 0.500000 0.158657
Si Si5 0.181830 0.204035 0.719823
Si Si6 0.363516 0.200265 0.109296
Si Si7 0.513850 0.193422 0.567724
Si Si8 0.728085 0.305904 0.506758
O O1 0.896039 0.168051 0.058997
O O2 0.021594 0.000000 0.172854
O O3 0.885169 0.000000 0.823680
O O4 0.019676 0.834348 0.688326
O O5 0.898931 0.000000 0.595666
O O6 0.042845 0.000000 0.948874
O O7 0.781651 0.171435 0.521480
O O8 0.642625 0.337855 0.282403
O O9 0.095997 0.286386 0.619510
O O10 0.207862 0.252811 0.618137
O O11 0.168069 0.000000 0.695201
O O12 0.264229 0.237629 0.950526
O O13 0.427677 0.222566 0.339045
O O14 0.369040 0.000000 0.080449
O O15 0.511802 0.000000 0.613715
O O16 0.765001 0.500000 0.580547
#
# Coordination Sequence:
#
# PCOD9132217 Si02
#       8
#     2   2   2   2   4   4   4   4
#     4  11  19  36  60  92 127 159 188 258 314 385
#     4  11  25  48  56  86 125 176 208 258 291 365
#     4  11  22  38  68  87 126 159 211 246 303 374
#     4   9  22  42  62  83 126 166 203 250 318 350
#     4  10  19  38  65  93 132 154 193 271 318 370
#     4  10  22  37  59  96 125 161 202 250 327 370
#     4  11  24  42  62  89 125 169 214 255 306 365
#     4   9  20  39  61  97 121 151 198 259 317 364
#
# _framework density 18.452514999999998
#
# number of rings (size 3 to 8) (size 9 to 14) (size 15 to 20)
#    0.500    1.333    2.500    1.500    2.333    0.667 
#    6.000    1.667    0.000    0.000    0.000    0.000 
#    0.000    0.000    0.000    0.000    0.000    0.000 
#
# Total GULP energy -66871.753762 kJ/mol
# GULP energy per Si atom -5572.646147 kJ/mol
# Density = 1.841052 g / cm^3
# Si number density = 18.452515 Si / 1000 Ang^3
#
#
#
# Elastic Constant Matrix: (Units=GPa)
#
#
# Indices 1 2 3 4 5 6 
#
# 1 82.3290 38.0171 25.6535 0.0000 10.1564 0.0000
# 2 38.0171 71.1530 26.1648 0.0000 -0.8791 0.0000
# 3 25.6535 26.1648 89.2228 0.0000 14.3928 0.0000
# 4 0.0000 0.0000 0.0000 34.6239 0.0000 1.3811
# 5 10.1564 -0.8791 14.3928 0.0000 22.9803 0.0000
# 6 0.0000 0.0000 0.0000 1.3811 0.0000 29.2419
#
#
#
# Elastic Compliance Matrix: (Units=1/GPa)
#
#
# Indices 1 2 3 4 5 6 
#
# 1 0.017617 -0.009055 -0.001222 0.000000 -0.007367 0.000000
# 2 -0.009055 0.020726 -0.004725 0.000000 0.007754 0.000000
# 3 -0.001222 -0.004725 0.014335 0.000000 -0.008619 0.000000
# 4 0.000000 0.000000 0.000000 0.028936 0.000000 -0.001367
# 5 -0.007367 0.007754 -0.008619 0.000000 0.052467 0.000000
# 6 0.000000 0.000000 0.000000 -0.001367 0.000000 0.034262
#
#
# Mechanical properties :
#
#
# Convention : Reuss Voigt Hill
#
# Bulk Modulus (GPa) = 44.10160 46.93062 45.51611
# Shear Modulus (GPa) = 24.28319 27.56051 25.92185
#
# Velocity S-wave (km/s) = 3.63158 3.86889 3.75211
# Velocity P-wave (km/s) = 6.44488 6.74138 6.59479
#
# Compressibility (1/GPa) = 0.02267491
#
# Stress axis : x y z
#
# Youngs Moduli (GPa) = 56.76329 48.24974 69.75841
#
# Poissons Ratio (x) = 0.43688 0.08521
# Poissons Ratio (y) = 0.51397 0.32963
# Poissons Ratio (z) = 0.06934 0.22799
#
# Static dielectric constant tensor:
#      x y z
#    x 1.625650 0.000000 0.042060 
#    y 0.000000 1.622920 0.000000 
#    z 0.042060 0.000000 1.665920 
# 
# From -- ./inp_files/15897.got.cif
#   From: 2010.05.17/outbox.cif.g08.bks.cpg/sg8_8_cif.got.tgz:15897.got - 2010.06.03 19:46:02.
