data_PCOD9132067
_publ_section_title
;
Structure prediction by ZEFSAII (Michael W. Deem and Ramdas Pophale) SiO2 
 PCOD9132067
Probable space group: C M
;
_chemical_formula_sum "Si O2"
_cell_formula_units_Z 32
_cell_length_a 14.706852
_cell_length_b 8.725141
_cell_length_c 29.432675
_cell_angle_alpha 90.000000
_cell_angle_beta 152.053670
_cell_angle_gamma 90.000000
_cell_volume 1769.967268
_symmetry_space_group_name_H-M "C M"
_symmetry_group_IT_number 8
_symmetry_cell_setting 'monoclinic'
loop_
_space_group_symop_operation_xyz
x,y,z
x,-y,z
1/2+x,1/2+y,z
1/2+x,1/2-y,z
loop_
_atom_site_type_symbol
_atom_site_label
_atom_site_fract_x
_atom_site_fract_y
_atom_site_fract_z
Si Si1 0.398720 0.319148 0.962840
Si Si2 0.074220 0.315775 0.461641
Si Si3 0.173318 0.681300 0.251850
Si Si4 0.610122 0.317104 0.764676
Si Si5 0.289588 0.678821 0.110872
Si Si6 0.906098 0.179999 0.065440
Si Si7 0.188045 0.314426 0.612000
Si Si8 0.488079 0.815518 0.616882
O O1 0.370075 0.500000 0.943770
O O2 0.288318 0.230178 0.874727
O O3 0.625918 0.277387 0.062345
O O4 0.328956 0.273177 0.982527
O O5 0.076058 0.500000 0.459911
O O6 0.079576 0.270422 0.517467
O O7 0.271659 0.251664 0.526861
O O8 0.882474 0.250311 0.353846
O O9 0.173215 0.500000 0.257402
O O10 0.008967 0.758404 0.211745
O O11 0.090565 0.726024 0.165438
O O12 0.603717 0.500000 0.755754
O O13 0.411723 0.268173 0.703087
O O14 0.604358 0.239719 0.712757
O O15 0.278618 0.500000 0.118307
O O16 0.257736 0.693160 0.042003
O O17 0.960319 0.000000 0.086637
O O18 0.186693 0.500000 0.613055
O O19 0.089442 0.261414 0.614976
O O20 0.478144 0.000000 0.612346
#
# Coordination Sequence:
#
# PCOD9132067 Si02
#       8
#     4   4   4   4   4   4   4   4
#     4  11  21  36  57  83 109 143 186 231 272 322
#     4  10  19  36  57  80 111 146 178 220 275 330
#     4  10  19  35  57  82 110 146 185 227 270 320
#     4  10  21  37  55  79 111 147 179 219 274 333
#     4   9  19  37  55  77 108 145 180 224 274 323
#     4   8  19  37  54  75 109 144 180 226 274 318
#     4   8  18  36  57  79 106 140 180 220 268 326
#     4  10  19  36  58  83 108 137 180 231 271 322
#
# _framework density 18.079429999999999
#
# number of rings (size 3 to 8) (size 9 to 14) (size 15 to 20)
#    0.750    1.750    0.000    3.375    0.000    2.000 
#    2.250   10.000    0.000    0.000    0.000    0.000 
#    0.000    0.000    0.000    0.000    0.000    0.000 
#
# Total GULP energy -89108.743237 kJ/mol
# GULP energy per Si atom -5569.296452 kJ/mol
# Density = 1.803828 g / cm^3
# Si number density = 18.079430 Si / 1000 Ang^3
#
#
#
# Elastic Constant Matrix: (Units=GPa)
#
#
# Indices 1 2 3 4 5 6 
#
# 1 84.3444 16.6889 6.5065 0.0000 -7.9210 0.0000
# 2 16.6889 53.7604 10.0585 0.0000 -5.4831 0.0000
# 3 6.5065 10.0585 51.9898 -0.0001 -4.9418 -0.0001
# 4 0.0000 0.0000 -0.0001 25.8811 -0.0001 5.4504
# 5 -7.9210 -5.4831 -4.9418 -0.0001 12.2343 0.0000
# 6 0.0000 0.0000 -0.0001 5.4504 0.0000 20.8462
#
#
#
# Elastic Compliance Matrix: (Units=1/GPa)
#
#
# Indices 1 2 3 4 5 6 
#
# 1 0.013190 -0.003324 -0.000351 0.000000 0.006908 0.000000
# 2 -0.003324 0.020809 -0.003045 0.000000 0.005944 0.000000
# 3 -0.000351 -0.003045 0.020503 0.000000 0.006690 0.000000
# 4 0.000000 0.000000 0.000000 0.040890 0.000000 -0.010691
# 5 0.006908 0.005944 0.006690 0.000000 0.091576 0.000000
# 6 0.000000 0.000000 0.000000 -0.010691 0.000000 0.050766
#
#
# Mechanical properties :
#
#
# Convention : Reuss Voigt Hill
#
# Bulk Modulus (GPa) = 24.35348 28.51137 26.43243
# Shear Modulus (GPa) = 18.87784 22.24838 20.56311
#
# Velocity S-wave (km/s) = 3.23485 3.51178 3.37616
# Velocity P-wave (km/s) = 5.23946 5.67871 5.46350
#
# Compressibility (1/GPa) = 0.04106189
#
# Stress axis : x y z
#
# Youngs Moduli (GPa) = 75.81658 48.05635 48.77226
#
# Poissons Ratio (x) = 0.15975 0.01711
# Poissons Ratio (y) = 0.25204 0.14851
# Poissons Ratio (z) = 0.02660 0.14633
#
# Static dielectric constant tensor:
#      x y z
#    x 1.637500 0.000000 -0.010330 
#    y 0.000000 1.605180 0.000000 
#    z -0.010330 0.000000 1.602560 
# 
# From -- ./inp_files/26457.got.cif
#   From: 2010.05.17/outbox.cif.g08.bks.cpg/sg8_14_cif.got.tgz:26457.got - 2010.06.03 19:46:02.
