data_PCOD9132329
_publ_section_title
;
Structure prediction by ZEFSAII (Michael W. Deem and Ramdas Pophale) SiO2 
 PCOD9132329
Probable space group: C M
;
_chemical_formula_sum "Si O2"
_cell_formula_units_Z 32
_cell_length_a 20.470082
_cell_length_b 8.630292
_cell_length_c 25.284238
_cell_angle_alpha 90.000000
_cell_angle_beta 23.294557
_cell_angle_gamma 90.000000
_cell_volume 1766.426544
_symmetry_space_group_name_H-M "C M"
_symmetry_group_IT_number 8
_symmetry_cell_setting 'monoclinic'
loop_
_space_group_symop_operation_xyz
x,y,z
x,-y,z
1/2+x,1/2+y,z
1/2+x,1/2-y,z
loop_
_atom_site_type_symbol
_atom_site_label
_atom_site_fract_x
_atom_site_fract_y
_atom_site_fract_z
Si Si1 0.998990 0.314248 0.949060
Si Si2 0.336075 0.182421 0.245578
Si Si3 0.979084 0.684629 0.311819
Si Si4 0.272177 0.185528 0.022774
Si Si5 0.838624 0.815786 0.747761
Si Si6 0.707860 0.184621 0.237551
Si Si7 0.699999 0.315578 0.958913
Si Si8 0.694120 0.817740 0.458952
O O1 0.983271 0.500000 0.969474
O O2 0.186580 0.271804 0.822241
O O3 0.931074 0.280306 0.940926
O O4 0.874429 0.231012 0.082079
O O5 0.214331 0.230262 0.288589
O O6 0.261431 0.229531 0.357274
O O7 0.369386 0.000000 0.219055
O O8 0.507557 0.272228 0.108285
O O9 0.956448 0.500000 0.327523
O O10 0.811023 0.767697 0.420631
O O11 0.117164 0.731424 0.165707
O O12 0.058323 0.728483 0.309426
O O13 0.241652 0.000000 0.048250
O O14 0.283436 0.226547 0.952983
O O15 0.777433 0.773002 0.851983
O O16 0.006397 0.728568 0.609526
O O17 0.865739 0.000000 0.723424
O O18 0.704867 0.000000 0.247534
O O19 0.715774 0.500000 0.938764
O O20 0.710464 0.000000 0.437740
#
# Coordination Sequence:
#
# PCOD9132329 Si02
#       8
#     4   4   4   4   4   4   4   4
#     4   9  18  34  56  83 115 152 192 233 285 343
#     4  12  23  37  59  87 118 153 197 246 290 343
#     4  10  20  35  57  86 118 151 190 239 294 349
#     4   9  18  33  56  85 116 150 190 236 284 339
#     4  11  23  39  59  84 117 157 196 242 292 349
#     4  10  20  34  57  88 119 149 189 241 292 344
#     4  11  21  35  58  88 119 152 193 242 288 341
#     4  12  25  41  60  83 116 158 199 245 295 352
#
# _framework density 18.115670999999999
#
# number of rings (size 3 to 8) (size 9 to 14) (size 15 to 20)
#    0.000    1.500    2.500    3.750    0.000    2.500 
#    0.000    1.250    0.000    4.500    0.000    0.000 
#    0.000    0.000    0.000    0.000    0.000    0.000 
#
# Total GULP energy -89381.038996 kJ/mol
# GULP energy per Si atom -5586.314937 kJ/mol
# Density = 1.807444 g / cm^3
# Si number density = 18.115671 Si / 1000 Ang^3
#
#
#
# Elastic Constant Matrix: (Units=GPa)
#
#
# Indices 1 2 3 4 5 6 
#
# 1 102.2992 16.2941 23.4093 -0.0002 -19.7273 -0.0002
# 2 16.2941 31.0144 -1.8418 -0.0019 -13.3147 0.0009
# 3 23.4093 -1.8418 56.5040 -0.0009 -16.2500 0.0007
# 4 -0.0002 -0.0019 -0.0009 28.2526 0.0003 2.5286
# 5 -19.7273 -13.3147 -16.2500 0.0003 27.4008 0.0001
# 6 -0.0002 0.0009 0.0007 2.5286 0.0001 25.9956
#
#
#
# Elastic Compliance Matrix: (Units=1/GPa)
#
#
# Indices 1 2 3 4 5 6 
#
# 1 0.012276 -0.004983 -0.004103 0.000000 0.003984 0.000000
# 2 -0.004983 0.046425 0.010891 0.000003 0.025431 -0.000002
# 3 -0.004103 0.010891 0.024625 0.000001 0.016943 -0.000001
# 4 0.000000 0.000003 0.000001 0.035706 0.000002 -0.003473
# 5 0.003984 0.025431 0.016943 0.000002 0.061769 -0.000002
# 6 0.000000 -0.000002 -0.000001 -0.003473 -0.000002 0.038806
#
#
# Mechanical properties :
#
#
# Convention : Reuss Voigt Hill
#
# Bulk Modulus (GPa) = 11.50243 29.50454 20.50348
# Shear Modulus (GPa) = 20.41032 26.46020 23.43526
#
# Velocity S-wave (km/s) = 3.36023 3.82596 3.60063
# Velocity P-wave (km/s) = 4.62796 5.98660 5.35058
#
# Compressibility (1/GPa) = 0.08693816
#
# Stress axis : x y z
#
# Youngs Moduli (GPa) = 81.46016 21.54000 40.60897
#
# Poissons Ratio (x) = 0.10733 0.16660
# Poissons Ratio (y) = 0.40590 -0.44228
# Poissons Ratio (z) = 0.33420 -0.23460
#
# Static dielectric constant tensor:
#      x y z
#    x 1.646910 0.000000 -0.026200 
#    y 0.000000 1.605200 0.000000 
#    z -0.026200 0.000000 1.577870 
# 
# From -- ./inp_files/31329.got.cif
#   From: 2010.05.17/outbox.cif.g08.bks.cpg/sg8_16_cif.got.tgz:31329.got - 2010.06.03 19:46:02.
