data_PCOD9132767
_publ_section_title
;
Structure prediction by ZEFSAII (Michael W. Deem and Ramdas Pophale) SiO2 
 PCOD9132767
Probable space group: C M
;
_chemical_formula_sum "Si O2"
_cell_formula_units_Z 32
_cell_length_a 19.306879
_cell_length_b 8.897505
_cell_length_c 12.090352
_cell_angle_alpha 90.000000
_cell_angle_beta 127.059289
_cell_angle_gamma 90.000000
_cell_volume 1657.405834
_symmetry_space_group_name_H-M "C M"
_symmetry_group_IT_number 8
_symmetry_cell_setting 'monoclinic'
loop_
_space_group_symop_operation_xyz
x,y,z
x,-y,z
1/2+x,1/2+y,z
1/2+x,1/2-y,z
loop_
_atom_site_type_symbol
_atom_site_label
_atom_site_fract_x
_atom_site_fract_y
_atom_site_fract_z
Si Si1 0.137470 0.827620 0.492100
Si Si2 0.221997 0.319266 0.957651
Si Si3 0.074044 0.322820 0.643931
Si Si4 0.554870 0.320179 0.181129
Si Si5 0.871393 0.320750 0.948675
Si Si6 0.389774 0.676709 0.492483
Si Si7 0.727089 0.319313 0.207126
Si Si8 0.338484 0.172825 0.660723
O O1 0.126519 0.717676 0.583801
O O2 0.076268 0.791904 0.330283
O O3 0.235444 0.823738 0.542215
O O4 0.121292 0.000000 0.513851
O O5 0.226218 0.500000 0.969925
O O6 0.134011 0.278893 0.805952
O O7 0.302692 0.260605 0.962228
O O8 0.223778 0.247146 0.080584
O O9 0.057378 0.500000 0.634993
O O10 0.983651 0.236368 0.547628
O O11 0.541808 0.500000 0.155533
O O12 0.639043 0.278308 0.188984
O O13 0.468596 0.232784 0.066215
O O14 0.862354 0.500000 0.954706
O O15 0.852813 0.287021 0.802050
O O16 0.382628 0.500000 0.468023
O O17 0.311619 0.757610 0.352130
O O18 0.381660 0.719508 0.613784
O O19 0.731984 0.500000 0.208247
O O20 0.368586 0.000000 0.672338
#
# Coordination Sequence:
#
# PCOD9132767 Si02
#       8
#     4   4   4   4   4   4   4   4
#     4  10  20  41  68  91 122 163 210 262 317 373
#     4  11  25  44  65  93 130 169 213 265 317 374
#     4  11  25  43  65  94 129 168 212 263 316 376
#     4  10  23  42  65  93 127 165 207 263 318 375
#     4  11  24  41  66  95 127 169 211 260 316 377
#     4  12  26  42  66  96 128 168 213 262 317 379
#     4  11  24  45  68  92 128 170 212 261 320 379
#     4  10  21  42  67  92 125 164 210 262 317 373
#
# _framework density 19.307281
#
# number of rings (size 3 to 8) (size 9 to 14) (size 15 to 20)
#    0.000    1.250    2.500    2.625    3.500    4.500 
#    0.000    0.000    0.000    0.000    0.000    0.000 
#    0.000    0.000    0.000    0.000    0.000    0.000 
#
# Total GULP energy -89447.496209 kJ/mol
# GULP energy per Si atom -5590.468513 kJ/mol
# Density = 1.926334 g / cm^3
# Si number density = 19.307281 Si / 1000 Ang^3
#
#
#
# Elastic Constant Matrix: (Units=GPa)
#
#
# Indices 1 2 3 4 5 6 
#
# 1 35.9856 15.9547 4.6574 0.0000 2.0938 0.0000
# 2 15.9547 52.8050 30.1173 0.0000 -2.4049 0.0000
# 3 4.6574 30.1173 77.3690 0.0000 2.7893 0.0000
# 4 0.0000 0.0000 0.0000 27.6832 0.0000 -1.2398
# 5 2.0938 -2.4049 2.7893 0.0000 33.0113 0.0000
# 6 0.0000 0.0000 0.0000 -1.2398 0.0000 33.4020
#
#
#
# Elastic Compliance Matrix: (Units=1/GPa)
#
#
# Indices 1 2 3 4 5 6 
#
# 1 0.032747 -0.011540 0.002634 0.000000 -0.003140 0.000000
# 2 -0.011540 0.028630 -0.010584 0.000000 0.003712 0.000000
# 3 0.002634 -0.010584 0.016972 0.000000 -0.002372 0.000000
# 4 0.000000 0.000000 0.000000 0.036183 0.000000 0.001343
# 5 -0.003140 0.003712 -0.002372 0.000000 0.030963 0.000000
# 6 0.000000 0.000000 0.000000 0.001343 0.000000 0.029988
#
#
# Mechanical properties :
#
#
# Convention : Reuss Voigt Hill
#
# Bulk Modulus (GPa) = 25.40020 29.73536 27.56778
# Shear Modulus (GPa) = 21.96981 26.51462 24.24221
#
# Velocity S-wave (km/s) = 3.37694 3.70982 3.54729
# Velocity P-wave (km/s) = 5.32816 5.81248 5.57558
#
# Compressibility (1/GPa) = 0.03936978
#
# Stress axis : x y z
#
# Youngs Moduli (GPa) = 30.53716 34.92867 58.92059
#
# Poissons Ratio (x) = 0.40306 -0.15519
# Poissons Ratio (y) = 0.35239 0.62361
# Poissons Ratio (z) = -0.08043 0.36968
#
# Static dielectric constant tensor:
#      x y z
#    x 1.652090 0.000000 0.003920 
#    y 0.000000 1.653360 0.000000 
#    z 0.003920 0.000000 1.658670 
# 
# From -- ./inp_files/23894.got.cif
#   From: 2010.05.17/outbox.cif.g08.bks.cpg/sg8_12_cif.got.tgz:23894.got - 2010.06.03 19:46:02.
