data_PCOD9132153
_publ_section_title
;
Structure prediction by ZEFSAII (Michael W. Deem and Ramdas Pophale) SiO2 
 PCOD9132153
Probable space group: C M
;
_chemical_formula_sum "Si O2"
_cell_formula_units_Z 32
_cell_length_a 24.901047
_cell_length_b 8.637047
_cell_length_c 24.059064
_cell_angle_alpha 90.000000
_cell_angle_beta 162.112065
_cell_angle_gamma 90.000000
_cell_volume 1589.355125
_symmetry_space_group_name_H-M "C M"
_symmetry_group_IT_number 8
_symmetry_cell_setting 'monoclinic'
loop_
_space_group_symop_operation_xyz
x,y,z
x,-y,z
1/2+x,1/2+y,z
1/2+x,1/2-y,z
loop_
_atom_site_type_symbol
_atom_site_label
_atom_site_fract_x
_atom_site_fract_y
_atom_site_fract_z
Si Si1 0.458850 0.319209 0.303940
Si Si2 0.922113 0.817336 0.909110
Si Si3 0.554566 0.816324 0.511817
Si Si4 0.022861 0.316410 0.771098
Si Si5 0.409121 0.816596 0.138881
Si Si6 0.753148 0.186856 0.416002
Si Si7 0.252685 0.682792 0.288171
Si Si8 0.578860 0.317944 0.941620
O O1 0.482707 0.500000 0.316438
O O2 0.562799 0.266350 0.460477
O O3 0.492113 0.223734 0.280722
O O4 0.256046 0.281698 0.118219
O O5 0.719642 0.772423 0.712389
O O6 0.976004 0.797580 0.897480
O O7 0.941228 0.000000 0.940991
O O8 0.053952 0.721283 0.076337
O O9 0.377512 0.772599 0.368757
O O10 0.561869 0.000000 0.509249
O O11 0.014229 0.500000 0.769974
O O12 0.983197 0.234303 0.791117
O O13 0.889831 0.261965 0.592833
O O14 0.222296 0.268051 0.952176
O O15 0.554735 0.770296 0.237533
O O16 0.377125 0.000000 0.103570
O O17 0.788032 0.228630 0.386523
O O18 0.765594 0.000000 0.433369
O O19 0.284427 0.500000 0.313231
O O20 0.625533 0.500000 0.982803
#
# Coordination Sequence:
#
# PCOD9132153 Si02
#       8
#     4   4   4   4   4   4   4   4
#     4  11  21  35  58  92 128 159 197 252 308 360
#     4  10  23  40  62  89 120 162 206 248 302 368
#     4  11  23  40  61  90 124 163 205 245 304 372
#     4  11  23  38  60  93 127 159 200 255 307 358
#     4  10  21  40  64  88 121 164 204 250 303 365
#     4  10  24  44  65  88 119 165 213 250 300 367
#     4  11  24  43  65  90 122 160 206 261 307 354
#     4  10  19  36  61  88 123 164 201 245 303 366
#
# _framework density 20.133951
#
# number of rings (size 3 to 8) (size 9 to 14) (size 15 to 20)
#    0.000    1.500    1.250    5.250    1.750    4.500 
#    0.000    3.750    0.000    0.000    0.000    0.000 
#    0.000    0.000    0.000    0.000    0.000    0.000 
#
# Total GULP energy -89444.361490 kJ/mol
# GULP energy per Si atom -5590.272593 kJ/mol
# Density = 2.008813 g / cm^3
# Si number density = 20.133951 Si / 1000 Ang^3
#
#
#
# Elastic Constant Matrix: (Units=GPa)
#
#
# Indices 1 2 3 4 5 6 
#
# 1 40.3050 -1.5331 1.4846 0.0010 -11.6132 0.0001
# 2 -1.5331 33.4273 5.5858 0.0017 -7.4224 0.0005
# 3 1.4846 5.5858 65.0771 0.0030 -17.8746 0.0010
# 4 0.0010 0.0017 0.0030 20.8574 0.0007 -16.0038
# 5 -11.6132 -7.4224 -17.8746 0.0007 28.9340 0.0001
# 6 0.0001 0.0005 0.0010 -16.0038 0.0001 5.6585
#
#
#
# Elastic Compliance Matrix: (Units=1/GPa)
#
#
# Indices 1 2 3 4 5 6 
#
# 1 0.029046 0.004063 0.002983 0.000003 0.014543 0.000008
# 2 0.004063 0.032310 -0.000170 0.000005 0.009814 0.000010
# 3 0.002983 -0.000170 0.018824 0.000005 0.012783 0.000011
# 4 0.000003 0.000005 0.000005 -0.040973 0.000007 -0.115884
# 5 0.014543 0.009814 0.012783 0.000007 0.050813 0.000016
# 6 0.000008 0.000010 0.000011 -0.115884 0.000016 -0.151028
#
#
# Mechanical properties :
#
#
# Convention : Reuss Voigt Hill
#
# Bulk Modulus (GPa) = 10.64612 16.65378 13.64995
# Shear Modulus (GPa) = -115.07461 19.97477 -47.54992
#
# Velocity S-wave (km/s) = -7.56826 3.15317 -4.86498
# Velocity P-wave (km/s) = 8.43044 4.64178 4.97626
#
# Compressibility (1/GPa) = 0.09393098
#
# Stress axis : x y z
#
# Youngs Moduli (GPa) = 34.42826 30.95055 53.12394
#
# Poissons Ratio (x) = -0.12575 -0.15848
# Poissons Ratio (y) = -0.13988 0.00905
# Poissons Ratio (z) = -0.10271 0.00527
#
# Static dielectric constant tensor:
#      x y z
#    x 1.698890 0.000000 0.011450 
#    y 0.000000 1.673130 0.000000 
#    z 0.011450 0.000000 1.721810 
# 
# From -- ./inp_files/32433.got.cif
#   From: 2010.05.17/outbox.cif.g08.bks.cpg/sg8_17_cif.got.tgz:32433.got - 2010.06.03 19:46:02.
