data_PCOD9132073
_publ_section_title
;
Structure prediction by ZEFSAII (Michael W. Deem and Ramdas Pophale) SiO2 
 PCOD9132073
Probable space group: C M
;
_chemical_formula_sum "Si O2"
_cell_formula_units_Z 32
_cell_length_a 25.695901
_cell_length_b 8.058040
_cell_length_c 13.036180
_cell_angle_alpha 90.000000
_cell_angle_beta 35.159875
_cell_angle_gamma 90.000000
_cell_volume 1554.391699
_symmetry_space_group_name_H-M "C M"
_symmetry_group_IT_number 8
_symmetry_cell_setting 'monoclinic'
loop_
_space_group_symop_operation_xyz
x,y,z
x,-y,z
1/2+x,1/2+y,z
1/2+x,1/2-y,z
loop_
_atom_site_type_symbol
_atom_site_label
_atom_site_fract_x
_atom_site_fract_y
_atom_site_fract_z
Si Si1 0.138030 0.300001 0.672120
Si Si2 0.126871 0.309131 0.463742
Si Si3 0.820569 0.689504 0.106378
Si Si4 0.795875 0.804489 0.925162
Si Si5 0.959221 0.198266 0.050705
Si Si6 0.332343 0.702694 0.438502
Si Si7 0.396261 0.703356 0.557676
Si Si8 0.094778 0.194186 0.293020
O O1 0.142285 0.500000 0.656786
O O2 0.109520 0.238498 0.604787
O O3 0.236497 0.240539 0.547708
O O4 0.062350 0.251175 0.874939
O O5 0.096310 0.500000 0.507594
O O6 0.235909 0.302603 0.275431
O O7 0.089256 0.216193 0.425209
O O8 0.790955 0.500000 0.168076
O O9 0.837238 0.719190 0.959403
O O10 0.904676 0.726262 0.042909
O O11 0.687560 0.777913 0.106119
O O12 0.813899 0.000000 0.904968
O O13 0.839670 0.743833 0.748766
O O14 0.910439 0.252864 0.233580
O O15 0.952353 0.000000 0.055220
O O16 0.330320 0.500000 0.443186
O O17 0.352286 0.757796 0.521761
O O18 0.396725 0.500000 0.557553
O O19 0.500737 0.756888 0.398104
O O20 0.103797 0.000000 0.255026
#
# Coordination Sequence:
#
# PCOD9132073 Si02
#       8
#     4   4   4   4   4   4   4   4
#     4  10  21  37  58  85 115 151 192 236 288 340
#     4  10  19  35  57  84 117 154 189 232 289 344
#     4  11  21  35  57  85 119 153 188 237 290 338
#     4  10  20  36  57  85 115 150 191 233 284 343
#     4  11  22  37  59  86 115 152 193 234 288 345
#     4   9  19  40  61  80 114 154 191 236 287 340
#     4   9  20  37  60  84 111 152 197 233 279 342
#     4  10  20  35  55  85 116 150 189 235 285 336
#
# _framework density 20.586829000000002
#
# number of rings (size 3 to 8) (size 9 to 14) (size 15 to 20)
#    0.000    2.000    1.250    4.125    1.750    2.000 
#    0.000    1.875    0.000    7.500    0.000    0.000 
#    0.000    0.000    0.000    0.000    0.000    0.000 
#
# Total GULP energy -89374.076068 kJ/mol
# GULP energy per Si atom -5585.879754 kJ/mol
# Density = 2.053997 g / cm^3
# Si number density = 20.586829 Si / 1000 Ang^3
#
#
#
# Elastic Constant Matrix: (Units=GPa)
#
#
# Indices 1 2 3 4 5 6 
#
# 1 71.2711 -6.5595 25.9909 0.0000 19.7598 0.0000
# 2 -6.5595 26.0389 -11.6381 -0.0003 2.9043 0.0000
# 3 25.9909 -11.6381 78.9332 -0.0001 25.2843 0.0000
# 4 0.0000 -0.0003 -0.0001 17.6893 0.0000 -6.3386
# 5 19.7598 2.9043 25.2843 0.0000 26.0620 0.0000
# 6 0.0000 0.0000 0.0000 -6.3386 0.0000 12.8458
#
#
#
# Elastic Compliance Matrix: (Units=1/GPa)
#
#
# Indices 1 2 3 4 5 6 
#
# 1 0.018788 0.005969 -0.000770 0.000000 -0.014163 0.000000
# 2 0.005969 0.047612 0.011903 0.000001 -0.021379 0.000000
# 3 -0.000770 0.011903 0.021640 0.000000 -0.021738 0.000000
# 4 0.000000 0.000001 0.000000 0.068674 -0.000001 0.033886
# 5 -0.014163 -0.021379 -0.021738 -0.000001 0.072579 0.000000
# 6 0.000000 0.000000 0.000000 0.033886 0.000000 0.094567
#
#
# Mechanical properties :
#
#
# Convention : Reuss Voigt Hill
#
# Bulk Modulus (GPa) = 8.18038 21.31441 14.74739
# Shear Modulus (GPa) = 15.13298 22.54944 18.84121
#
# Velocity S-wave (km/s) = 2.71418 3.31317 3.02852
# Velocity P-wave (km/s) = 3.71545 5.00120 4.40549
#
# Compressibility (1/GPa) = 0.12224372
#
# Stress axis : x y z
#
# Youngs Moduli (GPa) = 53.22677 21.00305 46.20990
#
# Poissons Ratio (x) = -0.12536 0.03556
# Poissons Ratio (y) = -0.31769 -0.55003
# Poissons Ratio (z) = 0.04096 -0.25000
#
# Static dielectric constant tensor:
#      x y z
#    x 1.717790 0.000000 0.004980 
#    y 0.000000 1.730400 0.000000 
#    z 0.004980 0.000000 1.729540 
# 
# From -- ./inp_files/28315.got.cif
#   From: 2010.05.17/outbox.cif.g08.bks.cpg/sg8_15_cif.got.tgz:28315.got - 2010.06.03 19:46:02.
