data_PCOD9132552
_publ_section_title
;
Structure prediction by ZEFSAII (Michael W. Deem and Ramdas Pophale) SiO2 
 PCOD9132552
Probable space group: C M
;
_chemical_formula_sum "Si O2"
_cell_formula_units_Z 32
_cell_length_a 30.441736
_cell_length_b 11.333813
_cell_length_c 9.238991
_cell_angle_alpha 90.000000
_cell_angle_beta 148.561587
_cell_angle_gamma 90.000000
_cell_volume 1662.617704
_symmetry_space_group_name_H-M "C M"
_symmetry_group_IT_number 8
_symmetry_cell_setting 'monoclinic'
loop_
_space_group_symop_operation_xyz
x,y,z
x,-y,z
1/2+x,1/2+y,z
1/2+x,1/2-y,z
loop_
_atom_site_type_symbol
_atom_site_label
_atom_site_fract_x
_atom_site_fract_y
_atom_site_fract_z
Si Si1 0.486980 0.862999 0.234450
Si Si2 0.323898 0.722453 0.870284
Si Si3 0.685144 0.858790 0.262390
Si Si4 0.959458 0.126536 0.459422
Si Si5 0.236290 0.864851 0.877319
Si Si6 0.922989 0.628985 0.514628
Si Si7 0.616668 0.741058 0.783805
Si Si8 0.046107 0.365169 0.103381
O O1 0.553140 0.842124 0.548417
O O2 0.530054 0.807276 0.212393
O O3 0.474468 0.000000 0.172424
O O4 0.396738 0.809199 0.017515
O O5 0.271275 0.668123 0.590577
O O6 0.260549 0.790659 0.801857
O O7 0.381030 0.634087 0.127168
O O8 0.611807 0.819570 0.169528
O O9 0.677827 0.000000 0.216330
O O10 0.669552 0.788540 0.069396
O O11 0.953262 0.248734 0.530094
O O12 0.050684 0.138428 0.641363
O O13 0.954083 0.000000 0.521930
O O14 0.173000 0.801351 0.808570
O O15 0.210937 0.000000 0.771234
O O16 0.324151 0.871583 0.212075
O O17 0.954219 0.500000 0.542899
O O18 0.956414 0.631316 0.771148
O O19 0.076020 0.500000 0.213959
#
# Coordination Sequence:
#
# PCOD9132552 Si02
#       8
#     4   4   4   4   4   4   4   4
#     4  10  21  38  62  89 116 156 207 252 298 362
#     4  10  22  38  61  86 120 158 201 247 306 361
#     4  11  22  38  60  89 123 156 199 254 303 358
#     4  10  20  37  59  85 119 157 198 246 304 363
#     4  10  21  38  59  86 121 159 201 249 302 361
#     4   9  18  35  61  86 115 157 199 245 299 358
#     4  11  22  36  59  86 122 160 201 242 303 364
#     4   9  18  34  59  85 114 151 198 251 299 349
#
# _framework density 19.246759000000001
#
# number of rings (size 3 to 8) (size 9 to 14) (size 15 to 20)
#    0.000    2.000    1.250    2.250    1.750    3.000 
#    0.000    7.500    0.000    0.750    0.000    0.000 
#    0.000    0.000    0.000    0.000    0.000    0.000 
#
# Total GULP energy -89089.406694 kJ/mol
# GULP energy per Si atom -5568.087918 kJ/mol
# Density = 1.920295 g / cm^3
# Si number density = 19.246759 Si / 1000 Ang^3
#
#
#
# Elastic Constant Matrix: (Units=GPa)
#
#
# Indices 1 2 3 4 5 6 
#
# 1 103.8950 51.1456 23.8525 0.0000 1.7605 0.0000
# 2 51.1456 107.8726 27.1233 0.0000 2.0712 0.0000
# 3 23.8525 27.1233 97.1783 0.0000 -16.4146 0.0000
# 4 0.0000 0.0000 0.0000 1.5041 0.0000 -8.1309
# 5 1.7605 2.0712 -16.4146 0.0000 23.6950 0.0000
# 6 0.0000 0.0000 0.0000 -8.1309 0.0000 16.6284
#
#
#
# Elastic Compliance Matrix: (Units=1/GPa)
#
#
# Indices 1 2 3 4 5 6 
#
# 1 0.012835 -0.005575 -0.001895 0.000000 -0.001779 0.000000
# 2 -0.005575 0.012606 -0.002567 0.000000 -0.002466 0.000000
# 3 -0.001895 -0.002567 0.013062 0.000000 0.009414 0.000000
# 4 0.000000 0.000000 0.000000 -0.404566 0.000000 -0.197825
# 5 -0.001779 -0.002466 0.009414 0.000000 0.049072 0.000000
# 6 0.000000 0.000000 0.000000 -0.197825 0.000000 -0.036594
#
#
# Mechanical properties :
#
#
# Convention : Reuss Voigt Hill
#
# Bulk Modulus (GPa) = 54.25855 57.02098 55.63976
# Shear Modulus (GPa) = -15.27323 22.15379 3.44028
#
# Velocity S-wave (km/s) = -2.82005 3.39638 1.33841
# Velocity P-wave (km/s) = 4.20102 6.71350 5.59999
#
# Compressibility (1/GPa) = 0.01843027
#
# Stress axis : x y z
#
# Youngs Moduli (GPa) = 77.91455 79.32725 76.55852
#
# Poissons Ratio (x) = 0.44222 0.14506
# Poissons Ratio (y) = 0.43435 0.19650
# Poissons Ratio (z) = 0.14763 0.20360
#
# Static dielectric constant tensor:
#      x y z
#    x 1.715200 0.000000 0.000770 
#    y 0.000000 1.696490 0.000000 
#    z 0.000770 0.000000 1.671870 
# 
# From -- ./inp_files/17831.got.cif
#   From: 2010.05.17/outbox.cif.g08.bks.cpg/sg8_9_cif.got.tgz:17831.got - 2010.06.03 19:46:02.
