data_PCOD9132782
_publ_section_title
;
Structure prediction by ZEFSAII (Michael W. Deem and Ramdas Pophale) SiO2 
 PCOD9132782
Probable space group: C M
;
_chemical_formula_sum "Si O2"
_cell_formula_units_Z 26
_cell_length_a 20.092403
_cell_length_b 7.474239
_cell_length_c 13.532804
_cell_angle_alpha 90.000000
_cell_angle_beta 145.410866
_cell_angle_gamma 90.000000
_cell_volume 1153.708476
_symmetry_space_group_name_H-M "C M"
_symmetry_group_IT_number 8
_symmetry_cell_setting 'monoclinic'
loop_
_space_group_symop_operation_xyz
x,y,z
x,-y,z
1/2+x,1/2+y,z
1/2+x,1/2-y,z
loop_
_atom_site_type_symbol
_atom_site_label
_atom_site_fract_x
_atom_site_fract_y
_atom_site_fract_z
Si Si1 0.747421 0.500000 0.149840
Si Si2 0.912884 0.714450 0.989770
Si Si3 0.845310 0.216790 0.549616
Si Si4 0.043682 0.292212 0.947715
Si Si5 0.110652 0.718075 0.376076
Si Si6 0.643229 0.210662 0.639250
Si Si7 0.397874 0.296931 0.394740
O O1 0.848351 0.657503 0.256019
O O2 0.649190 0.658533 0.053163
O O3 0.918132 0.500000 0.995905
O O4 0.777185 0.761992 0.833168
O O5 0.971415 0.769651 0.956983
O O6 0.994031 0.779348 0.178256
O O7 0.723581 0.271700 0.450250
O O8 0.850590 0.273555 0.442404
O O9 0.952537 0.286208 0.745567
O O10 0.852037 0.000000 0.558019
O O11 0.080552 0.500000 0.009210
O O12 0.111067 0.500000 0.378245
O O13 0.126944 0.779772 0.507598
O O14 0.538849 0.294312 0.574501
O O15 0.622088 0.000000 0.614594
O O16 0.360902 0.500000 0.332015
#
# Coordination Sequence:
#
# PCOD9132782 Si02
#       7
#     2   4   4   4   4   4   4
#     4  12  24  44  66  98 130 178 228 280 336 398
#     4  10  21  40  64  99 132 172 222 276 338 408
#     4  10  20  42  68  98 133 179 223 280 337 394
#     4  11  23  39  68 104 137 173 222 283 340 399
#     4   9  19  38  68  94 129 173 223 276 339 397
#     4  11  22  42  67  95 134 180 220 277 342 402
#     4  11  25  45  69  94 136 183 226 277 339 405
#
# _framework density 22.536021999999999
#
# number of rings (size 3 to 8) (size 9 to 14) (size 15 to 20)
#    0.000    1.538    3.077    1.846    2.154    2.462 
#    2.769    1.538    0.000    0.000    0.000    0.000 
#    0.000    0.000    0.000    0.000    0.000    0.000 
#
# Total GULP energy -72458.245732 kJ/mol
# GULP energy per Si atom -5573.711210 kJ/mol
# Density = 2.248473 g / cm^3
# Si number density = 22.536022 Si / 1000 Ang^3
#
#
#
# Elastic Constant Matrix: (Units=GPa)
#
#
# Indices 1 2 3 4 5 6 
#
# 1 22.0770 1.0562 20.0052 0.0000 -0.9479 0.0000
# 2 1.0562 116.6305 19.2729 0.0000 9.8081 0.0000
# 3 20.0052 19.2729 137.6260 0.0000 24.9516 0.0000
# 4 0.0000 0.0000 0.0000 32.2717 0.0000 19.0316
# 5 -0.9479 9.8081 24.9516 0.0000 31.3717 0.0000
# 6 0.0000 0.0000 0.0000 19.0316 0.0000 19.8780
#
#
#
# Elastic Compliance Matrix: (Units=1/GPa)
#
#
# Indices 1 2 3 4 5 6 
#
# 1 0.054390 0.000324 -0.009618 0.000000 0.009192 0.000000
# 2 0.000324 0.008895 -0.000923 0.000000 -0.002037 0.000000
# 3 -0.009618 -0.000923 0.010275 0.000000 -0.008175 0.000000
# 4 0.000000 0.000000 0.000000 0.071172 0.000000 -0.068142
# 5 0.009192 -0.002037 -0.008175 0.000000 0.039292 0.000000
# 6 0.000000 0.000000 0.000000 -0.068142 0.000000 0.115547
#
#
# Mechanical properties :
#
#
# Convention : Reuss Voigt Hill
#
# Bulk Modulus (GPa) = 18.82328 39.66691 29.24509
# Shear Modulus (GPa) = 14.80532 32.43755 23.62144
#
# Velocity S-wave (km/s) = 2.56591 3.79801 3.24105
# Velocity P-wave (km/s) = 4.14116 6.07231 5.19722
#
# Compressibility (1/GPa) = 0.05312571
#
# Stress axis : x y z
#
# Youngs Moduli (GPa) = 18.38557 112.42230 97.31898
#
# Poissons Ratio (x) = -0.03640 0.93601
# Poissons Ratio (y) = -0.00595 0.08987
# Poissons Ratio (z) = 0.17683 0.10382
#
# Static dielectric constant tensor:
#      x y z
#    x 1.839980 0.000000 -0.015390 
#    y 0.000000 1.829000 0.000000 
#    z -0.015390 0.000000 1.830170 
# 
# From -- ./inp_files/21433.got.cif
#   From: 2010.05.17/outbox.cif.g08.bks.cpg/sg8_11_cif.got.tgz:21433.got - 2010.06.03 19:46:02.
