data_PCOD9132339
_publ_section_title
;
Structure prediction by ZEFSAII (Michael W. Deem and Ramdas Pophale) SiO2 
 PCOD9132339
Probable space group: C M
;
_chemical_formula_sum "Si O2"
_cell_formula_units_Z 32
_cell_length_a 14.366470
_cell_length_b 7.457787
_cell_length_c 19.422187
_cell_angle_alpha 90.000000
_cell_angle_beta 41.424920
_cell_angle_gamma 90.000000
_cell_volume 1376.824711
_symmetry_space_group_name_H-M "C M"
_symmetry_group_IT_number 8
_symmetry_cell_setting 'monoclinic'
loop_
_space_group_symop_operation_xyz
x,y,z
x,-y,z
1/2+x,1/2+y,z
1/2+x,1/2-y,z
loop_
_atom_site_type_symbol
_atom_site_label
_atom_site_fract_x
_atom_site_fract_y
_atom_site_fract_z
Si Si1 0.169650 0.208440 0.265910
Si Si2 0.942674 0.719347 0.036303
Si Si3 0.002161 0.292707 0.851002
Si Si4 0.365954 0.786955 0.408897
Si Si5 0.248039 0.717250 0.890665
Si Si6 0.659858 0.212504 0.636428
Si Si7 0.112823 0.779187 0.450143
Si Si8 0.908690 0.796377 0.673508
O O1 0.301715 0.284728 0.151415
O O2 0.136610 0.284905 0.359694
O O3 0.021724 0.218355 0.308651
O O4 0.203670 0.000000 0.259093
O O5 0.934259 0.500000 0.038477
O O6 0.963812 0.784919 0.946331
O O7 0.087557 0.765505 0.994664
O O8 0.037984 0.500000 0.844558
O O9 0.862639 0.284027 0.881029
O O10 0.126096 0.220795 0.732228
O O11 0.308606 0.736756 0.516737
O O12 0.248219 0.724919 0.420290
O O13 0.370479 0.000000 0.402714
O O14 0.258872 0.500000 0.883705
O O15 0.291086 0.780602 0.789644
O O16 0.545106 0.299934 0.648995
O O17 0.630401 0.000000 0.652948
O O18 0.973899 0.715625 0.568145
O O19 0.105407 0.000000 0.454853
O O20 0.866065 0.000000 0.680423
#
# Coordination Sequence:
#
# PCOD9132339 Si02
#       8
#     4   4   4   4   4   4   4   4
#     4  10  20  35  53  73  98 132 176 212 240 289
#     4   9  19  34  51  73 101 134 172 209 244 290
#     4   9  18  33  52  75 104 134 163 202 251 296
#     4  10  20  35  53  75 104 132 161 205 258 300
#     4   9  17  31  52  74  97 130 169 207 248 296
#     4   9  16  28  50  77 102 130 165 200 242 302
#     4   8  16  31  51  72  96 128 162 200 247 298
#     4   8  14  27  48  73 100 128 162 205 252 297
#
# _framework density 23.241883999999999
#
# number of rings (size 3 to 8) (size 9 to 14) (size 15 to 20)
#    0.000    3.000    0.000    1.500    0.000    2.500 
#    0.000   10.000    0.000    4.500    0.000    0.000 
#    0.000    0.000    0.000    0.000    0.000    0.000 
#
# Total GULP energy -89305.650310 kJ/mol
# GULP energy per Si atom -5581.603144 kJ/mol
# Density = 2.318898 g / cm^3
# Si number density = 23.241884 Si / 1000 Ang^3
#
#
#
# Elastic Constant Matrix: (Units=GPa)
#
#
# Indices 1 2 3 4 5 6 
#
# 1 68.3337 -1.3593 42.2807 0.0000 -5.6955 0.0000
# 2 -1.3593 74.3206 10.2614 0.0000 5.2758 0.0000
# 3 42.2807 10.2614 161.7585 0.0000 -28.3533 0.0000
# 4 0.0000 0.0000 0.0000 8.4571 0.0000 -5.5634
# 5 -5.6955 5.2758 -28.3533 0.0000 36.2840 0.0000
# 6 0.0000 0.0000 0.0000 -5.5634 0.0000 8.6120
#
#
#
# Elastic Compliance Matrix: (Units=1/GPa)
#
#
# Indices 1 2 3 4 5 6 
#
# 1 0.017570 0.001080 -0.004872 0.000000 -0.001206 0.000000
# 2 0.001080 0.013941 -0.001729 0.000000 -0.003209 0.000000
# 3 -0.004872 -0.001729 0.008662 0.000000 0.006255 0.000000
# 4 0.000000 0.000000 0.000000 0.205628 0.000000 0.132835
# 5 -0.001206 -0.003209 0.006255 0.000000 0.032725 0.000000
# 6 0.000000 0.000000 0.000000 0.132835 0.000000 0.201928
#
#
# Mechanical properties :
#
#
# Convention : Reuss Voigt Hill
#
# Bulk Modulus (GPa) = 34.32952 45.19761 39.76356
# Shear Modulus (GPa) = 9.97591 27.55262 18.76427
#
# Velocity S-wave (km/s) = 2.07401 3.44680 2.84447
# Velocity P-wave (km/s) = 4.53188 5.94386 5.28524
#
# Compressibility (1/GPa) = 0.02912945
#
# Stress axis : x y z
#
# Youngs Moduli (GPa) = 56.91612 71.72839 115.45094
#
# Poissons Ratio (x) = -0.07745 0.56252
# Poissons Ratio (y) = -0.06145 0.19962
# Poissons Ratio (z) = 0.27732 0.12402
#
# Static dielectric constant tensor:
#      x y z
#    x 1.878680 0.000000 0.008540 
#    y 0.000000 1.880430 0.000000 
#    z 0.008540 0.000000 1.883760 
# 
# From -- ./inp_files/21558.got.cif
#   From: 2010.05.17/outbox.cif.g08.bks.cpg/sg8_11_cif.got.tgz:21558.got - 2010.06.03 19:46:02.
