data_PCOD9132629
_publ_section_title
;
Structure prediction by ZEFSAII (Michael W. Deem and Ramdas Pophale) SiO2 
 PCOD9132629
Probable space group: C M
;
_chemical_formula_sum "Si O2"
_cell_formula_units_Z 28
_cell_length_a 13.185504
_cell_length_b 19.414315
_cell_length_c 5.563807
_cell_angle_alpha 90.000000
_cell_angle_beta 111.301173
_cell_angle_gamma 90.000000
_cell_volume 1326.964801
_symmetry_space_group_name_H-M "C M"
_symmetry_group_IT_number 8
_symmetry_cell_setting 'monoclinic'
loop_
_space_group_symop_operation_xyz
x,y,z
x,-y,z
1/2+x,1/2+y,z
1/2+x,1/2-y,z
loop_
_atom_site_type_symbol
_atom_site_label
_atom_site_fract_x
_atom_site_fract_y
_atom_site_fract_z
Si Si1 0.390490 0.078251 0.959090
Si Si2 0.442824 0.844252 0.507612
Si Si3 0.657576 0.382588 0.611068
Si Si4 0.523637 0.339601 0.107672
Si Si5 0.135165 0.740491 0.828547
Si Si6 0.924779 0.922026 0.642230
Si Si7 0.341581 0.294563 0.310551
O O1 0.432325 0.112515 0.745774
O O2 0.260443 0.078141 0.799849
O O3 0.430189 0.000000 0.014501
O O4 0.417610 0.117985 0.232191
O O5 0.564768 0.813588 0.619781
O O6 0.361217 0.778550 0.455146
O O7 0.631319 0.376020 0.306281
O O8 0.675883 0.303477 0.702978
O O9 0.544234 0.411628 0.621592
O O10 0.449928 0.302894 0.241783
O O11 0.556085 0.281464 0.945372
O O12 0.449968 0.399931 0.935257
O O13 0.234508 0.708597 0.058740
O O14 0.845709 0.862583 0.476423
O O15 0.888390 0.000000 0.580266
#
# Coordination Sequence:
#
# PCOD9132629 Si02
#       7
#     4   4   4   4   4   4   4
#     4  12  27  45  68 100 140 182 221 279 349 406
#     4  12  24  45  69  99 138 173 229 280 327 412
#     4  10  21  37  66  95 132 166 221 276 350 394
#     4  10  20  38  60  99 131 163 218 275 348 387
#     4  11  22  38  65 101 123 171 222 285 321 399
#     4  10  22  39  59  93 134 168 218 280 340 401
#     4  11  22  40  67  95 128 173 223 277 335 395
#
# _framework density 21.100785999999999
#
# number of rings (size 3 to 8) (size 9 to 14) (size 15 to 20)
#    0.000    1.143    5.714    2.571    2.000    4.000 
#    0.000    1.429    0.000    0.000    0.000    0.000 
#    0.000    0.000    0.000    0.000    0.000    0.000 
#
# Total GULP energy -78144.088602 kJ/mol
# GULP energy per Si atom -5581.720614 kJ/mol
# Density = 2.105276 g / cm^3
# Si number density = 21.100786 Si / 1000 Ang^3
#
#
#
# Elastic Constant Matrix: (Units=GPa)
#
#
# Indices 1 2 3 4 5 6 
#
# 1 26.2544 19.0256 15.0449 0.0000 2.1037 0.0000
# 2 19.0256 167.2455 83.6239 0.0000 6.7225 0.0000
# 3 15.0449 83.6239 150.6056 0.0000 18.5040 0.0000
# 4 0.0000 0.0000 0.0000 25.9191 0.0000 4.3360
# 5 2.1037 6.7225 18.5040 0.0000 42.0555 0.0000
# 6 0.0000 0.0000 0.0000 4.3360 0.0000 19.8924
#
#
#
# Elastic Compliance Matrix: (Units=1/GPa)
#
#
# Indices 1 2 3 4 5 6 
#
# 1 0.042016 -0.003729 -0.002053 0.000000 -0.000603 0.000000
# 2 -0.003729 0.008630 -0.004517 0.000000 0.000794 0.000000
# 3 -0.002053 -0.004517 0.009780 0.000000 -0.003479 0.000000
# 4 0.000000 0.000000 0.000000 0.040042 0.000000 -0.008728
# 5 -0.000603 0.000794 -0.003479 0.000000 0.025212 0.000000
# 6 0.000000 0.000000 0.000000 -0.008728 0.000000 0.052173
#
#
# Mechanical properties :
#
#
# Convention : Reuss Voigt Hill
#
# Bulk Modulus (GPa) = 25.10744 64.38827 44.74785
# Shear Modulus (GPa) = 23.61547 32.66750 28.14148
#
# Velocity S-wave (km/s) = 3.34904 3.93894 3.65591
# Velocity P-wave (km/s) = 5.18453 7.16016 6.25089
#
# Compressibility (1/GPa) = 0.03982883
#
# Stress axis : x y z
#
# Youngs Moduli (GPa) = 23.80061 115.87486 102.24631
#
# Poissons Ratio (x) = 0.43211 0.20987
# Poissons Ratio (y) = 0.08876 0.46184
# Poissons Ratio (z) = 0.04885 0.52340
#
# Static dielectric constant tensor:
#      x y z
#    x 1.785130 0.000000 -0.036930 
#    y 0.000000 1.772190 0.000000 
#    z -0.036930 0.000000 1.841950 
# 
# From -- ./inp_files/4029.got.cif
#   From: 2010.05.17/outbox.cif.g08.bks.cpg/sg8_3_cif.got.tgz:4029.got - 2010.06.03 19:46:02.
