data_PCOD9132295
_publ_section_title
;
Structure prediction by ZEFSAII (Michael W. Deem and Ramdas Pophale) SiO2 
 PCOD9132295
Probable space group: C M
;
_chemical_formula_sum "Si O2"
_cell_formula_units_Z 32
_cell_length_a 25.287419
_cell_length_b 8.858088
_cell_length_c 23.846168
_cell_angle_alpha 90.000000
_cell_angle_beta 18.907547
_cell_angle_gamma 90.000000
_cell_volume 1730.869972
_symmetry_space_group_name_H-M "C M"
_symmetry_group_IT_number 8
_symmetry_cell_setting 'monoclinic'
loop_
_space_group_symop_operation_xyz
x,y,z
x,-y,z
1/2+x,1/2+y,z
1/2+x,1/2-y,z
loop_
_atom_site_type_symbol
_atom_site_label
_atom_site_fract_x
_atom_site_fract_y
_atom_site_fract_z
Si Si1 0.963440 0.677185 0.551090
Si Si2 0.787760 0.819949 0.901645
Si Si3 0.637625 0.324835 0.282613
Si Si4 0.608518 0.819102 0.521955
Si Si5 0.093176 0.821967 0.928318
Si Si6 0.951924 0.679774 0.176670
Si Si7 0.794182 0.675559 0.015264
Si Si8 0.459361 0.676408 0.947764
O O1 0.983719 0.500000 0.517312
O O2 0.780833 0.696165 0.757091
O O3 0.989954 0.774814 0.468991
O O4 0.082980 0.720263 0.481753
O O5 0.950405 0.745403 0.712589
O O6 0.800305 0.000000 0.882103
O O7 0.616301 0.771081 0.044968
O O8 0.781139 0.774763 0.973513
O O9 0.679653 0.500000 0.250762
O O10 0.639571 0.307530 0.213110
O O11 0.784664 0.212953 0.151932
O O12 0.782847 0.754427 0.366133
O O13 0.607690 0.000000 0.527396
O O14 0.048913 0.000000 0.976593
O O15 0.983815 0.727975 0.080353
O O16 0.082330 0.780122 0.873500
O O17 0.937769 0.500000 0.195574
O O18 0.811591 0.500000 0.983216
O O19 0.942206 0.728853 0.907803
O O20 0.475913 0.500000 0.918089
#
# Coordination Sequence:
#
# PCOD9132295 Si02
#       8
#     4   4   4   4   4   4   4   4
#     4  10  20  34  54  83 119 157 199 246 298 356
#     4  11  23  41  64  90 121 161 207 255 303 360
#     4   9  19  33  52  80 110 146 191 237 291 351
#     4  11  23  39  62  89 122 163 203 252 303 362
#     4  10  20  35  55  84 121 159 202 246 298 361
#     4  11  24  39  59  90 125 160 201 252 308 364
#     4   9  20  37  59  84 114 156 199 247 300 356
#     4   9  17  32  55  80 108 148 192 237 289 348
#
# _framework density 18.487812999999999
#
# number of rings (size 3 to 8) (size 9 to 14) (size 15 to 20)
#    0.750    1.250    1.250    2.625    0.000    7.000 
#    0.000    1.250    0.000    4.500    0.000    0.000 
#    0.000    0.000    0.000    0.000    0.000    0.000 
#
# Total GULP energy -89081.461892 kJ/mol
# GULP energy per Si atom -5567.591368 kJ/mol
# Density = 1.844573 g / cm^3
# Si number density = 18.487813 Si / 1000 Ang^3
#
#
#
# Elastic Constant Matrix: (Units=GPa)
#
#
# Indices 1 2 3 4 5 6 
#
# 1 85.0385 25.4025 39.4805 0.0002 -3.3715 -0.0002
# 2 25.4025 39.4207 40.6763 -0.0078 1.1622 0.0019
# 3 39.4805 40.6763 97.2714 -0.0103 -4.5320 0.0033
# 4 0.0002 -0.0078 -0.0103 29.7582 0.0036 6.4583
# 5 -3.3715 1.1622 -4.5320 0.0036 25.6911 -0.0006
# 6 -0.0002 0.0019 0.0033 6.4583 -0.0006 26.2554
#
#
#
# Elastic Compliance Matrix: (Units=1/GPa)
#
#
# Indices 1 2 3 4 5 6 
#
# 1 0.015341 -0.006317 -0.003507 -0.000004 0.001680 0.000002
# 2 -0.006317 0.047964 -0.017779 0.000008 -0.006135 -0.000003
# 3 -0.003507 -0.017779 0.019314 0.000002 0.003751 -0.000002
# 4 -0.000004 0.000008 0.000002 0.035499 -0.000006 -0.008732
# 5 0.001680 -0.006135 0.003751 -0.000006 0.040084 0.000002
# 6 0.000002 -0.000003 -0.000002 -0.008732 0.000002 0.040235
#
#
# Mechanical properties :
#
#
# Convention : Reuss Voigt Hill
#
# Bulk Modulus (GPa) = 36.47900 48.09437 42.28668
# Shear Modulus (GPa) = 19.02725 24.08570 21.55648
#
# Velocity S-wave (km/s) = 3.21156 3.61333 3.41835
# Velocity P-wave (km/s) = 5.79020 6.59384 6.20504
#
# Compressibility (1/GPa) = 0.02741303
#
# Stress axis : x y z
#
# Youngs Moduli (GPa) = 65.18472 20.84875 51.77712
#
# Poissons Ratio (x) = 0.13169 0.18158
# Poissons Ratio (y) = 0.41175 0.92057
# Poissons Ratio (z) = 0.22859 0.37068
#
# Static dielectric constant tensor:
#      x y z
#    x 1.647420 0.000000 -0.010490 
#    y 0.000000 1.621370 0.000000 
#    z -0.010490 0.000000 1.655610 
# 
# From -- ./inp_files/32370.got.cif
#   From: 2010.05.17/outbox.cif.g08.bks.cpg/sg8_17_cif.got.tgz:32370.got - 2010.06.03 19:46:02.
