data_PCOD9132886
_publ_section_title
;
Structure prediction by ZEFSAII (Michael W. Deem and Ramdas Pophale) SiO2 
 PCOD9132886
Probable space group: C M
;
_chemical_formula_sum "Si O2"
_cell_formula_units_Z 32
_cell_length_a 24.227865
_cell_length_b 9.268498
_cell_length_c 25.147225
_cell_angle_alpha 90.000000
_cell_angle_beta 16.518491
_cell_angle_gamma 90.000000
_cell_volume 1605.570085
_symmetry_space_group_name_H-M "C M"
_symmetry_group_IT_number 8
_symmetry_cell_setting 'monoclinic'
loop_
_space_group_symop_operation_xyz
x,y,z
x,-y,z
1/2+x,1/2+y,z
1/2+x,1/2-y,z
loop_
_atom_site_type_symbol
_atom_site_label
_atom_site_fract_x
_atom_site_fract_y
_atom_site_fract_z
Si Si1 0.447680 0.827882 0.308020
Si Si2 0.131371 0.170105 0.037335
Si Si3 0.573562 0.171851 0.864839
Si Si4 0.598981 0.834625 0.961181
Si Si5 0.717596 0.828382 0.159405
Si Si6 0.069258 0.164793 0.516723
Si Si7 0.532532 0.671879 0.430501
Si Si8 0.594789 0.831208 0.598746
O O1 0.579836 0.794170 0.236877
O O2 0.233451 0.759465 0.509126
O O3 0.435600 0.000000 0.313240
O O4 0.545362 0.756250 0.166216
O O5 0.056092 0.235924 0.051195
O O6 0.365933 0.188204 0.820737
O O7 0.089233 0.000000 0.079721
O O8 0.528992 0.212584 0.967584
O O9 0.800624 0.198287 0.645298
O O10 0.541721 0.000000 0.889972
O O11 0.429683 0.257050 0.959667
O O12 0.833916 0.838069 0.738085
O O13 0.536280 0.000000 0.028486
O O14 0.624150 0.761365 0.298619
O O15 0.734384 0.000000 0.148159
O O16 0.134778 0.271757 0.502271
O O17 0.112365 0.205226 0.415977
O O18 0.135093 0.000000 0.466332
O O19 0.562845 0.500000 0.394485
O O20 0.639768 0.000000 0.560758
#
# Coordination Sequence:
#
# PCOD9132886 Si02
#       8
#     4   4   4   4   4   4   4   4
#     4  11  25  42  57  76 107 150 196 233 270 327
#     4  10  21  37  59  87 115 143 179 228 283 330
#     4   9  19  37  61  86 112 146 185 224 271 328
#     4   8  15  31  56  85 115 146 180 217 265 331
#     4  11  25  40  55  80 111 146 190 235 278 325
#     4   8  15  31  56  85 115 146 180 217 265 331
#     4   9  19  37  61  86 112 146 185 224 271 328
#     4  10  21  37  59  87 115 143 179 228 283 330
#
# _framework density 19.930616000000001
#
# number of rings (size 3 to 8) (size 9 to 14) (size 15 to 20)
#    0.000    2.500    0.000    3.000    0.000    7.000 
#    0.000    8.750    0.000    0.000    0.000    0.000 
#    0.000    0.000    0.000    0.000    0.000    0.000 
#
# Total GULP energy -89396.613612 kJ/mol
# GULP energy per Si atom -5587.288351 kJ/mol
# Density = 1.988525 g / cm^3
# Si number density = 19.930616 Si / 1000 Ang^3
#
#
#
# Elastic Constant Matrix: (Units=GPa)
#
#
# Indices 1 2 3 4 5 6 
#
# 1 86.0250 46.1200 20.7969 0.0028 -24.3910 0.0025
# 2 46.1200 63.0236 22.8056 0.0059 -13.6671 0.0033
# 3 20.7969 22.8056 59.1804 -0.0103 -8.8757 0.0070
# 4 0.0028 0.0059 -0.0103 24.8421 0.0035 -3.9399
# 5 -24.3910 -13.6671 -8.8757 0.0035 31.9778 -0.0012
# 6 0.0025 0.0033 0.0070 -3.9399 -0.0012 31.2666
#
#
#
# Elastic Compliance Matrix: (Units=1/GPa)
#
#
# Indices 1 2 3 4 5 6 
#
# 1 0.022200 -0.013542 -0.000951 -0.000001 0.010881 0.000000
# 2 -0.013542 0.027942 -0.006017 -0.000008 -0.000057 -0.000002
# 3 -0.000951 -0.006017 0.019884 0.000009 0.002222 -0.000003
# 4 -0.000001 -0.000008 0.000009 0.041075 -0.000006 0.005176
# 5 0.010881 -0.000057 0.002222 -0.000006 0.040164 -0.000001
# 6 0.000000 -0.000002 -0.000003 0.005176 -0.000001 0.032635
#
#
# Mechanical properties :
#
#
# Convention : Reuss Voigt Hill
#
# Bulk Modulus (GPa) = 34.47669 43.07489 38.77579
# Shear Modulus (GPa) = 21.31399 25.51772 23.41586
#
# Velocity S-wave (km/s) = 3.27373 3.58205 3.43135
# Velocity P-wave (km/s) = 5.62367 6.22635 5.93267
#
# Compressibility (1/GPa) = 0.02900510
#
# Stress axis : x y z
#
# Youngs Moduli (GPa) = 45.04580 35.78865 50.29235
#
# Poissons Ratio (x) = 0.48464 0.04783
# Poissons Ratio (y) = 0.61000 0.30263
# Poissons Ratio (z) = 0.04284 0.21535
#
# Static dielectric constant tensor:
#      x y z
#    x 1.686220 0.000000 -0.028060 
#    y 0.000000 1.655110 0.000000 
#    z -0.028060 0.000000 1.757820 
# 
# From -- ./inp_files/32363.got.cif
#   From: 2010.05.17/outbox.cif.g08.bks.cpg/sg8_17_cif.got.tgz:32363.got - 2010.06.03 19:46:02.
