data_PCOD9132619
_publ_section_title
;
Structure prediction by ZEFSAII (Michael W. Deem and Ramdas Pophale) SiO2 
 PCOD9132619
Probable space group: C M
;
_chemical_formula_sum "Si O2"
_cell_formula_units_Z 28
_cell_length_a 7.727817
_cell_length_b 34.479627
_cell_length_c 5.039704
_cell_angle_alpha 90.000000
_cell_angle_beta 64.641895
_cell_angle_gamma 90.000000
_cell_volume 1213.456023
_symmetry_space_group_name_H-M "C M"
_symmetry_group_IT_number 8
_symmetry_cell_setting 'monoclinic'
loop_
_space_group_symop_operation_xyz
x,y,z
x,-y,z
1/2+x,1/2+y,z
1/2+x,1/2-y,z
loop_
_atom_site_type_symbol
_atom_site_label
_atom_site_fract_x
_atom_site_fract_y
_atom_site_fract_z
Si Si1 0.159500 0.304127 0.974410
Si Si2 0.733534 0.884797 0.081583
Si Si3 0.987009 0.885830 0.402079
Si Si4 0.085122 0.194964 0.445327
Si Si5 0.372958 0.253084 0.209328
Si Si6 0.211529 0.043467 0.001732
Si Si7 0.469272 0.043449 0.335186
O O1 0.109613 0.348793 0.053459
O O2 0.373691 0.303570 0.713764
O O3 0.207134 0.281531 0.214377
O O4 0.994995 0.277830 0.951539
O O5 0.873470 0.895647 0.745723
O O6 0.847091 0.869717 0.264300
O O7 0.619068 0.922185 0.251961
O O8 0.128305 0.850339 0.380600
O O9 0.078177 0.923169 0.204105
O O10 0.032993 0.216955 0.207352
O O11 0.253465 0.220994 0.459660
O O12 0.295123 0.050880 0.654503
O O13 0.125376 0.000000 0.062333
O O14 0.388779 0.043053 0.090006
O O15 0.542697 0.000000 0.349591
#
# Coordination Sequence:
#
# PCOD9132619 Si02
#       7
#     4   4   4   4   4   4   4
#     4  10  21  37  57  84 120 156 208 255 305 366
#     4  11  23  40  61  91 126 159 204 256 307 366
#     4  11  23  40  61  91 126 159 204 256 307 366
#     4  10  21  37  57  84 120 156 208 255 305 366
#     4  10  20  38  58  82 114 162 206 250 316 356
#     4  10  22  41  64  92 124 160 204 249 302 373
#     4  10  22  41  64  92 124 160 204 249 302 373
#
# _framework density 23.074591000000002
#
# number of rings (size 3 to 8) (size 9 to 14) (size 15 to 20)
#    0.000    1.714    1.429    2.571    2.000    1.143 
#    0.000    1.429    0.000    0.000    0.000    0.000 
#    0.000    0.000    0.000    0.000    0.000    0.000 
#
# Total GULP energy -78002.007723 kJ/mol
# GULP energy per Si atom -5571.571980 kJ/mol
# Density = 2.302207 g / cm^3
# Si number density = 23.074591 Si / 1000 Ang^3
#
#
#
# Elastic Constant Matrix: (Units=GPa)
#
#
# Indices 1 2 3 4 5 6 
#
# 1 43.7267 12.7424 3.2921 0.0000 -9.9201 0.0000
# 2 12.7424 172.7750 34.5340 0.0000 -38.0337 0.0000
# 3 3.2921 34.5340 78.9314 0.0000 -7.0980 0.0000
# 4 0.0000 0.0000 0.0000 15.1615 0.0000 -33.8748
# 5 -9.9201 -38.0337 -7.0980 0.0000 27.9434 0.0000
# 6 0.0000 0.0000 0.0000 -33.8748 0.0000 -27.6736
#
#
#
# Elastic Compliance Matrix: (Units=1/GPa)
#
#
# Indices 1 2 3 4 5 6 
#
# 1 0.024883 0.000222 -0.000321 0.000000 0.009054 0.000000
# 2 0.000222 0.008853 -0.002857 0.000000 0.011402 0.000000
# 3 -0.000321 -0.002857 0.013890 0.000000 -0.000474 0.000000
# 4 0.000000 0.000000 0.000000 0.017659 0.000000 -0.021617
# 5 0.009054 0.011402 -0.000474 0.000000 0.054400 0.000000
# 6 0.000000 0.000000 0.000000 -0.021617 0.000000 -0.009675
#
#
# Mechanical properties :
#
#
# Convention : Reuss Voigt Hill
#
# Bulk Modulus (GPa) = 23.97273 44.06335 34.01804
# Shear Modulus (GPa) = 38.51302 19.41058 28.96180
#
# Velocity S-wave (km/s) = 4.08985 2.90351 3.54664
# Velocity P-wave (km/s) = 5.71964 5.51162 5.61660
#
# Compressibility (1/GPa) = 0.04171406
#
# Stress axis : x y z
#
# Youngs Moduli (GPa) = 40.18828 112.96077 71.99431
#
# Poissons Ratio (x) = -0.02510 0.02309
# Poissons Ratio (y) = -0.00893 0.20569
# Poissons Ratio (z) = 0.01289 0.32274
#
# Static dielectric constant tensor:
#      x y z
#    x 2.002880 0.000000 0.018130 
#    y 0.000000 1.887190 0.000000 
#    z 0.018130 0.000000 1.920040 
# 
# From -- ./inp_files/1835.got.cif
#   From: 2010.05.17/outbox.cif.g08.bks.cpg/sg8_1_cif.got.tgz:1835.got - 2010.06.03 19:46:02.
