data_PCOD9132381
_publ_section_title
;
Structure prediction by ZEFSAII (Michael W. Deem and Ramdas Pophale) SiO2 
 PCOD9132381
Probable space group: C M
;
_chemical_formula_sum "Si O2"
_cell_formula_units_Z 26
_cell_length_a 27.368248
_cell_length_b 7.198986
_cell_length_c 7.404694
_cell_angle_alpha 90.000000
_cell_angle_beta 39.988675
_cell_angle_gamma 90.000000
_cell_volume 937.541747
_symmetry_space_group_name_H-M "C M"
_symmetry_group_IT_number 8
_symmetry_cell_setting 'monoclinic'
loop_
_space_group_symop_operation_xyz
x,y,z
x,-y,z
1/2+x,1/2+y,z
1/2+x,1/2-y,z
loop_
_atom_site_type_symbol
_atom_site_label
_atom_site_fract_x
_atom_site_fract_y
_atom_site_fract_z
Si Si1 0.116280 0.773993 0.443560
Si Si2 0.530100 0.000000 0.053990
Si Si3 0.896622 0.705319 0.237220
Si Si4 0.850379 0.206058 0.981962
Si Si5 0.744793 0.274946 0.808057
Si Si6 0.188834 0.209693 0.579005
Si Si7 0.009144 0.225171 0.422146
O O1 0.189307 0.712553 0.121244
O O2 0.129854 0.693873 0.607161
O O3 0.046596 0.726588 0.510412
O O4 0.115427 0.000000 0.464053
O O5 0.477516 0.162205 0.091785
O O6 0.551278 0.162927 0.147516
O O7 0.867068 0.500000 0.265144
O O8 0.888073 0.810139 0.074989
O O9 0.833505 0.775536 0.557457
O O10 0.768651 0.298080 0.240530
O O11 0.834666 0.000000 0.958921
O O12 0.920721 0.287406 0.671100
O O13 0.739117 0.500000 0.834399
O O14 0.714204 0.212233 0.699043
O O15 0.162836 0.000000 0.687717
O O16 0.013221 0.000000 0.391517
#
# Coordination Sequence:
#
# PCOD9132381 Si02
#       7
#     4   2   4   4   4   4   4
#     4   9  18  34  56  78 113 154 191 243 292 349
#     4  10  22  36  64  82 122 156 192 246 302 346
#     4   8  18  34  55  88 104 143 203 231 292 351
#     4  10  20  35  57  84 122 151 188 252 295 350
#     4   8  14  29  54  82 107 136 190 249 279 344
#     4   9  18  32  59  84 106 150 202 238 294 352
#     4  10  23  39  56  89 121 153 200 240 295 358
#
# _framework density 27.732098000000001
#
# number of rings (size 3 to 8) (size 9 to 14) (size 15 to 20)
#    0.462    2.462    0.000    1.385    4.308    0.615 
#    4.154    0.000    6.769    0.000    0.000    0.000 
#    0.000    0.000    0.000    0.000    0.000    0.000 
#
# Total GULP energy -72405.611064 kJ/mol
# GULP energy per Si atom -5569.662390 kJ/mol
# Density = 2.766898 g / cm^3
# Si number density = 27.732098 Si / 1000 Ang^3
#
#
#
# Elastic Constant Matrix: (Units=GPa)
#
#
# Indices 1 2 3 4 5 6 
#
# 1 191.1374 -13.9643 10.9674 0.0000 -1.1863 0.0000
# 2 -13.9643 143.4642 -40.6274 0.0000 5.1331 0.0000
# 3 10.9674 -40.6274 101.9863 0.0000 -10.4185 0.0000
# 4 0.0000 0.0000 0.0000 -25.9522 0.0000 -8.8706
# 5 -1.1863 5.1331 -10.4185 0.0000 51.6976 0.0000
# 6 0.0000 0.0000 0.0000 -8.8706 0.0000 15.6980
#
#
#
# Elastic Compliance Matrix: (Units=1/GPa)
#
#
# Indices 1 2 3 4 5 6 
#
# 1 0.005284 0.000398 -0.000410 0.000000 -0.000001 0.000000
# 2 0.000398 0.007888 0.003084 0.000000 -0.000153 0.000000
# 3 -0.000410 0.003084 0.011278 0.000000 0.001957 0.000000
# 4 0.000000 0.000000 0.000000 -0.032295 0.000000 -0.018249
# 5 -0.000001 -0.000153 0.001957 0.000000 0.019753 0.000000
# 6 0.000000 0.000000 0.000000 -0.018249 0.000000 0.053390
#
#
# Mechanical properties :
#
#
# Convention : Reuss Voigt Hill
#
# Bulk Modulus (GPa) = 32.68494 38.81549 35.75021
# Shear Modulus (GPa) = 72.09632 40.30282 56.19957
#
# Velocity S-wave (km/s) = 5.10430 3.81634 4.50657
# Velocity P-wave (km/s) = 6.82276 5.78327 6.32441
#
# Compressibility (1/GPa) = 0.03059513
#
# Stress axis : x y z
#
# Youngs Moduli (GPa) = 189.23463 126.77620 88.67056
#
# Poissons Ratio (x) = -0.05051 0.03633
# Poissons Ratio (y) = -0.07539 -0.27344
# Poissons Ratio (z) = 0.07752 -0.39095
#
# Static dielectric constant tensor:
#      x y z
#    x 2.101540 0.000000 -0.003000 
#    y 0.000000 2.001600 0.000000 
#    z -0.003000 0.000000 2.322330 
# 
# From -- ./inp_files/14411.got.cif
#   From: 2010.05.17/outbox.cif.g08.bks.cpg/sg8_8_cif.got.tgz:14411.got - 2010.06.03 19:46:02.
