data_PCOD9132117
_publ_section_title
;
Structure prediction by ZEFSAII (Michael W. Deem and Ramdas Pophale) SiO2 
 PCOD9132117
Probable space group: C M
;
_chemical_formula_sum "Si O2"
_cell_formula_units_Z 32
_cell_length_a 25.753246
_cell_length_b 8.695585
_cell_length_c 17.090039
_cell_angle_alpha 90.000000
_cell_angle_beta 25.765493
_cell_angle_gamma 90.000000
_cell_volume 1663.612899
_symmetry_space_group_name_H-M "C M"
_symmetry_group_IT_number 8
_symmetry_cell_setting 'monoclinic'
loop_
_space_group_symop_operation_xyz
x,y,z
x,-y,z
1/2+x,1/2+y,z
1/2+x,1/2-y,z
loop_
_atom_site_type_symbol
_atom_site_label
_atom_site_fract_x
_atom_site_fract_y
_atom_site_fract_z
Si Si1 0.083750 0.816963 0.058490
Si Si2 0.495739 0.314852 0.705608
Si Si3 0.030282 0.183754 0.407931
Si Si4 0.206062 0.186320 0.302982
Si Si5 0.473090 0.186198 0.909926
Si Si6 0.660988 0.184127 0.788628
Si Si7 0.837476 0.316091 0.788948
Si Si8 0.922360 0.317751 0.403007
O O1 0.970381 0.749218 0.256745
O O2 0.073513 0.000000 0.065063
O O3 0.105748 0.743990 0.944344
O O4 0.200828 0.784091 0.952728
O O5 0.489044 0.500000 0.711829
O O6 0.615597 0.265309 0.494922
O O7 0.384785 0.244291 0.807765
O O8 0.495447 0.256773 0.794427
O O9 0.145434 0.230597 0.302575
O O10 0.919047 0.231921 0.613604
O O11 0.011119 0.263058 0.351324
O O12 0.032002 0.000000 0.394975
O O13 0.342986 0.236633 0.118759
O O14 0.205738 0.000000 0.305675
O O15 0.471117 0.000000 0.905481
O O16 0.575732 0.227894 0.832133
O O17 0.792092 0.253524 0.599988
O O18 0.670000 0.000000 0.779194
O O19 0.855947 0.500000 0.758940
O O20 0.918748 0.500000 0.405495
#
# Coordination Sequence:
#
# PCOD9132117 Si02
#       8
#     4   4   4   4   4   4   4   4
#     4  11  24  41  63  91 123 163 210 260 314 372
#     4  10  21  37  59  90 124 162 202 250 303 363
#     4  10  19  35  61  90 125 162 201 252 311 373
#     4   8  18  37  59  85 120 158 195 240 301 362
#     4  10  22  41  64  89 119 162 208 252 305 368
#     4  11  24  43  65  90 125 166 212 263 311 370
#     4  10  20  36  60  89 125 164 201 251 312 370
#     4  12  25  40  61  90 125 165 209 258 313 376
#
# _framework density 19.235244999999999
#
# number of rings (size 3 to 8) (size 9 to 14) (size 15 to 20)
#    0.000    1.750    1.250    3.750    1.750    3.500 
#    0.000    4.375    0.000    0.000    0.000    0.000 
#    0.000    0.000    0.000    0.000    0.000    0.000 
#
# Total GULP energy -89403.668976 kJ/mol
# GULP energy per Si atom -5587.729311 kJ/mol
# Density = 1.919146 g / cm^3
# Si number density = 19.235245 Si / 1000 Ang^3
#
#
#
# Elastic Constant Matrix: (Units=GPa)
#
#
# Indices 1 2 3 4 5 6 
#
# 1 122.3201 44.1905 44.4017 0.0002 23.0675 -0.0001
# 2 44.1905 57.3832 19.3513 0.0003 7.5817 -0.0002
# 3 44.4017 19.3513 61.3242 0.0004 25.3245 -0.0003
# 4 0.0002 0.0003 0.0004 24.4395 -0.0002 10.8755
# 5 23.0675 7.5817 25.3245 -0.0002 26.2191 0.0001
# 6 -0.0001 -0.0002 -0.0003 10.8755 0.0001 27.4866
#
#
#
# Elastic Compliance Matrix: (Units=1/GPa)
#
#
# Indices 1 2 3 4 5 6 
#
# 1 0.014116 -0.008344 -0.005748 0.000000 -0.004454 0.000000
# 2 -0.008344 0.024438 -0.002967 0.000000 0.003140 0.000000
# 3 -0.005748 -0.002967 0.031544 -0.000001 -0.024553 0.000001
# 4 0.000000 0.000000 -0.000001 0.049661 0.000002 -0.019649
# 5 -0.004454 0.003140 -0.024553 0.000002 0.064866 -0.000001
# 6 0.000000 0.000000 0.000001 -0.019649 -0.000001 0.044156
#
#
# Mechanical properties :
#
#
# Convention : Reuss Voigt Hill
#
# Bulk Modulus (GPa) = 27.79295 50.76830 39.28063
# Shear Modulus (GPa) = 18.18884 24.50130 21.34507
#
# Velocity S-wave (km/s) = 3.07840 3.57286 3.33481
# Velocity P-wave (km/s) = 5.20727 6.59327 5.94083
#
# Compressibility (1/GPa) = 0.03598034
#
# Stress axis : x y z
#
# Youngs Moduli (GPa) = 70.83982 40.92002 31.70134
#
# Poissons Ratio (x) = 0.34143 0.18223
# Poissons Ratio (y) = 0.59108 0.09405
# Poissons Ratio (z) = 0.40722 0.12140
#
# Static dielectric constant tensor:
#      x y z
#    x 1.656300 0.000000 -0.008860 
#    y 0.000000 1.642130 0.000000 
#    z -0.008860 0.000000 1.665900 
# 
# From -- ./inp_files/28182.got.cif
#   From: 2010.05.17/outbox.cif.g08.bks.cpg/sg8_15_cif.got.tgz:28182.got - 2010.06.03 19:46:02.
