data_PCOD9132772
_publ_section_title
;
Structure prediction by ZEFSAII (Michael W. Deem and Ramdas Pophale) SiO2 
 PCOD9132772
Probable space group: C M
;
_chemical_formula_sum "Si O2"
_cell_formula_units_Z 28
_cell_length_a 5.496999
_cell_length_b 31.182422
_cell_length_c 7.331621
_cell_angle_alpha 90.000000
_cell_angle_beta 120.329672
_cell_angle_gamma 90.000000
_cell_volume 1084.710416
_symmetry_space_group_name_H-M "C M"
_symmetry_group_IT_number 8
_symmetry_cell_setting 'monoclinic'
loop_
_space_group_symop_operation_xyz
x,y,z
x,-y,z
1/2+x,1/2+y,z
1/2+x,1/2-y,z
loop_
_atom_site_type_symbol
_atom_site_label
_atom_site_fract_x
_atom_site_fract_y
_atom_site_fract_z
Si Si1 0.956060 0.854752 0.867420
Si Si2 0.312087 0.500000 0.883323
Si Si3 0.608971 0.268063 0.436772
Si Si4 0.010859 0.135015 0.451926
Si Si5 0.988586 0.500000 0.146741
Si Si6 0.979896 0.583315 0.727348
Si Si7 0.695018 0.262214 0.956938
Si Si8 0.949848 0.409346 0.140526
O O1 0.996442 0.860352 0.665953
O O2 0.647446 0.871907 0.786763
O O3 0.031195 0.806320 0.935970
O O4 0.159685 0.884874 0.065492
O O5 0.173504 0.543157 0.749447
O O6 0.647382 0.500000 0.981621
O O7 0.209666 0.500000 0.058802
O O8 0.911775 0.245165 0.533458
O O9 0.619333 0.319287 0.421540
O O10 0.413522 0.248656 0.202360
O O11 0.702519 0.123818 0.262349
O O12 0.211805 0.093727 0.502317
O O13 0.024947 0.454456 0.262177
O O14 0.913575 0.576961 0.914974
O O15 0.426933 0.229996 0.883692
#
# Coordination Sequence:
#
# PCOD9132772 Si02
#       8
#     4   2   4   4   2   4   4   4
#     4  11  24  42  69  99 133 181 233 287 348 417
#     4  10  20  45  71 100 141 186 232 282 352 413
#     4  10  23  42  64  94 134 183 227 284 345 406
#     4  11  26  42  67 106 137 181 237 294 349 414
#     4  10  20  41  71 104 133 188 238 274 350 427
#     4  10  24  42  70  99 138 183 229 290 348 422
#     4  10  23  41  67  94 128 181 228 277 343 408
#     4  10  22  43  69  96 140 182 229 288 348 416
#
# _framework density 25.813341000000001
#
# number of rings (size 3 to 8) (size 9 to 14) (size 15 to 20)
#    0.000    1.714    1.429    1.714   10.000    2.857 
#    0.000    1.429    0.000    0.000    0.000    0.000 
#    0.000    0.000    0.000    0.000    0.000    0.000 
#
# Total GULP energy -78231.538322 kJ/mol
# GULP energy per Si atom -5587.967023 kJ/mol
# Density = 2.575459 g / cm^3
# Si number density = 25.813341 Si / 1000 Ang^3
#
#
#
# Elastic Constant Matrix: (Units=GPa)
#
#
# Indices 1 2 3 4 5 6 
#
# 1 114.1279 -16.0169 15.1346 0.0000 14.3841 0.0000
# 2 -16.0169 95.4558 -10.6785 0.0000 -5.4295 0.0000
# 3 15.1346 -10.6785 60.2934 0.0000 1.8730 0.0000
# 4 0.0000 0.0000 0.0000 15.4230 0.0000 14.7322
# 5 14.3841 -5.4295 1.8730 0.0000 44.1342 0.0000
# 6 0.0000 0.0000 0.0000 14.7322 0.0000 47.4563
#
#
#
# Elastic Compliance Matrix: (Units=1/GPa)
#
#
# Indices 1 2 3 4 5 6 
#
# 1 0.009573 0.001208 -0.002100 0.000000 -0.002882 0.000000
# 2 0.001208 0.010908 0.001601 0.000000 0.000880 0.000000
# 3 -0.002100 0.001601 0.017392 0.000000 0.000143 0.000000
# 4 0.000000 0.000000 0.000000 0.092169 0.000000 -0.028613
# 5 -0.002882 0.000880 0.000143 0.000000 0.023700 0.000000
# 6 0.000000 0.000000 0.000000 -0.028613 0.000000 0.029954
#
#
# Mechanical properties :
#
#
# Convention : Reuss Voigt Hill
#
# Bulk Modulus (GPa) = 25.45077 27.41727 26.43402
# Shear Modulus (GPa) = 25.59181 40.16523 32.87852
#
# Velocity S-wave (km/s) = 3.15209 3.94888 3.57277
# Velocity P-wave (km/s) = 4.80921 5.60678 5.22324
#
# Compressibility (1/GPa) = 0.03929155
#
# Stress axis : x y z
#
# Youngs Moduli (GPa) = 104.45735 91.67676 57.49840
#
# Poissons Ratio (x) = -0.11070 0.12073
# Poissons Ratio (y) = -0.12613 -0.09208
# Poissons Ratio (z) = 0.21932 -0.14681
#
# Static dielectric constant tensor:
#      x y z
#    x 2.112730 0.000000 -0.149290 
#    y 0.000000 2.018530 0.000000 
#    z -0.149290 0.000000 2.121480 
# 
# From -- ./inp_files/7171.got.cif
#   From: 2010.05.17/outbox.cif.g08.bks.cpg/sg8_4_cif.got.tgz:7171.got - 2010.06.03 19:46:02.
