data_PCOD9132978
_publ_section_title
;
Structure prediction by ZEFSAII (Michael W. Deem and Ramdas Pophale) SiO2 
 PCOD9132978
Probable space group: C M
;
_chemical_formula_sum "Si O2"
_cell_formula_units_Z 32
_cell_length_a 22.838988
_cell_length_b 8.628072
_cell_length_c 28.139904
_cell_angle_alpha 90.000000
_cell_angle_beta 162.150688
_cell_angle_gamma 90.000000
_cell_volume 1699.669427
_symmetry_space_group_name_H-M "C M"
_symmetry_group_IT_number 8
_symmetry_cell_setting 'monoclinic'
loop_
_space_group_symop_operation_xyz
x,y,z
x,-y,z
1/2+x,1/2+y,z
1/2+x,1/2-y,z
loop_
_atom_site_type_symbol
_atom_site_label
_atom_site_fract_x
_atom_site_fract_y
_atom_site_fract_z
Si Si1 0.534290 0.314657 0.427180
Si Si2 0.772907 0.184927 0.046967
Si Si3 0.510944 0.686400 0.664239
Si Si4 0.566068 0.185848 0.602735
Si Si5 0.743149 0.686544 0.278211
Si Si6 0.833139 0.313512 0.987884
Si Si7 0.855784 0.186687 0.744276
Si Si8 0.581596 0.186601 0.358892
O O1 0.535987 0.500000 0.430485
O O2 0.356637 0.249381 0.320268
O O3 0.723482 0.248314 0.599241
O O4 0.528888 0.256104 0.369235
O O5 0.805020 0.242133 0.018093
O O6 0.934272 0.256372 0.205466
O O7 0.782515 0.000000 0.056287
O O8 0.565198 0.243073 0.903058
O O9 0.511090 0.500000 0.664351
O O10 0.567514 0.742384 0.655687
O O11 0.296459 0.737386 0.511260
O O12 0.662817 0.737241 0.821213
O O13 0.375341 0.228854 0.425849
O O14 0.743803 0.229384 0.706220
O O15 0.567150 0.000000 0.607883
O O16 0.733063 0.500000 0.268130
O O17 0.535308 0.758302 0.123419
O O18 0.830122 0.500000 0.989227
O O19 0.864548 0.000000 0.748067
O O20 0.577599 0.000000 0.358493
#
# Coordination Sequence:
#
# PCOD9132978 Si02
#       8
#     4   4   4   4   4   4   4   4
#     4  11  22  38  62  92 121 155 198 247 298 354
#     4  12  25  40  60  89 119 153 199 252 303 358
#     4  10  23  39  59  85 115 151 194 240 291 350
#     4   9  20  37  60  86 115 150 191 236 286 344
#     4  10  21  39  61  88 120 157 198 242 293 356
#     4  11  23  40  60  86 119 156 197 246 300 359
#     4  10  21  40  62  87 120 160 199 240 295 360
#     4  11  23  41  62  85 117 160 200 243 300 361
#
# _framework density 18.827190000000002
#
# number of rings (size 3 to 8) (size 9 to 14) (size 15 to 20)
#    0.000    1.500    0.000    6.000    0.000    9.000 
#    0.000    2.500    0.000    0.000    0.000    0.000 
#    0.000    0.000    0.000    0.000    0.000    0.000 
#
# Total GULP energy -89469.963547 kJ/mol
# GULP energy per Si atom -5591.872722 kJ/mol
# Density = 1.878434 g / cm^3
# Si number density = 18.827190 Si / 1000 Ang^3
#
#
#
# Elastic Constant Matrix: (Units=GPa)
#
#
# Indices 1 2 3 4 5 6 
#
# 1 141.5755 27.7694 83.5144 -0.0076 -22.7109 -0.0040
# 2 27.7694 68.2018 31.0701 0.0155 -2.1394 -0.0039
# 3 83.5144 31.0701 160.3960 0.0637 5.7205 -0.0060
# 4 -0.0076 0.0155 0.0637 31.6301 -0.0053 -1.0316
# 5 -22.7109 -2.1394 5.7205 -0.0053 25.2249 -0.0026
# 6 -0.0040 -0.0039 -0.0060 -1.0316 -0.0026 38.5663
#
#
#
# Elastic Compliance Matrix: (Units=1/GPa)
#
#
# Indices 1 2 3 4 5 6 
#
# 1 0.014162 -0.001893 -0.007517 0.000022 0.014295 0.000002
# 2 -0.001893 0.016444 -0.002206 -0.000004 0.000190 0.000001
# 3 -0.007517 -0.002206 0.010912 -0.000024 -0.009429 -0.000001
# 4 0.000022 -0.000004 -0.000024 0.031643 0.000032 0.000846
# 5 0.014295 0.000190 -0.009429 0.000032 0.054668 0.000005
# 6 0.000002 0.000001 -0.000001 0.000846 0.000005 0.025952
#
#
# Mechanical properties :
#
#
# Convention : Reuss Voigt Hill
#
# Bulk Modulus (GPa) = 54.68901 72.76455 63.72678
# Shear Modulus (GPa) = 27.30600 34.27222 30.78911
#
# Velocity S-wave (km/s) = 3.81248 4.27119 4.04834
# Velocity P-wave (km/s) = 6.96354 7.94082 7.46819
#
# Compressibility (1/GPa) = 0.01828521
#
# Stress axis : x y z
#
# Youngs Moduli (GPa) = 70.61160 60.81092 91.64142
#
# Poissons Ratio (x) = 0.11514 0.68885
# Poissons Ratio (y) = 0.13370 0.20219
# Poissons Ratio (z) = 0.53078 0.13417
#
# Static dielectric constant tensor:
#      x y z
#    x 1.622680 0.000000 0.005250 
#    y 0.000000 1.633070 -0.000010 
#    z 0.005250 -0.000010 1.632640 
# 
# From -- ./inp_files/33057.got.cif
#   From: 2010.05.17/outbox.cif.g08.bks.cpg/sg8_17_cif.got.tgz:33057.got - 2010.06.03 19:46:02.
