data_PCOD9132508
_publ_section_title
;
Structure prediction by ZEFSAII (Michael W. Deem and Ramdas Pophale) SiO2 
 PCOD9132508
Probable space group: C M
;
_chemical_formula_sum "Si O2"
_cell_formula_units_Z 30
_cell_length_a 22.757799
_cell_length_b 11.452767
_cell_length_c 5.031446
_cell_angle_alpha 90.000000
_cell_angle_beta 80.453776
_cell_angle_gamma 90.000000
_cell_volume 1293.234894
_symmetry_space_group_name_H-M "C M"
_symmetry_group_IT_number 8
_symmetry_cell_setting 'monoclinic'
loop_
_space_group_symop_operation_xyz
x,y,z
x,-y,z
1/2+x,1/2+y,z
1/2+x,1/2-y,z
loop_
_atom_site_type_symbol
_atom_site_label
_atom_site_fract_x
_atom_site_fract_y
_atom_site_fract_z
Si Si1 0.404980 0.633250 0.955240
Si Si2 0.169758 0.303505 0.668999
Si Si3 0.882807 0.633748 0.333979
Si Si4 0.706905 0.000000 0.356813
Si Si5 0.749102 0.631996 0.317709
Si Si6 0.775156 0.832638 0.944086
Si Si7 0.059522 0.362894 0.075348
Si Si8 0.983376 0.296801 0.631758
O O1 0.409568 0.500000 0.057726
O O2 0.343051 0.639732 0.835506
O O3 0.461023 0.668029 0.731670
O O4 0.398501 0.746536 0.157525
O O5 0.156937 0.397186 0.452232
O O6 0.195420 0.188149 0.521655
O O7 0.225825 0.370073 0.769002
O O8 0.117277 0.296722 0.917600
O O9 0.891789 0.500000 0.215385
O O10 0.811772 0.642932 0.428295
O O11 0.923964 0.641175 0.562905
O O12 0.755430 0.099393 0.222396
O O13 0.736621 0.500000 0.268114
O O14 0.761914 0.700581 0.035452
O O15 0.072413 0.500000 0.100140
O O16 0.011563 0.353437 0.871568
O O17 0.030237 0.306576 0.357283
#
# Coordination Sequence:
#
# PCOD9132508 Si02
#       8
#     4   4   4   2   4   4   4   4
#     4  11  24  44  70 108 146 185 232 293 363 432
#     4  11  23  39  65  99 134 175 220 286 346 414
#     4  10  21  43  74 104 141 182 237 291 353 423
#     4  10  20  36  62 100 136 162 214 268 350 406
#     4   9  21  40  65  99 133 173 219 278 347 422
#     4  10  21  39  67 101 136 173 215 278 352 423
#     4  12  27  44  72 101 137 183 242 296 346 410
#     4  12  26  46  68 104 138 188 235 295 353 412
#
# _framework density 23.197642999999999
#
# number of rings (size 3 to 8) (size 9 to 14) (size 15 to 20)
#    0.000    1.333    2.667    2.400    3.733    2.133 
#    0.000    4.000    0.000    0.000    0.000    0.000 
#    0.000    0.000    0.000    0.000    0.000    0.000 
#
# Total GULP energy -83525.558160 kJ/mol
# GULP energy per Si atom -5568.370544 kJ/mol
# Density = 2.314484 g / cm^3
# Si number density = 23.197643 Si / 1000 Ang^3
#
#
#
# Elastic Constant Matrix: (Units=GPa)
#
#
# Indices 1 2 3 4 5 6 
#
# 1 66.7476 22.6794 34.6295 0.0000 3.1468 0.0000
# 2 22.6794 191.4098 56.4559 0.0000 -17.4364 0.0000
# 3 34.6295 56.4559 99.4321 0.0000 -29.6010 0.0000
# 4 0.0000 0.0000 0.0000 -2.3910 0.0000 -0.9594
# 5 3.1468 -17.4364 -29.6010 0.0000 37.5092 0.0000
# 6 0.0000 0.0000 0.0000 -0.9594 0.0000 17.8587
#
#
#
# Elastic Compliance Matrix: (Units=1/GPa)
#
#
# Indices 1 2 3 4 5 6 
#
# 1 0.020700 -0.000430 -0.009857 0.000000 -0.009716 0.000000
# 2 -0.000430 0.006285 -0.003317 0.000000 0.000340 0.000000
# 3 -0.009857 -0.003317 0.019816 0.000000 0.014923 0.000000
# 4 0.000000 0.000000 0.000000 -0.409405 0.000000 -0.021994
# 5 -0.009716 0.000340 0.014923 0.000000 0.039410 0.000000
# 6 0.000000 0.000000 0.000000 -0.021994 0.000000 0.054814
#
#
# Mechanical properties :
#
#
# Convention : Reuss Voigt Hill
#
# Bulk Modulus (GPa) = 51.04339 65.01321 58.02830
# Shear Modulus (GPa) = -21.30929 26.85036 2.77053
#
# Velocity S-wave (km/s) = -3.03413 3.40584 1.09403
# Velocity P-wave (km/s) = 3.12681 6.59946 5.16381
#
# Compressibility (1/GPa) = 0.01959118
#
# Stress axis : x y z
#
# Youngs Moduli (GPa) = 48.30878 159.11449 50.46326
#
# Poissons Ratio (x) = 0.06847 0.49743
# Poissons Ratio (y) = 0.02079 0.16741
# Poissons Ratio (z) = 0.47620 0.52785
#
# Static dielectric constant tensor:
#      x y z
#    x 1.957090 0.000000 0.099420 
#    y 0.000000 1.856650 0.000000 
#    z 0.099420 0.000000 2.106980 
# 
# From -- ./inp_files/5954.got.cif
#   From: 2010.05.17/outbox.cif.g08.bks.cpg/sg8_3_cif.got.tgz:5954.got - 2010.06.03 19:46:02.
