data_PCOD9132313
_publ_section_title
;
Structure prediction by ZEFSAII (Michael W. Deem and Ramdas Pophale) SiO2 
 PCOD9132313
Probable space group: C M
;
_chemical_formula_sum "Si O2"
_cell_formula_units_Z 32
_cell_length_a 20.622532
_cell_length_b 8.801811
_cell_length_c 25.647881
_cell_angle_alpha 90.000000
_cell_angle_beta 23.229937
_cell_angle_gamma 90.000000
_cell_volume 1836.228652
_symmetry_space_group_name_H-M "C M"
_symmetry_group_IT_number 8
_symmetry_cell_setting 'monoclinic'
loop_
_space_group_symop_operation_xyz
x,y,z
x,-y,z
1/2+x,1/2+y,z
1/2+x,1/2-y,z
loop_
_atom_site_type_symbol
_atom_site_label
_atom_site_fract_x
_atom_site_fract_y
_atom_site_fract_z
Si Si1 0.432510 0.182086 0.049430
Si Si2 0.456451 0.819232 0.816780
Si Si3 0.940920 0.317491 0.555292
Si Si4 0.042062 0.818665 0.587092
Si Si5 0.559473 0.682716 0.847157
Si Si6 0.744294 0.182211 0.885464
Si Si7 0.083792 0.683384 0.338041
Si Si8 0.248207 0.182970 0.531775
O O1 0.252915 0.239720 0.197200
O O2 0.435546 0.000000 0.042168
O O3 0.490471 0.254781 0.952300
O O4 0.566184 0.223863 0.995071
O O5 0.460458 0.746468 0.870951
O O6 0.305639 0.763160 0.892343
O O7 0.619755 0.760257 0.666036
O O8 0.458341 0.000000 0.818680
O O9 0.939323 0.500000 0.556486
O O10 0.750316 0.267758 0.699560
O O11 0.034564 0.259815 0.537064
O O12 0.024001 0.268881 0.439880
O O13 0.191707 0.777444 0.515042
O O14 0.877646 0.780600 0.741719
O O15 0.043569 0.000000 0.578455
O O16 0.554215 0.500000 0.850766
O O17 0.752418 0.000000 0.887368
O O18 0.103557 0.500000 0.323112
O O19 0.933533 0.720911 0.410176
O O20 0.227451 0.000000 0.553190
#
# Coordination Sequence:
#
# PCOD9132313 Si02
#       8
#     4   4   4   4   4   4   4   4
#     4  11  23  39  58  85 116 149 191 236 282 337
#     4  11  21  32  55  88 115 141 187 243 283 326
#     4  10  20  34  56  83 111 143 186 231 274 330
#     4   9  17  31  55  82 109 141 180 230 279 326
#     4  11  21  37  59  83 114 151 189 232 282 339
#     4   9  19  36  55  78 114 152 183 226 286 344
#     4  10  21  39  58  79 111 154 194 228 277 342
#     4   9  18  36  56  78 112 153 190 224 279 342
#
# _framework density 17.427023999999999
#
# number of rings (size 3 to 8) (size 9 to 14) (size 15 to 20)
#    0.000    2.000    2.500    2.625    0.000    4.500 
#    0.000    1.250    0.000    4.500    0.000    0.000 
#    0.000    0.000    0.000    0.000    0.000    0.000 
#
# Total GULP energy -89309.682022 kJ/mol
# GULP energy per Si atom -5581.855126 kJ/mol
# Density = 1.738736 g / cm^3
# Si number density = 17.427024 Si / 1000 Ang^3
#
#
#
# Elastic Constant Matrix: (Units=GPa)
#
#
# Indices 1 2 3 4 5 6 
#
# 1 161.2673 52.2163 82.7190 -0.0013 -15.4042 0.0002
# 2 52.2163 45.0544 45.1088 0.0004 -6.7417 -0.0004
# 3 82.7190 45.1088 118.3226 0.0017 -11.0136 0.0001
# 4 -0.0013 0.0004 0.0017 22.8642 0.0001 0.5479
# 5 -15.4042 -6.7417 -11.0136 0.0001 27.1726 -0.0003
# 6 0.0002 -0.0004 0.0001 0.5479 -0.0003 32.5671
#
#
#
# Elastic Compliance Matrix: (Units=1/GPa)
#
#
# Indices 1 2 3 4 5 6 
#
# 1 0.011523 -0.008319 -0.004644 0.000001 0.002586 0.000000
# 2 -0.008319 0.042224 -0.010128 0.000000 0.001655 0.000001
# 3 -0.004644 -0.010128 0.015671 -0.000001 0.001207 0.000000
# 4 0.000001 0.000000 -0.000001 0.043754 0.000000 -0.000736
# 5 0.002586 0.001655 0.001207 0.000000 0.039168 0.000000
# 6 0.000000 0.000001 0.000000 -0.000736 0.000000 0.030718
#
#
# Mechanical properties :
#
#
# Convention : Reuss Voigt Hill
#
# Bulk Modulus (GPa) = 43.03233 76.08141 59.55687
# Shear Modulus (GPa) = 21.09834 26.16079 23.62957
#
# Velocity S-wave (km/s) = 3.48324 3.87869 3.68627
# Velocity P-wave (km/s) = 6.39717 7.98817 7.23653
#
# Compressibility (1/GPa) = 0.02323834
#
# Stress axis : x y z
#
# Youngs Moduli (GPa) = 86.77986 23.68316 63.81093
#
# Poissons Ratio (x) = 0.19701 0.29633
# Poissons Ratio (y) = 0.72190 0.64626
# Poissons Ratio (z) = 0.40299 0.23986
#
# Static dielectric constant tensor:
#      x y z
#    x 1.591470 0.000000 -0.017410 
#    y 0.000000 1.584160 0.000000 
#    z -0.017410 0.000000 1.569230 
# 
# From -- ./inp_files/15819.got.cif
#   From: 2010.05.17/outbox.cif.g08.bks.cpg/sg8_8_cif.got.tgz:15819.got - 2010.06.03 19:46:02.
