data_PCOD9132651
_publ_section_title
;
Structure prediction by ZEFSAII (Michael W. Deem and Ramdas Pophale) SiO2 
 PCOD9132651
Probable space group: C M
;
_chemical_formula_sum "Si O2"
_cell_formula_units_Z 32
_cell_length_a 24.236427
_cell_length_b 14.000763
_cell_length_c 9.355107
_cell_angle_alpha 90.000000
_cell_angle_beta 149.239076
_cell_angle_gamma 90.000000
_cell_volume 1623.596577
_symmetry_space_group_name_H-M "C M"
_symmetry_group_IT_number 8
_symmetry_cell_setting 'monoclinic'
loop_
_space_group_symop_operation_xyz
x,y,z
x,-y,z
1/2+x,1/2+y,z
1/2+x,1/2-y,z
loop_
_atom_site_type_symbol
_atom_site_label
_atom_site_fract_x
_atom_site_fract_y
_atom_site_fract_z
Si Si1 0.764470 0.392007 0.600010
Si Si2 0.625025 0.112967 0.708271
Si Si3 0.563375 0.266995 0.101464
Si Si4 0.370267 0.387847 0.160326
Si Si5 0.947906 0.721517 0.131599
Si Si6 0.030218 0.386659 0.808913
Si Si7 0.792695 0.389893 0.322593
Si Si8 0.554130 0.613329 0.805298
O O1 0.726997 0.500000 0.544492
O O2 0.670335 0.314794 0.402794
O O3 0.799954 0.388736 0.511831
O O4 0.860586 0.362138 0.917223
O O5 0.549817 0.179278 0.443344
O O6 0.593253 0.129387 0.802584
O O7 0.603202 0.000000 0.630214
O O8 0.751037 0.129154 0.957745
O O9 0.482136 0.251523 0.048862
O O10 0.581561 0.168618 0.056465
O O11 0.525831 0.337931 0.892002
O O12 0.375938 0.500000 0.128465
O O13 0.396848 0.312178 0.096975
O O14 0.462089 0.372973 0.484542
O O15 0.026400 0.500000 0.828842
O O16 0.905732 0.350319 0.516682
O O17 0.790258 0.500000 0.267742
O O18 0.673601 0.349682 0.024184
O O19 0.566659 0.500000 0.858062
#
# Coordination Sequence:
#
# PCOD9132651 Si02
#       8
#     4   4   4   4   4   4   4   4
#     4  10  21  39  61  87 124 160 200 251 307 368
#     4  10  23  43  64  87 124 167 213 259 308 370
#     4  11  22  36  60  97 124 155 202 264 314 367
#     4  10  23  44  63  88 127 169 207 255 314 375
#     4  12  23  40  61  91 124 169 208 253 308 373
#     4  10  20  38  63  94 125 161 210 265 310 367
#     4   8  15  33  61  90 116 148 199 254 301 353
#     4   9  19  39  64  88 122 165 206 257 317 367
#
# _framework density 19.709330000000001
#
# number of rings (size 3 to 8) (size 9 to 14) (size 15 to 20)
#    0.000    2.000    1.250    3.000    0.000    2.500 
#   11.250    0.625    0.000    0.000    0.000    0.000 
#    0.000    0.000    0.000    0.000    0.000    0.000 
#
# Total GULP energy -89305.243508 kJ/mol
# GULP energy per Si atom -5581.577719 kJ/mol
# Density = 1.966447 g / cm^3
# Si number density = 19.709330 Si / 1000 Ang^3
#
#
#
# Elastic Constant Matrix: (Units=GPa)
#
#
# Indices 1 2 3 4 5 6 
#
# 1 84.6322 52.2444 31.2570 0.0000 8.8197 0.0000
# 2 52.2444 89.9144 53.4652 0.0000 12.5216 0.0000
# 3 31.2570 53.4652 110.8219 0.0000 15.6249 0.0000
# 4 0.0000 0.0000 0.0000 34.1669 0.0000 -3.4768
# 5 8.8197 12.5216 15.6249 0.0000 19.1463 0.0000
# 6 0.0000 0.0000 0.0000 -3.4768 0.0000 27.7961
#
#
#
# Elastic Compliance Matrix: (Units=1/GPa)
#
#
# Indices 1 2 3 4 5 6 
#
# 1 0.018472 -0.010575 0.000131 0.000000 -0.001701 0.000000
# 2 -0.010575 0.022014 -0.007113 0.000000 -0.003721 0.000000
# 3 0.000131 -0.007113 0.013301 0.000000 -0.006263 0.000000
# 4 0.000000 0.000000 0.000000 0.029645 0.000000 0.003708
# 5 -0.001701 -0.003721 -0.006263 0.000000 0.060558 0.000000
# 6 0.000000 0.000000 0.000000 0.003708 0.000000 0.036440
#
#
# Mechanical properties :
#
#
# Convention : Reuss Voigt Hill
#
# Bulk Modulus (GPa) = 53.54906 62.14462 57.84684
# Shear Modulus (GPa) = 22.54604 26.11532 24.33068
#
# Velocity S-wave (km/s) = 3.38587 3.64404 3.51732
# Velocity P-wave (km/s) = 6.52026 7.02171 6.77563
#
# Compressibility (1/GPa) = 0.01867446
#
# Stress axis : x y z
#
# Youngs Moduli (GPa) = 54.13504 45.42594 75.18072
#
# Poissons Ratio (x) = 0.48036 -0.00987
# Poissons Ratio (y) = 0.57245 0.53478
# Poissons Ratio (z) = -0.00711 0.32313
#
# Static dielectric constant tensor:
#      x y z
#    x 1.674000 0.000000 0.022670 
#    y 0.000000 1.719720 0.000000 
#    z 0.022670 0.000000 1.701570 
# 
# From -- ./inp_files/10752.got.cif
#   From: 2010.05.17/outbox.cif.g08.bks.cpg/sg8_6_cif.got.tgz:10752.got - 2010.06.03 19:46:02.
