data_PCOD9132403
_publ_section_title
;
Structure prediction by ZEFSAII (Michael W. Deem and Ramdas Pophale) SiO2 
 PCOD9132403
Probable space group: C M
;
_chemical_formula_sum "Si O2"
_cell_formula_units_Z 32
_cell_length_a 9.032205
_cell_length_b 21.669232
_cell_length_c 12.280619
_cell_angle_alpha 90.000000
_cell_angle_beta 135.083519
_cell_angle_gamma 90.000000
_cell_volume 1697.104475
_symmetry_space_group_name_H-M "C M"
_symmetry_group_IT_number 8
_symmetry_cell_setting 'monoclinic'
loop_
_space_group_symop_operation_xyz
x,y,z
x,-y,z
1/2+x,1/2+y,z
1/2+x,1/2-y,z
loop_
_atom_site_type_symbol
_atom_site_label
_atom_site_fract_x
_atom_site_fract_y
_atom_site_fract_z
Si Si1 0.140060 0.933979 0.210720
Si Si2 0.087097 0.804517 0.184298
Si Si3 0.797518 0.931193 0.225788
Si Si4 0.466629 0.570487 0.560043
Si Si5 0.237597 0.191298 0.692144
Si Si6 0.435496 0.190675 0.556287
Si Si7 0.602964 0.931793 0.550461
Si Si8 0.634591 0.808211 0.052861
O O1 0.107018 0.869905 0.131522
O O2 0.381045 0.935323 0.372061
O O3 0.994612 0.929452 0.243952
O O4 0.088474 0.000000 0.130743
O O5 0.249414 0.808328 0.369642
O O6 0.142521 0.744642 0.146437
O O7 0.847366 0.800767 0.095657
O O8 0.875059 0.922686 0.389778
O O9 0.646781 0.875971 0.112608
O O10 0.705273 0.000000 0.168825
O O11 0.551066 0.500000 0.611065
O O12 0.627786 0.625959 0.659472
O O13 0.284625 0.576291 0.555680
O O14 0.328333 0.189180 0.617691
O O15 0.075368 0.247988 0.617187
O O16 0.430224 0.200268 0.874034
O O17 0.574648 0.128783 0.609949
O O18 0.631368 0.000000 0.618434
#
# Coordination Sequence:
#
# PCOD9132403 Si02
#       8
#     4   4   4   4   4   4   4   4
#     4   8  15  30  53  80 107 138 182 234 279 323
#     4  10  20  36  57  81 108 147 191 233 280 343
#     4   9  18  35  58  82 110 148 195 238 278 337
#     4  10  20  35  58  87 116 149 193 239 285 343
#     4  12  24  38  56  84 119 153 190 241 301 348
#     4  11  22  38  61  84 113 152 197 239 286 350
#     4   9  18  33  56  86 113 139 181 238 287 330
#     4  11  23  37  55  82 116 148 185 238 296 346
#
# _framework density 18.855644999999999
#
# number of rings (size 3 to 8) (size 9 to 14) (size 15 to 20)
#    0.000    2.000    0.000    5.250    0.000    5.000 
#    0.000    0.000    0.000    2.250    0.000    8.750 
#    0.000    0.000    0.000    0.000    0.000    0.000 
#
# Total GULP energy -89231.248672 kJ/mol
# GULP energy per Si atom -5576.953042 kJ/mol
# Density = 1.881273 g / cm^3
# Si number density = 18.855645 Si / 1000 Ang^3
#
#
#
# Elastic Constant Matrix: (Units=GPa)
#
#
# Indices 1 2 3 4 5 6 
#
# 1 63.1488 48.7490 5.0677 0.0000 5.6343 0.0000
# 2 48.7490 150.5403 22.8584 0.0000 8.0553 0.0000
# 3 5.0677 22.8584 41.6587 0.0000 8.9022 0.0000
# 4 0.0000 0.0000 0.0000 6.4176 0.0000 4.3658
# 5 5.6343 8.0553 8.9022 0.0000 14.9033 0.0000
# 6 0.0000 0.0000 0.0000 4.3658 0.0000 35.8090
#
#
#
# Elastic Compliance Matrix: (Units=1/GPa)
#
#
# Indices 1 2 3 4 5 6 
#
# 1 0.021610 -0.007064 0.002496 0.000000 -0.005842 0.000000
# 2 -0.007064 0.009597 -0.004435 0.000000 0.000133 0.000000
# 3 0.002496 -0.004435 0.029602 0.000000 -0.016229 0.000000
# 4 0.000000 0.000000 0.000000 0.169914 0.000000 -0.020716
# 5 -0.005842 0.000133 -0.016229 0.000000 0.078930 0.000000
# 6 0.000000 0.000000 0.000000 -0.020716 0.000000 0.030452
#
#
# Mechanical properties :
#
#
# Convention : Reuss Voigt Hill
#
# Bulk Modulus (GPa) = 23.36304 45.41090 34.38697
# Shear Modulus (GPa) = 13.42719 23.33749 18.38234
#
# Velocity S-wave (km/s) = 2.67142 3.52190 3.12572
# Velocity P-wave (km/s) = 4.68324 6.37763 5.59495
#
# Compressibility (1/GPa) = 0.04280265
#
# Stress axis : x y z
#
# Youngs Moduli (GPa) = 46.27494 104.20352 33.78115
#
# Poissons Ratio (x) = 0.73612 -0.08431
# Poissons Ratio (y) = 0.32690 0.14981
# Poissons Ratio (z) = -0.11549 0.46211
#
# Static dielectric constant tensor:
#      x y z
#    x 1.640830 0.000000 -0.007270 
#    y 0.000000 1.712330 0.000000 
#    z -0.007270 0.000000 1.619680 
# 
# From -- ./inp_files/19271.got.cif
#   From: 2010.05.17/outbox.cif.g08.bks.cpg/sg8_10_cif.got.tgz:19271.got - 2010.06.03 19:46:02.
