data_PCOD9132565
_publ_section_title
;
Structure prediction by ZEFSAII (Michael W. Deem and Ramdas Pophale) SiO2 
 PCOD9132565
Probable space group: C M
;
_chemical_formula_sum "Si O2"
_cell_formula_units_Z 32
_cell_length_a 24.661105
_cell_length_b 9.093469
_cell_length_c 14.168945
_cell_angle_alpha 90.000000
_cell_angle_beta 149.634711
_cell_angle_gamma 90.000000
_cell_volume 1606.239752
_symmetry_space_group_name_H-M "C M"
_symmetry_group_IT_number 8
_symmetry_cell_setting 'monoclinic'
loop_
_space_group_symop_operation_xyz
x,y,z
x,-y,z
1/2+x,1/2+y,z
1/2+x,1/2-y,z
loop_
_atom_site_type_symbol
_atom_site_label
_atom_site_fract_x
_atom_site_fract_y
_atom_site_fract_z
Si Si1 0.376900 0.166564 0.474810
Si Si2 0.346826 0.323266 0.822887
Si Si3 0.297536 0.673788 0.533578
Si Si4 0.946295 0.172552 0.398081
Si Si5 0.710774 0.175374 0.959788
Si Si6 0.132639 0.169825 0.025524
Si Si7 0.178340 0.824371 0.709247
Si Si8 0.058110 0.675007 0.098102
O O1 0.369941 0.248639 0.563614
O O2 0.444611 0.240620 0.493778
O O3 0.254731 0.168154 0.250137
O O4 0.411047 0.000000 0.540281
O O5 0.350975 0.500000 0.836972
O O6 0.317265 0.282097 0.670654
O O7 0.259063 0.257251 0.761010
O O8 0.463144 0.251652 0.013022
O O9 0.316550 0.500000 0.554685
O O10 0.173375 0.700314 0.319795
O O11 0.052869 0.206087 0.498966
O O12 0.835179 0.198786 0.177228
O O13 0.949521 0.000000 0.426881
O O14 0.640293 0.241901 0.939340
O O15 0.693271 0.000000 0.923454
O O16 0.693807 0.261852 0.837690
O O17 0.065374 0.250197 0.005802
O O18 0.099394 0.000000 0.962500
O O19 0.195919 0.000000 0.732920
O O20 0.041357 0.500000 0.064647
#
# Coordination Sequence:
#
# PCOD9132565 Si02
#       8
#     4   4   4   4   4   4   4   4
#     4   9  17  30  55  88 116 142 180 226 273 327
#     4  11  24  41  58  80 110 147 190 235 278 329
#     4   9  20  38  59  82 113 149 183 223 277 332
#     4   9  20  38  59  82 113 149 183 223 277 332
#     4  10  20  37  60  86 114 147 185 229 278 330
#     4   9  17  32  55  86 118 148 182 224 275 333
#     4  11  24  41  58  80 110 147 190 235 278 329
#     4  10  20  37  60  86 114 147 185 229 278 330
#
# _framework density 19.922308000000001
#
# number of rings (size 3 to 8) (size 9 to 14) (size 15 to 20)
#    0.000    2.250    0.000    2.250    0.000    8.000 
#    0.000    3.750    0.000    0.000    0.000    0.000 
#    0.000    0.000    0.000    0.000    0.000    0.000 
#
# Total GULP energy -89419.409367 kJ/mol
# GULP energy per Si atom -5588.713085 kJ/mol
# Density = 1.987696 g / cm^3
# Si number density = 19.922308 Si / 1000 Ang^3
#
#
#
# Elastic Constant Matrix: (Units=GPa)
#
#
# Indices 1 2 3 4 5 6 
#
# 1 91.3362 28.5575 26.3329 0.0000 26.0056 0.0000
# 2 28.5575 61.4568 28.3095 0.0000 14.3505 0.0000
# 3 26.3329 28.3095 50.3779 0.0000 14.0291 0.0000
# 4 0.0000 0.0000 0.0000 18.5056 0.0000 -1.6117
# 5 26.0056 14.3505 14.0291 0.0000 36.0548 0.0000
# 6 0.0000 0.0000 0.0000 -1.6117 0.0000 39.1012
#
#
#
# Elastic Compliance Matrix: (Units=1/GPa)
#
#
# Indices 1 2 3 4 5 6 
#
# 1 0.015512 -0.003507 -0.003825 0.000000 -0.008305 0.000000
# 2 -0.003507 0.023393 -0.010569 0.000000 -0.002669 0.000000
# 3 -0.003825 -0.010569 0.028990 0.000000 -0.004315 0.000000
# 4 0.000000 0.000000 0.000000 0.054232 0.000000 0.002235
# 5 -0.008305 -0.002669 -0.004315 0.000000 0.036466 0.000000
# 6 0.000000 0.000000 0.000000 0.002235 0.000000 0.025667
#
#
# Mechanical properties :
#
#
# Convention : Reuss Voigt Hill
#
# Bulk Modulus (GPa) = 31.15952 41.06340 36.11146
# Shear Modulus (GPa) = 21.66740 26.73040 24.19890
#
# Velocity S-wave (km/s) = 3.30145 3.66694 3.48898
# Velocity P-wave (km/s) = 5.49611 6.21169 5.86482
#
# Compressibility (1/GPa) = 0.03209292
#
# Stress axis : x y z
#
# Youngs Moduli (GPa) = 64.46463 42.74779 34.49448
#
# Poissons Ratio (x) = 0.14992 0.13194
# Poissons Ratio (y) = 0.22608 0.36458
# Poissons Ratio (z) = 0.24658 0.45181
#
# Static dielectric constant tensor:
#      x y z
#    x 1.653960 0.000000 0.017250 
#    y 0.000000 1.665260 0.000000 
#    z 0.017250 0.000000 1.761730 
# 
# From -- ./inp_files/26545.got.cif
#   From: 2010.05.17/outbox.cif.g08.bks.cpg/sg8_14_cif.got.tgz:26545.got - 2010.06.03 19:46:02.
