data_PCOD9132479
_publ_section_title
;
Structure prediction by ZEFSAII (Michael W. Deem and Ramdas Pophale) SiO2 
 PCOD9132479
Probable space group: C M
;
_chemical_formula_sum "Si O2"
_cell_formula_units_Z 32
_cell_length_a 23.313811
_cell_length_b 14.552911
_cell_length_c 8.194168
_cell_angle_alpha 90.000000
_cell_angle_beta 147.501875
_cell_angle_gamma 90.000000
_cell_volume 1493.696017
_symmetry_space_group_name_H-M "C M"
_symmetry_group_IT_number 8
_symmetry_cell_setting 'monoclinic'
loop_
_space_group_symop_operation_xyz
x,y,z
x,-y,z
1/2+x,1/2+y,z
1/2+x,1/2-y,z
loop_
_atom_site_type_symbol
_atom_site_label
_atom_site_fract_x
_atom_site_fract_y
_atom_site_fract_z
Si Si1 0.353590 0.841339 0.312940
Si Si2 0.951213 0.395095 0.887675
Si Si3 0.476441 0.655839 0.668353
Si Si4 0.839474 0.699890 0.927834
Si Si5 0.641118 0.238892 0.264025
Si Si6 0.930619 0.896896 0.107484
Si Si7 0.292160 0.600658 0.449983
Si Si8 0.630753 0.398305 0.756244
O O1 0.389957 0.893694 0.564920
O O2 0.430863 0.754692 0.510508
O O3 0.359663 0.865005 0.133410
O O4 0.225581 0.828059 0.017775
O O5 0.969449 0.500000 0.977396
O O6 0.887539 0.343355 0.878269
O O7 0.060946 0.339523 0.133232
O O8 0.370395 0.608453 0.483412
O O9 0.539758 0.607997 0.675584
O O10 0.568119 0.679566 0.019684
O O11 0.718332 0.722978 0.588637
O O12 0.887243 0.801789 0.077998
O O13 0.713207 0.185502 0.299500
O O14 0.058679 0.889086 0.422316
O O15 0.904346 0.000000 0.111968
O O16 0.876034 0.896715 0.800462
O O17 0.237754 0.500000 0.319493
O O18 0.680879 0.500000 0.879631
#
# Coordination Sequence:
#
# PCOD9132479 Si02
#       8
#     4   4   4   4   4   4   4   4
#     4  11  24  39  65  92 131 167 215 268 322 383
#     4  11  25  45  66  96 135 175 218 272 329 392
#     4  11  21  38  60  90 120 162 207 263 314 384
#     4  11  23  42  69  95 128 175 222 268 326 394
#     4  10  21  38  66  89 121 166 213 262 325 377
#     4   9  19  37  60  90 126 159 208 269 324 377
#     4  10  20  36  59  87 118 156 203 257 314 376
#     4  11  22  37  58  87 123 162 202 261 322 373
#
# _framework density 21.423368
#
# number of rings (size 3 to 8) (size 9 to 14) (size 15 to 20)
#    0.000    1.500    1.250    5.625    3.500    1.500 
#    0.000    0.625    0.000    3.000    0.000    0.000 
#    0.000    0.000    0.000    0.000    0.000    0.000 
#
# Total GULP energy -89095.253407 kJ/mol
# GULP energy per Si atom -5568.453338 kJ/mol
# Density = 2.137461 g / cm^3
# Si number density = 21.423368 Si / 1000 Ang^3
#
#
#
# Elastic Constant Matrix: (Units=GPa)
#
#
# Indices 1 2 3 4 5 6 
#
# 1 103.0072 33.6711 22.2042 0.0000 5.0510 0.0000
# 2 33.6711 58.9541 13.8815 0.0000 -5.1809 0.0000
# 3 22.2042 13.8815 100.3561 0.0000 2.4491 0.0000
# 4 0.0000 0.0000 0.0000 16.4986 0.0000 9.1417
# 5 5.0510 -5.1809 2.4491 0.0000 26.8037 0.0000
# 6 0.0000 0.0000 0.0000 9.1417 0.0000 1.6317
#
#
#
# Elastic Compliance Matrix: (Units=1/GPa)
#
#
# Indices 1 2 3 4 5 6 
#
# 1 0.012571 -0.007091 -0.001713 0.000000 -0.003583 0.000000
# 2 -0.007091 0.021891 -0.001598 0.000000 0.005714 0.000000
# 3 -0.001713 -0.001598 0.010588 0.000000 -0.000954 0.000000
# 4 0.000000 0.000000 0.000000 -0.028804 0.000000 0.161374
# 5 -0.003583 0.005714 -0.000954 0.000000 0.039175 0.000000
# 6 0.000000 0.000000 0.000000 0.161374 0.000000 -0.291243
#
#
# Mechanical properties :
#
#
# Convention : Reuss Voigt Hill
#
# Bulk Modulus (GPa) = 41.24699 44.64791 42.94745
# Shear Modulus (GPa) = -24.16215 21.82418 -1.16899
#
# Velocity S-wave (km/s) = -3.36198 3.19518 -0.73949
# Velocity P-wave (km/s) = 2.05537 5.87352 4.40016
#
# Compressibility (1/GPa) = 0.02424419
#
# Stress axis : x y z
#
# Youngs Moduli (GPa) = 79.54779 45.68088 94.44730
#
# Poissons Ratio (x) = 0.32394 0.16179
# Poissons Ratio (y) = 0.56410 0.15097
# Poissons Ratio (z) = 0.13627 0.07302
#
# Static dielectric constant tensor:
#      x y z
#    x 1.857690 0.000000 -0.048540 
#    y 0.000000 1.815810 0.000000 
#    z -0.048540 0.000000 1.783830 
# 
# From -- ./inp_files/17125.got.cif
#   From: 2010.05.17/outbox.cif.g08.bks.cpg/sg8_9_cif.got.tgz:17125.got - 2010.06.03 19:46:02.
