data_PCOD9132269
_publ_section_title
;
Structure prediction by ZEFSAII (Michael W. Deem and Ramdas Pophale) SiO2 
 PCOD9132269
Probable space group: C M
;
_chemical_formula_sum "Si O2"
_cell_formula_units_Z 26
_cell_length_a 4.953934
_cell_length_b 28.975026
_cell_length_c 7.993622
_cell_angle_alpha 90.000000
_cell_angle_beta 89.416940
_cell_angle_gamma 90.000000
_cell_volume 1147.348020
_symmetry_space_group_name_H-M "C M"
_symmetry_group_IT_number 8
_symmetry_cell_setting 'monoclinic'
loop_
_space_group_symop_operation_xyz
x,y,z
x,-y,z
1/2+x,1/2+y,z
1/2+x,1/2-y,z
loop_
_atom_site_type_symbol
_atom_site_label
_atom_site_fract_x
_atom_site_fract_y
_atom_site_fract_z
Si Si1 0.228510 0.000000 0.075621
Si Si2 0.524930 0.865722 0.165182
Si Si3 0.286545 0.387985 0.635972
Si Si4 0.285898 0.090531 0.847052
Si Si5 0.749354 0.218229 0.658049
Si Si6 0.299739 0.722902 0.058821
Si Si7 0.535564 0.414498 0.299044
O O1 0.160270 0.959764 0.216210
O O2 0.283195 0.959030 0.935278
O O3 0.669939 0.816896 0.169360
O O4 0.772758 0.901030 0.190910
O O5 0.277608 0.876968 0.289920
O O6 0.394575 0.873678 0.984346
O O7 0.490920 0.394941 0.788671
O O8 0.273503 0.333671 0.589949
O O9 0.414647 0.416595 0.484092
O O10 0.994723 0.405772 0.693097
O O11 0.480551 0.245315 0.612306
O O12 0.762898 0.212531 0.861175
O O13 0.611969 0.732404 0.089792
#
# Coordination Sequence:
#
# PCOD9132269 Si02
#       7
#     2   4   4   4   4   4   4
#     4  10  26  46  68 102 124 180 212 284 334 394
#     4  11  22  43  63  95 129 180 210 273 325 397
#     4  12  24  44  67 104 130 180 213 278 322 397
#     4  11  24  41  72  92 130 163 237 266 320 389
#     4  10  21  36  62  96 133 171 218 271 314 374
#     4  10  20  33  60  95 125 168 225 275 306 371
#     4  11  26  43  68  92 143 169 213 266 354 390
#
# _framework density 22.660952000000002
#
# number of rings (size 3 to 8) (size 9 to 14) (size 15 to 20)
#    0.000    1.231    1.538    4.615    4.308    6.769 
#    0.000    4.615    0.000    0.000    0.000    0.000 
#    0.000    0.000    0.000    0.000    0.000    0.000 
#
# Total GULP energy -72454.378585 kJ/mol
# GULP energy per Si atom -5573.413737 kJ/mol
# Density = 2.260937 g / cm^3
# Si number density = 22.660952 Si / 1000 Ang^3
#
#
#
# Elastic Constant Matrix: (Units=GPa)
#
#
# Indices 1 2 3 4 5 6 
#
# 1 79.5775 2.7882 3.9388 0.0000 -8.6465 0.0000
# 2 2.7882 101.2144 19.5477 0.0000 -8.3385 0.0000
# 3 3.9388 19.5477 64.1424 0.0000 -11.2119 0.0000
# 4 0.0000 0.0000 0.0000 11.0655 0.0000 1.6847
# 5 -8.6465 -8.3385 -11.2119 0.0000 30.3837 0.0000
# 6 0.0000 0.0000 0.0000 1.6847 0.0000 -21.5121
#
#
#
# Elastic Compliance Matrix: (Units=1/GPa)
#
#
# Indices 1 2 3 4 5 6 
#
# 1 0.012969 -0.000029 -0.000154 0.000000 0.003626 0.000000
# 2 -0.000029 0.010593 -0.002907 0.000000 0.001826 0.000000
# 3 -0.000154 -0.002907 0.017465 0.000000 0.005603 0.000000
# 4 0.000000 0.000000 0.000000 0.089306 0.000000 0.006994
# 5 0.003626 0.001826 0.005603 0.000000 0.036513 0.000000
# 6 0.000000 0.000000 0.000000 0.006994 0.000000 -0.045938
#
#
# Mechanical properties :
#
#
# Convention : Reuss Voigt Hill
#
# Bulk Modulus (GPa) = 28.69673 33.05374 30.87523
# Shear Modulus (GPa) = 36.04817 18.56475 27.30646
#
# Velocity S-wave (km/s) = 3.99276 2.86534 3.47508
# Velocity P-wave (km/s) = 5.82642 5.05616 5.45491
#
# Compressibility (1/GPa) = 0.03484718
#
# Stress axis : x y z
#
# Youngs Moduli (GPa) = 77.10715 94.40446 57.25689
#
# Poissons Ratio (x) = 0.00272 0.00881
# Poissons Ratio (y) = 0.00222 0.16646
# Poissons Ratio (z) = 0.01186 0.27445
#
# Static dielectric constant tensor:
#      x y z
#    x 1.844550 0.000000 -0.005860 
#    y 0.000000 1.807260 0.000000 
#    z -0.005860 0.000000 1.894830 
# 
# From -- ./inp_files/6959.got.cif
#   From: 2010.05.17/outbox.cif.g08.bks.cpg/sg8_4_cif.got.tgz:6959.got - 2010.06.03 19:46:02.
