data_PCOD9132023
_publ_section_title
;
Structure prediction by ZEFSAII (Michael W. Deem and Ramdas Pophale) SiO2 
 PCOD9132023
Probable space group: C M
;
_chemical_formula_sum "Si O2"
_cell_formula_units_Z 32
_cell_length_a 34.327926
_cell_length_b 7.938402
_cell_length_c 12.992215
_cell_angle_alpha 90.000000
_cell_angle_beta 153.865629
_cell_angle_gamma 90.000000
_cell_volume 1559.508990
_symmetry_space_group_name_H-M "C M"
_symmetry_group_IT_number 8
_symmetry_cell_setting 'monoclinic'
loop_
_space_group_symop_operation_xyz
x,y,z
x,-y,z
1/2+x,1/2+y,z
1/2+x,1/2-y,z
loop_
_atom_site_type_symbol
_atom_site_label
_atom_site_fract_x
_atom_site_fract_y
_atom_site_fract_z
Si Si1 0.684070 0.194374 0.018950
Si Si2 0.501722 0.700591 0.882864
Si Si3 0.330649 0.796770 0.078567
Si Si4 0.184993 0.703175 0.249821
Si Si5 0.878572 0.793613 0.778521
Si Si6 0.137314 0.199253 0.683834
Si Si7 0.947904 0.201900 0.163258
Si Si8 0.373738 0.197924 0.405736
O O1 0.665815 0.267515 0.088443
O O2 0.790269 0.205819 0.256354
O O3 0.655765 0.000000 0.950120
O O4 0.643029 0.277883 0.820592
O O5 0.493110 0.500000 0.856716
O O6 0.445649 0.759904 0.847912
O O7 0.458405 0.774829 0.676823
O O8 0.603992 0.747991 0.129677
O O9 0.380772 0.735334 0.097121
O O10 0.381505 0.750115 0.305030
O O11 0.328581 0.000000 0.068736
O O12 0.229518 0.734205 0.854627
O O13 0.189369 0.500000 0.252867
O O14 0.279792 0.762312 0.515187
O O15 0.877881 0.000000 0.777770
O O16 0.910403 0.734924 0.965738
O O17 0.045628 0.269990 0.422669
O O18 0.137816 0.000000 0.664412
O O19 0.956036 0.000000 0.173073
O O20 0.350099 0.000000 0.350184
#
# Coordination Sequence:
#
# PCOD9132023 Si02
#       8
#     4   4   4   4   4   4   4   4
#     4  10  19  34  58  84 116 155 190 232 287 341
#     4  11  22  37  59  87 114 150 195 237 284 345
#     4   9  20  37  55  80 117 151 181 230 289 338
#     4  10  21  38  57  82 116 154 189 235 293 338
#     4   9  20  41  60  79 115 153 189 237 290 337
#     4   9  20  37  55  82 116 151 187 233 288 339
#     4  10  21  38  62  84 108 151 198 235 278 339
#     4  10  20  36  58  84 120 155 185 233 293 341
#
# _framework density 20.519278
#
# number of rings (size 3 to 8) (size 9 to 14) (size 15 to 20)
#    0.000    2.250    1.250    1.875    1.750    5.000 
#    0.000    3.125    0.000    0.000    0.000    0.000 
#    0.000    0.000    0.000    0.000    0.000    0.000 
#
# Total GULP energy -89332.042913 kJ/mol
# GULP energy per Si atom -5583.252682 kJ/mol
# Density = 2.047258 g / cm^3
# Si number density = 20.519278 Si / 1000 Ang^3
#
#
#
# Elastic Constant Matrix: (Units=GPa)
#
#
# Indices 1 2 3 4 5 6 
#
# 1 148.9942 6.9467 110.2866 0.0000 -1.8475 0.0000
# 2 6.9467 17.1105 -0.2094 0.0000 -2.0394 0.0000
# 3 110.2866 -0.2094 140.2494 0.0000 1.3280 0.0000
# 4 0.0000 0.0000 0.0000 19.9018 0.0000 3.6337
# 5 -1.8475 -2.0394 1.3280 0.0000 22.9544 0.0000
# 6 0.0000 0.0000 0.0000 3.6337 0.0000 14.4599
#
#
#
# Elastic Compliance Matrix: (Units=1/GPa)
#
#
# Indices 1 2 3 4 5 6 
#
# 1 0.016912 -0.006848 -0.013324 0.000000 0.001524 0.000000
# 2 -0.006848 0.061842 0.005433 0.000000 0.004629 0.000000
# 3 -0.013324 0.005433 0.017631 0.000000 -0.001610 0.000000
# 4 0.000000 0.000000 0.000000 0.052663 0.000000 -0.013234
# 5 0.001524 0.004629 -0.001610 0.000000 0.044192 0.000000
# 6 0.000000 0.000000 0.000000 -0.013234 0.000000 0.072482
#
#
# Mechanical properties :
#
#
# Convention : Reuss Voigt Hill
#
# Bulk Modulus (GPa) = 14.94571 60.04464 37.49518
# Shear Modulus (GPa) = 15.74798 24.08524 19.91661
#
# Velocity S-wave (km/s) = 2.77334 3.42977 3.11887
# Velocity P-wave (km/s) = 4.18984 6.70899 5.59309
#
# Compressibility (1/GPa) = 0.06690883
#
# Stress axis : x y z
#
# Youngs Moduli (GPa) = 59.12933 16.17019 56.71925
#
# Poissons Ratio (x) = 0.11073 0.75571
# Poissons Ratio (y) = 0.40490 -0.30817
# Poissons Ratio (z) = 0.78782 -0.08786
#
# Static dielectric constant tensor:
#      x y z
#    x 1.710530 0.000000 0.006560 
#    y 0.000000 1.754820 0.000000 
#    z 0.006560 0.000000 1.732610 
# 
# From -- ./inp_files/24781.got.cif
#   From: 2010.05.17/outbox.cif.g08.bks.cpg/sg8_13_cif.got.tgz:24781.got - 2010.06.03 19:46:02.
