data_PCOD9132672
_publ_section_title
;
Structure prediction by ZEFSAII (Michael W. Deem and Ramdas Pophale) SiO2 
 PCOD9132672
Probable space group: C M
;
_chemical_formula_sum "Si O2"
_cell_formula_units_Z 26
_cell_length_a 15.562006
_cell_length_b 7.491492
_cell_length_c 19.661729
_cell_angle_alpha 90.000000
_cell_angle_beta 30.701671
_cell_angle_gamma 90.000000
_cell_volume 1170.332301
_symmetry_space_group_name_H-M "C M"
_symmetry_group_IT_number 8
_symmetry_cell_setting 'monoclinic'
loop_
_space_group_symop_operation_xyz
x,y,z
x,-y,z
1/2+x,1/2+y,z
1/2+x,1/2-y,z
loop_
_atom_site_type_symbol
_atom_site_label
_atom_site_fract_x
_atom_site_fract_y
_atom_site_fract_z
Si Si1 0.786340 0.783520 0.065290
Si Si2 0.366168 0.784620 0.536243
Si Si3 0.431542 0.793070 0.254768
Si Si4 0.160560 0.214672 0.809920
Si Si5 0.861010 0.000000 0.742666
Si Si6 0.745068 0.784297 0.249213
Si Si7 0.648405 0.805689 0.553464
O O1 0.617974 0.719925 0.142455
O O2 0.775440 0.728646 0.151399
O O3 0.780899 0.000000 0.066206
O O4 0.971969 0.737172 0.913488
O O5 0.288778 0.737868 0.661690
O O6 0.558604 0.725128 0.398530
O O7 0.254261 0.712456 0.550958
O O8 0.362824 0.000000 0.533045
O O9 0.380029 0.779269 0.211691
O O10 0.284821 0.707531 0.399954
O O11 0.431320 0.000000 0.276375
O O12 0.217074 0.340917 0.832408
O O13 0.164412 0.000000 0.820030
O O14 0.009534 0.845724 0.644646
O O15 0.746839 0.000000 0.249242
O O16 0.566612 0.000000 0.604857
#
# Coordination Sequence:
#
# PCOD9132672 Si02
#       7
#     4   4   4   4   2   4   4
#     4   9  20  43  66  90 137 182 218 274 336 399
#     4  10  20  40  66  97 132 173 223 278 333 395
#     4  11  21  40  65  99 136 175 222 279 336 397
#     4  10  23  44  68  95 136 181 221 274 340 402
#     4  12  24  44  66  98 134 174 226 280 336 404
#     4  10  20  38  66  96 131 175 224 277 332 393
#     4  12  24  40  67 101 136 172 224 285 339 395
#
# _framework density 22.215913
#
# number of rings (size 3 to 8) (size 9 to 14) (size 15 to 20)
#    0.000    1.538    3.077    1.846    1.077    1.846 
#    6.923    0.000    0.000    0.000    0.000    0.000 
#    0.000    0.000    0.000    0.000    0.000    0.000 
#
# Total GULP energy -72433.299247 kJ/mol
# GULP energy per Si atom -5571.792250 kJ/mol
# Density = 2.216535 g / cm^3
# Si number density = 22.215913 Si / 1000 Ang^3
#
#
#
# Elastic Constant Matrix: (Units=GPa)
#
#
# Indices 1 2 3 4 5 6 
#
# 1 87.7731 7.8652 22.8114 0.0001 -31.1904 0.0000
# 2 7.8652 114.7574 5.6393 0.0000 -13.6510 0.0000
# 3 22.8114 5.6393 47.0969 0.0000 -18.5202 0.0000
# 4 0.0001 0.0000 0.0000 -4.2067 0.0000 9.4613
# 5 -31.1904 -13.6510 -18.5202 0.0000 38.6078 0.0000
# 6 0.0000 0.0000 0.0000 9.4613 0.0000 5.2404
#
#
#
# Elastic Compliance Matrix: (Units=1/GPa)
#
#
# Indices 1 2 3 4 5 6 
#
# 1 0.016425 0.000445 -0.003363 0.000000 0.011813 0.000000
# 2 0.000445 0.009110 0.000125 0.000000 0.003641 0.000000
# 3 -0.003363 0.000125 0.026863 0.000000 0.010213 0.000000
# 4 0.000000 0.000000 0.000000 -0.046973 0.000000 0.084808
# 5 0.011813 0.003641 0.010213 0.000000 0.041632 0.000000
# 6 0.000000 0.000000 0.000000 0.084808 0.000000 0.037707
#
#
# Mechanical properties :
#
#
# Convention : Reuss Voigt Hill
#
# Bulk Modulus (GPa) = 21.36185 35.80657 28.58421
# Shear Modulus (GPa) = 47.18984 22.14907 34.66945
#
# Velocity S-wave (km/s) = 4.61385 3.16094 3.95469
# Velocity P-wave (km/s) = 6.16603 5.42905 5.80924
#
# Compressibility (1/GPa) = 0.04681243
#
# Stress axis : x y z
#
# Youngs Moduli (GPa) = 60.88213 109.76368 37.22576
#
# Poissons Ratio (x) = -0.04882 0.12520
# Poissons Ratio (y) = -0.02708 -0.00467
# Poissons Ratio (z) = 0.20477 -0.01376
#
# Static dielectric constant tensor:
#      x y z
#    x 1.814980 0.000000 0.008880 
#    y 0.000000 1.834680 0.000000 
#    z 0.008880 0.000000 1.795640 
# 
# From -- ./inp_files/30681.got.cif
#   From: 2010.05.17/outbox.cif.g08.bks.cpg/sg8_16_cif.got.tgz:30681.got - 2010.06.03 19:46:02.
