data_PCOD9132439
_publ_section_title
;
Structure prediction by ZEFSAII (Michael W. Deem and Ramdas Pophale) SiO2 
 PCOD9132439
Probable space group: C M
;
_chemical_formula_sum "Si O2"
_cell_formula_units_Z 32
_cell_length_a 14.412100
_cell_length_b 8.787973
_cell_length_c 13.538143
_cell_angle_alpha 90.000000
_cell_angle_beta 101.225028
_cell_angle_gamma 90.000000
_cell_volume 1681.847544
_symmetry_space_group_name_H-M "C M"
_symmetry_group_IT_number 8
_symmetry_cell_setting 'monoclinic'
loop_
_space_group_symop_operation_xyz
x,y,z
x,-y,z
1/2+x,1/2+y,z
1/2+x,1/2-y,z
loop_
_atom_site_type_symbol
_atom_site_label
_atom_site_fract_x
_atom_site_fract_y
_atom_site_fract_z
Si Si1 0.264930 0.314229 0.665440
Si Si2 0.194226 0.322773 0.341676
Si Si3 0.051165 0.823949 0.163570
Si Si4 0.302802 0.680399 0.894527
Si Si5 0.360917 0.822568 0.096925
Si Si6 0.670367 0.824520 0.035892
Si Si7 0.374881 0.683254 0.491976
Si Si8 0.079837 0.676569 0.524347
O O1 0.262799 0.500000 0.663823
O O2 0.298931 0.269562 0.781084
O O3 0.332864 0.266266 0.589628
O O4 0.157871 0.264049 0.618519
O O5 0.197480 0.500000 0.309765
O O6 0.135686 0.223050 0.253427
O O7 0.299552 0.268364 0.392280
O O8 0.135220 0.319207 0.431845
O O9 0.457907 0.773414 0.166785
O O10 0.090112 0.781147 0.063217
O O11 0.027838 0.000000 0.166052
O O12 0.327547 0.500000 0.906114
O O13 0.367739 0.778332 0.981524
O O14 0.200018 0.694352 0.927450
O O15 0.270075 0.722438 0.108553
O O16 0.341186 0.000000 0.105013
O O17 0.647349 0.000000 0.050296
O O18 0.371968 0.500000 0.490805
O O19 0.481075 0.737676 0.499571
O O20 0.059688 0.500000 0.542868
#
# Coordination Sequence:
#
# PCOD9132439 Si02
#       8
#     4   4   4   4   4   4   4   4
#     4   8  15  33  56  77 107 144 175 207 259 319
#     4   9  20  37  54  74 105 143 177 215 267 323
#     4  12  23  36  56  81 107 143 183 224 272 323
#     4   8  16  34  57  77 107 146 179 217 265 314
#     4  10  20  36  55  77 108 142 180 224 266 316
#     4   9  19  36  56  78 106 142 179 223 267 313
#     4   9  18  34  56  79 105 138 174 215 264 317
#     4   9  18  34  56  79 105 138 175 215 262 317
#
# _framework density 19.026696000000001
#
# number of rings (size 3 to 8) (size 9 to 14) (size 15 to 20)
#    0.750    2.000    0.000    3.750    0.000    2.000 
#    2.250    5.625    0.000    0.000    0.000    0.000 
#    0.000    0.000    0.000    0.000    0.000    0.000 
#
# Total GULP energy -89105.317396 kJ/mol
# GULP energy per Si atom -5569.082337 kJ/mol
# Density = 1.898339 g / cm^3
# Si number density = 19.026696 Si / 1000 Ang^3
#
#
#
# Elastic Constant Matrix: (Units=GPa)
#
#
# Indices 1 2 3 4 5 6 
#
# 1 65.0491 -5.9489 -8.6794 0.0000 14.4086 0.0000
# 2 -5.9489 35.9781 2.9872 0.0000 4.2649 0.0000
# 3 -8.6794 2.9872 34.3602 0.0000 9.2980 0.0000
# 4 0.0000 0.0000 0.0000 19.2421 0.0000 1.8078
# 5 14.4086 4.2649 9.2980 0.0000 16.0942 0.0000
# 6 0.0000 0.0000 0.0000 1.8078 0.0000 29.7418
#
#
#
# Elastic Compliance Matrix: (Units=1/GPa)
#
#
# Indices 1 2 3 4 5 6 
#
# 1 0.025248 0.006856 0.014686 0.000000 -0.032905 0.000000
# 2 0.006856 0.030566 0.003470 0.000000 -0.016242 0.000000
# 3 0.014686 0.003470 0.043048 0.000000 -0.038937 0.000000
# 4 0.000000 0.000000 0.000000 0.052268 0.000000 -0.003177
# 5 -0.032905 -0.016242 -0.038937 0.000000 0.118392 0.000000
# 6 0.000000 0.000000 0.000000 -0.003177 0.000000 0.033816
#
#
# Mechanical properties :
#
#
# Convention : Reuss Voigt Hill
#
# Bulk Modulus (GPa) = 6.71661 12.45613 9.58637
# Shear Modulus (GPa) = 16.50480 22.81751 19.66115
#
# Velocity S-wave (km/s) = 2.94845 3.46676 3.21806
# Velocity P-wave (km/s) = 3.88959 4.75241 4.34248
#
# Compressibility (1/GPa) = 0.14888455
#
# Stress axis : x y z
#
# Youngs Moduli (GPa) = 39.60707 32.71645 23.22997
#
# Poissons Ratio (x) = -0.22430 -0.34115
# Poissons Ratio (y) = -0.27155 -0.08060
# Poissons Ratio (z) = -0.58166 -0.11352
#
# Static dielectric constant tensor:
#      x y z
#    x 1.658700 0.000000 -0.010710 
#    y 0.000000 1.639130 0.000000 
#    z -0.010710 0.000000 1.704710 
# 
# From -- ./inp_files/26465.got.cif
#   From: 2010.05.17/outbox.cif.g08.bks.cpg/sg8_14_cif.got.tgz:26465.got - 2010.06.03 19:46:02.
