data_PCOD9132752
_publ_section_title
;
Structure prediction by ZEFSAII (Michael W. Deem and Ramdas Pophale) SiO2 
 PCOD9132752
Probable space group: C M
;
_chemical_formula_sum "Si O2"
_cell_formula_units_Z 28
_cell_length_a 12.790421
_cell_length_b 13.766419
_cell_length_c 7.457645
_cell_angle_alpha 90.000000
_cell_angle_beta 114.129069
_cell_angle_gamma 90.000000
_cell_volume 1198.397218
_symmetry_space_group_name_H-M "C M"
_symmetry_group_IT_number 8
_symmetry_cell_setting 'monoclinic'
loop_
_space_group_symop_operation_xyz
x,y,z
x,-y,z
1/2+x,1/2+y,z
1/2+x,1/2-y,z
loop_
_atom_site_type_symbol
_atom_site_label
_atom_site_fract_x
_atom_site_fract_y
_atom_site_fract_z
Si Si1 0.664370 0.108733 0.891670
Si Si2 0.389390 0.107976 0.667484
Si Si3 0.534034 0.281488 0.251358
Si Si4 0.142468 0.814592 0.972326
Si Si5 0.259983 0.703860 0.603410
Si Si6 0.975453 0.886498 0.561191
Si Si7 0.376766 0.106481 0.227474
O O1 0.525527 0.109298 0.793956
O O2 0.713237 0.136132 0.729930
O O3 0.701521 0.000000 0.971732
O O4 0.692740 0.204975 0.024207
O O5 0.324129 0.197220 0.712788
O O6 0.374876 0.120707 0.441918
O O7 0.345817 0.000000 0.685771
O O8 0.554007 0.327604 0.072522
O O9 0.654449 0.241390 0.411296
O O10 0.486936 0.356873 0.363135
O O11 0.451443 0.189360 0.190592
O O12 0.247784 0.885940 0.068918
O O13 0.073420 0.828999 0.740839
O O14 0.354038 0.647022 0.554174
O O15 0.992729 0.000000 0.600329
O O16 0.426135 0.000000 0.226168
#
# Coordination Sequence:
#
# PCOD9132752 Si02
#       7
#     4   4   4   4   4   4   4
#     4  11  24  44  71  99 139 188 232 283 348 416
#     4  10  20  40  70 100 135 181 230 279 340 409
#     4  12  25  45  73  99 136 182 230 291 339 408
#     4  12  25  45  71 101 144 175 231 285 348 412
#     4  12  20  46  68 102 138 180 227 288 341 405
#     4  12  27  46  68 103 141 184 229 283 356 412
#     4  11  23  42  67 100 133 176 229 281 344 412
#
# _framework density 23.364538
#
# number of rings (size 3 to 8) (size 9 to 14) (size 15 to 20)
#    0.000    0.571    7.143    0.857    2.000    2.857 
#    0.000    3.571    0.000    0.000    0.000    0.000 
#    0.000    0.000    0.000    0.000    0.000    0.000 
#
# Total GULP energy -78434.065402 kJ/mol
# GULP energy per Si atom -5602.433243 kJ/mol
# Density = 2.331136 g / cm^3
# Si number density = 23.364538 Si / 1000 Ang^3
#
#
#
# Elastic Constant Matrix: (Units=GPa)
#
#
# Indices 1 2 3 4 5 6 
#
# 1 67.7528 36.4257 10.7626 0.0000 2.9467 0.0000
# 2 36.4257 139.8619 0.1021 0.0000 -2.5138 0.0000
# 3 10.7626 0.1021 43.6018 0.0000 -14.5990 0.0000
# 4 0.0000 0.0000 0.0000 15.2750 0.0000 12.7257
# 5 2.9467 -2.5138 -14.5990 0.0000 30.7004 0.0000
# 6 0.0000 0.0000 0.0000 12.7257 0.0000 15.0564
#
#
#
# Elastic Compliance Matrix: (Units=1/GPa)
#
#
# Indices 1 2 3 4 5 6 
#
# 1 0.018652 -0.004947 -0.006336 0.000000 -0.005209 0.000000
# 2 -0.004947 0.008474 0.001894 0.000000 0.002069 0.000000
# 3 -0.006336 0.001894 0.029437 0.000000 0.014762 0.000000
# 4 0.000000 0.000000 0.000000 0.221277 0.000000 -0.187023
# 5 -0.005209 0.002069 0.014762 0.000000 0.040262 0.000000
# 6 0.000000 0.000000 0.000000 -0.187023 0.000000 0.224489
#
#
# Mechanical properties :
#
#
# Convention : Reuss Voigt Hill
#
# Bulk Modulus (GPa) = 26.46553 38.42194 32.44374
# Shear Modulus (GPa) = 8.71134 25.80144 17.25639
#
# Velocity S-wave (km/s) = 1.93301 3.32670 2.72062
# Velocity P-wave (km/s) = 4.04152 5.58894 4.87699
#
# Compressibility (1/GPa) = 0.03778500
#
# Stress axis : x y z
#
# Youngs Moduli (GPa) = 53.61321 118.00722 33.97082
#
# Poissons Ratio (x) = 0.58375 0.21525
# Poissons Ratio (y) = 0.26521 -0.06434
# Poissons Ratio (z) = 0.33972 -0.22352
#
# Static dielectric constant tensor:
#      x y z
#    x 1.866040 0.000000 -0.010030 
#    y 0.000000 1.858850 0.000000 
#    z -0.010030 0.000000 1.870900 
# 
# From -- ./inp_files/10663.got.cif
#   From: 2010.05.17/outbox.cif.g08.bks.cpg/sg8_6_cif.got.tgz:10663.got - 2010.06.03 19:46:02.
