data_PCOD9132211
_publ_section_title
;
Structure prediction by ZEFSAII (Michael W. Deem and Ramdas Pophale) SiO2 
 PCOD9132211
Probable space group: C M
;
_chemical_formula_sum "Si O2"
_cell_formula_units_Z 32
_cell_length_a 9.465973
_cell_length_b 31.696134
_cell_length_c 4.834286
_cell_angle_alpha 90.000000
_cell_angle_beta 91.462219
_cell_angle_gamma 90.000000
_cell_volume 1449.981472
_symmetry_space_group_name_H-M "C M"
_symmetry_group_IT_number 8
_symmetry_cell_setting 'monoclinic'
loop_
_space_group_symop_operation_xyz
x,y,z
x,-y,z
1/2+x,1/2+y,z
1/2+x,1/2-y,z
loop_
_atom_site_type_symbol
_atom_site_label
_atom_site_fract_x
_atom_site_fract_y
_atom_site_fract_z
Si Si1 0.799880 0.616135 0.792600
Si Si2 0.473511 0.803807 0.734437
Si Si3 0.821870 0.271521 0.229599
Si Si4 0.637427 0.350871 0.288735
Si Si5 0.247656 0.682512 0.065963
Si Si6 0.676145 0.951033 0.601014
Si Si7 0.333476 0.632516 0.534072
Si Si8 0.979180 0.451610 0.099773
O O1 0.933872 0.647517 0.779091
O O2 0.733807 0.618765 0.486116
O O3 0.857823 0.575186 0.947127
O O4 0.677587 0.636023 0.980688
O O5 0.450689 0.788631 0.423501
O O6 0.356349 0.780091 0.911667
O O7 0.621214 0.796736 0.885926
O O8 0.693208 0.302301 0.315287
O O9 0.811796 0.221593 0.240322
O O10 0.479218 0.357844 0.382558
O O11 0.215389 0.649693 0.310618
O O12 0.328571 0.657296 0.825387
O O13 0.798594 0.916638 0.574612
O O14 0.615629 0.949462 0.906797
O O15 0.713834 0.000000 0.538271
O O16 0.541784 0.939118 0.400027
O O17 0.932430 0.500000 0.116876
#
# Coordination Sequence:
#
# PCOD9132211 Si02
#       8
#     4   4   4   4   4   4   4   4
#     4  10  19  38  61  87 117 162 201 249 303 374
#     4  10  21  39  62  85 114 154 206 251 312 361
#     4  10  23  42  59  87 118 159 201 263 316 359
#     4  10  23  40  62  83 126 165 203 250 311 375
#     4  12  25  40  65  91 120 161 214 269 305 378
#     4  10  21  38  62  94 131 163 203 263 319 367
#     4  12  24  41  62  94 123 172 213 255 312 387
#     4  10  20  36  64  97 127 156 202 266 316 365
#
# _framework density 22.069248000000002
#
# number of rings (size 3 to 8) (size 9 to 14) (size 15 to 20)
#    0.000    1.500    0.000    5.250    1.750    2.000 
#    6.750    1.250    0.000    0.000    0.000    0.000 
#    0.000    0.000    0.000    0.000    0.000    0.000 
#
# Total GULP energy -89335.716552 kJ/mol
# GULP energy per Si atom -5583.482284 kJ/mol
# Density = 2.201902 g / cm^3
# Si number density = 22.069248 Si / 1000 Ang^3
#
#
#
# Elastic Constant Matrix: (Units=GPa)
#
#
# Indices 1 2 3 4 5 6 
#
# 1 64.5922 36.2872 3.5970 0.0000 -1.0089 0.0000
# 2 36.2872 116.6630 9.6293 0.0000 -6.6630 0.0000
# 3 3.5970 9.6293 98.7034 0.0000 -6.4757 0.0000
# 4 0.0000 0.0000 0.0000 30.4109 0.0000 4.1831
# 5 -1.0089 -6.6630 -6.4757 0.0000 25.0717 0.0000
# 6 0.0000 0.0000 0.0000 4.1831 0.0000 22.4690
#
#
#
# Elastic Compliance Matrix: (Units=1/GPa)
#
#
# Indices 1 2 3 4 5 6 
#
# 1 0.018779 -0.005876 -0.000167 0.000000 -0.000849 0.000000
# 2 -0.005876 0.010591 -0.000661 0.000000 0.002408 0.000000
# 3 -0.000167 -0.000661 0.010366 0.000000 0.002495 0.000000
# 4 0.000000 0.000000 0.000000 0.033747 0.000000 -0.006283
# 5 -0.000849 0.002408 0.002495 0.000000 0.041136 0.000000
# 6 0.000000 0.000000 0.000000 -0.006283 0.000000 0.045675
#
#
# Mechanical properties :
#
#
# Convention : Reuss Voigt Hill
#
# Bulk Modulus (GPa) = 37.98200 42.10951 40.04575
# Shear Modulus (GPa) = 27.40063 30.95332 29.17697
#
# Velocity S-wave (km/s) = 3.52742 3.74913 3.63997
# Velocity P-wave (km/s) = 5.81704 6.15332 5.98754
#
# Compressibility (1/GPa) = 0.02632826
#
# Stress axis : x y z
#
# Youngs Moduli (GPa) = 53.25183 94.41647 96.47267
#
# Poissons Ratio (x) = 0.55476 0.01609
# Poissons Ratio (y) = 0.31289 0.06379
# Poissons Ratio (z) = 0.00888 0.06243
#
# Static dielectric constant tensor:
#      x y z
#    x 1.863210 0.000000 0.014710 
#    y 0.000000 1.839650 0.000000 
#    z 0.014710 0.000000 1.782640 
# 
# From -- ./inp_files/1992.got.cif
#   From: 2010.05.17/outbox.cif.g08.bks.cpg/sg8_1_cif.got.tgz:1992.got - 2010.06.03 19:46:02.
