data_PCOD9132401
_publ_section_title
;
Structure prediction by ZEFSAII (Michael W. Deem and Ramdas Pophale) SiO2 
 PCOD9132401
Probable space group: C M
;
_chemical_formula_sum "Si O2"
_cell_formula_units_Z 28
_cell_length_a 13.849652
_cell_length_b 8.107322
_cell_length_c 18.640713
_cell_angle_alpha 90.000000
_cell_angle_beta 140.707364
_cell_angle_gamma 90.000000
_cell_volume 1325.487211
_symmetry_space_group_name_H-M "C M"
_symmetry_group_IT_number 8
_symmetry_cell_setting 'monoclinic'
loop_
_space_group_symop_operation_xyz
x,y,z
x,-y,z
1/2+x,1/2+y,z
1/2+x,1/2-y,z
loop_
_atom_site_type_symbol
_atom_site_label
_atom_site_fract_x
_atom_site_fract_y
_atom_site_fract_z
Si Si1 0.590440 0.815212 0.032400
Si Si2 0.089775 0.191105 0.874975
Si Si3 0.920189 0.188713 0.071789
Si Si4 0.486179 0.301929 0.414809
Si Si5 0.839946 0.304204 0.618790
Si Si6 0.275107 0.305773 0.429052
Si Si7 0.445006 0.748353 0.238352
O O1 0.527969 0.728094 0.067271
O O2 0.774354 0.825206 0.139257
O O3 0.527799 0.000000 0.995160
O O4 0.547987 0.726607 0.933845
O O5 0.954401 0.237903 0.744030
O O6 0.127060 0.000000 0.888190
O O7 0.244224 0.291839 0.948107
O O8 0.945567 0.307246 0.155262
O O9 0.945754 0.000000 0.111379
O O10 0.470041 0.500000 0.386450
O O11 0.662400 0.272658 0.535593
O O12 0.377368 0.271005 0.419096
O O13 0.443580 0.193611 0.320789
O O14 0.860078 0.500000 0.624359
O O15 0.862817 0.224421 0.553696
O O16 0.227348 0.500000 0.399053
O O17 0.123110 0.194102 0.342890
#
# Coordination Sequence:
#
# PCOD9132401 Si02
#       7
#     4   4   4   4   4   4   4
#     4  11  23  40  62  88 121 160 202 247 301 359
#     4  11  23  41  63  87 119 157 201 250 303 359
#     4  11  23  39  61  90 122 157 202 250 301 359
#     4   9  18  35  58  83 114 153 192 234 290 351
#     4  10  21  39  61  85 117 155 196 245 303 359
#     4  10  21  37  59  87 117 154 201 246 295 358
#     4  10  20  35  58  86 120 156 194 242 295 351
#
# _framework density 21.124309
#
# number of rings (size 3 to 8) (size 9 to 14) (size 15 to 20)
#    0.000    1.714    0.000    5.571    0.000    6.857 
#    0.000    7.857    0.000    0.000    0.000    0.000 
#    0.000    0.000    0.000    0.000    0.000    0.000 
#
# Total GULP energy -77948.080529 kJ/mol
# GULP energy per Si atom -5567.720038 kJ/mol
# Density = 2.107623 g / cm^3
# Si number density = 21.124309 Si / 1000 Ang^3
#
#
#
# Elastic Constant Matrix: (Units=GPa)
#
#
# Indices 1 2 3 4 5 6 
#
# 1 155.4610 26.5079 67.1407 0.0000 -41.5426 0.0000
# 2 26.5079 80.9190 23.8836 0.0000 -6.1573 0.0000
# 3 67.1407 23.8836 172.2537 0.0000 -9.2365 0.0000
# 4 0.0000 0.0000 0.0000 31.7590 0.0000 1.9078
# 5 -41.5426 -6.1573 -9.2365 0.0000 26.1387 0.0000
# 6 0.0000 0.0000 0.0000 1.9078 0.0000 8.2439
#
#
#
# Elastic Compliance Matrix: (Units=1/GPa)
#
#
# Indices 1 2 3 4 5 6 
#
# 1 0.013918 -0.001812 -0.004088 0.000000 0.020248 0.000000
# 2 -0.001812 0.013277 -0.001143 0.000000 -0.000156 0.000000
# 3 -0.004088 -0.001143 0.007333 0.000000 -0.004175 0.000000
# 4 0.000000 0.000000 0.000000 0.031931 0.000000 -0.007390
# 5 0.020248 -0.000156 -0.004175 0.000000 0.068926 0.000000
# 6 0.000000 0.000000 0.000000 -0.007390 0.000000 0.123012
#
#
# Mechanical properties :
#
#
# Convention : Reuss Voigt Hill
#
# Bulk Modulus (GPa) = 48.91764 71.52202 60.21983
# Shear Modulus (GPa) = 17.90206 32.63508 25.26857
#
# Velocity S-wave (km/s) = 2.91428 3.93479 3.46234
# Velocity P-wave (km/s) = 5.87634 7.38747 6.67480
#
# Compressibility (1/GPa) = 0.02044252
#
# Stress axis : x y z
#
# Youngs Moduli (GPa) = 71.85115 75.31768 136.36306
#
# Poissons Ratio (x) = 0.13647 0.55743
# Poissons Ratio (y) = 0.13019 0.15587
# Poissons Ratio (z) = 0.29372 0.08609
#
# Static dielectric constant tensor:
#      x y z
#    x 1.732440 0.000000 -0.011540 
#    y 0.000000 1.821880 0.000000 
#    z -0.011540 0.000000 1.741340 
# 
# From -- ./inp_files/26588.got.cif
#   From: 2010.05.17/outbox.cif.g08.bks.cpg/sg8_14_cif.got.tgz:26588.got - 2010.06.03 19:46:02.
