data_PCOD9132093
_publ_section_title
;
Structure prediction by ZEFSAII (Michael W. Deem and Ramdas Pophale) SiO2 
 PCOD9132093
Probable space group: C M
;
_chemical_formula_sum "Si O2"
_cell_formula_units_Z 32
_cell_length_a 26.037189
_cell_length_b 8.185911
_cell_length_c 17.321375
_cell_angle_alpha 90.000000
_cell_angle_beta 154.567157
_cell_angle_gamma 90.000000
_cell_volume 1585.473506
_symmetry_space_group_name_H-M "C M"
_symmetry_group_IT_number 8
_symmetry_cell_setting 'monoclinic'
loop_
_space_group_symop_operation_xyz
x,y,z
x,-y,z
1/2+x,1/2+y,z
1/2+x,1/2-y,z
loop_
_atom_site_type_symbol
_atom_site_label
_atom_site_fract_x
_atom_site_fract_y
_atom_site_fract_z
Si Si1 0.614880 0.799440 0.407410
Si Si2 0.057427 0.308659 0.158908
Si Si3 0.167655 0.806240 0.747379
Si Si4 0.220382 0.195509 0.242321
Si Si5 0.684467 0.302192 0.020258
Si Si6 0.870946 0.303257 0.150825
Si Si7 0.488435 0.804282 0.631064
Si Si8 0.295471 0.691058 0.775409
O O1 0.601842 0.742873 0.301888
O O2 0.500414 0.741393 0.301635
O O3 0.735718 0.751716 0.614719
O O4 0.611033 0.000000 0.402013
O O5 0.084063 0.500000 0.193861
O O6 0.123513 0.232381 0.175797
O O7 0.915394 0.283735 0.960689
O O8 0.052121 0.751714 0.638305
O O9 0.196226 0.715510 0.707052
O O10 0.163679 0.000000 0.728208
O O11 0.279109 0.771845 0.956088
O O12 0.184698 0.257113 0.108581
O O13 0.351908 0.256133 0.446039
O O14 0.230175 0.000000 0.248747
O O15 0.687824 0.500000 0.024922
O O16 0.803359 0.243481 0.135734
O O17 0.570294 0.254907 0.813365
O O18 0.880965 0.500000 0.171799
O O19 0.489156 0.000000 0.633725
O O20 0.325129 0.500000 0.809634
#
# Coordination Sequence:
#
# PCOD9132093 Si02
#       8
#     4   4   4   4   4   4   4   4
#     4   9  19  35  58  85 113 152 195 232 286 357
#     4  11  23  42  62  82 116 159 199 242 292 351
#     4  10  19  35  59  86 122 159 193 234 289 356
#     4  10  23  41  61  85 116 157 201 242 290 352
#     4   9  19  36  60  85 115 157 195 234 290 357
#     4   8  14  30  57  82 110 148 189 228 274 342
#     4  10  21  37  59  89 121 151 193 248 297 338
#     4  11  22  36  60  90 117 149 195 248 296 345
#
# _framework density 20.183246
#
# number of rings (size 3 to 8) (size 9 to 14) (size 15 to 20)
#    0.000    2.250    1.250    2.250    1.750    2.500 
#    0.000    6.250    0.000    0.000    0.000    0.000 
#    0.000    0.000    0.000    0.000    0.000    0.000 
#
# Total GULP energy -89316.267665 kJ/mol
# GULP energy per Si atom -5582.266729 kJ/mol
# Density = 2.013731 g / cm^3
# Si number density = 20.183246 Si / 1000 Ang^3
#
#
#
# Elastic Constant Matrix: (Units=GPa)
#
#
# Indices 1 2 3 4 5 6 
#
# 1 124.1958 -2.0324 55.3316 0.0000 -21.2319 0.0000
# 2 -2.0324 13.6269 5.6928 0.0000 -5.2085 0.0000
# 3 55.3316 5.6928 62.4703 0.0000 -28.1632 0.0000
# 4 0.0000 0.0000 0.0000 20.6757 0.0000 3.1161
# 5 -21.2319 -5.2085 -28.1632 0.0000 22.8492 0.0000
# 6 0.0000 0.0000 0.0000 3.1161 0.0000 24.5982
#
#
#
# Elastic Compliance Matrix: (Units=1/GPa)
#
#
# Indices 1 2 3 4 5 6 
#
# 1 0.014119 0.006944 -0.014652 0.000000 -0.003357 0.000000
# 2 0.006944 0.083926 -0.005097 0.000000 0.019301 0.000000
# 3 -0.014652 -0.005097 0.051286 0.000000 0.048437 0.000000
# 4 0.000000 0.000000 0.000000 0.049307 0.000000 -0.006246
# 5 -0.003357 0.019301 0.048437 0.000000 0.104747 0.000000
# 6 0.000000 0.000000 0.000000 -0.006246 0.000000 0.041445
#
#
# Mechanical properties :
#
#
# Convention : Reuss Voigt Hill
#
# Bulk Modulus (GPa) = 8.08269 35.36412 21.72340
# Shear Modulus (GPa) = 12.14532 23.04469 17.59501
#
# Velocity S-wave (km/s) = 2.45573 3.38268 2.95577
# Velocity P-wave (km/s) = 3.47191 5.72855 4.73658
#
# Compressibility (1/GPa) = 0.12372125
#
# Stress axis : x y z
#
# Youngs Moduli (GPa) = 70.82519 11.91524 19.49850
#
# Poissons Ratio (x) = -0.08274 0.28569
# Poissons Ratio (y) = -0.49180 0.09939
# Poissons Ratio (z) = 1.03772 0.06073
#
# Static dielectric constant tensor:
#      x y z
#    x 1.700080 0.000000 -0.013590 
#    y 0.000000 1.709770 0.000000 
#    z -0.013590 0.000000 1.713390 
# 
# From -- ./inp_files/28211.got.cif
#   From: 2010.05.17/outbox.cif.g08.bks.cpg/sg8_15_cif.got.tgz:28211.got - 2010.06.03 19:46:02.
