data_PCOD9132055
_publ_section_title
;
Structure prediction by ZEFSAII (Michael W. Deem and Ramdas Pophale) SiO2 
 PCOD9132055
Probable space group: C M
;
_chemical_formula_sum "Si O2"
_cell_formula_units_Z 28
_cell_length_a 14.537958
_cell_length_b 19.544003
_cell_length_c 11.916871
_cell_angle_alpha 90.000000
_cell_angle_beta 149.085444
_cell_angle_gamma 90.000000
_cell_volume 1739.557559
_symmetry_space_group_name_H-M "C M"
_symmetry_group_IT_number 8
_symmetry_cell_setting 'monoclinic'
loop_
_space_group_symop_operation_xyz
x,y,z
x,-y,z
1/2+x,1/2+y,z
1/2+x,1/2-y,z
loop_
_atom_site_type_symbol
_atom_site_label
_atom_site_fract_x
_atom_site_fract_y
_atom_site_fract_z
Si Si1 0.685690 0.296708 0.358500
Si Si2 0.978374 0.797546 0.352505
Si Si3 0.380913 0.784273 0.773718
Si Si4 0.757960 0.418882 0.983628
Si Si5 0.580326 0.855861 0.181870
Si Si6 0.929662 0.921592 0.468258
Si Si7 0.189533 0.180883 0.110804
O O1 0.512576 0.311677 0.255892
O O2 0.850759 0.310150 0.615194
O O3 0.667865 0.215571 0.314533
O O4 0.703873 0.332802 0.258622
O O5 0.176367 0.772619 0.598874
O O6 0.938126 0.866533 0.377438
O O7 0.832119 0.740074 0.225241
O O8 0.479521 0.836279 0.960221
O O9 0.496069 0.715738 0.892055
O O10 0.784097 0.500000 0.022167
O O11 0.591108 0.407826 0.724184
O O12 0.932580 0.383825 0.112258
O O13 0.716980 0.382641 0.058390
O O14 0.739457 0.908784 0.328423
O O15 0.945831 0.000000 0.447070
#
# Coordination Sequence:
#
# PCOD9132055 Si02
#       7
#     4   4   4   4   4   4   4
#     4   9  19  33  51  83 103 131 185 226 258 314
#     4  10  19  35  53  79 108 138 183 222 270 313
#     4   9  19  31  54  79 106 134 182 224 266 311
#     4  11  22  35  55  82 114 148 176 216 278 332
#     4  11  18  35  55  82 110 139 178 226 273 316
#     4  11  22  35  56  84 112 140 181 229 271 321
#     4  11  20  34  56  77 112 144 175 227 269 317
#
# _framework density 16.096046000000001
#
# number of rings (size 3 to 8) (size 9 to 14) (size 15 to 20)
#    0.857    0.857    5.714    1.286    0.000    0.000 
#    0.000    0.714    0.000    0.000    0.000    0.000 
#    0.000    0.000    0.000    0.000    0.000    0.000 
#
# Total GULP energy -77942.573394 kJ/mol
# GULP energy per Si atom -5567.326671 kJ/mol
# Density = 1.605941 g / cm^3
# Si number density = 16.096046 Si / 1000 Ang^3
#
#
#
# Elastic Constant Matrix: (Units=GPa)
#
#
# Indices 1 2 3 4 5 6 
#
# 1 89.6197 25.5709 12.0906 0.0000 -14.6450 0.0000
# 2 25.5709 66.3506 10.6163 0.0000 -8.4589 0.0000
# 3 12.0906 10.6163 25.7776 0.0000 4.7686 0.0000
# 4 0.0000 0.0000 0.0000 14.6308 0.0000 -5.8827
# 5 -14.6450 -8.4589 4.7686 0.0000 34.1418 0.0000
# 6 0.0000 0.0000 0.0000 -5.8827 0.0000 24.1160
#
#
#
# Elastic Compliance Matrix: (Units=1/GPa)
#
#
# Indices 1 2 3 4 5 6 
#
# 1 0.014007 -0.003650 -0.006170 0.000000 0.005966 0.000000
# 2 -0.003650 0.017984 -0.006394 0.000000 0.003783 0.000000
# 3 -0.006170 -0.006394 0.046299 0.000000 -0.010697 0.000000
# 4 0.000000 0.000000 0.000000 0.075782 0.000000 0.018486
# 5 0.005966 0.003783 -0.010697 0.000000 0.034280 0.000000
# 6 0.000000 0.000000 0.000000 0.018486 0.000000 0.045976
#
#
# Mechanical properties :
#
#
# Convention : Reuss Voigt Hill
#
# Bulk Modulus (GPa) = 21.80485 30.92263 26.36374
# Shear Modulus (GPa) = 17.72776 23.47571 20.60174
#
# Velocity S-wave (km/s) = 3.32230 3.82314 3.58149
# Velocity P-wave (km/s) = 5.31911 6.22428 5.78941
#
# Compressibility (1/GPa) = 0.04586136
#
# Stress axis : x y z
#
# Youngs Moduli (GPa) = 71.39248 55.60621 21.59852
#
# Poissons Ratio (x) = 0.20299 0.13326
# Poissons Ratio (y) = 0.26061 0.13810
# Poissons Ratio (z) = 0.44049 0.35554
#
# Static dielectric constant tensor:
#      x y z
#    x 1.558160 0.000000 -0.004660 
#    y 0.000000 1.511100 0.000000 
#    z -0.004660 0.000000 1.556360 
# 
# From -- ./inp_files/22332.got.cif
#   From: 2010.05.17/outbox.cif.g08.bks.cpg/sg8_12_cif.got.tgz:22332.got - 2010.06.03 19:46:02.
