data_PCOD9132345
_publ_section_title
;
Structure prediction by ZEFSAII (Michael W. Deem and Ramdas Pophale) SiO2 
 PCOD9132345
Probable space group: C M
;
_chemical_formula_sum "Si O2"
_cell_formula_units_Z 32
_cell_length_a 21.147467
_cell_length_b 8.742510
_cell_length_c 25.894905
_cell_angle_alpha 90.000000
_cell_angle_beta 22.466961
_cell_angle_gamma 90.000000
_cell_volume 1829.546231
_symmetry_space_group_name_H-M "C M"
_symmetry_group_IT_number 8
_symmetry_cell_setting 'monoclinic'
loop_
_space_group_symop_operation_xyz
x,y,z
x,-y,z
1/2+x,1/2+y,z
1/2+x,1/2-y,z
loop_
_atom_site_type_symbol
_atom_site_label
_atom_site_fract_x
_atom_site_fract_y
_atom_site_fract_z
Si Si1 0.047640 0.315178 0.192970
Si Si2 0.038736 0.818130 0.473797
Si Si3 0.592918 0.817767 0.039170
Si Si4 0.692179 0.183362 0.462735
Si Si5 0.211959 0.183606 0.762781
Si Si6 0.355194 0.182312 0.768674
Si Si7 0.784420 0.816521 0.209003
Si Si8 0.838141 0.813704 0.050313
O O1 0.035955 0.500000 0.204354
O O2 0.196560 0.264554 0.117623
O O3 0.083164 0.273405 0.106604
O O4 0.871831 0.244929 0.341327
O O5 0.850681 0.763837 0.623678
O O6 0.138562 0.753324 0.448063
O O7 0.125610 0.751257 0.357671
O O8 0.049988 0.000000 0.465497
O O9 0.445398 0.738259 0.118930
O O10 0.571070 0.000000 0.052351
O O11 0.763836 0.769414 0.883276
O O12 0.545607 0.223664 0.613387
O O13 0.693275 0.000000 0.456810
O O14 0.259067 0.213391 0.787234
O O15 0.225052 0.000000 0.745792
O O16 0.024125 0.234073 0.895231
O O17 0.344794 0.000000 0.785635
O O18 0.799748 0.766617 0.137973
O O19 0.778017 0.000000 0.215312
O O20 0.840530 0.000000 0.048353
#
# Coordination Sequence:
#
# PCOD9132345 Si02
#       8
#     4   4   4   4   4   4   4   4
#     4  10  21  37  56  81 113 145 180 226 277 324
#     4  11  21  33  52  83 114 140 176 230 281 322
#     4  11  21  32  52  84 114 139 175 227 280 321
#     4  10  20  35  55  79 108 147 187 222 269 326
#     4   9  17  34  56  79 105 141 186 227 268 322
#     4   9  18  33  54  79 105 138 183 226 264 317
#     4  11  20  35  58  81 106 142 188 228 266 322
#     4   9  19  37  59  80 107 146 187 224 267 326
#
# _framework density 17.490676000000001
#
# number of rings (size 3 to 8) (size 9 to 14) (size 15 to 20)
#    0.000    2.000    2.500    3.000    0.000    3.000 
#    0.000    3.125    0.000    6.000    0.000    0.000 
#    0.000    0.000    0.000    0.000    0.000    0.000 
#
# Total GULP energy -89311.654473 kJ/mol
# GULP energy per Si atom -5581.978405 kJ/mol
# Density = 1.745087 g / cm^3
# Si number density = 17.490676 Si / 1000 Ang^3
#
#
#
# Elastic Constant Matrix: (Units=GPa)
#
#
# Indices 1 2 3 4 5 6 
#
# 1 101.5076 33.1592 77.8341 -0.0018 -8.4809 -0.0004
# 2 33.1592 43.5179 44.9566 -0.0008 1.5115 -0.0003
# 3 77.8341 44.9566 171.8008 -0.0052 -7.4985 -0.0022
# 4 -0.0018 -0.0008 -0.0052 19.6207 -0.0026 -5.5327
# 5 -8.4809 1.5115 -7.4985 -0.0026 27.2988 -0.0005
# 6 -0.0004 -0.0003 -0.0022 -5.5327 -0.0005 15.2098
#
#
#
# Elastic Compliance Matrix: (Units=1/GPa)
#
#
# Indices 1 2 3 4 5 6 
#
# 1 0.016804 -0.007217 -0.005545 0.000000 0.004097 0.000000
# 2 -0.007217 0.035042 -0.006156 -0.000002 -0.005873 -0.000001
# 3 -0.005545 -0.006156 0.010004 0.000003 0.001366 0.000002
# 4 0.000000 -0.000002 0.000003 0.056792 0.000007 0.020659
# 5 0.004097 -0.005873 0.001366 0.000007 0.038605 0.000004
# 6 0.000000 -0.000001 0.000002 0.020659 0.000004 0.073262
#
#
# Mechanical properties :
#
#
# Convention : Reuss Voigt Hill
#
# Bulk Modulus (GPa) = 41.64700 69.85846 55.75273
# Shear Modulus (GPa) = 18.09299 23.15094 20.62196
#
# Velocity S-wave (km/s) = 3.21975 3.64210 3.43742
# Velocity P-wave (km/s) = 6.13882 7.59695 6.90647
#
# Compressibility (1/GPa) = 0.02401133
#
# Stress axis : x y z
#
# Youngs Moduli (GPa) = 59.51137 28.53690 99.96352
#
# Poissons Ratio (x) = 0.20596 0.55434
# Poissons Ratio (y) = 0.42951 0.61542
# Poissons Ratio (z) = 0.33001 0.17569
#
# Static dielectric constant tensor:
#      x y z
#    x 1.571120 0.000000 0.000230 
#    y 0.000000 1.588890 0.000000 
#    z 0.000230 0.000000 1.604520 
# 
# From -- ./inp_files/31353.got.cif
#   From: 2010.05.17/outbox.cif.g08.bks.cpg/sg8_16_cif.got.tgz:31353.got - 2010.06.03 19:46:02.
