data_PCOD9132309
_publ_section_title
;
Structure prediction by ZEFSAII (Michael W. Deem and Ramdas Pophale) SiO2 
 PCOD9132309
Probable space group: C M
;
_chemical_formula_sum "Si O2"
_cell_formula_units_Z 28
_cell_length_a 14.189931
_cell_length_b 9.788042
_cell_length_c 19.200702
_cell_angle_alpha 90.000000
_cell_angle_beta 151.971621
_cell_angle_gamma 90.000000
_cell_volume 1253.160871
_symmetry_space_group_name_H-M "C M"
_symmetry_group_IT_number 8
_symmetry_cell_setting 'monoclinic'
loop_
_space_group_symop_operation_xyz
x,y,z
x,-y,z
1/2+x,1/2+y,z
1/2+x,1/2-y,z
loop_
_atom_site_type_symbol
_atom_site_label
_atom_site_fract_x
_atom_site_fract_y
_atom_site_fract_z
Si Si1 0.498510 0.343565 0.164330
Si Si2 0.366458 0.338199 0.927731
Si Si3 0.744903 0.344567 0.531087
Si Si4 0.356696 0.353887 0.364919
Si Si5 0.631195 0.834375 0.009848
Si Si6 0.376273 0.652712 0.735848
Si Si7 0.525769 0.225178 0.599113
O O1 0.558442 0.500000 0.211398
O O2 0.690916 0.258141 0.269941
O O3 0.352559 0.335390 0.001478
O O4 0.361066 0.304865 0.139860
O O5 0.386616 0.500000 0.920619
O O6 0.555047 0.245368 0.028115
O O7 0.179504 0.274000 0.764416
O O8 0.807270 0.500000 0.592151
O O9 0.513003 0.334571 0.403655
O O10 0.846148 0.226341 0.642917
O O11 0.821101 0.326109 0.501847
O O12 0.257341 0.500000 0.289519
O O13 0.477759 0.352159 0.517754
O O14 0.497846 0.757623 0.863989
O O15 0.603451 0.000000 0.993289
O O16 0.463916 0.500000 0.788886
O O17 0.156749 0.640495 0.628803
#
# Coordination Sequence:
#
# PCOD9132309 Si02
#       7
#     4   4   4   4   4   4   4
#     4  10  23  42  62  83 116 160 198 234 291 356
#     4  10  21  38  61  91 119 150 194 241 288 346
#     4  10  20  36  58  83 114 154 195 238 286 342
#     4  10  24  41  58  86 121 153 196 247 290 336
#     4  10  20  36  58  84 114 152 194 238 288 345
#     4  10  20  34  55  87 120 151 189 237 290 345
#     4  10  20  37  62  86 116 154 192 233 287 348
#
# _framework density 22.343499999999999
#
# number of rings (size 3 to 8) (size 9 to 14) (size 15 to 20)
#    0.000    2.000    0.000    3.857    0.000   11.429 
#    0.000    7.143    0.000    0.000    0.000    0.000 
#    0.000    0.000    0.000    0.000    0.000    0.000 
#
# Total GULP energy -78012.489217 kJ/mol
# GULP energy per Si atom -5572.320658 kJ/mol
# Density = 2.229265 g / cm^3
# Si number density = 22.343500 Si / 1000 Ang^3
#
#
#
# Elastic Constant Matrix: (Units=GPa)
#
#
# Indices 1 2 3 4 5 6 
#
# 1 158.4270 61.3104 33.4979 0.0000 28.6472 0.0000
# 2 61.3104 86.9663 29.5680 0.0003 21.0660 0.0000
# 3 33.4979 29.5680 50.4678 0.0004 10.7977 0.0000
# 4 0.0000 0.0003 0.0004 22.4671 -0.0001 -2.6630
# 5 28.6472 21.0660 10.7977 -0.0001 42.5317 0.0000
# 6 0.0000 0.0000 0.0000 -2.6630 0.0000 11.1641
#
#
#
# Elastic Compliance Matrix: (Units=1/GPa)
#
#
# Indices 1 2 3 4 5 6 
#
# 1 0.009352 -0.004923 -0.002641 0.000000 -0.003191 0.000000
# 2 -0.004923 0.018157 -0.006509 0.000000 -0.004025 0.000000
# 3 -0.002641 -0.006509 0.025707 0.000000 -0.001523 0.000000
# 4 0.000000 0.000000 0.000000 0.045805 0.000000 0.010926
# 5 -0.003191 -0.004025 -0.001523 0.000000 0.028041 0.000000
# 6 0.000000 0.000000 0.000000 0.010926 0.000000 0.092179
#
#
# Mechanical properties :
#
#
# Convention : Reuss Voigt Hill
#
# Bulk Modulus (GPa) = 39.88670 60.51263 50.19967
# Shear Modulus (GPa) = 19.55073 26.66489 23.10781
#
# Velocity S-wave (km/s) = 2.96126 3.45832 3.21940
# Velocity P-wave (km/s) = 5.43897 6.56417 6.02788
#
# Compressibility (1/GPa) = 0.02507101
#
# Stress axis : x y z
#
# Youngs Moduli (GPa) = 106.92422 55.07443 38.89959
#
# Poissons Ratio (x) = 0.27111 0.10273
# Poissons Ratio (y) = 0.52634 0.25321
# Poissons Ratio (z) = 0.28238 0.35850
#
# Static dielectric constant tensor:
#      x y z
#    x 1.829770 0.000000 -0.001750 
#    y 0.000000 1.789920 0.000000 
#    z -0.001750 0.000000 1.928060 
# 
# From -- ./inp_files/30769.got.cif
#   From: 2010.05.17/outbox.cif.g08.bks.cpg/sg8_16_cif.got.tgz:30769.got - 2010.06.03 19:46:02.
