data_PCOD9132630
_publ_section_title
;
Structure prediction by ZEFSAII (Michael W. Deem and Ramdas Pophale) SiO2 
 PCOD9132630
Probable space group: C M
;
_chemical_formula_sum "Si O2"
_cell_formula_units_Z 24
_cell_length_a 15.425524
_cell_length_b 16.362638
_cell_length_c 8.136148
_cell_angle_alpha 90.000000
_cell_angle_beta 30.350520
_cell_angle_gamma 90.000000
_cell_volume 1037.651910
_symmetry_space_group_name_H-M "C M"
_symmetry_group_IT_number 8
_symmetry_cell_setting 'monoclinic'
loop_
_space_group_symop_operation_xyz
x,y,z
x,-y,z
1/2+x,1/2+y,z
1/2+x,1/2-y,z
loop_
_atom_site_type_symbol
_atom_site_label
_atom_site_fract_x
_atom_site_fract_y
_atom_site_fract_z
Si Si1 0.111430 0.168714 0.261340
Si Si2 0.735041 0.826735 0.882812
Si Si3 0.239388 0.000000 0.908438
Si Si4 0.435954 0.825776 0.104656
Si Si5 0.550636 0.667320 0.749734
Si Si6 0.610969 0.000000 0.149169
Si Si7 0.931856 0.500000 0.083079
Si Si8 0.058318 0.000000 0.852457
O O1 0.076760 0.167547 0.512272
O O2 0.920952 0.174331 0.495341
O O3 0.214306 0.248132 0.033478
O O4 0.195156 0.083345 0.074031
O O5 0.582355 0.821314 0.001668
O O6 0.713352 0.915559 0.004008
O O7 0.125387 0.000000 0.928498
O O8 0.438876 0.000000 0.536440
O O9 0.450432 0.746329 0.971146
O O10 0.463670 0.910501 0.958286
O O11 0.247533 0.829389 0.495282
O O12 0.467799 0.584353 0.954150
O O13 0.540902 0.000000 0.074599
O O14 0.730277 0.500000 0.458015
#
# Coordination Sequence:
#
# PCOD9132630 Si02
#       8
#     4   4   2   4   4   2   2   2
#     4  12  24  38  60  92 125 157 196 249 304 351
#     4  11  22  40  62  90 121 159 202 245 292 360
#     4  11  22  40  64  89 116 162 206 243 296 360
#     4  10  20  38  61  83 115 159 198 237 289 354
#     4  11  22  39  59  87 120 153 192 247 300 348
#     4   9  19  37  62  88 115 148 200 252 289 340
#     4   7  16  34  58  83 108 142 190 239 282 336
#     4   9  19  37  60  82 111 152 196 236 287 354
#
# _framework density 23.129145000000001
#
# number of rings (size 3 to 8) (size 9 to 14) (size 15 to 20)
#    0.000    1.667    0.000    6.000    0.000    0.000 
#    0.000    1.667    0.000    2.000    0.000    0.000 
#    0.000    0.000    0.000    0.000    0.000    0.000 
#
# Total GULP energy -67111.322179 kJ/mol
# GULP energy per Si atom -5592.610182 kJ/mol
# Density = 2.307650 g / cm^3
# Si number density = 23.129145 Si / 1000 Ang^3
#
#
#
# Elastic Constant Matrix: (Units=GPa)
#
#
# Indices 1 2 3 4 5 6 
#
# 1 54.8247 9.5860 -9.6184 -0.0025 -3.3433 0.0023
# 2 9.5860 288.1908 60.5174 -0.0020 23.8112 0.0017
# 3 -9.6184 60.5174 55.8922 -0.0048 -6.9460 0.0041
# 4 -0.0025 -0.0020 -0.0048 46.3526 0.0025 8.3847
# 5 -3.3433 23.8112 -6.9460 0.0025 34.2909 -0.0018
# 6 0.0023 0.0017 0.0041 8.3847 -0.0018 -0.4646
#
#
#
# Elastic Compliance Matrix: (Units=1/GPa)
#
#
# Indices 1 2 3 4 5 6 
#
# 1 0.020198 -0.002534 0.006856 -0.000005 0.005118 0.000037
# 2 -0.002534 0.005491 -0.007064 0.000001 -0.005491 -0.000009
# 3 0.006856 -0.007064 0.028121 -0.000008 0.011270 0.000060
# 4 -0.000005 0.000001 -0.000008 0.005059 0.000001 0.091296
# 5 0.005118 -0.005491 0.011270 0.000001 0.035757 -0.000011
# 6 0.000037 -0.000009 0.000060 0.091296 -0.000011 -0.504709
#
#
# Mechanical properties :
#
#
# Convention : Reuss Voigt Hill
#
# Bulk Modulus (GPa) = 20.69333 57.76421 39.22877
# Shear Modulus (GPa) = -12.87041 38.59728 12.86344
#
# Velocity S-wave (km/s) = -2.36150 4.08949 2.36086
# Velocity P-wave (km/s) = 1.23723 6.87950 4.94258
#
# Compressibility (1/GPa) = 0.04832475
#
# Stress axis : x y z
#
# Youngs Moduli (GPa) = 49.50988 182.10370 35.56069
#
# Poissons Ratio (x) = 0.46152 -0.24380
# Poissons Ratio (y) = 0.12548 0.25121
# Poissons Ratio (z) = -0.33944 1.28645
#
# Static dielectric constant tensor:
#      x y z
#    x 1.928840 0.000000 -0.021430 
#    y 0.000000 1.905150 0.000000 
#    z -0.021430 0.000000 1.822300 
# 
# From -- ./inp_files/7852.got.cif
#   From: 2010.05.17/outbox.cif.g08.bks.cpg/sg8_4_cif.got.tgz:7852.got - 2010.06.03 19:46:02.
