data_PCOD9132855
_publ_section_title
;
Structure prediction by ZEFSAII (Michael W. Deem and Ramdas Pophale) SiO2 
 PCOD9132855
Probable space group: C M
;
_chemical_formula_sum "Si O2"
_cell_formula_units_Z 28
_cell_length_a 15.692009
_cell_length_b 18.150876
_cell_length_c 8.980362
_cell_angle_alpha 90.000000
_cell_angle_beta 147.465396
_cell_angle_gamma 90.000000
_cell_volume 1375.618318
_symmetry_space_group_name_H-M "C M"
_symmetry_group_IT_number 8
_symmetry_cell_setting 'monoclinic'
loop_
_space_group_symop_operation_xyz
x,y,z
x,-y,z
1/2+x,1/2+y,z
1/2+x,1/2-y,z
loop_
_atom_site_type_symbol
_atom_site_label
_atom_site_fract_x
_atom_site_fract_y
_atom_site_fract_z
Si Si1 0.718830 0.583716 0.221980
Si Si2 0.560404 0.863487 0.689096
Si Si3 0.053894 0.713170 0.401327
Si Si4 0.017755 0.799505 0.760258
Si Si5 0.683685 0.416651 0.503101
Si Si6 0.901448 0.858091 0.289862
Si Si7 0.887768 0.722111 0.860099
O O1 0.690743 0.500000 0.127482
O O2 0.631869 0.592564 0.253950
O O3 0.906475 0.595522 0.523834
O O4 0.658698 0.647601 0.023801
O O5 0.536509 0.859288 0.475148
O O6 0.559435 0.778083 0.743217
O O7 0.732368 0.890464 0.993490
O O8 0.230971 0.740141 0.695607
O O9 0.929083 0.774700 0.271385
O O10 0.025961 0.712541 0.183928
O O11 0.921867 0.847700 0.497474
O O12 0.933244 0.770470 0.784914
O O13 0.737542 0.500000 0.600469
O O14 0.544179 0.400003 0.415420
O O15 0.823844 0.358661 0.728647
#
# Coordination Sequence:
#
# PCOD9132855 Si02
#       7
#     4   4   4   4   4   4   4
#     4  11  25  43  64  95 135 174 215 270 337 394
#     4  11  22  39  63  97 126 169 221 273 321 382
#     4  10  21  36  59  94 129 159 217 275 317 380
#     4  11  22  38  66  97 130 168 220 272 325 391
#     4  10  23  43  64  90 131 178 216 262 334 400
#     4  10  22  38  62  94 126 166 215 274 321 386
#     4  11  21  37  65  97 124 166 220 270 321 387
#
# _framework density 20.354485
#
# number of rings (size 3 to 8) (size 9 to 14) (size 15 to 20)
#    0.000    1.429    2.857    3.429    6.000    1.143 
#    0.000    0.000    0.000    0.857    0.000    0.000 
#    0.000    0.000    0.000    0.000    0.000    0.000 
#
# Total GULP energy -78044.543486 kJ/mol
# GULP energy per Si atom -5574.610249 kJ/mol
# Density = 2.030816 g / cm^3
# Si number density = 20.354485 Si / 1000 Ang^3
#
#
#
# Elastic Constant Matrix: (Units=GPa)
#
#
# Indices 1 2 3 4 5 6 
#
# 1 93.3640 15.7709 37.2218 0.0000 -13.1673 0.0000
# 2 15.7709 74.8141 15.0346 0.0000 0.7820 0.0000
# 3 37.2218 15.0346 96.8970 0.0000 -2.9876 0.0000
# 4 0.0000 0.0000 0.0000 12.2779 0.0000 -4.1211
# 5 -13.1673 0.7820 -2.9876 0.0000 24.4442 0.0000
# 6 0.0000 0.0000 0.0000 -4.1211 0.0000 12.0032
#
#
#
# Elastic Compliance Matrix: (Units=1/GPa)
#
#
# Indices 1 2 3 4 5 6 
#
# 1 0.013971 -0.002047 -0.004833 0.000000 0.007000 0.000000
# 2 -0.002047 0.014109 -0.001456 0.000000 -0.001732 0.000000
# 3 -0.004833 -0.001456 0.012371 0.000000 -0.001045 0.000000
# 4 0.000000 0.000000 0.000000 0.092055 0.000000 0.031605
# 5 0.007000 -0.001732 -0.001045 0.000000 0.044608 0.000000
# 6 0.000000 0.000000 0.000000 0.031605 0.000000 0.094162
#
#
# Mechanical properties :
#
#
# Convention : Reuss Voigt Hill
#
# Bulk Modulus (GPa) = 42.05701 44.56996 43.31348
# Shear Modulus (GPa) = 16.89908 22.88159 19.89033
#
# Velocity S-wave (km/s) = 2.88451 3.35648 3.12941
# Velocity P-wave (km/s) = 5.63924 6.07994 5.86373
#
# Compressibility (1/GPa) = 0.02377725
#
# Stress axis : x y z
#
# Youngs Moduli (GPa) = 71.57856 70.87822 80.83688
#
# Poissons Ratio (x) = 0.14508 0.39070
# Poissons Ratio (y) = 0.14652 0.11772
# Poissons Ratio (z) = 0.34595 0.10321
#
# Static dielectric constant tensor:
#      x y z
#    x 1.808450 0.000000 -0.040030 
#    y 0.000000 1.704710 0.000000 
#    z -0.040030 0.000000 1.731330 
# 
# From -- ./inp_files/13745.got.cif
#   From: 2010.05.17/outbox.cif.g08.bks.cpg/sg8_7_cif.got.tgz:13745.got - 2010.06.03 19:46:02.
