data_PCOD9132784
_publ_section_title
;
Structure prediction by ZEFSAII (Michael W. Deem and Ramdas Pophale) SiO2 
 PCOD9132784
Probable space group: C M
;
_chemical_formula_sum "Si O2"
_cell_formula_units_Z 24
_cell_length_a 10.163248
_cell_length_b 18.842443
_cell_length_c 5.189127
_cell_angle_alpha 90.000000
_cell_angle_beta 111.921450
_cell_angle_gamma 90.000000
_cell_volume 921.870623
_symmetry_space_group_name_H-M "C M"
_symmetry_group_IT_number 8
_symmetry_cell_setting 'monoclinic'
loop_
_space_group_symop_operation_xyz
x,y,z
x,-y,z
1/2+x,1/2+y,z
1/2+x,1/2-y,z
loop_
_atom_site_type_symbol
_atom_site_label
_atom_site_fract_x
_atom_site_fract_y
_atom_site_fract_z
Si Si1 0.947290 0.668115 0.269680
Si Si2 0.605858 0.290399 0.619021
Si Si3 0.019538 0.602707 0.821740
Si Si4 0.318475 0.579163 0.239482
Si Si5 0.866181 0.175365 0.779138
Si Si6 0.227862 0.080186 0.399137
O O1 0.748654 0.759855 0.720861
O O2 0.798382 0.628887 0.222102
O O3 0.046794 0.625549 0.547837
O O4 0.988492 0.663145 0.006652
O O5 0.330690 0.373572 0.503554
O O6 0.478895 0.247011 0.383209
O O7 0.635644 0.365083 0.499847
O O8 0.528726 0.302419 0.834707
O O9 0.866695 0.568671 0.679965
O O10 0.153371 0.568527 0.047217
O O11 0.381812 0.500000 0.316326
O O12 0.365977 0.624081 0.025292
O O13 0.179493 0.000000 0.289529
#
# Coordination Sequence:
#
# PCOD9132784 Si02
#       6
#     4   4   4   4   4   4
#     4  10  22  42  68 100 138 182 239 289 354 424
#     4  12  24  49  74 107 144 195 248 299 365 438
#     4  10  20  43  69 102 140 185 239 288 358 426
#     4  12  25  45  74 108 148 190 242 303 373 437
#     4  12  27  47  74 106 145 195 243 304 363 444
#     4  10  24  44  72 107 148 189 241 303 365 431
#
# _framework density 26.034019000000001
#
# number of rings (size 3 to 8) (size 9 to 14) (size 15 to 20)
#    1.000    0.000    5.000    1.000    0.000    6.667 
#    6.000    0.000    0.000    0.000    0.000    0.000 
#    0.000    0.000    0.000    0.000    0.000    0.000 
#
# Total GULP energy -66884.856396 kJ/mol
# GULP energy per Si atom -5573.738033 kJ/mol
# Density = 2.597476 g / cm^3
# Si number density = 26.034019 Si / 1000 Ang^3
#
#
#
# Elastic Constant Matrix: (Units=GPa)
#
#
# Indices 1 2 3 4 5 6 
#
# 1 176.8473 94.4665 39.7900 0.0000 -18.5378 0.0000
# 2 94.4665 221.6112 43.0453 0.0000 -11.8160 0.0000
# 3 39.7900 43.0453 115.1349 0.0000 -7.2388 0.0000
# 4 0.0000 0.0000 0.0000 -1.3773 0.0000 12.7542
# 5 -18.5378 -11.8160 -7.2388 0.0000 46.2021 0.0000
# 6 0.0000 0.0000 0.0000 12.7542 0.0000 -81.2729
#
#
#
# Elastic Compliance Matrix: (Units=1/GPa)
#
#
# Indices 1 2 3 4 5 6 
#
# 1 0.007763 -0.002911 -0.001460 0.000000 0.002141 0.000000
# 2 -0.002911 0.006001 -0.001226 0.000000 0.000174 0.000000
# 3 -0.001460 -0.001226 0.009687 0.000000 0.000618 0.000000
# 4 0.000000 0.000000 0.000000 1.602010 0.000000 0.251405
# 5 0.002141 0.000174 0.000618 0.000000 0.022645 0.000000
# 6 0.000000 0.000000 0.000000 0.251405 0.000000 0.027149
#
#
# Mechanical properties :
#
#
# Convention : Reuss Voigt Hill
#
# Bulk Modulus (GPa) = 81.59219 96.46634 89.02926
# Shear Modulus (GPa) = 2.95764 15.12981 9.04373
#
# Velocity S-wave (km/s) = 1.06702 2.41333 1.86584
# Velocity P-wave (km/s) = 5.73818 6.70074 6.23805
#
# Compressibility (1/GPa) = 0.01225608
#
# Stress axis : x y z
#
# Youngs Moduli (GPa) = 128.82293 166.64081 103.22763
#
# Poissons Ratio (x) = 0.48514 0.15068
# Poissons Ratio (y) = 0.37504 0.12661
# Poissons Ratio (z) = 0.18804 0.20438
#
# Static dielectric constant tensor:
#      x y z
#    x 2.147180 0.000000 0.077090 
#    y 0.000000 2.130320 0.000000 
#    z 0.077090 0.000000 2.031420 
# 
# From -- ./inp_files/2863.got.cif
#   From: 2010.05.17/outbox.cif.g08.bks.cpg/sg8_2_cif.got.tgz:2863.got - 2010.06.03 19:46:02.
