data_PCOD9132750
_publ_section_title
;
Structure prediction by ZEFSAII (Michael W. Deem and Ramdas Pophale) SiO2 
 PCOD9132750
Probable space group: C M
;
_chemical_formula_sum "Si O2"
_cell_formula_units_Z 26
_cell_length_a 20.739339
_cell_length_b 7.607781
_cell_length_c 13.439382
_cell_angle_alpha 90.000000
_cell_angle_beta 33.277821
_cell_angle_gamma 90.000000
_cell_volume 1163.500486
_symmetry_space_group_name_H-M "C M"
_symmetry_group_IT_number 8
_symmetry_cell_setting 'monoclinic'
loop_
_space_group_symop_operation_xyz
x,y,z
x,-y,z
1/2+x,1/2+y,z
1/2+x,1/2-y,z
loop_
_atom_site_type_symbol
_atom_site_label
_atom_site_fract_x
_atom_site_fract_y
_atom_site_fract_z
Si Si1 0.689010 0.214404 0.243860
Si Si2 0.707304 0.211110 0.996219
Si Si3 0.269479 0.500000 0.485079
Si Si4 0.449186 0.800933 0.263703
Si Si5 0.401818 0.294405 0.105828
Si Si6 0.961060 0.293369 0.649801
Si Si7 0.582299 0.693919 0.691530
O O1 0.785592 0.270211 0.199778
O O2 0.559634 0.266874 0.445137
O O3 0.696094 0.000000 0.233017
O O4 0.715661 0.277094 0.098950
O O5 0.827870 0.264533 0.788488
O O6 0.707096 0.000000 0.998323
O O7 0.582177 0.262106 0.113230
O O8 0.356023 0.656890 0.418103
O O9 0.177334 0.346005 0.564020
O O10 0.434069 0.804065 0.163767
O O11 0.434724 0.000000 0.322564
O O12 0.380565 0.500000 0.167057
O O13 0.505344 0.289753 0.891397
O O14 0.978445 0.500000 0.642113
O O15 0.992401 0.205891 0.714929
O O16 0.637633 0.500000 0.618823
#
# Coordination Sequence:
#
# PCOD9132750 Si02
#       7
#     4   4   2   4   4   4   4
#     4   9  19  38  66  93 127 171 218 273 334 395
#     4  10  22  45  65  91 133 177 221 272 337 407
#     4  12  24  44  64  96 132 174 228 282 330 402
#     4  11  25  43  69  95 133 182 224 277 340 399
#     4  10  20  40  69  97 132 176 220 278 337 393
#     4  11  21  36  67 101 131 172 221 278 339 400
#     4  11  23  40  67 100 136 176 222 280 337 395
#
# _framework density 22.346359
#
# number of rings (size 3 to 8) (size 9 to 14) (size 15 to 20)
#    0.000    1.538    3.077    1.846    4.308    0.000 
#    2.769    2.308    0.000    0.000    0.000    0.000 
#    0.000    0.000    0.000    0.000    0.000    0.000 
#
# Total GULP energy -72447.737032 kJ/mol
# GULP energy per Si atom -5572.902849 kJ/mol
# Density = 2.229550 g / cm^3
# Si number density = 22.346359 Si / 1000 Ang^3
#
#
#
# Elastic Constant Matrix: (Units=GPa)
#
#
# Indices 1 2 3 4 5 6 
#
# 1 60.3772 3.0267 43.8825 -0.0002 -33.7557 -0.0001
# 2 3.0267 123.6242 30.8166 -0.0014 -16.6930 0.0003
# 3 43.8825 30.8166 69.3638 -0.0012 -36.9872 0.0001
# 4 -0.0002 -0.0014 -0.0012 31.1592 0.0004 -11.8221
# 5 -33.7557 -16.6930 -36.9872 0.0004 42.6683 0.0001
# 6 -0.0001 0.0003 0.0001 -11.8221 0.0001 21.5132
#
#
#
# Elastic Compliance Matrix: (Units=1/GPa)
#
#
# Indices 1 2 3 4 5 6 
#
# 1 0.039310 0.005931 -0.018008 0.000000 0.017809 0.000000
# 2 0.005931 0.009992 -0.006703 0.000000 0.002790 0.000000
# 3 -0.018008 -0.006703 0.036805 0.000001 0.015036 0.000000
# 4 0.000000 0.000000 0.000001 0.040547 0.000000 0.022282
# 5 0.017809 0.002790 0.015036 0.000000 0.051651 0.000000
# 6 0.000000 0.000000 0.000000 0.022282 0.000000 0.058728
#
#
# Mechanical properties :
#
#
# Convention : Reuss Voigt Hill
#
# Bulk Modulus (GPa) = 20.59867 45.42407 33.01137
# Shear Modulus (GPa) = 17.19541 30.77746 23.98643
#
# Velocity S-wave (km/s) = 2.77699 3.71521 3.27982
# Velocity P-wave (km/s) = 4.41816 6.22697 5.39886
#
# Compressibility (1/GPa) = 0.04854683
#
# Stress axis : x y z
#
# Youngs Moduli (GPa) = 25.43861 100.08389 27.17026
#
# Poissons Ratio (x) = -0.59363 0.48928
# Poissons Ratio (y) = -0.15088 0.18213
# Poissons Ratio (z) = 0.45810 0.67091
#
# Static dielectric constant tensor:
#      x y z
#    x 1.798470 0.000000 0.044640 
#    y 0.000000 1.842970 0.000000 
#    z 0.044640 0.000000 1.918290 
# 
# From -- ./inp_files/23924.got.cif
#   From: 2010.05.17/outbox.cif.g08.bks.cpg/sg8_12_cif.got.tgz:23924.got - 2010.06.03 19:46:02.
