data_PCOD9132815
_publ_section_title
;
Structure prediction by ZEFSAII (Michael W. Deem and Ramdas Pophale) SiO2 
 PCOD9132815
Probable space group: C M
;
_chemical_formula_sum "Si O2"
_cell_formula_units_Z 24
_cell_length_a 17.830246
_cell_length_b 17.810564
_cell_length_c 12.155827
_cell_angle_alpha 90.000000
_cell_angle_beta 17.423215
_cell_angle_gamma 90.000000
_cell_volume 1155.875516
_symmetry_space_group_name_H-M "C M"
_symmetry_group_IT_number 8
_symmetry_cell_setting 'monoclinic'
loop_
_space_group_symop_operation_xyz
x,y,z
x,-y,z
1/2+x,1/2+y,z
1/2+x,1/2-y,z
loop_
_atom_site_type_symbol
_atom_site_label
_atom_site_fract_x
_atom_site_fract_y
_atom_site_fract_z
Si Si1 0.869160 0.414580 0.245760
Si Si2 0.922042 0.364114 0.409557
Si Si3 0.240356 0.793203 0.252970
Si Si4 0.913587 0.581628 0.650334
Si Si5 0.211508 0.780294 0.044462
Si Si6 0.924682 0.874598 0.009629
O O1 0.935450 0.500000 0.124939
O O2 0.877297 0.354700 0.136207
O O3 0.579609 0.410081 0.692063
O O4 0.003990 0.388885 0.171760
O O5 0.023949 0.406554 0.373231
O O6 0.624971 0.382804 0.826486
O O7 0.986988 0.276955 0.335161
O O8 0.963881 0.770233 0.682639
O O9 0.204287 0.814391 0.176420
O O10 0.388932 0.714412 0.044698
O O11 0.798695 0.500000 0.821965
O O12 0.737780 0.651869 0.922776
O O13 0.151887 0.590496 0.397803
#
# Coordination Sequence:
#
# PCOD9132815 Si02
#       6
#     4   4   4   4   4   4
#     4  10  21  35  60  92 124 159 207 262 312 362
#     4  10  21  38  64  89 126 168 215 248 309 391
#     4  11  20  40  62  93 121 168 213 253 315 382
#     4  11  22  38  63  96 129 160 213 273 319 368
#     4  11  21  39  62  94 124 169 213 255 315 381
#     4   9  21  36  63  88 120 168 209 247 308 382
#
# _framework density 20.763482
#
# number of rings (size 3 to 8) (size 9 to 14) (size 15 to 20)
#    1.000    0.667    5.000    1.000    2.333    0.667 
#    0.000    0.833    0.000    3.000    0.000    0.000 
#    0.000    0.000    0.000    0.000    0.000    0.000 
#
# Total GULP energy -66810.339268 kJ/mol
# GULP energy per Si atom -5567.528272 kJ/mol
# Density = 2.071622 g / cm^3
# Si number density = 20.763482 Si / 1000 Ang^3
#
#
#
# Elastic Constant Matrix: (Units=GPa)
#
#
# Indices 1 2 3 4 5 6 
#
# 1 111.2505 49.3056 13.9961 0.0032 12.7775 0.0133
# 2 49.3056 145.5320 -6.1285 -0.0293 10.8664 0.0274
# 3 13.9961 -6.1285 22.5579 0.0019 -0.3105 0.0344
# 4 0.0032 -0.0293 0.0019 14.8797 0.0115 3.0615
# 5 12.7775 10.8664 -0.3105 0.0115 29.1948 -0.0236
# 6 0.0133 0.0274 0.0344 3.0615 -0.0236 14.8663
#
#
#
# Elastic Compliance Matrix: (Units=1/GPa)
#
#
# Indices 1 2 3 4 5 6 
#
# 1 0.012482 -0.004311 -0.008970 -0.000010 -0.003954 0.000013
# 2 -0.004311 0.008638 0.005004 0.000025 -0.001275 -0.000031
# 3 -0.008970 0.005004 0.051292 0.000028 0.002609 -0.000122
# 4 -0.000010 0.000025 0.000028 0.070179 -0.000044 -0.014452
# 5 -0.003954 -0.001275 0.002609 -0.000044 0.036485 0.000067
# 6 0.000013 -0.000031 -0.000122 -0.014452 0.000067 0.070243
#
#
# Mechanical properties :
#
#
# Convention : Reuss Voigt Hill
#
# Bulk Modulus (GPa) = 17.90294 43.74299 30.82296
# Shear Modulus (GPa) = 17.57509 26.59929 22.08719
#
# Velocity S-wave (km/s) = 2.91252 3.58307 3.26506
# Velocity P-wave (km/s) = 4.46670 6.18311 5.39362
#
# Compressibility (1/GPa) = 0.05585676
#
# Stress axis : x y z
#
# Youngs Moduli (GPa) = 80.11437 115.76771 19.49637
#
# Poissons Ratio (x) = 0.49913 0.17489
# Poissons Ratio (y) = 0.34541 -0.09757
# Poissons Ratio (z) = 0.71865 -0.57934
#
# Static dielectric constant tensor:
#      x y z
#    x 1.764920 -0.000020 -0.009240 
#    y -0.000020 1.732140 0.000010 
#    z -0.009240 0.000010 1.756300 
# 
# From -- ./inp_files/23381.got.cif
#   From: 2010.05.17/outbox.cif.g08.bks.cpg/sg8_12_cif.got.tgz:23381.got - 2010.06.03 19:46:02.
