data_PCOD9132059
_publ_section_title
;
Structure prediction by ZEFSAII (Michael W. Deem and Ramdas Pophale) SiO2 
 PCOD9132059
Probable space group: C M
;
_chemical_formula_sum "Si O2"
_cell_formula_units_Z 32
_cell_length_a 25.265418
_cell_length_b 8.241681
_cell_length_c 20.877160
_cell_angle_alpha 90.000000
_cell_angle_beta 23.654894
_cell_angle_gamma 90.000000
_cell_volume 1744.229553
_symmetry_space_group_name_H-M "C M"
_symmetry_group_IT_number 8
_symmetry_cell_setting 'monoclinic'
loop_
_space_group_symop_operation_xyz
x,y,z
x,-y,z
1/2+x,1/2+y,z
1/2+x,1/2-y,z
loop_
_atom_site_type_symbol
_atom_site_label
_atom_site_fract_x
_atom_site_fract_y
_atom_site_fract_z
Si Si1 0.208150 0.804550 0.829540
Si Si2 0.447050 0.302177 0.056059
Si Si3 0.831924 0.191100 0.559233
Si Si4 0.395831 0.801314 0.733533
Si Si5 0.870631 0.692566 0.907359
Si Si6 0.114475 0.692615 0.266628
Si Si7 0.577147 0.693073 0.776642
Si Si8 0.652303 0.198260 0.371700
O O1 0.291791 0.761436 0.673435
O O2 0.280696 0.746266 0.812843
O O3 0.204587 0.000000 0.836671
O O4 0.059274 0.746513 0.981119
O O5 0.446737 0.500000 0.057479
O O6 0.297826 0.247524 0.231503
O O7 0.497798 0.255207 0.928965
O O8 0.728760 0.263532 0.622614
O O9 0.984734 0.230824 0.378894
O O10 0.811895 0.000000 0.583021
O O11 0.378212 0.747760 0.825888
O O12 0.534368 0.749975 0.548569
O O13 0.395491 0.000000 0.734115
O O14 0.848887 0.500000 0.930549
O O15 0.005596 0.728408 0.795636
O O16 0.748934 0.770201 0.080458
O O17 0.094257 0.500000 0.291026
O O18 0.127304 0.750403 0.326122
O O19 0.564196 0.500000 0.785647
O O20 0.652743 0.000000 0.370643
#
# Coordination Sequence:
#
# PCOD9132059 Si02
#       8
#     4   4   4   4   4   4   4   4
#     4   9  16  31  53  77 107 146 187 219 262 332
#     4   8  14  25  49  80 100 123 176 234 260 296
#     4  11  21  33  53  85 115 138 176 238 293 322
#     4   9  18  32  51  76 111 150 184 222 268 326
#     4  11  22  35  52  81 119 150 183 233 285 322
#     4  11  20  35  58  80 107 148 194 230 268 332
#     4  10  19  35  56  79 107 147 191 224 270 339
#     4   9  15  28  52  80 102 132 187 232 256 309
#
# _framework density 18.346209000000002
#
# number of rings (size 3 to 8) (size 9 to 14) (size 15 to 20)
#    0.000    2.250    2.500    3.000    0.000    0.000 
#    0.000    2.500    0.000    4.500    0.000    0.000 
#    0.000    0.000    0.000    0.000    0.000    0.000 
#
# Total GULP energy -89257.717966 kJ/mol
# GULP energy per Si atom -5578.607373 kJ/mol
# Density = 1.830445 g / cm^3
# Si number density = 18.346209 Si / 1000 Ang^3
#
#
#
# Elastic Constant Matrix: (Units=GPa)
#
#
# Indices 1 2 3 4 5 6 
#
# 1 109.9843 0.2085 42.9945 -0.0026 -8.2479 0.0021
# 2 0.2085 11.2534 -2.9514 -0.0013 0.1798 0.0010
# 3 42.9945 -2.9514 78.3670 -0.0026 -9.1082 0.0024
# 4 -0.0026 -0.0013 -0.0026 13.9012 0.0021 -2.8864
# 5 -8.2479 0.1798 -9.1082 0.0021 29.9108 -0.0017
# 6 0.0021 0.0010 0.0024 -2.8864 -0.0017 18.3470
#
#
#
# Elastic Compliance Matrix: (Units=1/GPa)
#
#
# Indices 1 2 3 4 5 6 
#
# 1 0.011664 -0.001894 -0.006319 0.000001 0.001303 0.000000
# 2 -0.001894 0.090063 0.004465 0.000008 0.000296 -0.000004
# 3 -0.006319 0.004465 0.016784 0.000002 0.003342 -0.000001
# 4 0.000001 0.000008 0.000002 0.074366 -0.000004 0.011700
# 5 0.001303 0.000296 0.003342 -0.000004 0.034808 0.000002
# 6 0.000000 -0.000004 -0.000001 0.011700 0.000002 0.056345
#
#
# Mechanical properties :
#
#
# Convention : Reuss Voigt Hill
#
# Bulk Modulus (GPa) = 9.00775 31.12312 20.06544
# Shear Modulus (GPa) = 15.21931 23.05534 19.13733
#
# Velocity S-wave (km/s) = 2.88334 3.54882 3.23324
# Velocity P-wave (km/s) = 4.00067 5.81320 4.98992
#
# Compressibility (1/GPa) = 0.11101549
#
# Stress axis : x y z
#
# Youngs Moduli (GPa) = 85.73609 11.10331 59.58139
#
# Poissons Ratio (x) = 0.02103 0.37649
# Poissons Ratio (y) = 0.16240 -0.26606
# Poissons Ratio (z) = 0.54176 -0.04958
#
# Static dielectric constant tensor:
#      x y z
#    x 1.634280 0.000000 -0.024830 
#    y 0.000000 1.638160 0.000000 
#    z -0.024830 0.000000 1.617620 
# 
# From -- ./inp_files/31350.got.cif
#   From: 2010.05.17/outbox.cif.g08.bks.cpg/sg8_16_cif.got.tgz:31350.got - 2010.06.03 19:46:02.
