data_PCOD9132092
_publ_section_title
;
Structure prediction by ZEFSAII (Michael W. Deem and Ramdas Pophale) SiO2 
 PCOD9132092
Probable space group: C M
;
_chemical_formula_sum "Si O2"
_cell_formula_units_Z 32
_cell_length_a 33.915575
_cell_length_b 7.807591
_cell_length_c 12.848150
_cell_angle_alpha 90.000000
_cell_angle_beta 26.255748
_cell_angle_gamma 90.000000
_cell_volume 1505.050283
_symmetry_space_group_name_H-M "C M"
_symmetry_group_IT_number 8
_symmetry_cell_setting 'monoclinic'
loop_
_space_group_symop_operation_xyz
x,y,z
x,-y,z
1/2+x,1/2+y,z
1/2+x,1/2-y,z
loop_
_atom_site_type_symbol
_atom_site_label
_atom_site_fract_x
_atom_site_fract_y
_atom_site_fract_z
Si Si1 0.913110 0.294862 0.373450
Si Si2 0.579541 0.710653 0.479157
Si Si3 0.113336 0.298540 0.940067
Si Si4 0.573073 0.706396 0.262020
Si Si5 0.304738 0.293203 0.423335
Si Si6 0.366987 0.299213 0.707771
Si Si7 0.754497 0.695913 0.162678
Si Si8 0.391407 0.698969 0.008014
O O1 0.916464 0.500000 0.372623
O O2 0.863066 0.245077 0.387031
O O3 0.860612 0.231836 0.600007
O O4 0.015826 0.227929 0.138100
O O5 0.579841 0.500000 0.475270
O O6 0.600926 0.765896 0.310501
O O7 0.655712 0.765362 0.378535
O O8 0.482762 0.771759 0.744863
O O9 0.110393 0.500000 0.922423
O O10 0.203467 0.226473 0.676306
O O11 0.120710 0.278613 0.047534
O O12 0.580982 0.500000 0.238358
O O13 0.468321 0.749661 0.497754
O O14 0.298184 0.500000 0.430100
O O15 0.353457 0.225757 0.204691
O O16 0.356122 0.500000 0.755770
O O17 0.300341 0.201549 0.940659
O O18 0.749245 0.500000 0.210838
O O19 0.816378 0.791786 0.097344
O O20 0.411487 0.500000 0.982187
#
# Coordination Sequence:
#
# PCOD9132092 Si02
#       8
#     4   4   4   4   4   4   4   4
#     4  10  21  37  57  83 118 151 183 232 289 333
#     4   9  19  36  56  81 112 148 188 229 279 338
#     4   9  20  37  54  82 117 147 182 231 284 331
#     4   9  17  33  57  81 110 149 187 224 274 338
#     4  10  22  39  61  84 110 151 197 234 275 336
#     4  10  19  35  59  84 115 151 190 230 277 340
#     4  11  22  35  56  87 117 145 186 238 289 333
#     4  10  21  42  62  78 111 156 195 232 277 335
#
# _framework density 21.261748000000001
#
# number of rings (size 3 to 8) (size 9 to 14) (size 15 to 20)
#    0.000    2.250    1.250    1.125    1.750    3.000 
#    0.000    1.875    0.000    0.000    0.000    0.000 
#    0.000    0.000    0.000    0.000    0.000    0.000 
#
# Total GULP energy -89337.658239 kJ/mol
# GULP energy per Si atom -5583.603640 kJ/mol
# Density = 2.121336 g / cm^3
# Si number density = 21.261748 Si / 1000 Ang^3
#
#
#
# Elastic Constant Matrix: (Units=GPa)
#
#
# Indices 1 2 3 4 5 6 
#
# 1 92.0803 -13.0871 31.9502 0.0000 3.8981 0.0000
# 2 -13.0871 22.5053 -5.4840 0.0000 -1.2831 0.0000
# 3 31.9502 -5.4840 31.1952 0.0000 1.3653 0.0000
# 4 0.0000 0.0000 0.0000 9.8128 0.0000 3.5748
# 5 3.8981 -1.2831 1.3653 0.0000 25.1687 0.0000
# 6 0.0000 0.0000 0.0000 3.5748 0.0000 19.8614
#
#
#
# Elastic Compliance Matrix: (Units=1/GPa)
#
#
# Indices 1 2 3 4 5 6 
#
# 1 0.017673 0.006056 -0.016970 0.000000 -0.001508 0.000000
# 2 0.006056 0.048591 0.002278 0.000000 0.001416 0.000000
# 3 -0.016970 0.002278 0.049836 0.000000 0.000041 0.000000
# 4 0.000000 0.000000 0.000000 0.109058 0.000000 -0.019629
# 5 -0.001508 0.001416 0.000041 0.000000 0.040035 0.000000
# 6 0.000000 0.000000 0.000000 -0.019629 0.000000 0.053882
#
#
# Mechanical properties :
#
#
# Convention : Reuss Voigt Hill
#
# Bulk Modulus (GPa) = 10.11869 19.17101 14.64485
# Shear Modulus (GPa) = 13.53947 19.79536 16.66741
#
# Velocity S-wave (km/s) = 2.52623 3.05459 2.80289
# Velocity P-wave (km/s) = 3.64397 4.63432 4.16866
#
# Compressibility (1/GPa) = 0.09882701
#
# Stress axis : x y z
#
# Youngs Moduli (GPa) = 56.58372 20.57978 20.06599
#
# Poissons Ratio (x) = -0.12463 0.34052
# Poissons Ratio (y) = -0.34266 -0.04571
# Poissons Ratio (z) = 0.96023 -0.04688
#
# Static dielectric constant tensor:
#      x y z
#    x 1.742500 0.000000 -0.011480 
#    y 0.000000 1.790930 0.000000 
#    z -0.011480 0.000000 1.787220 
# 
# From -- ./inp_files/21507.got.cif
#   From: 2010.05.17/outbox.cif.g08.bks.cpg/sg8_11_cif.got.tgz:21507.got - 2010.06.03 19:46:02.
