data_PCOD9132496
_publ_section_title
;
Structure prediction by ZEFSAII (Michael W. Deem and Ramdas Pophale) SiO2 
 PCOD9132496
Probable space group: C M
;
_chemical_formula_sum "Si O2"
_cell_formula_units_Z 24
_cell_length_a 15.390125
_cell_length_b 8.175238
_cell_length_c 15.153614
_cell_angle_alpha 90.000000
_cell_angle_beta 40.076355
_cell_angle_gamma 90.000000
_cell_volume 1227.481845
_symmetry_space_group_name_H-M "C M"
_symmetry_group_IT_number 8
_symmetry_cell_setting 'monoclinic'
loop_
_space_group_symop_operation_xyz
x,y,z
x,-y,z
1/2+x,1/2+y,z
1/2+x,1/2-y,z
loop_
_atom_site_type_symbol
_atom_site_label
_atom_site_fract_x
_atom_site_fract_y
_atom_site_fract_z
Si Si1 0.862260 0.302512 0.140030
Si Si2 0.103612 0.692937 0.827864
Si Si3 0.355159 0.199726 0.347569
Si Si4 0.403771 0.806789 0.630915
Si Si5 0.564572 0.197447 0.332280
Si Si6 0.074623 0.192962 0.655961
O O1 0.866839 0.500000 0.137775
O O2 0.868647 0.244010 0.236447
O O3 0.718629 0.252052 0.211841
O O4 0.987737 0.244836 0.983875
O O5 0.122174 0.500000 0.828799
O O6 0.247512 0.776562 0.731874
O O7 0.059280 0.720935 0.761549
O O8 0.475982 0.253023 0.317731
O O9 0.212606 0.250380 0.500897
O O10 0.354822 0.000000 0.346490
O O11 0.492117 0.745419 0.478934
O O12 0.454529 0.723387 0.680775
O O13 0.427729 0.000000 0.621159
O O14 0.560177 0.000000 0.336369
O O15 0.088674 0.000000 0.662244
#
# Coordination Sequence:
#
# PCOD9132496 Si02
#       6
#     4   4   4   4   4   4
#     4  10  22  40  60  86 121 156 194 244 299 357
#     4  11  24  40  59  89 127 163 199 245 301 358
#     4   9  18  36  60  85 113 151 197 241 291 352
#     4  11  22  38  61  92 124 156 200 249 299 360
#     4  10  20  36  60  89 117 152 197 245 297 355
#     4  11  21  38  64  89 118 160 203 250 301 350
#
# _framework density 19.552225
#
# number of rings (size 3 to 8) (size 9 to 14) (size 15 to 20)
#    0.000    1.667    3.333    1.500    0.000    3.333 
#    0.000    2.500    0.000    0.000    0.000    0.000 
#    0.000    0.000    0.000    0.000    0.000    0.000 
#
# Total GULP energy -67051.139409 kJ/mol
# GULP energy per Si atom -5587.594951 kJ/mol
# Density = 1.950772 g / cm^3
# Si number density = 19.552225 Si / 1000 Ang^3
#
#
#
# Elastic Constant Matrix: (Units=GPa)
#
#
# Indices 1 2 3 4 5 6 
#
# 1 98.6373 -10.0138 15.9600 0.0000 4.7310 0.0000
# 2 -10.0138 12.7835 -0.2474 0.0000 1.6025 0.0000
# 3 15.9600 -0.2474 102.1149 0.0000 4.5612 0.0000
# 4 0.0000 0.0000 0.0000 19.3453 0.0000 -8.1877
# 5 4.7310 1.6025 4.5612 0.0000 31.9082 0.0000
# 6 0.0000 0.0000 0.0000 -8.1877 0.0000 28.2383
#
#
#
# Elastic Compliance Matrix: (Units=1/GPa)
#
#
# Indices 1 2 3 4 5 6 
#
# 1 0.011432 0.009163 -0.001679 0.000000 -0.001915 0.000000
# 2 0.009163 0.086079 -0.000976 0.000000 -0.005542 0.000000
# 3 -0.001679 -0.000976 0.010104 0.000000 -0.001146 0.000000
# 4 0.000000 0.000000 0.000000 0.058923 0.000000 0.017085
# 5 -0.001915 -0.005542 -0.001146 0.000000 0.032066 0.000000
# 6 0.000000 0.000000 0.000000 0.017085 0.000000 0.040367
#
#
# Mechanical properties :
#
#
# Convention : Reuss Voigt Hill
#
# Bulk Modulus (GPa) = 8.28978 24.99261 16.64120
# Shear Modulus (GPa) = 18.78528 29.75416 24.26972
#
# Velocity S-wave (km/s) = 3.10300 3.90523 3.52700
# Velocity P-wave (km/s) = 4.13366 5.75714 5.01158
#
# Compressibility (1/GPa) = 0.12063043
#
# Stress axis : x y z
#
# Youngs Moduli (GPa) = 87.47471 11.61720 98.96921
#
# Poissons Ratio (x) = -0.10644 0.16617
# Poissons Ratio (y) = -0.80149 0.09659
# Poissons Ratio (z) = 0.14687 0.01134
#
# Static dielectric constant tensor:
#      x y z
#    x 1.651480 0.000000 0.011450 
#    y 0.000000 1.692020 0.000000 
#    z 0.011450 0.000000 1.664020 
# 
# From -- ./inp_files/12071.got.cif
#   From: 2010.05.17/outbox.cif.g08.bks.cpg/sg8_7_cif.got.tgz:12071.got - 2010.06.03 19:46:02.
