data_PCOD9132722
_publ_section_title
;
Structure prediction by ZEFSAII (Michael W. Deem and Ramdas Pophale) SiO2 
 PCOD9132722
Probable space group: C M
;
_chemical_formula_sum "Si O2"
_cell_formula_units_Z 24
_cell_length_a 7.471790
_cell_length_b 26.754452
_cell_length_c 5.235248
_cell_angle_alpha 90.000000
_cell_angle_beta 89.080970
_cell_angle_gamma 90.000000
_cell_volume 1046.410540
_symmetry_space_group_name_H-M "C M"
_symmetry_group_IT_number 8
_symmetry_cell_setting 'monoclinic'
loop_
_space_group_symop_operation_xyz
x,y,z
x,-y,z
1/2+x,1/2+y,z
1/2+x,1/2-y,z
loop_
_atom_site_type_symbol
_atom_site_label
_atom_site_fract_x
_atom_site_fract_y
_atom_site_fract_z
Si Si1 0.079070 0.318424 0.079510
Si Si2 0.691608 0.709964 0.959902
Si Si3 0.562289 0.659757 0.473489
Si Si4 0.906746 0.602588 0.451083
Si Si5 0.250781 0.500000 0.733553
Si Si6 0.513315 0.000000 0.234686
Si Si7 0.258118 0.605842 0.735293
O O1 0.177696 0.265312 0.080357
O O2 0.987700 0.347535 0.315528
O O3 0.898935 0.305827 0.920425
O O4 0.221691 0.357298 0.966684
O O5 0.601993 0.676469 0.184444
O O6 0.596477 0.702462 0.688149
O O7 0.368517 0.636756 0.525315
O O8 0.709376 0.617465 0.538004
O O9 0.909001 0.552073 0.282806
O O10 0.055242 0.592623 0.660295
O O11 0.172629 0.500000 0.445966
O O12 0.350346 0.552510 0.776001
O O13 0.099057 0.500000 0.955059
#
# Coordination Sequence:
#
# PCOD9132722 Si02
#       7
#     4   4   4   4   2   2   4
#     4  11  23  41  67  88 134 167 215 261 321 368
#     4  11  26  42  62  99 126 170 216 260 312 383
#     4  11  26  42  64  98 130 163 219 255 317 379
#     4  10  23  42  64  95 126 171 209 264 318 375
#     4  10  22  39  64 101 117 169 212 253 317 381
#     4  10  20  39  68  89 127 161 214 255 319 373
#     4  11  23  41  69  90 133 167 210 265 317 371
#
# _framework density 22.935547
#
# number of rings (size 3 to 8) (size 9 to 14) (size 15 to 20)
#    0.000    1.333    3.333    1.000    7.000    2.000 
#    0.000    0.000    0.000    6.000    0.000    0.000 
#    0.000    0.000    0.000    0.000    0.000    0.000 
#
# Total GULP energy -66938.426545 kJ/mol
# GULP energy per Si atom -5578.202212 kJ/mol
# Density = 2.288334 g / cm^3
# Si number density = 22.935547 Si / 1000 Ang^3
#
#
#
# Elastic Constant Matrix: (Units=GPa)
#
#
# Indices 1 2 3 4 5 6 
#
# 1 61.9932 8.2642 18.0559 0.0000 -1.3923 0.0000
# 2 8.2642 118.8094 13.9695 0.0000 -2.8771 0.0000
# 3 18.0559 13.9695 80.2565 0.0000 -10.8489 0.0000
# 4 0.0000 0.0000 0.0000 34.8445 0.0000 -2.1175
# 5 -1.3923 -2.8771 -10.8489 0.0000 20.8654 0.0000
# 6 0.0000 0.0000 0.0000 -2.1175 0.0000 6.9578
#
#
#
# Elastic Compliance Matrix: (Units=1/GPa)
#
#
# Indices 1 2 3 4 5 6 
#
# 1 0.017348 -0.000772 -0.003901 0.000000 -0.000977 0.000000
# 2 -0.000772 0.008631 -0.001264 0.000000 0.000482 0.000000
# 3 -0.003901 -0.001264 0.014519 0.000000 0.007115 0.000000
# 4 0.000000 0.000000 0.000000 0.029240 0.000000 0.008898
# 5 -0.000977 0.000482 0.007115 0.000000 0.051627 0.000000
# 6 0.000000 0.000000 0.000000 0.008898 0.000000 0.146431
#
#
# Mechanical properties :
#
#
# Convention : Reuss Voigt Hill
#
# Bulk Modulus (GPa) = 34.93314 37.95981 36.44647
# Shear Modulus (GPa) = 17.28852 27.25151 22.27002
#
# Velocity S-wave (km/s) = 2.74850 3.45074 3.11944
# Velocity P-wave (km/s) = 5.03353 5.69766 5.37586
#
# Compressibility (1/GPa) = 0.02862612
#
# Stress axis : x y z
#
# Youngs Moduli (GPa) = 57.64414 115.86472 68.87393
#
# Poissons Ratio (x) = 0.08941 0.26865
# Poissons Ratio (y) = 0.04448 0.08703
# Poissons Ratio (z) = 0.22485 0.14640
#
# Static dielectric constant tensor:
#      x y z
#    x 1.876520 0.000000 0.060480 
#    y 0.000000 1.984670 0.000000 
#    z 0.060480 0.000000 1.860460 
# 
# From -- ./inp_files/1581.got.cif
#   From: 2010.05.17/outbox.cif.g08.bks.cpg/sg8_1_cif.got.tgz:1581.got - 2010.06.03 19:46:02.
