data_PCOD9132948
_publ_section_title
;
Structure prediction by ZEFSAII (Michael W. Deem and Ramdas Pophale) SiO2 
 PCOD9132948
Probable space group: C M
;
_chemical_formula_sum "Si O2"
_cell_formula_units_Z 32
_cell_length_a 27.240081
_cell_length_b 13.823380
_cell_length_c 9.704722
_cell_angle_alpha 90.000000
_cell_angle_beta 157.915099
_cell_angle_gamma 90.000000
_cell_volume 1373.948903
_symmetry_space_group_name_H-M "C M"
_symmetry_group_IT_number 8
_symmetry_cell_setting 'monoclinic'
loop_
_space_group_symop_operation_xyz
x,y,z
x,-y,z
1/2+x,1/2+y,z
1/2+x,1/2-y,z
loop_
_atom_site_type_symbol
_atom_site_label
_atom_site_fract_x
_atom_site_fract_y
_atom_site_fract_z
Si Si1 0.663640 0.389112 0.659030
Si Si2 0.996210 0.890793 0.756010
Si Si3 0.027775 0.607502 0.279426
Si Si4 0.835462 0.891908 0.072844
Si Si5 0.014624 0.615554 0.826717
Si Si6 0.447776 0.179611 0.357717
Si Si7 0.528267 0.746050 0.081274
Si Si8 0.707995 0.384390 0.079793
O O1 0.617496 0.500000 0.528974
O O2 0.605336 0.321690 0.388985
O O3 0.818353 0.384939 0.039856
O O4 0.650676 0.350080 0.782785
O O5 0.873828 0.891888 0.334282
O O6 0.025179 0.000000 0.875856
O O7 0.967348 0.826357 0.812514
O O8 0.119593 0.857596 0.981261
O O9 0.977636 0.500000 0.123545
O O10 0.952175 0.684166 0.988797
O O11 0.020779 0.636313 0.418684
O O12 0.181804 0.611049 0.646436
O O13 0.896965 0.788427 0.192304
O O14 0.882025 0.000000 0.144152
O O15 0.038535 0.500000 0.888961
O O16 0.023689 0.661310 0.698259
O O17 0.862778 0.633521 0.478216
O O18 0.094986 0.675732 0.149722
O O19 0.695120 0.500000 0.039626
#
# Coordination Sequence:
#
# PCOD9132948 Si02
#       8
#     4   4   4   4   4   4   4   4
#     4  10  21  38  62  95 127 163 219 279 315 372
#     4  10  21  40  64  91 123 168 210 259 322 384
#     4  11  25  44  67  93 129 173 214 265 322 382
#     4  10  22  42  66  94 129 165 212 262 316 381
#     4  10  21  39  62  92 125 161 217 276 315 376
#     4  11  21  43  70  94 118 171 227 263 309 377
#     4  12  23  36  56  90 135 169 200 267 328 394
#     4   8  18  38  64  87 116 160 212 263 314 366
#
# _framework density 23.290531000000001
#
# number of rings (size 3 to 8) (size 9 to 14) (size 15 to 20)
#    0.000    1.750    2.500    2.625    1.750    1.000 
#    0.000    4.375    0.000    0.000    0.000    0.000 
#    0.000    0.000    0.000    0.000    0.000    0.000 
#
# Total GULP energy -89229.334462 kJ/mol
# GULP energy per Si atom -5576.833404 kJ/mol
# Density = 2.323752 g / cm^3
# Si number density = 23.290531 Si / 1000 Ang^3
#
#
#
# Elastic Constant Matrix: (Units=GPa)
#
#
# Indices 1 2 3 4 5 6 
#
# 1 79.3449 39.1741 37.9954 0.0000 -24.2092 0.0000
# 2 39.1741 161.9711 23.0268 0.0000 -10.1914 0.0000
# 3 37.9954 23.0268 42.5471 0.0000 -22.1274 0.0000
# 4 0.0000 0.0000 0.0000 22.1914 0.0000 -18.8048
# 5 -24.2092 -10.1914 -22.1274 0.0000 27.9757 0.0000
# 6 0.0000 0.0000 0.0000 -18.8048 0.0000 24.8295
#
#
#
# Elastic Compliance Matrix: (Units=1/GPa)
#
#
# Indices 1 2 3 4 5 6 
#
# 1 0.023940 -0.003061 -0.016186 0.000000 0.006799 0.000000
# 2 -0.003061 0.007089 -0.001932 0.000000 -0.001595 0.000000
# 3 -0.016186 -0.001932 0.053262 0.000000 0.027417 0.000000
# 4 0.000000 0.000000 0.000000 0.125795 0.000000 0.095272
# 5 0.006799 -0.001595 0.027417 0.000000 0.062734 0.000000
# 6 0.000000 0.000000 0.000000 0.095272 0.000000 0.112430
#
#
# Mechanical properties :
#
#
# Convention : Reuss Voigt Hill
#
# Bulk Modulus (GPa) = 23.84815 53.80618 38.82717
# Shear Modulus (GPa) = 11.32282 27.24377 19.28330
#
# Velocity S-wave (km/s) = 2.20729 3.42385 2.88053
# Velocity P-wave (km/s) = 4.09363 6.22757 5.26975
#
# Compressibility (1/GPa) = 0.04193198
#
# Stress axis : x y z
#
# Youngs Moduli (GPa) = 41.77094 141.07057 18.77498
#
# Poissons Ratio (x) = 0.43184 0.30390
# Poissons Ratio (y) = 0.12787 0.03628
# Poissons Ratio (z) = 0.67611 0.27258
#
# Static dielectric constant tensor:
#      x y z
#    x 1.900150 0.000000 0.008220 
#    y 0.000000 1.936060 0.000000 
#    z 0.008220 0.000000 1.915920 
# 
# From -- ./inp_files/17601.got.cif
#   From: 2010.05.17/outbox.cif.g08.bks.cpg/sg8_9_cif.got.tgz:17601.got - 2010.06.03 19:46:02.
