data_PCOD9132899
_publ_section_title
;
Structure prediction by ZEFSAII (Michael W. Deem and Ramdas Pophale) SiO2 
 PCOD9132899
Probable space group: C M
;
_chemical_formula_sum "Si O2"
_cell_formula_units_Z 28
_cell_length_a 28.948266
_cell_length_b 12.374969
_cell_length_c 23.329548
_cell_angle_alpha 90.000000
_cell_angle_beta 169.192085
_cell_angle_gamma 90.000000
_cell_volume 1567.161181
_symmetry_space_group_name_H-M "C M"
_symmetry_group_IT_number 8
_symmetry_cell_setting 'monoclinic'
loop_
_space_group_symop_operation_xyz
x,y,z
x,-y,z
1/2+x,1/2+y,z
1/2+x,1/2-y,z
loop_
_atom_site_type_symbol
_atom_site_label
_atom_site_fract_x
_atom_site_fract_y
_atom_site_fract_z
Si Si1 0.807090 0.878258 0.717170
Si Si2 0.871025 0.627647 0.663692
Si Si3 0.991121 0.703405 0.228849
Si Si4 0.950874 0.125994 0.571464
Si Si5 0.237485 0.725977 0.201027
Si Si6 0.653597 0.762080 0.307987
Si Si7 0.175920 0.372055 0.686868
O O1 0.623648 0.862411 0.440374
O O2 0.674001 0.861689 0.615572
O O3 0.906141 0.000000 0.837666
O O4 0.028872 0.795621 0.978857
O O5 0.862299 0.500000 0.648938
O O6 0.621305 0.678261 0.387882
O O7 0.863248 0.686242 0.592409
O O8 0.099453 0.667301 0.980311
O O9 0.062830 0.666125 0.251642
O O10 0.701323 0.694677 0.882311
O O11 0.848750 0.144605 0.383120
O O12 0.757140 0.170170 0.381773
O O13 0.003751 0.000000 0.645774
O O14 0.448253 0.806904 0.435854
O O15 0.427129 0.684990 0.014321
O O16 0.172198 0.500000 0.696610
#
# Coordination Sequence:
#
# PCOD9132899 Si02
#       7
#     4   4   4   4   4   4   4
#     4  10  21  37  61  88 119 156 195 242 295 345
#     4   9  20  41  63  84 118 157 190 242 296 341
#     4   9  22  40  60  85 123 150 197 241 288 353
#     4  12  24  39  61  88 118 159 196 241 298 347
#     4  11  21  40  60  87 122 152 199 243 288 356
#     4  10  22  40  60  86 123 150 199 247 282 356
#     4  11  22  39  63  88 119 156 196 246 295 342
#
# _framework density 17.866702
#
# number of rings (size 3 to 8) (size 9 to 14) (size 15 to 20)
#    0.857    0.857    2.857    1.714    2.000    1.143 
#    0.000    1.429    0.000    0.000    0.000    0.000 
#    0.000    0.000    0.000    0.000    0.000    0.000 
#
# Total GULP energy -78001.268640 kJ/mol
# GULP energy per Si atom -5571.519189 kJ/mol
# Density = 1.782604 g / cm^3
# Si number density = 17.866702 Si / 1000 Ang^3
#
#
#
# Elastic Constant Matrix: (Units=GPa)
#
#
# Indices 1 2 3 4 5 6 
#
# 1 92.5428 26.3926 30.1342 -0.0281 -8.0879 0.0064
# 2 26.3926 52.9097 11.1384 0.0635 -8.3631 0.0143
# 3 30.1342 11.1384 80.6879 -0.1028 -7.7447 0.0007
# 4 -0.0281 0.0635 -0.1028 14.7839 0.0261 -0.0533
# 5 -8.0879 -8.3631 -7.7447 0.0261 26.0163 0.0020
# 6 0.0064 0.0143 0.0007 -0.0533 0.0020 21.4008
#
#
#
# Elastic Compliance Matrix: (Units=1/GPa)
#
#
# Indices 1 2 3 4 5 6 
#
# 1 0.013987 -0.005886 -0.004298 0.000020 0.001177 0.000000
# 2 -0.005886 0.022775 -0.000431 -0.000122 0.005363 -0.000014
# 3 -0.004298 -0.000431 0.014326 0.000088 0.002790 0.000001
# 4 0.000020 -0.000122 0.000088 0.067643 -0.000074 0.000168
# 5 0.001177 0.005363 0.002790 -0.000074 0.041358 -0.000008
# 6 0.000000 -0.000014 0.000001 0.000168 -0.000008 0.046728
#
#
# Mechanical properties :
#
#
# Convention : Reuss Voigt Hill
#
# Bulk Modulus (GPa) = 33.49283 40.16342 36.82812
# Shear Modulus (GPa) = 21.00845 23.00521 22.00683
#
# Velocity S-wave (km/s) = 3.43278 3.59221 3.51340
# Velocity P-wave (km/s) = 5.87355 6.30346 6.09230
#
# Compressibility (1/GPa) = 0.02985714
#
# Stress axis : x y z
#
# Youngs Moduli (GPa) = 71.49526 43.90801 69.80300
#
# Poissons Ratio (x) = 0.25845 0.30002
# Poissons Ratio (y) = 0.42084 0.03008
# Poissons Ratio (z) = 0.30730 0.01892
#
# Static dielectric constant tensor:
#      x y z
#    x 1.624260 0.000000 -0.018030 
#    y 0.000000 1.582360 -0.000010 
#    z -0.018030 -0.000010 1.601320 
# 
# From -- ./inp_files/5457.got.cif
#   From: 2010.05.17/outbox.cif.g08.bks.cpg/sg8_3_cif.got.tgz:5457.got - 2010.06.03 19:46:02.
