data_PCOD9132382
_publ_section_title
;
Structure prediction by ZEFSAII (Michael W. Deem and Ramdas Pophale) SiO2 
 PCOD9132382
Probable space group: C M
;
_chemical_formula_sum "Si O2"
_cell_formula_units_Z 32
_cell_length_a 28.992795
_cell_length_b 8.941965
_cell_length_c 12.417692
_cell_angle_alpha 90.000000
_cell_angle_beta 149.614349
_cell_angle_gamma 90.000000
_cell_volume 1628.388375
_symmetry_space_group_name_H-M "C M"
_symmetry_group_IT_number 8
_symmetry_cell_setting 'monoclinic'
loop_
_space_group_symop_operation_xyz
x,y,z
x,-y,z
1/2+x,1/2+y,z
1/2+x,1/2-y,z
loop_
_atom_site_type_symbol
_atom_site_label
_atom_site_fract_x
_atom_site_fract_y
_atom_site_fract_z
Si Si1 0.674630 0.320857 0.591640
Si Si2 0.748527 0.320052 0.180861
Si Si3 0.881170 0.179279 0.624631
Si Si4 0.540195 0.321446 0.802119
Si Si5 0.977847 0.680782 0.227504
Si Si6 0.829945 0.320930 0.747608
Si Si7 0.718001 0.172490 0.897492
Si Si8 0.998889 0.671041 0.503358
O O1 0.670659 0.500000 0.593856
O O2 0.573908 0.252675 0.388391
O O3 0.731632 0.282960 0.599761
O O4 0.726098 0.255704 0.800151
O O5 0.754917 0.500000 0.193263
O O6 0.816167 0.249576 0.403182
O O7 0.645446 0.274406 0.008538
O O8 0.761760 0.257471 0.086785
O O9 0.854325 0.240070 0.686772
O O10 0.983675 0.222337 0.793810
O O11 0.873837 0.000000 0.607919
O O12 0.540338 0.500000 0.796152
O O13 0.489254 0.261227 0.593402
O O14 0.988217 0.500000 0.253856
O O15 0.955214 0.729693 0.304562
O O16 0.902511 0.715924 0.987350
O O17 0.832870 0.500000 0.736260
O O18 0.608090 0.172017 0.698488
O O19 0.747477 0.000000 0.951443
O O20 0.970056 0.500000 0.463603
#
# Coordination Sequence:
#
# PCOD9132382 Si02
#       8
#     4   4   4   4   4   4   4   4
#     4  10  20  35  57  85 114 144 181 227 277 326
#     4  10  20  37  60  84 112 146 182 223 274 327
#     4  11  24  40  56  79 110 144 187 233 276 325
#     4   9  20  37  56  80 111 143 177 222 271 321
#     4   9  19  37  58  81 111 145 180 222 274 330
#     4  10  23  41  57  77 108 146 190 233 273 325
#     4   9  17  32  55  85 117 145 178 221 271 328
#     4   8  15  29  53  83 111 139 173 215 266 326
#
# _framework density 19.651332
#
# number of rings (size 3 to 8) (size 9 to 14) (size 15 to 20)
#    0.000    2.500    0.000    2.250    0.000    8.000 
#    0.000    5.000    0.000    0.000    0.000    0.000 
#    0.000    0.000    0.000    0.000    0.000    0.000 
#
# Total GULP energy -89335.515906 kJ/mol
# GULP energy per Si atom -5583.469744 kJ/mol
# Density = 1.960660 g / cm^3
# Si number density = 19.651332 Si / 1000 Ang^3
#
#
#
# Elastic Constant Matrix: (Units=GPa)
#
#
# Indices 1 2 3 4 5 6 
#
# 1 99.1437 16.1626 4.9363 0.0000 1.3280 0.0000
# 2 16.1626 20.5903 8.5918 0.0000 0.5686 0.0000
# 3 4.9363 8.5918 42.1780 0.0000 2.3776 0.0000
# 4 0.0000 0.0000 0.0000 24.6183 0.0000 -9.7464
# 5 1.3280 0.5686 2.3776 0.0000 22.0359 0.0000
# 6 0.0000 0.0000 0.0000 -9.7464 0.0000 31.0998
#
#
#
# Elastic Compliance Matrix: (Units=1/GPa)
#
#
# Indices 1 2 3 4 5 6 
#
# 1 0.011584 -0.009317 0.000571 0.000000 -0.000519 0.000000
# 2 -0.009317 0.060573 -0.011261 0.000000 0.000213 0.000000
# 3 0.000571 -0.011261 0.026080 0.000000 -0.002558 0.000000
# 4 0.000000 0.000000 0.000000 0.046374 0.000000 0.014533
# 5 -0.000519 0.000213 -0.002558 0.000000 0.045682 0.000000
# 6 0.000000 0.000000 0.000000 0.014533 0.000000 0.036709
#
#
# Mechanical properties :
#
#
# Convention : Reuss Voigt Hill
#
# Bulk Modulus (GPa) = 17.17484 24.58817 20.88151
# Shear Modulus (GPa) = 17.45676 24.36554 20.91115
#
# Velocity S-wave (km/s) = 2.98371 3.52503 3.26561
# Velocity P-wave (km/s) = 4.54189 5.39511 4.98678
#
# Compressibility (1/GPa) = 0.05822469
#
# Stress axis : x y z
#
# Youngs Moduli (GPa) = 86.32799 16.50908 38.34333
#
# Poissons Ratio (x) = 0.15381 -0.02191
# Poissons Ratio (y) = 0.80431 0.43177
# Poissons Ratio (z) = -0.04933 0.18590
#
# Static dielectric constant tensor:
#      x y z
#    x 1.702720 0.000000 0.037440 
#    y 0.000000 1.659180 0.000000 
#    z 0.037440 0.000000 1.695360 
# 
# From -- ./inp_files/21561.got.cif
#   From: 2010.05.17/outbox.cif.g08.bks.cpg/sg8_11_cif.got.tgz:21561.got - 2010.06.03 19:46:02.
