data_PCOD9132694
_publ_section_title
;
Structure prediction by ZEFSAII (Michael W. Deem and Ramdas Pophale) SiO2 
 PCOD9132694
Probable space group: C M
;
_chemical_formula_sum "Si O2"
_cell_formula_units_Z 26
_cell_length_a 9.967588
_cell_length_b 7.450276
_cell_length_c 21.071017
_cell_angle_alpha 90.000000
_cell_angle_beta 41.851108
_cell_angle_gamma 90.000000
_cell_volume 1044.003932
_symmetry_space_group_name_H-M "C M"
_symmetry_group_IT_number 8
_symmetry_cell_setting 'monoclinic'
loop_
_space_group_symop_operation_xyz
x,y,z
x,-y,z
1/2+x,1/2+y,z
1/2+x,1/2-y,z
loop_
_atom_site_type_symbol
_atom_site_label
_atom_site_fract_x
_atom_site_fract_y
_atom_site_fract_z
Si Si1 0.084400 0.795196 0.688460
Si Si2 0.030091 0.717895 0.566997
Si Si3 0.425073 0.707572 0.057871
Si Si4 0.828737 0.201086 0.956811
Si Si5 0.736592 0.500000 0.810041
Si Si6 0.301713 0.291946 0.237403
Si Si7 0.867799 0.217575 0.352518
O O1 0.118157 0.794964 0.600541
O O2 0.296219 0.735837 0.643512
O O3 0.906428 0.656766 0.761386
O O4 0.040200 0.000000 0.724804
O O5 0.035064 0.500000 0.570389
O O6 0.164100 0.771800 0.459787
O O7 0.358789 0.500000 0.080408
O O8 0.364666 0.785880 0.147064
O O9 0.335351 0.786211 0.025012
O O10 0.668599 0.701421 0.969146
O O11 0.739365 0.000000 0.991682
O O12 0.058724 0.156657 0.859437
O O13 0.364797 0.500000 0.213680
O O14 0.381903 0.215185 0.275116
O O15 0.060837 0.280193 0.323362
O O16 0.869865 0.000000 0.350108
#
# Coordination Sequence:
#
# PCOD9132694 Si02
#       7
#     4   4   4   4   2   4   4
#     4  11  24  43  67  93 126 174 207 267 329 376
#     4  10  22  41  62  92 130 166 216 261 314 384
#     4  10  20  39  62  88 123 167 205 252 322 373
#     4   9  22  40  58  87 121 155 203 268 306 373
#     4  10  24  46  62  98 128 158 224 272 310 398
#     4  10  21  36  58  91 128 161 209 255 299 376
#     4  10  21  37  58  91 127 163 206 256 300 366
#
# _framework density 24.904119999999999
#
# number of rings (size 3 to 8) (size 9 to 14) (size 15 to 20)
#    0.462    1.538    0.769    1.846    1.077    5.538 
#    0.000    0.000    0.000    0.000    0.000    0.000 
#    0.000    0.000    0.000    0.000    0.000    0.000 
#
# Total GULP energy -72398.660506 kJ/mol
# GULP energy per Si atom -5569.127731 kJ/mol
# Density = 2.484744 g / cm^3
# Si number density = 24.904120 Si / 1000 Ang^3
#
#
#
# Elastic Constant Matrix: (Units=GPa)
#
#
# Indices 1 2 3 4 5 6 
#
# 1 88.9146 -9.6894 5.3414 0.0000 4.4368 0.0000
# 2 -9.6894 83.4408 13.7198 0.0000 -5.8807 0.0000
# 3 5.3414 13.7198 90.3062 0.0000 -4.2889 0.0000
# 4 0.0000 0.0000 0.0000 18.5485 0.0000 -11.2547
# 5 4.4368 -5.8807 -4.2889 0.0000 51.1454 0.0000
# 6 0.0000 0.0000 0.0000 -11.2547 0.0000 30.2696
#
#
#
# Elastic Compliance Matrix: (Units=1/GPa)
#
#
# Indices 1 2 3 4 5 6 
#
# 1 0.011504 0.001426 -0.000940 0.000000 -0.000913 0.000000
# 2 0.001426 0.012550 -0.001936 0.000000 0.001157 0.000000
# 3 -0.000940 -0.001936 0.011462 0.000000 0.000820 0.000000
# 4 0.000000 0.000000 0.000000 0.069619 0.000000 0.025885
# 5 -0.000913 0.001157 0.000820 0.000000 0.019833 0.000000
# 6 0.000000 0.000000 0.000000 0.025885 0.000000 0.042661
#
#
# Mechanical properties :
#
#
# Convention : Reuss Voigt Hill
#
# Bulk Modulus (GPa) = 30.66007 31.26724 30.96365
# Shear Modulus (GPa) = 27.56304 36.87870 32.22087
#
# Velocity S-wave (km/s) = 3.33042 3.85233 3.60084
# Velocity P-wave (km/s) = 5.20835 5.68942 5.45419
#
# Compressibility (1/GPa) = 0.03261571
#
# Stress axis : x y z
#
# Youngs Moduli (GPa) = 86.92467 79.68106 87.24358
#
# Poissons Ratio (x) = -0.11364 0.08205
# Poissons Ratio (y) = -0.12397 0.16891
# Poissons Ratio (z) = 0.08175 0.15427
#
# Static dielectric constant tensor:
#      x y z
#    x 1.921570 0.000000 0.066560 
#    y 0.000000 1.922060 0.000000 
#    z 0.066560 0.000000 2.061170 
# 
# From -- ./inp_files/30298.got.cif
#   From: 2010.05.17/outbox.cif.g08.bks.cpg/sg8_16_cif.got.tgz:30298.got - 2010.06.03 19:46:02.
