data_PCOD9132353
_publ_section_title
;
Structure prediction by ZEFSAII (Michael W. Deem and Ramdas Pophale) SiO2 
 PCOD9132353
Probable space group: C M
;
_chemical_formula_sum "Si O2"
_cell_formula_units_Z 32
_cell_length_a 23.118375
_cell_length_b 8.353604
_cell_length_c 28.371609
_cell_angle_alpha 90.000000
_cell_angle_beta 162.167092
_cell_angle_gamma 90.000000
_cell_volume 1677.954060
_symmetry_space_group_name_H-M "C M"
_symmetry_group_IT_number 8
_symmetry_cell_setting 'monoclinic'
loop_
_space_group_symop_operation_xyz
x,y,z
x,-y,z
1/2+x,1/2+y,z
1/2+x,1/2-y,z
loop_
_atom_site_type_symbol
_atom_site_label
_atom_site_fract_x
_atom_site_fract_y
_atom_site_fract_z
Si Si1 0.787640 0.309337 0.394360
Si Si2 0.623234 0.191894 0.471786
Si Si3 0.865118 0.806392 0.091215
Si Si4 0.541805 0.306565 0.770057
Si Si5 0.105715 0.806808 0.712424
Si Si6 0.023100 0.305040 0.010999
Si Si7 0.343030 0.308717 0.332525
Si Si8 0.314256 0.306150 0.158991
O O1 0.786422 0.500000 0.397908
O O2 0.575321 0.250324 0.240558
O O3 0.842779 0.263465 0.384087
O O4 0.937545 0.242453 0.547708
O O5 0.521811 0.260658 0.439414
O O6 0.495516 0.244845 0.328364
O O7 0.837865 0.247273 0.631043
O O8 0.620746 0.000000 0.472651
O O9 0.816703 0.753350 0.106867
O O10 0.865126 0.000000 0.090896
O O11 0.710736 0.748332 0.934432
O O12 0.540144 0.500000 0.768073
O O13 0.571544 0.250784 0.739398
O O14 0.112696 0.000000 0.718906
O O15 0.309657 0.748894 0.852040
O O16 0.020605 0.500000 0.009044
O O17 0.158144 0.256086 0.159199
O O18 0.130610 0.255118 0.046674
O O19 0.336918 0.500000 0.331599
O O20 0.320395 0.500000 0.164648
#
# Coordination Sequence:
#
# PCOD9132353 Si02
#       8
#     4   4   4   4   4   4   4   4
#     4  11  23  37  53  80 113 143 180 231 278 320
#     4  10  20  35  55  83 114 143 178 227 277 321
#     4  10  22  37  55  79 111 148 186 227 272 320
#     4  10  22  37  55  80 112 146 184 228 273 321
#     4  10  20  36  56  79 107 144 185 224 269 327
#     4   8  16  32  56  81 104 133 180 229 262 306
#     4  10  20  37  60  82 106 144 184 222 271 331
#     4   9  18  35  56  80 109 145 185 222 264 324
#
# _framework density 19.070841999999999
#
# number of rings (size 3 to 8) (size 9 to 14) (size 15 to 20)
#    0.000    2.250    0.000    3.375    0.000    5.000 
#    0.000    4.375    0.000    0.000    0.000    0.000 
#    0.000    0.000    0.000    0.000    0.000    0.000 
#
# Total GULP energy -89345.377250 kJ/mol
# GULP energy per Si atom -5584.086078 kJ/mol
# Density = 1.902744 g / cm^3
# Si number density = 19.070842 Si / 1000 Ang^3
#
#
#
# Elastic Constant Matrix: (Units=GPa)
#
#
# Indices 1 2 3 4 5 6 
#
# 1 150.6092 0.8063 105.2800 0.0109 -10.9095 0.0028
# 2 0.8063 4.1659 8.8645 0.0050 3.2097 0.0046
# 3 105.2800 8.8645 187.8048 0.0151 14.5714 -0.0048
# 4 0.0109 0.0050 0.0151 28.2900 0.0007 -8.5883
# 5 -10.9095 3.2097 14.5714 0.0007 26.2928 -0.0006
# 6 0.0028 0.0046 -0.0048 -8.5883 -0.0006 8.8460
#
#
#
# Elastic Compliance Matrix: (Units=1/GPa)
#
#
# Indices 1 2 3 4 5 6 
#
# 1 0.013214 0.008511 -0.008520 -0.000009 0.009166 -0.000021
# 2 0.008511 0.291629 -0.016769 -0.000135 -0.022777 -0.000297
# 3 -0.008520 -0.016769 0.011503 0.000008 -0.007863 0.000025
# 4 -0.000009 -0.000135 0.000008 0.050121 0.000008 0.048661
# 5 0.009166 -0.022777 -0.007863 0.000008 0.048975 0.000016
# 6 -0.000021 -0.000297 0.000025 0.048661 0.000016 0.160288
#
#
# Mechanical properties :
#
#
# Convention : Reuss Voigt Hill
#
# Bulk Modulus (GPa) = 3.53620 63.60906 33.57263
# Shear Modulus (GPa) = 7.10682 27.86105 17.48393
#
# Velocity S-wave (km/s) = 1.93252 3.82635 3.03114
# Velocity P-wave (km/s) = 2.61491 7.27652 5.46743
#
# Compressibility (1/GPa) = 0.28278909
#
# Stress axis : x y z
#
# Youngs Moduli (GPa) = 75.67652 3.42901 86.93622
#
# Poissons Ratio (x) = -0.02918 0.74074
# Poissons Ratio (y) = -0.64407 1.45782
# Poissons Ratio (z) = 0.64480 0.05750
#
# Static dielectric constant tensor:
#      x y z
#    x 1.648160 0.000000 0.025020 
#    y 0.000000 1.657370 -0.000010 
#    z 0.025020 -0.000010 1.636780 
# 
# From -- ./inp_files/33055.got.cif
#   From: 2010.05.17/outbox.cif.g08.bks.cpg/sg8_17_cif.got.tgz:33055.got - 2010.06.03 19:46:02.
