data_PCOD9132495
_publ_section_title
;
Structure prediction by ZEFSAII (Michael W. Deem and Ramdas Pophale) SiO2 
 PCOD9132495
Probable space group: C M
;
_chemical_formula_sum "Si O2"
_cell_formula_units_Z 32
_cell_length_a 22.131843
_cell_length_b 7.745722
_cell_length_c 21.758784
_cell_angle_alpha 90.000000
_cell_angle_beta 19.725818
_cell_angle_gamma 90.000000
_cell_volume 1258.962877
_symmetry_space_group_name_H-M "C M"
_symmetry_group_IT_number 8
_symmetry_cell_setting 'monoclinic'
loop_
_space_group_symop_operation_xyz
x,y,z
x,-y,z
1/2+x,1/2+y,z
1/2+x,1/2-y,z
loop_
_atom_site_type_symbol
_atom_site_label
_atom_site_fract_x
_atom_site_fract_y
_atom_site_fract_z
Si Si1 0.431210 0.797049 0.955080
Si Si2 0.963864 0.298235 0.497932
Si Si3 0.064049 0.195568 0.266692
Si Si4 0.678173 0.703578 0.614004
Si Si5 0.128944 0.790314 0.461064
Si Si6 0.502402 0.197628 0.141529
Si Si7 0.879009 0.211252 0.806627
Si Si8 0.605138 0.299015 0.908788
O O1 0.610732 0.773776 0.743748
O O2 0.458535 0.713903 0.995125
O O3 0.399196 0.000000 0.995066
O O4 0.262747 0.722998 0.077356
O O5 0.935529 0.500000 0.509330
O O6 0.785079 0.232137 0.703163
O O7 0.014700 0.205057 0.386648
O O8 0.112500 0.280347 0.408500
O O9 0.887965 0.266928 0.401939
O O10 0.080890 0.000000 0.229898
O O11 0.653995 0.500000 0.638850
O O12 0.532307 0.773652 0.705849
O O13 0.954965 0.741945 0.666924
O O14 0.138928 0.000000 0.448480
O O15 0.304287 0.725838 0.329532
O O16 0.675961 0.274184 0.009154
O O17 0.554956 0.200317 0.018666
O O18 0.484209 0.000000 0.180363
O O19 0.873164 0.000000 0.814332
O O20 0.630096 0.500000 0.901175
#
# Coordination Sequence:
#
# PCOD9132495 Si02
#       8
#     4   4   4   4   4   4   4   4
#     4  11  24  41  62  88 119 158 199 241 294 355
#     4  11  22  36  58  89 121 154 191 238 297 351
#     4  11  24  41  62  88 119 158 199 241 294 355
#     4  11  23  40  63  90 117 154 200 249 300 343
#     4  10  20  36  60  87 115 152 194 235 286 348
#     4  10  20  36  60  87 115 152 194 235 286 348
#     4   9  20  38  59  84 115 150 194 243 288 339
#     4  11  22  36  58  89 121 154 191 238 297 351
#
# _framework density 25.417746999999999
#
# number of rings (size 3 to 8) (size 9 to 14) (size 15 to 20)
#    0.000    1.500    2.500    2.625    0.000    7.500 
#    0.000    5.000    0.000    0.000    0.000    0.000 
#    0.000    0.000    0.000    0.000    0.000    0.000 
#
# Total GULP energy -89513.793621 kJ/mol
# GULP energy per Si atom -5594.612101 kJ/mol
# Density = 2.535989 g / cm^3
# Si number density = 25.417747 Si / 1000 Ang^3
#
#
#
# Elastic Constant Matrix: (Units=GPa)
#
#
# Indices 1 2 3 4 5 6 
#
# 1 101.0345 -3.8912 10.8567 0.0001 -32.3685 -0.0003
# 2 -3.8912 57.8332 1.1079 -0.0044 -0.4582 0.0026
# 3 10.8567 1.1079 130.3448 -0.0052 -29.9585 0.0038
# 4 0.0001 -0.0044 -0.0052 17.8201 0.0004 -9.8579
# 5 -32.3685 -0.4582 -29.9585 0.0004 49.2395 -0.0001
# 6 -0.0003 0.0026 0.0038 -9.8579 -0.0001 10.7286
#
#
#
# Elastic Compliance Matrix: (Units=1/GPa)
#
#
# Indices 1 2 3 4 5 6 
#
# 1 0.012696 0.000906 0.000994 0.000000 0.008959 0.000000
# 2 0.000906 0.017359 -0.000057 0.000004 0.000723 -0.000001
# 3 0.000994 -0.000057 0.008998 0.000002 0.006127 -0.000002
# 4 0.000000 0.000004 0.000002 0.114126 0.000001 0.104864
# 5 0.008959 0.000723 0.006127 0.000001 0.029933 -0.000001
# 6 0.000000 -0.000001 -0.000002 0.104864 -0.000001 0.189562
#
#
# Mechanical properties :
#
#
# Convention : Reuss Voigt Hill
#
# Bulk Modulus (GPa) = 23.39771 33.92882 28.66326
# Shear Modulus (GPa) = 13.04684 34.30024 23.67354
#
# Velocity S-wave (km/s) = 2.26806 3.67749 3.05516
# Velocity P-wave (km/s) = 4.01049 5.60440 4.87306
#
# Compressibility (1/GPa) = 0.04273923
#
# Stress axis : x y z
#
# Youngs Moduli (GPa) = 78.76535 57.60732 111.13589
#
# Poissons Ratio (x) = -0.05220 -0.11047
# Poissons Ratio (y) = -0.07137 0.00633
# Poissons Ratio (z) = -0.07829 0.00328
#
# Static dielectric constant tensor:
#      x y z
#    x 2.036000 0.000000 -0.063860 
#    y 0.000000 1.920530 0.000000 
#    z -0.063860 0.000000 2.024630 
# 
# From -- ./inp_files/32406.got.cif
#   From: 2010.05.17/outbox.cif.g08.bks.cpg/sg8_17_cif.got.tgz:32406.got - 2010.06.03 19:46:02.
