data_PCOD9132510
_publ_section_title
;
Structure prediction by ZEFSAII (Michael W. Deem and Ramdas Pophale) SiO2 
 PCOD9132510
Probable space group: C M
;
_chemical_formula_sum "Si O2"
_cell_formula_units_Z 24
_cell_length_a 9.085482
_cell_length_b 17.285740
_cell_length_c 9.227312
_cell_angle_alpha 90.000000
_cell_angle_beta 118.141870
_cell_angle_gamma 90.000000
_cell_volume 1277.828573
_symmetry_space_group_name_H-M "C M"
_symmetry_group_IT_number 8
_symmetry_cell_setting 'monoclinic'
loop_
_space_group_symop_operation_xyz
x,y,z
x,-y,z
1/2+x,1/2+y,z
1/2+x,1/2-y,z
loop_
_atom_site_type_symbol
_atom_site_label
_atom_site_fract_x
_atom_site_fract_y
_atom_site_fract_z
Si Si1 0.773410 0.089890 0.196850
Si Si2 0.594283 0.694051 0.881025
Si Si3 0.271345 0.729394 0.394372
Si Si4 0.096548 0.706207 0.612208
Si Si5 0.479481 0.193835 0.066625
Si Si6 0.321151 0.409502 0.882171
O O1 0.841674 0.153301 0.342481
O O2 0.575402 0.111894 0.106247
O O3 0.802114 0.000000 0.245257
O O4 0.833365 0.105816 0.060540
O O5 0.598385 0.717644 0.714747
O O6 0.665743 0.862227 0.744240
O O7 0.502223 0.763537 0.924022
O O8 0.787272 0.690043 0.018709
O O9 0.408972 0.796197 0.463051
O O10 0.218985 0.711267 0.533389
O O11 0.097888 0.743592 0.229006
O O12 0.485841 0.620589 0.876248
O O13 0.297234 0.500000 0.851353
#
# Coordination Sequence:
#
# PCOD9132510 Si02
#       6
#     4   4   4   4   4   4
#     4   9  21  41  61  89 128 169 210 260 318 369
#     4  12  20  38  63  92 122 165 221 254 300 382
#     4  10  23  35  61  92 118 162 208 257 309 369
#     4  12  20  39  61  93 123 161 206 261 313 373
#     4  10  20  36  62  88 120 166 218 253 295 378
#     4  11  24  41  64  94 131 167 211 267 317 369
#
# _framework density 18.781862
#
# number of rings (size 3 to 8) (size 9 to 14) (size 15 to 20)
#    1.000    0.333    5.000    1.000    2.333    1.333 
#    0.000    0.000    0.000    1.000    0.000    0.000 
#    0.000    0.000    0.000    0.000    0.000    0.000 
#
# Total GULP energy -66841.872351 kJ/mol
# GULP energy per Si atom -5570.156029 kJ/mol
# Density = 1.873911 g / cm^3
# Si number density = 18.781862 Si / 1000 Ang^3
#
#
#
# Elastic Constant Matrix: (Units=GPa)
#
#
# Indices 1 2 3 4 5 6 
#
# 1 108.7513 45.7290 50.6221 0.0000 2.0221 0.0000
# 2 45.7290 81.2832 37.8665 0.0000 -8.5977 0.0000
# 3 50.6221 37.8665 92.2978 0.0000 -5.2248 0.0000
# 4 0.0000 0.0000 0.0000 24.5559 0.0000 -2.5270
# 5 2.0221 -8.5977 -5.2248 0.0000 43.2642 0.0000
# 6 0.0000 0.0000 0.0000 -2.5270 0.0000 27.2594
#
#
#
# Elastic Compliance Matrix: (Units=1/GPa)
#
#
# Indices 1 2 3 4 5 6 
#
# 1 0.014237 -0.005647 -0.005631 0.000000 -0.002468 0.000000
# 2 -0.005647 0.017677 -0.003968 0.000000 0.003298 0.000000
# 3 -0.005631 -0.003968 0.015628 0.000000 0.001362 0.000000
# 4 0.000000 0.000000 0.000000 0.041116 0.000000 0.003812
# 5 -0.002468 0.003298 0.001362 0.000000 0.024049 0.000000
# 6 0.000000 0.000000 0.000000 0.003812 0.000000 0.037038
#
#
# Mechanical properties :
#
#
# Convention : Reuss Voigt Hill
#
# Bulk Modulus (GPa) = 58.65559 61.19638 59.92599
# Shear Modulus (GPa) = 26.89298 28.89020 27.89159
#
# Velocity S-wave (km/s) = 3.78810 3.92624 3.85779
# Velocity P-wave (km/s) = 7.10145 7.29433 7.19854
#
# Compressibility (1/GPa) = 0.01704867
#
# Stress axis : x y z
#
# Youngs Moduli (GPa) = 70.23880 56.56992 63.98646
#
# Poissons Ratio (x) = 0.31946 0.36033
# Poissons Ratio (y) = 0.39666 0.25392
# Poissons Ratio (z) = 0.39554 0.22449
#
# Static dielectric constant tensor:
#      x y z
#    x 1.672960 0.000000 0.011600 
#    y 0.000000 1.629610 0.000000 
#    z 0.011600 0.000000 1.735410 
# 
# From -- ./inp_files/8893.got.cif
#   From: 2010.05.17/outbox.cif.g08.bks.cpg/sg8_5_cif.got.tgz:8893.got - 2010.06.03 19:46:02.
