data_PCOD9132078
_publ_section_title
;
Structure prediction by ZEFSAII (Michael W. Deem and Ramdas Pophale) SiO2 
 PCOD9132078
Probable space group: C M
;
_chemical_formula_sum "Si O2"
_cell_formula_units_Z 30
_cell_length_a 13.263693
_cell_length_b 12.792152
_cell_length_c 25.342210
_cell_angle_alpha 90.000000
_cell_angle_beta 158.536292
_cell_angle_gamma 90.000000
_cell_volume 1573.363200
_symmetry_space_group_name_H-M "C M"
_symmetry_group_IT_number 8
_symmetry_cell_setting 'monoclinic'
loop_
_space_group_symop_operation_xyz
x,y,z
x,-y,z
1/2+x,1/2+y,z
1/2+x,1/2-y,z
loop_
_atom_site_type_symbol
_atom_site_label
_atom_site_fract_x
_atom_site_fract_y
_atom_site_fract_z
Si Si1 0.119880 0.675554 0.481320
Si Si2 0.534257 0.622609 0.244891
Si Si3 0.036693 0.000000 0.730977
Si Si4 0.565411 0.185785 0.331856
Si Si5 0.100533 0.118465 0.537451
Si Si6 0.428290 0.811045 0.917716
Si Si7 0.908708 0.618544 0.798164
Si Si8 0.959125 0.116722 0.006647
O O1 0.317114 0.591519 0.604468
O O2 0.157230 0.674088 0.436727
O O3 0.170034 0.790527 0.530366
O O4 0.803133 0.646655 0.340798
O O5 0.522731 0.500000 0.250456
O O6 0.561133 0.694134 0.310251
O O7 0.251047 0.658695 0.079386
O O8 0.253142 0.906852 0.855069
O O9 0.261257 0.139969 0.175986
O O10 0.780160 0.128891 0.397674
O O11 0.257011 0.136915 0.669300
O O12 0.163042 0.000000 0.550687
O O13 0.350292 0.805698 0.817906
O O14 0.387044 0.704613 0.928965
O O15 0.828604 0.500000 0.778806
O O16 0.230174 0.620058 0.940771
O O17 0.948502 0.000000 0.978653
#
# Coordination Sequence:
#
# PCOD9132078 Si02
#       8
#     4   4   2   4   4   4   4   4
#     4  11  23  37  59  91 117 153 194 245 290 338
#     4  10  20  39  57  85 122 152 190 242 292 347
#     4  12  22  34  62  86 114 148 202 238 286 336
#     4  10  22  35  60  88 116 152 195 237 291 346
#     4  10  22  38  58  85 121 154 193 238 290 349
#     4  11  21  36  62  88 116 154 196 239 293 342
#     4  10  19  35  58  83 112 153 194 237 281 338
#     4  10  22  38  60  87 117 152 194 240 288 349
#
# _framework density 19.067435
#
# number of rings (size 3 to 8) (size 9 to 14) (size 15 to 20)
#    0.000    1.600    2.000    2.800    3.733    1.600 
#    0.000    0.000    5.867    4.800    0.000    0.000 
#    0.000    0.000    0.000    0.000    0.000    0.000 
#
# Total GULP energy -83523.047455 kJ/mol
# GULP energy per Si atom -5568.203164 kJ/mol
# Density = 1.902404 g / cm^3
# Si number density = 19.067435 Si / 1000 Ang^3
#
#
#
# Elastic Constant Matrix: (Units=GPa)
#
#
# Indices 1 2 3 4 5 6 
#
# 1 38.6068 39.8354 8.9035 -0.0002 0.4759 -0.0013
# 2 39.8354 157.8569 14.4299 0.0037 -3.8045 0.0001
# 3 8.9035 14.4299 59.2960 0.0180 11.8403 0.0027
# 4 -0.0002 0.0037 0.0180 37.5135 -0.0017 -10.6412
# 5 0.4759 -3.8045 11.8403 -0.0017 17.2405 -0.0005
# 6 -0.0013 0.0001 0.0027 -10.6412 -0.0005 28.5506
#
#
#
# Elastic Compliance Matrix: (Units=1/GPa)
#
#
# Indices 1 2 3 4 5 6 
#
# 1 0.035626 -0.008730 -0.003064 0.000003 -0.000805 0.000003
# 2 -0.008730 0.008747 -0.001450 0.000000 0.003167 0.000000
# 3 -0.003064 -0.001450 0.020542 -0.000012 -0.014343 -0.000007
# 4 0.000003 0.000000 -0.000012 0.029809 0.000012 0.011110
# 5 -0.000805 0.003167 -0.014343 0.000012 0.068574 0.000007
# 6 0.000003 0.000000 -0.000007 0.011110 0.000007 0.039166
#
#
# Mechanical properties :
#
#
# Convention : Reuss Voigt Hill
#
# Bulk Modulus (GPa) = 26.02371 42.45525 34.23948
# Shear Modulus (GPa) = 20.68160 29.50031 25.09096
#
# Velocity S-wave (km/s) = 3.29698 3.93766 3.63148
# Velocity P-wave (km/s) = 5.30767 6.55650 5.96486
#
# Compressibility (1/GPa) = 0.03842650
#
# Stress axis : x y z
#
# Youngs Moduli (GPa) = 28.06918 114.32904 48.68182
#
# Poissons Ratio (x) = 0.99805 0.14917
# Poissons Ratio (y) = 0.24503 0.07060
# Poissons Ratio (z) = 0.08601 0.16579
#
# Static dielectric constant tensor:
#      x y z
#    x 1.722370 0.000000 0.022090 
#    y 0.000000 1.646220 0.000000 
#    z 0.022090 0.000000 1.693750 
# 
# From -- ./inp_files/32909.got.cif
#   From: 2010.05.17/outbox.cif.g08.bks.cpg/sg8_17_cif.got.tgz:32909.got - 2010.06.03 19:46:02.
