data_PCOD9132858
_publ_section_title
;
Structure prediction by ZEFSAII (Michael W. Deem and Ramdas Pophale) SiO2 
 PCOD9132858
Probable space group: C M
;
_chemical_formula_sum "Si O2"
_cell_formula_units_Z 28
_cell_length_a 19.663988
_cell_length_b 9.672939
_cell_length_c 12.399080
_cell_angle_alpha 90.000000
_cell_angle_beta 36.849655
_cell_angle_gamma 90.000000
_cell_volume 1414.379993
_symmetry_space_group_name_H-M "C M"
_symmetry_group_IT_number 8
_symmetry_cell_setting 'monoclinic'
loop_
_space_group_symop_operation_xyz
x,y,z
x,-y,z
1/2+x,1/2+y,z
1/2+x,1/2-y,z
loop_
_atom_site_type_symbol
_atom_site_label
_atom_site_fract_x
_atom_site_fract_y
_atom_site_fract_z
Si Si1 0.693280 0.661498 0.447010
Si Si2 0.611840 0.667151 0.309173
Si Si3 0.914488 0.843980 0.185664
Si Si4 0.007305 0.749466 0.852401
Si Si5 0.828917 0.340908 0.911477
Si Si6 0.615341 0.844082 0.923185
Si Si7 0.868406 0.833780 0.655829
O O1 0.727337 0.500000 0.397817
O O2 0.648255 0.704705 0.385333
O O3 0.800480 0.755379 0.343198
O O4 0.592418 0.678553 0.661246
O O5 0.616734 0.500000 0.300131
O O6 0.482842 0.708548 0.448863
O O7 0.707065 0.714029 0.105301
O O8 0.905104 0.000000 0.238747
O O9 0.942068 0.845545 0.021653
O O10 0.024267 0.760875 0.090829
O O11 0.080010 0.656911 0.842349
O O12 0.913684 0.666818 0.904767
O O13 0.820292 0.500000 0.885434
O O14 0.875160 0.241226 0.761499
O O15 0.745306 0.797020 0.765891
O O16 0.605271 0.000000 0.978878
O O17 0.871721 0.000000 0.663378
#
# Coordination Sequence:
#
# PCOD9132858 Si02
#       7
#     4   4   4   4   4   4   4
#     4  11  20  36  61  86 117 154 192 239 297 352
#     4   9  18  35  57  83 114 152 191 228 283 347
#     4  10  22  37  57  86 117 146 193 249 290 336
#     4  10  21  36  61  85 115 152 200 235 293 340
#     4  11  21  36  60  87 115 151 195 245 291 339
#     4   9  20  40  62  82 117 161 198 235 289 352
#     4  10  21  40  62  83 115 158 197 235 285 350
#
# _framework density 19.796661
#
# number of rings (size 3 to 8) (size 9 to 14) (size 15 to 20)
#    0.857    1.143    2.857    1.286    0.000    2.286 
#    2.571    0.714    0.000    0.000    0.000    0.000 
#    0.000    0.000    0.000    0.000    0.000    0.000 
#
# Total GULP energy -77994.784728 kJ/mol
# GULP energy per Si atom -5571.056052 kJ/mol
# Density = 1.975160 g / cm^3
# Si number density = 19.796661 Si / 1000 Ang^3
#
#
#
# Elastic Constant Matrix: (Units=GPa)
#
#
# Indices 1 2 3 4 5 6 
#
# 1 32.2521 4.0078 10.3616 0.0000 -26.1257 0.0000
# 2 4.0078 58.6194 25.8530 0.0000 -22.3755 0.0000
# 3 10.3616 25.8530 120.1173 0.0000 -26.7839 0.0000
# 4 0.0000 0.0000 0.0000 21.1990 0.0000 -4.2502
# 5 -26.1257 -22.3755 -26.7839 0.0000 39.0184 0.0000
# 6 0.0000 0.0000 0.0000 -4.2502 0.0000 14.2654
#
#
#
# Elastic Compliance Matrix: (Units=1/GPa)
#
#
# Indices 1 2 3 4 5 6 
#
# 1 0.084237 0.019207 0.004289 0.000000 0.070361 0.000000
# 2 0.019207 0.026748 -0.001329 0.000000 0.027286 0.000000
# 3 0.004289 -0.001329 0.010286 0.000000 0.009170 0.000000
# 4 0.000000 0.000000 0.000000 0.050169 0.000000 0.014947
# 5 0.070361 0.027286 0.009170 0.000000 0.094683 0.000000
# 6 0.000000 0.000000 0.000000 0.014947 0.000000 0.074553
#
#
# Mechanical properties :
#
#
# Convention : Reuss Voigt Hill
#
# Bulk Modulus (GPa) = 6.03856 32.38151 19.21004
# Shear Modulus (GPa) = 14.22293 26.28096 20.25194
#
# Velocity S-wave (km/s) = 2.68330 3.64750 3.20190
# Velocity P-wave (km/s) = 3.55768 5.84223 4.83677
#
# Compressibility (1/GPa) = 0.16560237
#
# Stress axis : x y z
#
# Youngs Moduli (GPa) = 11.87132 37.38622 97.21826
#
# Poissons Ratio (x) = -0.71806 -0.41695
# Poissons Ratio (y) = -0.22801 0.12924
# Poissons Ratio (z) = -0.05091 0.04970
#
# Static dielectric constant tensor:
#      x y z
#    x 1.705900 0.000000 -0.008170 
#    y 0.000000 1.683610 0.000000 
#    z -0.008170 0.000000 1.711430 
# 
# From -- ./inp_files/23994.got.cif
#   From: 2010.05.17/outbox.cif.g08.bks.cpg/sg8_12_cif.got.tgz:23994.got - 2010.06.03 19:46:02.
