data_PCOD9132558
_publ_section_title
;
Structure prediction by ZEFSAII (Michael W. Deem and Ramdas Pophale) SiO2 
 PCOD9132558
Probable space group: C M
;
_chemical_formula_sum "Si O2"
_cell_formula_units_Z 32
_cell_length_a 34.074034
_cell_length_b 8.725769
_cell_length_c 12.934503
_cell_angle_alpha 90.000000
_cell_angle_beta 26.261593
_cell_angle_gamma 90.000000
_cell_volume 1701.613758
_symmetry_space_group_name_H-M "C M"
_symmetry_group_IT_number 8
_symmetry_cell_setting 'monoclinic'
loop_
_space_group_symop_operation_xyz
x,y,z
x,-y,z
1/2+x,1/2+y,z
1/2+x,1/2-y,z
loop_
_atom_site_type_symbol
_atom_site_label
_atom_site_fract_x
_atom_site_fract_y
_atom_site_fract_z
Si Si1 0.183440 0.314378 0.929070
Si Si2 0.325221 0.817784 0.117846
Si Si3 0.068591 0.814438 0.015229
Si Si4 0.376934 0.313281 0.549143
Si Si5 0.116409 0.679467 0.308563
Si Si6 0.504282 0.317814 0.753275
Si Si7 0.629786 0.312867 0.643186
Si Si8 0.318909 0.679886 0.908983
O O1 0.182612 0.500000 0.927176
O O2 0.137694 0.247241 0.936257
O O3 0.285887 0.266243 0.706726
O O4 0.127988 0.268741 0.162795
O O5 0.406331 0.749050 0.989431
O O6 0.336224 0.770169 0.972392
O O7 0.327059 0.000000 0.121159
O O8 0.229738 0.761769 0.383229
O O9 0.095701 0.765177 0.836047
O O10 0.069900 0.000000 0.015136
O O11 0.968694 0.764318 0.280720
O O12 0.375065 0.500000 0.554795
O O13 0.370371 0.265512 0.684908
O O14 0.091572 0.500000 0.367771
O O15 0.049186 0.770004 0.539129
O O16 0.214852 0.691551 0.125284
O O17 0.500107 0.500000 0.768367
O O18 0.565902 0.261225 0.701486
O O19 0.629933 0.500000 0.641165
O O20 0.339000 0.500000 0.878627
#
# Coordination Sequence:
#
# PCOD9132558 Si02
#       8
#     4   4   4   4   4   4   4   4
#     4   9  19  36  55  82 116 147 179 225 279 332
#     4  11  22  37  55  81 113 150 185 232 290 330
#     4  10  20  37  60  82 107 149 193 229 271 325
#     4   8  17  34  56  80 110 145 180 221 274 328
#     4   9  18  34  56  82 118 151 180 228 285 331
#     4  11  22  37  57  83 110 146 193 235 278 338
#     4   9  21  40  57  77 113 150 188 233 278 329
#     4   9  17  33  56  83 113 146 184 227 273 337
#
# _framework density 18.805678
#
# number of rings (size 3 to 8) (size 9 to 14) (size 15 to 20)
#    0.000    2.500    1.250    2.250    1.750    1.500 
#    0.000    6.250    0.000    0.000    0.000    0.000 
#    0.000    0.000    0.000    0.000    0.000    0.000 
#
# Total GULP energy -89293.722986 kJ/mol
# GULP energy per Si atom -5580.857687 kJ/mol
# Density = 1.876288 g / cm^3
# Si number density = 18.805678 Si / 1000 Ang^3
#
#
#
# Elastic Constant Matrix: (Units=GPa)
#
#
# Indices 1 2 3 4 5 6 
#
# 1 99.4922 20.1886 100.7274 0.0000 4.0772 0.0000
# 2 20.1886 20.6731 29.5233 0.0000 -1.5826 0.0000
# 3 100.7274 29.5233 165.7187 0.0000 -0.2946 0.0000
# 4 0.0000 0.0000 0.0000 19.4139 0.0000 -3.3254
# 5 4.0772 -1.5826 -0.2946 0.0000 20.9369 0.0000
# 6 0.0000 0.0000 0.0000 -3.3254 0.0000 30.6275
#
#
#
# Elastic Compliance Matrix: (Units=1/GPa)
#
#
# Indices 1 2 3 4 5 6 
#
# 1 0.027044 -0.004515 -0.015644 0.000000 -0.005828 0.000000
# 2 -0.004515 0.066106 -0.009022 0.000000 0.005749 0.000000
# 3 -0.015644 -0.009022 0.017155 0.000000 0.002606 0.000000
# 4 0.000000 0.000000 0.000000 0.052486 0.000000 0.005699
# 5 -0.005828 0.005749 0.002606 0.000000 0.049369 0.000000
# 6 0.000000 0.000000 0.000000 0.005699 0.000000 0.033269
#
#
# Mechanical properties :
#
#
# Convention : Reuss Voigt Hill
#
# Bulk Modulus (GPa) = 19.25208 65.19583 42.22396
# Shear Modulus (GPa) = 15.57111 23.22531 19.39821
#
# Velocity S-wave (km/s) = 2.88062 3.51809 3.21519
# Velocity P-wave (km/s) = 4.61775 7.15863 6.02369
#
# Compressibility (1/GPa) = 0.05194243
#
# Stress axis : x y z
#
# Youngs Moduli (GPa) = 36.97610 15.12711 58.29157
#
# Poissons Ratio (x) = 0.06831 0.91192
# Poissons Ratio (y) = 0.16696 0.52592
# Poissons Ratio (z) = 0.57846 0.13648
#
# Static dielectric constant tensor:
#      x y z
#    x 1.633030 0.000000 -0.007760 
#    y 0.000000 1.640330 0.000000 
#    z -0.007760 0.000000 1.653470 
# 
# From -- ./inp_files/24383.got.cif
#   From: 2010.05.17/outbox.cif.g08.bks.cpg/sg8_13_cif.got.tgz:24383.got - 2010.06.03 19:46:02.
