data_PCOD9132348
_publ_section_title
;
Structure prediction by ZEFSAII (Michael W. Deem and Ramdas Pophale) SiO2 
 PCOD9132348
Probable space group: C M
;
_chemical_formula_sum "Si O2"
_cell_formula_units_Z 32
_cell_length_a 16.190976
_cell_length_b 14.376421
_cell_length_c 8.307426
_cell_angle_alpha 90.000000
_cell_angle_beta 116.318374
_cell_angle_gamma 90.000000
_cell_volume 1733.265738
_symmetry_space_group_name_H-M "C M"
_symmetry_group_IT_number 8
_symmetry_cell_setting 'monoclinic'
loop_
_space_group_symop_operation_xyz
x,y,z
x,-y,z
1/2+x,1/2+y,z
1/2+x,1/2-y,z
loop_
_atom_site_type_symbol
_atom_site_label
_atom_site_fract_x
_atom_site_fract_y
_atom_site_fract_z
Si Si1 0.061590 0.760626 0.485740
Si Si2 0.690144 0.606942 0.779730
Si Si3 0.223207 0.610516 0.083066
Si Si4 0.279495 0.891531 0.192719
Si Si5 0.392420 0.733403 0.129575
Si Si6 0.733834 0.764935 0.403197
Si Si7 0.368632 0.202855 0.769961
Si Si8 0.533038 0.109073 0.726273
O O1 0.104145 0.834739 0.645179
O O2 0.142700 0.736106 0.431457
O O3 0.035999 0.671198 0.569341
O O4 0.976218 0.799723 0.311198
O O5 0.681399 0.500000 0.726624
O O6 0.781790 0.647778 0.772603
O O7 0.704680 0.612848 0.984109
O O8 0.238287 0.500000 0.098932
O O9 0.304509 0.665692 0.062463
O O10 0.226130 0.655341 0.263015
O O11 0.125580 0.628104 0.910795
O O12 0.362363 0.831920 0.184982
O O13 0.246760 0.832723 0.318090
O O14 0.300228 0.000000 0.243062
O O15 0.415700 0.748120 0.963395
O O16 0.822038 0.770236 0.597549
O O17 0.442826 0.137868 0.748410
O O18 0.531183 0.000000 0.687628
#
# Coordination Sequence:
#
# PCOD9132348 Si02
#       8
#     4   4   4   4   4   4   4   4
#     4  11  22  35  55  80 111 146 180 220 265 319
#     4   9  19  36  58  83 110 139 175 223 274 322
#     4  10  21  38  57  78 109 147 183 218 260 318
#     4   9  18  35  59  83 107 135 174 228 282 321
#     4  10  21  37  56  80 112 145 178 219 266 320
#     4  10  20  35  55  81 110 142 179 222 270 318
#     4  10  20  36  58  82 109 137 176 228 279 317
#     4  11  22  36  57  83 110 141 178 222 271 321
#
# _framework density 18.462259
#
# number of rings (size 3 to 8) (size 9 to 14) (size 15 to 20)
#    0.000    2.000    0.000    5.625    0.000    5.500 
#    0.000    0.625    0.000    0.750    0.000    0.000 
#    0.000    0.000    0.000    0.000    0.000    0.000 
#
# Total GULP energy -89286.373073 kJ/mol
# GULP energy per Si atom -5580.398317 kJ/mol
# Density = 1.842024 g / cm^3
# Si number density = 18.462259 Si / 1000 Ang^3
#
#
#
# Elastic Constant Matrix: (Units=GPa)
#
#
# Indices 1 2 3 4 5 6 
#
# 1 50.3496 10.3608 32.6541 0.0000 -0.2517 0.0000
# 2 10.3608 60.5642 32.2166 0.0000 1.5145 0.0000
# 3 32.6541 32.2166 104.1818 0.0000 6.2185 0.0000
# 4 0.0000 0.0000 0.0000 19.7301 0.0000 5.4917
# 5 -0.2517 1.5145 6.2185 0.0000 37.8001 0.0000
# 6 0.0000 0.0000 0.0000 5.4917 0.0000 10.2307
#
#
#
# Elastic Compliance Matrix: (Units=1/GPa)
#
#
# Indices 1 2 3 4 5 6 
#
# 1 0.025010 -0.000118 -0.007890 0.000000 0.001469 0.000000
# 2 -0.000118 0.019764 -0.006087 0.000000 0.000209 0.000000
# 3 -0.007890 -0.006087 0.014081 0.000000 -0.002125 0.000000
# 4 0.000000 0.000000 0.000000 0.059587 0.000000 -0.031985
# 5 0.001469 0.000209 -0.002125 0.000000 0.026806 0.000000
# 6 0.000000 0.000000 0.000000 -0.031985 0.000000 0.114914
#
#
# Mechanical properties :
#
#
# Convention : Reuss Voigt Hill
#
# Bulk Modulus (GPa) = 32.61135 40.61762 36.61448
# Shear Modulus (GPa) = 16.74623 22.87647 19.81135
#
# Velocity S-wave (km/s) = 3.01500 3.52389 3.27933
# Velocity P-wave (km/s) = 5.46099 6.21331 5.84926
#
# Compressibility (1/GPa) = 0.03066417
#
# Stress axis : x y z
#
# Youngs Moduli (GPa) = 39.98419 50.59581 71.01827
#
# Poissons Ratio (x) = 0.00598 0.56034
# Poissons Ratio (y) = 0.00472 0.43231
# Poissons Ratio (z) = 0.31548 0.30799
#
# Static dielectric constant tensor:
#      x y z
#    x 1.622820 0.000000 0.004850 
#    y 0.000000 1.615760 0.000000 
#    z 0.004850 0.000000 1.663060 
# 
# From -- ./inp_files/13242.got.cif
#   From: 2010.05.17/outbox.cif.g08.bks.cpg/sg8_7_cif.got.tgz:13242.got - 2010.06.03 19:46:02.
