data_PCOD9132897
_publ_section_title
;
Structure prediction by ZEFSAII (Michael W. Deem and Ramdas Pophale) SiO2 
 PCOD9132897
Probable space group: C M
;
_chemical_formula_sum "Si O2"
_cell_formula_units_Z 24
_cell_length_a 8.355724
_cell_length_b 12.654725
_cell_length_c 14.500233
_cell_angle_alpha 90.000000
_cell_angle_beta 45.776758
_cell_angle_gamma 90.000000
_cell_volume 1098.766467
_symmetry_space_group_name_H-M "C M"
_symmetry_group_IT_number 8
_symmetry_cell_setting 'monoclinic'
loop_
_space_group_symop_operation_xyz
x,y,z
x,-y,z
1/2+x,1/2+y,z
1/2+x,1/2-y,z
loop_
_atom_site_type_symbol
_atom_site_label
_atom_site_fract_x
_atom_site_fract_y
_atom_site_fract_z
Si Si1 0.076990 0.376181 0.738090
Si Si2 0.917514 0.873581 0.275994
Si Si3 0.666034 0.785708 0.895428
Si Si4 0.516685 0.627772 0.448938
Si Si5 0.471670 0.881477 0.355958
Si Si6 0.191382 0.311493 0.084426
O O1 0.019160 0.500000 0.744231
O O2 0.155996 0.360855 0.811586
O O3 0.283396 0.344150 0.590036
O O4 0.878190 0.292110 0.805904
O O5 0.001754 0.846179 0.345704
O O6 0.658503 0.847485 0.355387
O O7 0.068505 0.801929 0.148793
O O8 0.943921 0.000000 0.251786
O O9 0.452133 0.709595 0.982629
O O10 0.646031 0.849009 0.999430
O O11 0.529124 0.500000 0.443794
O O12 0.729072 0.662846 0.424939
O O13 0.600995 0.878750 0.205656
O O14 0.421798 0.000000 0.406508
#
# Coordination Sequence:
#
# PCOD9132897 Si02
#       6
#     4   4   4   4   4   4
#     4  10  23  46  65  87 131 173 210 273 321 362
#     4  10  21  38  63  93 125 164 201 257 334 384
#     4  10  23  39  62  92 123 167 225 254 304 397
#     4   9  20  40  63  91 125 161 211 260 316 388
#     4  10  21  37  60  92 125 158 201 259 323 385
#     4  11  20  38  58  91 127 153 207 265 307 384
#
# _framework density 21.842675
#
# number of rings (size 3 to 8) (size 9 to 14) (size 15 to 20)
#    0.000    2.000    1.667    1.000    0.000    5.333 
#    6.000    2.500    0.000    0.000    0.000    0.000 
#    0.000    0.000    0.000    0.000    0.000    0.000 
#
# Total GULP energy -66935.157950 kJ/mol
# GULP energy per Si atom -5577.929829 kJ/mol
# Density = 2.179296 g / cm^3
# Si number density = 21.842675 Si / 1000 Ang^3
#
#
#
# Elastic Constant Matrix: (Units=GPa)
#
#
# Indices 1 2 3 4 5 6 
#
# 1 104.8943 26.0549 19.4758 0.0000 -21.6437 0.0000
# 2 26.0549 77.4551 -0.1217 0.0000 -16.1386 0.0000
# 3 19.4758 -0.1217 79.9787 -0.0001 -13.2489 0.0001
# 4 0.0000 0.0000 -0.0001 21.7788 0.0001 -1.3590
# 5 -21.6437 -16.1386 -13.2489 0.0001 39.0345 0.0000
# 6 0.0000 0.0000 0.0001 -1.3590 0.0000 31.2700
#
#
#
# Elastic Compliance Matrix: (Units=1/GPa)
#
#
# Indices 1 2 3 4 5 6 
#
# 1 0.011583 -0.002964 -0.002081 0.000000 0.004490 0.000000
# 2 -0.002964 0.014970 0.001587 0.000000 0.005084 0.000000
# 3 -0.002081 0.001587 0.013700 0.000000 0.004152 0.000000
# 4 0.000000 0.000000 0.000000 0.046041 0.000000 0.002001
# 5 0.004490 0.005084 0.004152 0.000000 0.031620 0.000000
# 6 0.000000 0.000000 0.000000 0.002001 0.000000 0.032067
#
#
# Mechanical properties :
#
#
# Convention : Reuss Voigt Hill
#
# Bulk Modulus (GPa) = 29.99758 39.23844 34.61801
# Shear Modulus (GPa) = 29.76046 32.87794 31.31920
#
# Velocity S-wave (km/s) = 3.69520 3.88392 3.79073
# Velocity P-wave (km/s) = 5.65414 6.17383 5.91969
#
# Compressibility (1/GPa) = 0.03333602
#
# Stress axis : x y z
#
# Youngs Moduli (GPa) = 86.33666 66.80228 72.99077
#
# Poissons Ratio (x) = 0.19799 0.15190
# Poissons Ratio (y) = 0.25589 -0.11582
# Poissons Ratio (z) = 0.17968 -0.10600
#
# Static dielectric constant tensor:
#      x y z
#    x 1.851160 0.000000 0.015080 
#    y 0.000000 1.910130 0.000000 
#    z 0.015080 0.000000 1.752680 
# 
# From -- ./inp_files/7908.got.cif
#   From: 2010.05.17/outbox.cif.g08.bks.cpg/sg8_4_cif.got.tgz:7908.got - 2010.06.03 19:46:02.
