data_PCOD9132491
_publ_section_title
;
Structure prediction by ZEFSAII (Michael W. Deem and Ramdas Pophale) SiO2 
 PCOD9132491
Probable space group: C M
;
_chemical_formula_sum "Si O2"
_cell_formula_units_Z 32
_cell_length_a 33.288078
_cell_length_b 7.590029
_cell_length_c 12.476236
_cell_angle_alpha 90.000000
_cell_angle_beta 152.661476
_cell_angle_gamma 90.000000
_cell_volume 1447.644750
_symmetry_space_group_name_H-M "C M"
_symmetry_group_IT_number 8
_symmetry_cell_setting 'monoclinic'
loop_
_space_group_symop_operation_xyz
x,y,z
x,-y,z
1/2+x,1/2+y,z
1/2+x,1/2-y,z
loop_
_atom_site_type_symbol
_atom_site_label
_atom_site_fract_x
_atom_site_fract_y
_atom_site_fract_z
Si Si1 0.507130 0.287318 0.469360
Si Si2 0.614807 0.205617 0.243454
Si Si3 0.931577 0.212629 0.066151
Si Si4 0.932912 0.700593 0.826632
Si Si5 0.741611 0.702493 0.357120
Si Si6 0.243997 0.713858 0.721594
Si Si7 0.695792 0.792476 0.014557
Si Si8 0.322058 0.715396 0.128212
O O1 0.504508 0.500000 0.462774
O O2 0.490850 0.230749 0.307428
O O3 0.600712 0.231846 0.735884
O O4 0.421794 0.229704 0.336926
O O5 0.681357 0.211430 0.303317
O O6 0.661653 0.282255 0.459870
O O7 0.597793 0.000000 0.226760
O O8 0.521220 0.284709 0.990675
O O9 0.938000 0.000000 0.070934
O O10 0.948643 0.295596 0.991878
O O11 0.832200 0.255292 0.865168
O O12 0.925534 0.500000 0.767524
O O13 0.838683 0.783812 0.582920
O O14 0.750736 0.500000 0.414306
O O15 0.700312 0.708799 0.142055
O O16 0.238567 0.500000 0.711209
O O17 0.261569 0.771747 0.884257
O O18 0.709777 0.000000 0.062665
O O19 0.773514 0.725893 0.120875
O O20 0.322728 0.500000 0.130592
#
# Coordination Sequence:
#
# PCOD9132491 Si02
#       8
#     4   4   4   4   4   4   4   4
#     4   9  19  37  58  84 118 152 186 230 285 335
#     4  10  20  36  60  86 112 149 193 233 279 337
#     4   9  17  32  57  85 117 154 187 224 277 345
#     4  10  22  36  56  86 116 148 187 239 290 330
#     4  11  24  42  57  78 118 155 188 238 292 336
#     4   8  14  29  55  83 113 148 183 224 269 329
#     4  11  23  38  61  86 109 148 200 240 276 337
#     4   8  17  34  56  84 115 150 188 224 276 341
#
# _framework density 22.104872
#
# number of rings (size 3 to 8) (size 9 to 14) (size 15 to 20)
#    0.000    2.500    1.250    2.250    1.750    2.500 
#    0.000    3.750    0.000    1.500    0.000    0.000 
#    0.000    0.000    0.000    0.000    0.000    0.000 
#
# Total GULP energy -89313.808740 kJ/mol
# GULP energy per Si atom -5582.113046 kJ/mol
# Density = 2.205456 g / cm^3
# Si number density = 22.104872 Si / 1000 Ang^3
#
#
#
# Elastic Constant Matrix: (Units=GPa)
#
#
# Indices 1 2 3 4 5 6 
#
# 1 23.9339 -5.3278 13.6451 0.0000 -4.9296 0.0000
# 2 -5.3278 53.5347 -3.0184 0.0000 3.9432 0.0000
# 3 13.6451 -3.0184 113.4449 0.0000 9.2968 0.0000
# 4 0.0000 0.0000 0.0000 11.8978 0.0000 -6.2769
# 5 -4.9296 3.9432 9.2968 0.0000 23.1233 0.0000
# 6 0.0000 0.0000 0.0000 -6.2769 0.0000 5.7766
#
#
#
# Elastic Compliance Matrix: (Units=1/GPa)
#
#
# Indices 1 2 3 4 5 6 
#
# 1 0.049072 0.003570 -0.006840 0.000000 0.012603 0.000000
# 2 0.003570 0.019246 0.000299 0.000000 -0.002641 0.000000
# 3 -0.006840 0.000299 0.010102 0.000000 -0.005571 0.000000
# 4 0.000000 0.000000 0.000000 0.196959 0.000000 0.214019
# 5 0.012603 -0.002641 -0.005571 0.000000 0.048623 0.000000
# 6 0.000000 0.000000 0.000000 0.214019 0.000000 0.405669
#
#
# Mechanical properties :
#
#
# Convention : Reuss Voigt Hill
#
# Bulk Modulus (GPa) = 13.79740 22.39015 18.09378
# Shear Modulus (GPa) = 6.58092 20.53386 13.55739
#
# Velocity S-wave (km/s) = 1.72731 3.05114 2.47922
# Velocity P-wave (km/s) = 3.19898 4.75012 4.04951
#
# Compressibility (1/GPa) = 0.07247740
#
# Stress axis : x y z
#
# Youngs Moduli (GPa) = 20.37835 51.95849 98.98973
#
# Poissons Ratio (x) = -0.18548 0.67710
# Poissons Ratio (y) = -0.07274 -0.02961
# Poissons Ratio (z) = 0.13939 -0.01554
#
# Static dielectric constant tensor:
#      x y z
#    x 1.785830 0.000000 0.030900 
#    y 0.000000 1.847790 0.000000 
#    z 0.030900 0.000000 1.833590 
# 
# From -- ./inp_files/24805.got.cif
#   From: 2010.05.17/outbox.cif.g08.bks.cpg/sg8_13_cif.got.tgz:24805.got - 2010.06.03 19:46:02.
