data_PCOD9132760
_publ_section_title
;
Structure prediction by ZEFSAII (Michael W. Deem and Ramdas Pophale) SiO2 
 PCOD9132760
Probable space group: C M
;
_chemical_formula_sum "Si O2"
_cell_formula_units_Z 16
_cell_length_a 8.510716
_cell_length_b 12.269328
_cell_length_c 9.444008
_cell_angle_alpha 90.000000
_cell_angle_beta 45.033962
_cell_angle_gamma 90.000000
_cell_volume 697.726951
_symmetry_space_group_name_H-M "C M"
_symmetry_group_IT_number 8
_symmetry_cell_setting 'monoclinic'
loop_
_space_group_symop_operation_xyz
x,y,z
x,-y,z
1/2+x,1/2+y,z
1/2+x,1/2-y,z
loop_
_atom_site_type_symbol
_atom_site_label
_atom_site_fract_x
_atom_site_fract_y
_atom_site_fract_z
Si Si1 0.419540 0.714130 0.967670
Si Si2 0.888929 0.620888 0.739326
Si Si3 0.968008 0.329895 0.374900
Si Si4 0.179143 0.876922 0.309758
O O1 0.627352 0.641774 0.876750
O O2 0.378050 0.815042 0.101841
O O3 0.190080 0.649306 0.140940
O O4 0.972126 0.801148 0.398573
O O5 0.926903 0.500000 0.776676
O O6 0.949955 0.277475 0.800753
O O7 0.993302 0.625073 0.516341
O O8 0.756123 0.370264 0.423625
O O9 0.146923 0.000000 0.286955
#
# Coordination Sequence:
#
# PCOD9132760 Si02
#       4
#     4   4   4   4
#     4  10  22  43  61  92 128 157 209 256 298 375
#     4  12  24  41  66  93 124 165 206 254 310 364
#     4  10  22  41  62  93 127 156 210 255 298 375
#     4  10  20  41  63  84 125 164 195 253 310 352
#
# _framework density 22.931605000000001
#
# number of rings (size 3 to 8) (size 9 to 14) (size 15 to 20)
#    1.500    0.000    2.500    3.000    0.000    2.000 
#    0.000    7.500    0.000    0.000    0.000    0.000 
#    0.000    0.000    0.000    0.000    0.000    0.000 
#
# Total GULP energy -44587.966835 kJ/mol
# GULP energy per Si atom -5573.495854 kJ/mol
# Density = 2.287941 g / cm^3
# Si number density = 22.931605 Si / 1000 Ang^3
#
#
#
# Elastic Constant Matrix: (Units=GPa)
#
#
# Indices 1 2 3 4 5 6 
#
# 1 22.1609 -21.7723 2.8958 -0.0010 3.3641 0.0005
# 2 -21.7723 94.7257 7.6880 -0.0002 -9.6034 0.0001
# 3 2.8958 7.6880 81.6622 -0.0014 9.5125 0.0003
# 4 -0.0010 -0.0002 -0.0014 19.9363 0.0007 6.7622
# 5 3.3641 -9.6034 9.5125 0.0007 32.9192 -0.0005
# 6 0.0005 0.0001 0.0003 6.7622 -0.0005 52.0844
#
#
#
# Elastic Compliance Matrix: (Units=1/GPa)
#
#
# Indices 1 2 3 4 5 6 
#
# 1 0.059249 0.013773 -0.003270 0.000003 -0.001092 -0.000001
# 2 0.013773 0.014247 -0.002225 0.000001 0.003392 0.000000
# 3 -0.003270 -0.002225 0.013047 0.000001 -0.004085 0.000000
# 4 0.000003 0.000001 0.000001 0.052470 -0.000002 -0.006812
# 5 -0.001092 0.003392 -0.004085 -0.000002 0.032659 0.000001
# 6 -0.000001 0.000000 0.000000 -0.006812 0.000001 0.020084
#
#
# Mechanical properties :
#
#
# Convention : Reuss Voigt Hill
#
# Bulk Modulus (GPa) = 9.69953 19.57466 14.63709
# Shear Modulus (GPa) = 23.85881 34.97048 29.41464
#
# Velocity S-wave (km/s) = 3.22907 3.90935 3.58538
# Velocity P-wave (km/s) = 4.25928 5.37885 4.85147
#
# Compressibility (1/GPa) = 0.10309778
#
# Stress axis : x y z
#
# Youngs Moduli (GPa) = 16.87797 70.19111 76.64707
#
# Poissons Ratio (x) = -0.96673 0.25067
# Poissons Ratio (y) = -0.23246 0.17052
# Poissons Ratio (z) = 0.05520 0.15616
#
# Static dielectric constant tensor:
#      x y z
#    x 1.859700 0.000000 0.021660 
#    y 0.000000 1.770750 0.000000 
#    z 0.021660 0.000000 1.920000 
# 
# From -- ./inp_files/19605.got.cif
#   From: 2010.05.17/outbox.cif.g08.bks.cpg/sg8_10_cif.got.tgz:19605.got - 2010.06.03 19:46:02.
