data_PCOD9132485
_publ_section_title
;
Structure prediction by ZEFSAII (Michael W. Deem and Ramdas Pophale) SiO2 
 PCOD9132485
Probable space group: C M
;
_chemical_formula_sum "Si O2"
_cell_formula_units_Z 32
_cell_length_a 14.160386
_cell_length_b 19.242993
_cell_length_c 11.886486
_cell_angle_alpha 90.000000
_cell_angle_beta 31.626905
_cell_angle_gamma 90.000000
_cell_volume 1698.447481
_symmetry_space_group_name_H-M "C M"
_symmetry_group_IT_number 8
_symmetry_cell_setting 'monoclinic'
loop_
_space_group_symop_operation_xyz
x,y,z
x,-y,z
1/2+x,1/2+y,z
1/2+x,1/2-y,z
loop_
_atom_site_type_symbol
_atom_site_label
_atom_site_fract_x
_atom_site_fract_y
_atom_site_fract_z
Si Si1 0.675300 0.189857 0.489490
Si Si2 0.623259 0.918262 0.350637
Si Si3 0.456442 0.576582 0.601259
Si Si4 0.664683 0.124834 0.057038
Si Si5 0.447160 0.314159 0.412675
Si Si6 0.254603 0.214932 0.932446
Si Si7 0.786314 0.671626 0.659912
Si Si8 0.743038 0.346657 0.456820
O O1 0.706407 0.134326 0.358694
O O2 0.786095 0.171751 0.488703
O O3 0.461459 0.191993 0.728831
O O4 0.731050 0.270404 0.411198
O O5 0.694875 0.901987 0.152867
O O6 0.412906 0.894417 0.556553
O O7 0.642204 0.000000 0.357532
O O8 0.489495 0.500000 0.523419
O O9 0.445701 0.631774 0.513352
O O10 0.616628 0.600578 0.520660
O O11 0.272936 0.579449 0.858576
O O12 0.450603 0.129615 0.251947
O O13 0.740708 0.202507 0.962345
O O14 0.416654 0.237028 0.495520
O O15 0.628630 0.316190 0.156156
O O16 0.188821 0.193542 0.873605
O O17 0.680600 0.660750 0.650896
#
# Coordination Sequence:
#
# PCOD9132485 Si02
#       8
#     4   4   4   4   4   4   4   4
#     4  10  21  38  63  94 117 158 205 256 301 359
#     4  10  20  36  59  90 127 158 195 247 308 368
#     4  12  26  42  59  88 133 168 203 249 308 378
#     4  11  21  39  65  92 119 158 202 259 310 361
#     4  11  22  41  59  91 121 158 209 252 298 354
#     4  11  19  38  65  93 118 149 201 262 304 355
#     4   9  19  37  61  91 115 152 203 255 301 352
#     4  10  21  39  63  95 119 157 208 256 307 357
#
# _framework density 18.840736
#
# number of rings (size 3 to 8) (size 9 to 14) (size 15 to 20)
#    0.000    1.500    6.250    1.125    0.000    5.000 
#    0.000    2.500    0.000    0.000    0.000    0.000 
#    0.000    0.000    0.000    0.000    0.000    0.000 
#
# Total GULP energy -89301.684769 kJ/mol
# GULP energy per Si atom -5581.355298 kJ/mol
# Density = 1.879785 g / cm^3
# Si number density = 18.840736 Si / 1000 Ang^3
#
#
#
# Elastic Constant Matrix: (Units=GPa)
#
#
# Indices 1 2 3 4 5 6 
#
# 1 63.6962 25.0614 29.8374 -0.0110 -10.2500 0.0061
# 2 25.0614 67.5493 18.7780 -0.0075 -1.4336 0.0023
# 3 29.8374 18.7780 90.6193 0.0020 8.0169 -0.0055
# 4 -0.0110 -0.0075 0.0020 15.0341 0.0065 -2.8021
# 5 -10.2500 -1.4336 8.0169 0.0065 25.8075 0.0048
# 6 0.0061 0.0023 -0.0055 -2.8021 0.0048 6.0798
#
#
#
# Elastic Compliance Matrix: (Units=1/GPa)
#
#
# Indices 1 2 3 4 5 6 
#
# 1 0.023514 -0.006425 -0.007409 0.000004 0.011284 -0.000035
# 2 -0.006425 0.017559 -0.001423 0.000005 -0.001134 0.000002
# 3 -0.007409 -0.001423 0.014434 0.000000 -0.007505 0.000027
# 4 0.000004 0.000005 0.000000 0.072766 -0.000023 0.033537
# 5 0.011284 -0.001134 -0.007505 -0.000023 0.045498 -0.000065
# 6 -0.000035 0.000002 0.000027 0.033537 -0.000065 0.179935
#
#
# Mechanical properties :
#
#
# Convention : Reuss Voigt Hill
#
# Bulk Modulus (GPa) = 40.01095 41.02426 40.51760
# Shear Modulus (GPa) = 12.73723 19.26349 16.00036
#
# Velocity S-wave (km/s) = 2.60291 3.20103 2.91734
# Velocity P-wave (km/s) = 5.50600 5.95681 5.73584
#
# Compressibility (1/GPa) = 0.02499316
#
# Stress axis : x y z
#
# Youngs Moduli (GPa) = 42.52834 56.95063 69.28315
#
# Poissons Ratio (x) = 0.36589 0.51332
# Poissons Ratio (y) = 0.27323 0.09858
# Poissons Ratio (z) = 0.31510 0.08103
#
# Static dielectric constant tensor:
#      x y z
#    x 1.665560 0.000000 -0.004730 
#    y 0.000000 1.637200 0.000000 
#    z -0.004730 0.000000 1.666390 
# 
# From -- ./inp_files/22384.got.cif
#   From: 2010.05.17/outbox.cif.g08.bks.cpg/sg8_12_cif.got.tgz:22384.got - 2010.06.03 19:46:02.
