data_PCOD9132380
_publ_section_title
;
Structure prediction by ZEFSAII (Michael W. Deem and Ramdas Pophale) SiO2 
 PCOD9132380
Probable space group: C M
;
_chemical_formula_sum "Si O2"
_cell_formula_units_Z 32
_cell_length_a 26.610719
_cell_length_b 7.912484
_cell_length_c 20.021057
_cell_angle_alpha 90.000000
_cell_angle_beta 19.243312
_cell_angle_gamma 90.000000
_cell_volume 1389.369905
_symmetry_space_group_name_H-M "C M"
_symmetry_group_IT_number 8
_symmetry_cell_setting 'monoclinic'
loop_
_space_group_symop_operation_xyz
x,y,z
x,-y,z
1/2+x,1/2+y,z
1/2+x,1/2-y,z
loop_
_atom_site_type_symbol
_atom_site_label
_atom_site_fract_x
_atom_site_fract_y
_atom_site_fract_z
Si Si1 0.551440 0.704858 0.729000
Si Si2 0.905178 0.204084 0.778504
Si Si3 0.954606 0.292554 0.070208
Si Si4 0.390398 0.793219 0.301780
Si Si5 0.441839 0.191493 0.579635
Si Si6 0.272676 0.198077 0.171477
Si Si7 0.794065 0.193270 0.637838
Si Si8 0.569791 0.199746 0.201271
O O1 0.542193 0.500000 0.744503
O O2 0.523092 0.756345 0.687629
O O3 0.720763 0.756683 0.537460
O O4 0.416266 0.777408 0.943071
O O5 0.931894 0.263408 0.669910
O O6 0.911975 0.000000 0.768660
O O7 0.736073 0.264738 0.012249
O O8 0.955871 0.500000 0.067797
O O9 0.919047 0.239198 0.190121
O O10 0.830627 0.239531 0.171186
O O11 0.125603 0.234554 0.837241
O O12 0.513496 0.731286 0.200569
O O13 0.393777 0.000000 0.297307
O O14 0.620082 0.212890 0.337877
O O15 0.335579 0.299748 0.664277
O O16 0.394266 0.000000 0.628458
O O17 0.234654 0.000000 0.224808
O O18 0.933986 0.276647 0.423759
O O19 0.791280 0.000000 0.619081
O O20 0.590437 0.000000 0.166794
#
# Coordination Sequence:
#
# PCOD9132380 Si02
#       8
#     4   4   4   4   4   4   4   4
#     4  10  20  35  57  84 115 151 191 234 282 339
#     4  10  21  38  59  81 109 149 193 236 285 340
#     4   9  19  36  59  87 116 151 194 237 284 340
#     4   9  17  32  55  81 112 151 192 233 280 336
#     4  12  25  40  59  85 117 151 193 242 289 342
#     4  11  22  38  61  87 118 154 193 237 286 342
#     4  11  22  38  61  87 118 154 193 237 286 342
#     4  10  20  35  57  84 115 151 191 234 282 339
#
# _framework density 23.032021
#
# number of rings (size 3 to 8) (size 9 to 14) (size 15 to 20)
#    0.000    1.750    0.000    4.875    0.000    6.000 
#    0.000    1.875    0.000    3.000    0.000    0.000 
#    0.000    0.000    0.000    0.000    0.000    0.000 
#
# Total GULP energy -89484.637194 kJ/mol
# GULP energy per Si atom -5592.789825 kJ/mol
# Density = 2.297960 g / cm^3
# Si number density = 23.032021 Si / 1000 Ang^3
#
#
#
# Elastic Constant Matrix: (Units=GPa)
#
#
# Indices 1 2 3 4 5 6 
#
# 1 60.4975 -0.2510 -20.5827 -0.0001 -2.6098 0.0000
# 2 -0.2510 25.1762 -2.8408 0.0001 -7.3591 0.0001
# 3 -20.5827 -2.8408 58.0810 -0.0002 -6.4154 0.0000
# 4 -0.0001 0.0001 -0.0002 15.7688 0.0000 9.2184
# 5 -2.6098 -7.3591 -6.4154 0.0000 41.5593 0.0000
# 6 0.0000 0.0001 0.0000 9.2184 0.0000 3.0894
#
#
#
# Elastic Compliance Matrix: (Units=1/GPa)
#
#
# Indices 1 2 3 4 5 6 
#
# 1 0.019077 0.001758 0.007135 0.000000 0.002611 0.000001
# 2 0.001758 0.042542 0.003610 -0.000001 0.008201 0.000001
# 3 0.007135 0.003610 0.020390 -0.000001 0.004235 0.000001
# 4 0.000000 -0.000001 -0.000001 -0.085193 0.000000 0.254207
# 5 0.002611 0.008201 0.004235 0.000000 0.026332 0.000000
# 6 0.000001 0.000001 0.000001 0.254207 0.000000 -0.434839
#
#
# Mechanical properties :
#
#
# Convention : Reuss Voigt Hill
#
# Bulk Modulus (GPa) = 9.34445 10.71173 10.02809
# Shear Modulus (GPa) = -12.46804 23.24544 5.38870
#
# Velocity S-wave (km/s) = -2.32919 3.18034 1.53125
# Velocity P-wave (km/s) = 1.77975 4.25993 2.73674
#
# Compressibility (1/GPa) = 0.10701538
#
# Stress axis : x y z
#
# Youngs Moduli (GPa) = 52.41913 23.50612 49.04337
#
# Poissons Ratio (x) = -0.04133 -0.34992
# Poissons Ratio (y) = -0.09217 -0.17704
# Poissons Ratio (z) = -0.37400 -0.08485
#
# Static dielectric constant tensor:
#      x y z
#    x 1.848420 0.000000 0.009300 
#    y 0.000000 1.840170 0.000000 
#    z 0.009300 0.000000 1.848910 
# 
# From -- ./inp_files/31070.got.cif
#   From: 2010.05.17/outbox.cif.g08.bks.cpg/sg8_16_cif.got.tgz:31070.got - 2010.06.03 19:46:02.
