data_PCOD9132873
_publ_section_title
;
Structure prediction by ZEFSAII (Michael W. Deem and Ramdas Pophale) SiO2 
 PCOD9132873
Probable space group: C M
;
_chemical_formula_sum "Si O2"
_cell_formula_units_Z 28
_cell_length_a 20.337936
_cell_length_b 11.458374
_cell_length_c 6.411869
_cell_angle_alpha 90.000000
_cell_angle_beta 118.660760
_cell_angle_gamma 90.000000
_cell_volume 1311.140362
_symmetry_space_group_name_H-M "C M"
_symmetry_group_IT_number 8
_symmetry_cell_setting 'monoclinic'
loop_
_space_group_symop_operation_xyz
x,y,z
x,-y,z
1/2+x,1/2+y,z
1/2+x,1/2-y,z
loop_
_atom_site_type_symbol
_atom_site_label
_atom_site_fract_x
_atom_site_fract_y
_atom_site_fract_z
Si Si1 0.143810 0.744526 0.941730
Si Si2 0.245855 0.676823 0.730483
Si Si3 0.017643 0.776314 0.464013
Si Si4 0.105826 0.623705 0.273789
Si Si5 0.919682 0.130849 0.961897
Si Si6 0.927217 0.640175 0.666702
Si Si7 0.252696 0.868020 0.430810
O O1 0.198627 0.675389 0.869540
O O2 0.081932 0.818962 0.722438
O O3 0.100248 0.654110 0.023879
O O4 0.195357 0.815082 0.178347
O O5 0.192900 0.620378 0.473928
O O6 0.330118 0.632703 0.863762
O O7 0.249656 0.808483 0.651957
O O8 0.067068 0.717806 0.358360
O O9 0.970961 0.681848 0.526854
O O10 0.961642 0.856772 0.248194
O O11 0.070851 0.500000 0.268911
O O12 0.937178 0.249619 0.849801
O O13 0.938311 0.000000 0.901318
O O14 0.941180 0.500000 0.741150
O O15 0.838044 0.645084 0.485283
O O16 0.232587 0.000000 0.426285
#
# Coordination Sequence:
#
# PCOD9132873 Si02
#       7
#     4   4   4   4   4   4   4
#     4  10  21  37  57  85 119 155 197 245 301 360
#     4   9  20  39  60  86 117 154 198 248 302 356
#     4  11  23  38  58  89 125 161 199 244 303 366
#     4  10  21  38  61  87 114 150 201 256 304 354
#     4  11  24  41  62  92 128 163 202 249 304 368
#     4  10  22  42  67  92 120 159 207 257 306 357
#     4   9  19  37  61  87 114 150 201 253 299 353
#
# _framework density 21.355457000000001
#
# number of rings (size 3 to 8) (size 9 to 14) (size 15 to 20)
#    0.000    2.000    0.000    2.571    0.000    7.429 
#    0.000   12.857    0.000    0.000    0.000    0.000 
#    0.000    0.000    0.000    0.000    0.000    0.000 
#
# Total GULP energy -77962.133053 kJ/mol
# GULP energy per Si atom -5568.723790 kJ/mol
# Density = 2.130685 g / cm^3
# Si number density = 21.355457 Si / 1000 Ang^3
#
#
#
# Elastic Constant Matrix: (Units=GPa)
#
#
# Indices 1 2 3 4 5 6 
#
# 1 87.6337 13.3990 31.7976 0.0000 -2.7691 0.0000
# 2 13.3990 115.5902 41.1816 0.0000 5.1214 0.0000
# 3 31.7976 41.1816 104.7151 0.0000 13.2707 0.0000
# 4 0.0000 0.0000 0.0000 3.7007 0.0000 -10.7760
# 5 -2.7691 5.1214 13.2707 0.0000 44.2708 0.0000
# 6 0.0000 0.0000 0.0000 -10.7760 0.0000 3.6883
#
#
#
# Elastic Compliance Matrix: (Units=1/GPa)
#
#
# Indices 1 2 3 4 5 6 
#
# 1 0.013006 -0.000115 -0.004167 0.000000 0.002076 0.000000
# 2 -0.000115 0.010062 -0.003923 0.000000 0.000005 0.000000
# 3 -0.004167 -0.003923 0.012820 0.000000 -0.003650 0.000000
# 4 0.000000 0.000000 0.000000 -0.035992 0.000000 -0.105159
# 5 0.002076 0.000005 -0.003650 0.000000 0.023812 0.000000
# 6 0.000000 0.000000 0.000000 -0.105159 0.000000 -0.036113
#
#
# Mechanical properties :
#
#
# Convention : Reuss Voigt Hill
#
# Bulk Modulus (GPa) = 51.33839 53.41060 52.37449
# Shear Modulus (GPa) = 476.25058 25.10266 250.67662
#
# Velocity S-wave (km/s) = 14.94976 3.43223 10.84609
# Velocity P-wave (km/s) = 17.94675 6.38526 13.46955
#
# Compressibility (1/GPa) = 0.01947860
#
# Stress axis : x y z
#
# Youngs Moduli (GPa) = 76.88495 99.38434 78.00019
#
# Poissons Ratio (x) = 0.01142 0.32506
# Poissons Ratio (y) = 0.00884 0.30598
# Poissons Ratio (z) = 0.32041 0.38986
#
# Static dielectric constant tensor:
#      x y z
#    x 1.784070 0.000000 0.031800 
#    y 0.000000 1.837380 0.000000 
#    z 0.031800 0.000000 1.791130 
# 
# From -- ./inp_files/5386.got.cif
#   From: 2010.05.17/outbox.cif.g08.bks.cpg/sg8_3_cif.got.tgz:5386.got - 2010.06.03 19:46:02.
