data_PCOD9132449
_publ_section_title
;
Structure prediction by ZEFSAII (Michael W. Deem and Ramdas Pophale) SiO2 
 PCOD9132449
Probable space group: C M
;
_chemical_formula_sum "Si O2"
_cell_formula_units_Z 32
_cell_length_a 15.023498
_cell_length_b 8.757977
_cell_length_c 25.767690
_cell_angle_alpha 90.000000
_cell_angle_beta 150.484759
_cell_angle_gamma 90.000000
_cell_volume 1670.295459
_symmetry_space_group_name_H-M "C M"
_symmetry_group_IT_number 8
_symmetry_cell_setting 'monoclinic'
loop_
_space_group_symop_operation_xyz
x,y,z
x,-y,z
1/2+x,1/2+y,z
1/2+x,1/2-y,z
loop_
_atom_site_type_symbol
_atom_site_label
_atom_site_fract_x
_atom_site_fract_y
_atom_site_fract_z
Si Si1 0.553690 0.683301 0.083140
Si Si2 0.835469 0.676334 0.695531
Si Si3 0.797397 0.317133 0.471364
Si Si4 0.110383 0.175390 0.690053
Si Si5 0.666608 0.814264 0.925919
Si Si6 0.455680 0.185573 0.922530
Si Si7 0.009518 0.682237 0.475514
Si Si8 0.913156 0.183156 0.315973
O O1 0.560627 0.500000 0.086410
O O2 0.732926 0.747922 0.200261
O O3 0.371973 0.732038 0.021478
O O4 0.527511 0.744947 0.011795
O O5 0.846745 0.500000 0.683657
O O6 0.727839 0.675998 0.696111
O O7 0.713632 0.771269 0.594387
O O8 0.032457 0.737024 0.811588
O O9 0.797873 0.500000 0.471404
O O10 0.593177 0.264898 0.376462
O O11 0.929107 0.263874 0.584386
O O12 0.885449 0.267755 0.461511
O O13 0.250847 0.235148 0.804153
O O14 0.065474 0.000000 0.679109
O O15 0.582733 0.768751 0.938543
O O16 0.658278 0.000000 0.920264
O O17 0.454757 0.000000 0.924569
O O18 0.996940 0.500000 0.463529
O O19 0.943661 0.762798 0.390215
O O20 0.903847 0.000000 0.309133
#
# Coordination Sequence:
#
# PCOD9132449 Si02
#       8
#     4   4   4   4   4   4   4   4
#     4  11  23  38  55  79 106 137 181 230 266 303
#     4   8  14  30  55  82 109 141 175 207 253 322
#     4   9  20  37  57  79 108 143 176 212 265 322
#     4   8  15  29  54  84 111 137 172 214 258 310
#     4   8  17  35  58  79 107 145 178 208 258 322
#     4   9  18  36  58  80 108 144 176 209 260 322
#     4  10  20  36  57  83 110 137 172 221 269 310
#     4  11  24  41  56  74 103 144 186 221 261 319
#
# _framework density 19.158289
#
# number of rings (size 3 to 8) (size 9 to 14) (size 15 to 20)
#    0.000    2.750    0.000    2.625    0.000    4.000 
#    0.000   13.125    0.000    0.000    0.000    0.000 
#    0.000    0.000    0.000    0.000    0.000    0.000 
#
# Total GULP energy -89274.215331 kJ/mol
# GULP energy per Si atom -5579.638458 kJ/mol
# Density = 1.911468 g / cm^3
# Si number density = 19.158289 Si / 1000 Ang^3
#
#
#
# Elastic Constant Matrix: (Units=GPa)
#
#
# Indices 1 2 3 4 5 6 
#
# 1 123.7919 35.9765 124.1685 0.0000 7.5867 0.0000
# 2 35.9765 33.2604 58.5141 0.0001 2.1698 0.0000
# 3 124.1685 58.5141 268.3812 0.0003 10.8471 0.0000
# 4 0.0000 0.0001 0.0003 -57.9882 0.0000 17.2552
# 5 7.5867 2.1698 10.8471 0.0000 34.0205 0.0000
# 6 0.0000 0.0000 0.0000 17.2552 0.0000 17.4095
#
#
#
# Elastic Compliance Matrix: (Units=1/GPa)
#
#
# Indices 1 2 3 4 5 6 
#
# 1 0.016060 -0.006987 -0.005856 0.000000 -0.001269 0.000000
# 2 -0.006987 0.051816 -0.008099 0.000000 0.000836 0.000000
# 3 -0.005856 -0.008099 0.008233 0.000000 -0.000803 0.000000
# 4 0.000000 0.000000 0.000000 -0.013317 0.000000 0.013199
# 5 -0.001269 0.000836 -0.000803 0.000000 0.029880 0.000000
# 6 0.000000 0.000000 0.000000 0.013199 0.000000 0.044358
#
#
# Mechanical properties :
#
#
# Convention : Reuss Voigt Hill
#
# Bulk Modulus (GPa) = 29.21641 95.86132 62.53887
# Shear Modulus (GPa) = 26.27146 12.47331 19.37239
#
# Velocity S-wave (km/s) = 3.70710 2.55437 3.18335
# Velocity P-wave (km/s) = 5.79712 7.67104 6.79895
#
# Compressibility (1/GPa) = 0.03422734
#
# Stress axis : x y z
#
# Youngs Moduli (GPa) = 62.26757 19.29891 121.45833
#
# Poissons Ratio (x) = 0.13484 0.71120
# Poissons Ratio (y) = 0.43506 0.98363
# Poissons Ratio (z) = 0.36461 0.15629
#
# Static dielectric constant tensor:
#      x y z
#    x 1.698300 0.000000 0.019480 
#    y 0.000000 1.651600 0.000000 
#    z 0.019480 0.000000 1.646830 
# 
# From -- ./inp_files/26574.got.cif
#   From: 2010.05.17/outbox.cif.g08.bks.cpg/sg8_14_cif.got.tgz:26574.got - 2010.06.03 19:46:02.
