data_PCOD9132667
_publ_section_title
;
Structure prediction by ZEFSAII (Michael W. Deem and Ramdas Pophale) SiO2 
 PCOD9132667
Probable space group: C M
;
_chemical_formula_sum "Si O2"
_cell_formula_units_Z 32
_cell_length_a 8.357806
_cell_length_b 28.801579
_cell_length_c 5.661171
_cell_angle_alpha 90.000000
_cell_angle_beta 98.933090
_cell_angle_gamma 90.000000
_cell_volume 1346.216188
_symmetry_space_group_name_H-M "C M"
_symmetry_group_IT_number 8
_symmetry_cell_setting 'monoclinic'
loop_
_space_group_symop_operation_xyz
x,y,z
x,-y,z
1/2+x,1/2+y,z
1/2+x,1/2-y,z
loop_
_atom_site_type_symbol
_atom_site_label
_atom_site_fract_x
_atom_site_fract_y
_atom_site_fract_z
Si Si1 0.245770 0.635917 0.385760
Si Si2 0.445021 0.308282 0.099964
Si Si3 0.200298 0.946829 0.490247
Si Si4 0.868126 0.366931 0.265044
Si Si5 0.999276 0.899194 0.816065
Si Si6 0.854180 0.951297 0.160007
Si Si7 0.124736 0.260094 0.876696
Si Si8 0.314144 0.179584 0.731817
O O1 0.354220 0.678318 0.318633
O O2 0.349505 0.617613 0.625532
O O3 0.252548 0.593947 0.195629
O O4 0.056580 0.642470 0.369697
O O5 0.516092 0.356966 0.010614
O O6 0.287155 0.290280 0.919306
O O7 0.567274 0.264935 0.109176
O O8 0.310349 0.919586 0.321725
O O9 0.160090 0.914876 0.711359
O O10 0.017298 0.950174 0.351227
O O11 0.256210 0.000000 0.549315
O O12 0.781414 0.340802 0.464026
O O13 0.844342 0.348604 0.989977
O O14 0.929534 0.945096 0.920664
O O15 0.767330 0.000000 0.173609
O O16 0.165742 0.214339 0.739865
O O17 0.978305 0.290635 0.754605
#
# Coordination Sequence:
#
# PCOD9132667 Si02
#       8
#     4   4   4   4   4   4   4   4
#     4  10  22  38  63  88 131 173 218 265 334 401
#     4  10  20  40  58  91 122 170 213 275 325 392
#     4  10  23  41  65  98 130 171 222 278 332 404
#     4  12  26  44  68  98 142 177 223 272 346 400
#     4  10  20  38  66  91 124 171 220 273 336 394
#     4   9  20  39  65  94 125 165 223 278 330 398
#     4  10  22  43  64  93 133 169 230 274 331 394
#     4  11  26  45  67  99 133 182 221 281 333 399
#
# _framework density 23.770330000000001
#
# number of rings (size 3 to 8) (size 9 to 14) (size 15 to 20)
#    0.000    1.750    1.250    1.875    8.750    2.000 
#    9.000    0.000    0.000    0.000    0.000    0.000 
#    0.000    0.000    0.000    0.000    0.000    0.000 
#
# Total GULP energy -89143.563741 kJ/mol
# GULP energy per Si atom -5571.472734 kJ/mol
# Density = 2.371623 g / cm^3
# Si number density = 23.770330 Si / 1000 Ang^3
#
#
#
# Elastic Constant Matrix: (Units=GPa)
#
#
# Indices 1 2 3 4 5 6 
#
# 1 80.6143 34.8582 14.4258 0.0000 -16.9592 0.0000
# 2 34.8582 111.3866 41.9876 0.0000 -10.1013 0.0000
# 3 14.4258 41.9876 97.2178 0.0000 -2.0003 0.0000
# 4 0.0000 0.0000 0.0000 5.8862 0.0000 2.5577
# 5 -16.9592 -10.1013 -2.0003 0.0000 26.0871 0.0000
# 6 0.0000 0.0000 0.0000 2.5577 0.0000 26.3606
#
#
#
# Elastic Compliance Matrix: (Units=1/GPa)
#
#
# Indices 1 2 3 4 5 6 
#
# 1 0.016109 -0.004067 -0.000451 0.000000 0.008863 0.000000
# 2 -0.004067 0.012141 -0.004605 0.000000 0.001704 0.000000
# 3 -0.000451 -0.004605 0.012319 0.000000 -0.001132 0.000000
# 4 0.000000 0.000000 0.000000 0.177367 0.000000 -0.017210
# 5 0.008863 0.001704 -0.001132 0.000000 0.044668 0.000000
# 6 0.000000 0.000000 0.000000 -0.017210 0.000000 0.039605
#
#
# Mechanical properties :
#
#
# Convention : Reuss Voigt Hill
#
# Bulk Modulus (GPa) = 44.80057 52.41800 48.60929
# Shear Modulus (GPa) = 15.24872 24.86326 20.05599
#
# Velocity S-wave (km/s) = 2.53554 3.23767 2.90787
# Velocity P-wave (km/s) = 5.24024 6.00636 5.63633
#
# Compressibility (1/GPa) = 0.02232114
#
# Stress axis : x y z
#
# Youngs Moduli (GPa) = 62.07812 82.36556 81.17722
#
# Poissons Ratio (x) = 0.33501 0.03664
# Poissons Ratio (y) = 0.25249 0.37382
# Poissons Ratio (z) = 0.02802 0.37929
#
# Static dielectric constant tensor:
#      x y z
#    x 1.889720 0.000000 -0.041270 
#    y 0.000000 1.985410 0.000000 
#    z -0.041270 0.000000 2.012380 
# 
# From -- ./inp_files/2003.got.cif
#   From: 2010.05.17/outbox.cif.g08.bks.cpg/sg8_2_cif.got.tgz:2003.got - 2010.06.03 19:46:02.
