data_PCOD9132310
_publ_section_title
;
Structure prediction by ZEFSAII (Michael W. Deem and Ramdas Pophale) SiO2 
 PCOD9132310
Probable space group: C M
;
_chemical_formula_sum "Si O2"
_cell_formula_units_Z 28
_cell_length_a 14.186066
_cell_length_b 9.706796
_cell_length_c 20.455434
_cell_angle_alpha 90.000000
_cell_angle_beta 153.788706
_cell_angle_gamma 90.000000
_cell_volume 1244.104827
_symmetry_space_group_name_H-M "C M"
_symmetry_group_IT_number 8
_symmetry_cell_setting 'monoclinic'
loop_
_space_group_symop_operation_xyz
x,y,z
x,-y,z
1/2+x,1/2+y,z
1/2+x,1/2-y,z
loop_
_atom_site_type_symbol
_atom_site_label
_atom_site_fract_x
_atom_site_fract_y
_atom_site_fract_z
Si Si1 0.718800 0.771858 0.382610
Si Si2 0.132948 0.663822 0.807001
Si Si3 0.332127 0.344496 0.315448
Si Si4 0.794218 0.148880 0.141830
Si Si5 0.714805 0.845978 0.523761
Si Si6 0.684138 0.160307 0.693577
Si Si7 0.148124 0.837266 0.937121
O O1 0.686716 0.828798 0.289366
O O2 0.551617 0.649591 0.292057
O O3 0.676309 0.857763 0.421799
O O4 0.971126 0.741647 0.544043
O O5 0.114912 0.500000 0.808684
O O6 0.248494 0.683863 0.809367
O O7 0.232323 0.746521 0.929249
O O8 0.905631 0.737439 0.652029
O O9 0.426626 0.500000 0.377739
O O10 0.238878 0.334965 0.183957
O O11 0.506480 0.223259 0.424907
O O12 0.708135 0.000000 0.066005
O O13 0.724548 0.273732 0.052882
O O14 0.762064 0.000000 0.577879
O O15 0.891223 0.185913 0.779250
O O16 0.626451 0.000000 0.652934
O O17 0.189855 0.000000 0.957117
#
# Coordination Sequence:
#
# PCOD9132310 Si02
#       7
#     4   4   4   4   4   4   4
#     4  10  20  37  63  88 116 153 197 246 291 340
#     4  10  20  37  60  84 115 154 196 242 293 349
#     4  10  21  37  58  84 116 156 199 242 290 345
#     4  10  23  41  59  84 119 158 199 241 292 354
#     4  10  20  34  55  88 124 153 190 240 294 351
#     4   9  20  38  60  88 117 149 193 241 291 349
#     4  11  23  40  61  86 119 155 194 244 299 352
#
# _framework density 22.506142000000001
#
# number of rings (size 3 to 8) (size 9 to 14) (size 15 to 20)
#    0.000    2.000    0.000    3.000    0.000    9.714 
#    0.000   10.714    0.000    0.000    0.000    0.000 
#    0.000    0.000    0.000    0.000    0.000    0.000 
#
# Total GULP energy -78088.063554 kJ/mol
# GULP energy per Si atom -5577.718825 kJ/mol
# Density = 2.245492 g / cm^3
# Si number density = 22.506142 Si / 1000 Ang^3
#
#
#
# Elastic Constant Matrix: (Units=GPa)
#
#
# Indices 1 2 3 4 5 6 
#
# 1 157.8110 58.6044 22.4363 0.0002 -37.9374 -0.0001
# 2 58.6044 126.9214 27.8302 -0.0002 -17.1332 0.0000
# 3 22.4363 27.8302 47.3266 0.0012 -15.2998 0.0002
# 4 0.0002 -0.0002 0.0012 23.1704 0.0003 -5.5636
# 5 -37.9374 -17.1332 -15.2998 0.0003 38.9028 0.0000
# 6 -0.0001 0.0000 0.0002 -5.5636 0.0000 9.0636
#
#
#
# Elastic Compliance Matrix: (Units=1/GPa)
#
#
# Indices 1 2 3 4 5 6 
#
# 1 0.009424 -0.003302 -0.000029 0.000000 0.007725 0.000000
# 2 -0.003302 0.010365 -0.004691 0.000000 -0.000501 0.000000
# 3 -0.000029 -0.004691 0.026608 -0.000002 0.008371 -0.000002
# 4 0.000000 0.000000 -0.000002 0.050620 -0.000001 0.031072
# 5 0.007725 -0.000501 0.008371 -0.000001 0.036309 -0.000001
# 6 0.000000 0.000000 -0.000002 0.031072 -0.000001 0.129405
#
#
# Mechanical properties :
#
#
# Convention : Reuss Voigt Hill
#
# Bulk Modulus (GPa) = 32.94625 61.08898 47.01762
# Shear Modulus (GPa) = 17.30744 29.10656 23.20700
#
# Velocity S-wave (km/s) = 2.77611 3.60011 3.21462
# Velocity P-wave (km/s) = 4.99463 6.66958 5.89192
#
# Compressibility (1/GPa) = 0.03035246
#
# Stress axis : x y z
#
# Youngs Moduli (GPa) = 106.11062 96.48007 37.58271
#
# Poissons Ratio (x) = 0.31862 0.00107
# Poissons Ratio (y) = 0.35043 0.17631
# Poissons Ratio (z) = 0.00302 0.45261
#
# Static dielectric constant tensor:
#      x y z
#    x 1.850390 0.000000 -0.037890 
#    y 0.000000 1.813870 0.000000 
#    z -0.037890 0.000000 1.914570 
# 
# From -- ./inp_files/21459.got.cif
#   From: 2010.05.17/outbox.cif.g08.bks.cpg/sg8_11_cif.got.tgz:21459.got - 2010.06.03 19:46:02.
