data_PCOD9132248
_publ_section_title
;
Structure prediction by ZEFSAII (Michael W. Deem and Ramdas Pophale) SiO2 
 PCOD9132248
Probable space group: C M
;
_chemical_formula_sum "Si O2"
_cell_formula_units_Z 32
_cell_length_a 20.707128
_cell_length_b 7.381079
_cell_length_c 10.892844
_cell_angle_alpha 90.000000
_cell_angle_beta 135.971732
_cell_angle_gamma 90.000000
_cell_volume 1157.108410
_symmetry_space_group_name_H-M "C M"
_symmetry_group_IT_number 8
_symmetry_cell_setting 'monoclinic'
loop_
_space_group_symop_operation_xyz
x,y,z
x,-y,z
1/2+x,1/2+y,z
1/2+x,1/2-y,z
loop_
_atom_site_type_symbol
_atom_site_label
_atom_site_fract_x
_atom_site_fract_y
_atom_site_fract_z
Si Si1 0.826520 0.285610 0.199180
Si Si2 0.171580 0.219021 0.148993
Si Si3 0.557814 0.719562 0.743692
Si Si4 0.881676 0.214921 0.633187
Si Si5 0.991358 0.780426 0.030714
Si Si6 0.704871 0.717275 0.527042
Si Si7 0.810631 0.288589 0.913521
Si Si8 0.542280 0.717925 0.458198
O O1 0.806617 0.500000 0.171766
O O2 0.935984 0.265942 0.334556
O O3 0.774129 0.213439 0.248601
O O4 0.789719 0.210704 0.018546
O O5 0.117827 0.259763 0.946055
O O6 0.097179 0.282455 0.150050
O O7 0.174990 0.000000 0.170762
O O8 0.556979 0.500000 0.737443
O O9 0.452057 0.785468 0.625955
O O10 0.589170 0.776785 0.651393
O O11 0.933604 0.275218 0.829694
O O12 0.772336 0.250152 0.503173
O O13 0.889642 0.000000 0.640719
O O14 0.921857 0.721494 0.042729
O O15 0.994748 0.000000 0.042031
O O16 0.699829 0.500000 0.520884
O O17 0.762975 0.785699 0.725724
O O18 0.601720 0.782292 0.422506
O O19 0.783687 0.500000 0.879767
O O20 0.543445 0.500000 0.452674
#
# Coordination Sequence:
#
# PCOD9132248 Si02
#       8
#     4   4   4   4   4   4   4   4
#     4  10  20  33  48  67  93 124 156 190 227 268
#     4   8  14  28  51  73  90 115 154 192 225 268
#     4   8  14  28  51  73  90 115 154 192 225 268
#     4   8  14  26  47  73  95 115 145 188 232 271
#     4   8  14  26  47  73  95 115 145 188 232 271
#     4   9  17  30  49  71  93 119 152 189 228 270
#     4   9  17  30  49  71  93 119 152 189 228 270
#     4  10  20  33  48  67  93 124 156 190 227 268
#
# _framework density 27.655141
#
# number of rings (size 3 to 8) (size 9 to 14) (size 15 to 20)
#    0.000    3.250    0.000    2.250    0.000    4.000 
#    0.000    2.500    0.000    9.750    0.000    0.000 
#    0.000    0.000    0.000    0.000    0.000    0.000 
#
# Total GULP energy -89346.376196 kJ/mol
# GULP energy per Si atom -5584.148512 kJ/mol
# Density = 2.759220 g / cm^3
# Si number density = 27.655141 Si / 1000 Ang^3
#
#
#
# Elastic Constant Matrix: (Units=GPa)
#
#
# Indices 1 2 3 4 5 6 
#
# 1 270.3967 4.6978 33.6547 0.0000 19.4793 0.0000
# 2 4.6978 93.2860 -15.3933 0.0000 -2.1246 0.0000
# 3 33.6547 -15.3933 91.8486 0.0000 33.9935 0.0000
# 4 0.0000 0.0000 0.0000 5.3909 0.0000 10.7935
# 5 19.4793 -2.1246 33.9935 0.0000 56.6529 0.0000
# 6 0.0000 0.0000 0.0000 10.7935 0.0000 10.0062
#
#
#
# Elastic Compliance Matrix: (Units=1/GPa)
#
#
# Indices 1 2 3 4 5 6 
#
# 1 0.003908 -0.000422 -0.001285 0.000000 -0.000589 0.000000
# 2 -0.000422 0.011106 0.002324 0.000000 -0.000833 0.000000
# 3 -0.001285 0.002324 0.014850 0.000000 -0.008381 0.000000
# 4 0.000000 0.000000 0.000000 -0.159955 0.000000 0.172539
# 5 -0.000589 -0.000833 -0.008381 0.000000 0.022852 0.000000
# 6 0.000000 0.000000 0.000000 0.172539 0.000000 -0.086176
#
#
# Mechanical properties :
#
#
# Convention : Reuss Voigt Hill
#
# Bulk Modulus (GPa) = 32.15691 55.71664 43.93677
# Shear Modulus (GPa) = -27.13192 43.24814 8.05811
#
# Velocity S-wave (km/s) = -3.13562 3.95883 1.70883
# Velocity P-wave (km/s) = 1.20682 6.40992 4.45144
#
# Compressibility (1/GPa) = 0.03109752
#
# Stress axis : x y z
#
# Youngs Moduli (GPa) = 255.89041 90.04518 67.34103
#
# Poissons Ratio (x) = 0.03802 0.08652
# Poissons Ratio (y) = 0.10804 -0.15651
# Poissons Ratio (z) = 0.32878 -0.20928
#
# Static dielectric constant tensor:
#      x y z
#    x 2.181710 0.000000 0.002380 
#    y 0.000000 2.070850 0.000000 
#    z 0.002380 0.000000 2.292240 
# 
# From -- ./inp_files/20593.got.cif
#   From: 2010.05.17/outbox.cif.g08.bks.cpg/sg8_11_cif.got.tgz:20593.got - 2010.06.03 19:46:02.
