data_PCOD9132634
_publ_section_title
;
Structure prediction by ZEFSAII (Michael W. Deem and Ramdas Pophale) SiO2 
 PCOD9132634
Probable space group: C M
;
_chemical_formula_sum "Si O2"
_cell_formula_units_Z 20
_cell_length_a 10.749252
_cell_length_b 10.197708
_cell_length_c 8.782386
_cell_angle_alpha 90.000000
_cell_angle_beta 116.302429
_cell_angle_gamma 90.000000
_cell_volume 863.034104
_symmetry_space_group_name_H-M "C M"
_symmetry_group_IT_number 8
_symmetry_cell_setting 'monoclinic'
loop_
_space_group_symop_operation_xyz
x,y,z
x,-y,z
1/2+x,1/2+y,z
1/2+x,1/2-y,z
loop_
_atom_site_type_symbol
_atom_site_label
_atom_site_fract_x
_atom_site_fract_y
_atom_site_fract_z
Si Si1 0.551770 0.293240 0.688730
Si Si2 0.764321 0.500000 0.679949
Si Si3 0.405566 0.500000 0.798548
Si Si4 0.702705 0.500000 0.295251
Si Si5 0.783079 0.211351 0.314859
Si Si6 0.141792 0.500000 0.433966
Si Si7 0.038258 0.500000 0.696673
Si Si8 0.373439 0.500000 0.128246
O O1 0.679832 0.374928 0.691016
O O2 0.496556 0.373104 0.804292
O O3 0.421607 0.291122 0.498334
O O4 0.595506 0.146223 0.744401
O O5 0.762902 0.500000 0.497386
O O6 0.928589 0.500000 0.781046
O O7 0.278380 0.500000 0.613610
O O8 0.351219 0.500000 0.937841
O O9 0.744130 0.359360 0.250474
O O10 0.538771 0.500000 0.231599
O O11 0.662761 0.131218 0.343294
O O12 0.815447 0.125159 0.185518
O O13 0.022161 0.500000 0.497074
#
# Coordination Sequence:
#
# PCOD9132634 Si02
#       8
#     4   2   2   2   4   2   2   2
#     4  10  20  38  61  92 119 151 199 253 292 354
#     4  11  20  35  59  94 126 147 192 248 307 348
#     4   9  22  44  61  82 126 167 197 238 307 354
#     4  12  20  35  64  94 119 153 203 245 297 357
#     4  10  20  38  64  90 117 155 199 248 300 346
#     4   9  21  38  63  93 120 151 201 254 299 353
#     4  12  22  33  65  95 118 152 197 261 301 340
#     4  11  23  43  60  82 129 170 190 242 299 362
#
# _framework density 23.174054000000002
#
# number of rings (size 3 to 8) (size 9 to 14) (size 15 to 20)
#    0.000    1.600    4.000    2.400    2.800    0.000 
#    3.600    1.000    0.000    0.000   10.400    0.000 
#    0.000    0.000    0.000    0.000    0.000    0.000 
#
# Total GULP energy -55830.601601 kJ/mol
# GULP energy per Si atom -5583.060160 kJ/mol
# Density = 2.312131 g / cm^3
# Si number density = 23.174054 Si / 1000 Ang^3
#
#
#
# Elastic Constant Matrix: (Units=GPa)
#
#
# Indices 1 2 3 4 5 6 
#
# 1 138.3193 108.1672 38.8633 0.0000 -13.3573 0.0000
# 2 108.1672 302.9978 81.4295 0.0000 23.6118 0.0000
# 3 38.8633 81.4295 109.5310 0.0000 52.7800 0.0000
# 4 0.0000 0.0000 0.0000 -10.4581 0.0000 -1.7126
# 5 -13.3573 23.6118 52.7800 0.0000 208.3914 0.0000
# 6 0.0000 0.0000 0.0000 -1.7126 0.0000 13.4692
#
#
#
# Elastic Compliance Matrix: (Units=1/GPa)
#
#
# Indices 1 2 3 4 5 6 
#
# 1 0.010570 -0.003355 -0.002011 0.000000 0.001567 0.000000
# 2 -0.003355 0.005212 -0.002616 0.000000 -0.000143 0.000000
# 3 -0.002011 -0.002616 0.013335 0.000000 -0.003210 0.000000
# 4 0.000000 0.000000 0.000000 -0.093670 0.000000 -0.011910
# 5 0.001567 -0.000143 -0.003210 0.000000 0.005728 0.000000
# 6 0.000000 0.000000 0.000000 -0.011910 0.000000 0.072729
#
#
# Mechanical properties :
#
#
# Convention : Reuss Voigt Hill
#
# Bulk Modulus (GPa) = 76.02736 111.97425 94.00080
# Shear Modulus (GPa) = 145.97908 63.77304 104.87606
#
# Velocity S-wave (km/s) = 7.94539 5.25156 6.73454
# Velocity P-wave (km/s) = 10.81899 9.23014 10.05600
#
# Compressibility (1/GPa) = 0.01315316
#
# Stress axis : x y z
#
# Youngs Moduli (GPa) = 94.61113 191.86260 74.99236
#
# Poissons Ratio (x) = 0.64367 0.15083
# Poissons Ratio (y) = 0.31740 0.19614
# Poissons Ratio (z) = 0.19028 0.50182
#
# Static dielectric constant tensor:
#      x y z
#    x 0.556120 0.000000 -0.982770 
#    y 0.000000 1.873360 0.000000 
#    z -0.982770 0.000000 1.098800 
# 
# From -- ./inp_files/9915.got.cif
#   From: 2010.05.17/outbox.cif.g08.bks.cpg/sg8_5_cif.got.tgz:9915.got - 2010.06.03 19:46:02.
