data_PCOD9132013
_publ_section_title
;
Structure prediction by ZEFSAII (Michael W. Deem and Ramdas Pophale) SiO2 
 PCOD9132013
Probable space group: C M
;
_chemical_formula_sum "Si O2"
_cell_formula_units_Z 32
_cell_length_a 20.882048
_cell_length_b 8.847550
_cell_length_c 12.512890
_cell_angle_alpha 90.000000
_cell_angle_beta 127.479086
_cell_angle_gamma 90.000000
_cell_volume 1834.602545
_symmetry_space_group_name_H-M "C M"
_symmetry_group_IT_number 8
_symmetry_cell_setting 'monoclinic'
loop_
_space_group_symop_operation_xyz
x,y,z
x,-y,z
1/2+x,1/2+y,z
1/2+x,1/2-y,z
loop_
_atom_site_type_symbol
_atom_site_label
_atom_site_fract_x
_atom_site_fract_y
_atom_site_fract_z
Si Si1 0.798770 0.680844 0.593620
Si Si2 0.541970 0.180448 0.318856
Si Si3 0.689571 0.819024 0.309777
Si Si4 0.121668 0.318765 0.013214
Si Si5 0.651307 0.681438 0.600999
Si Si6 0.702818 0.682126 0.887233
Si Si7 0.389025 0.182134 0.030860
Si Si8 0.444512 0.319715 0.862209
O O1 0.807200 0.500000 0.604631
O O2 0.761607 0.735307 0.443830
O O3 0.731282 0.725133 0.614372
O O4 0.882045 0.758216 0.710523
O O5 0.607744 0.216102 0.293260
O O6 0.574971 0.254821 0.459956
O O7 0.454627 0.226519 0.186760
O O8 0.542023 0.000000 0.332812
O O9 0.702079 0.000000 0.329299
O O10 0.673612 0.776808 0.171198
O O11 0.113560 0.500000 0.005162
O O12 0.164132 0.261535 0.949429
O O13 0.033392 0.246408 0.934308
O O14 0.648264 0.500000 0.595964
O O15 0.661110 0.729453 0.733313
O O16 0.694610 0.500000 0.889175
O O17 0.797856 0.716039 0.971918
O O18 0.395216 0.000000 0.021069
O O19 0.412165 0.260242 0.943401
O O20 0.446557 0.500000 0.863023
#
# Coordination Sequence:
#
# PCOD9132013 Si02
#       8
#     4   4   4   4   4   4   4   4
#     4  10  19  34  57  84 114 147 186 232 286 337
#     4   9  17  31  55  82 109 142 184 232 279 330
#     4   9  18  34  55  81 112 146 187 234 283 333
#     4  11  23  40  59  81 116 155 191 232 285 341
#     4   9  18  33  54  80 113 148 182 227 280 331
#     4  10  21  38  58  81 113 152 192 232 280 336
#     4  10  19  37  59  82 114 150 187 233 285 331
#     4  12  23  35  57  87 115 146 193 240 280 333
#
# _framework density 17.442471000000001
#
# number of rings (size 3 to 8) (size 9 to 14) (size 15 to 20)
#    0.000    2.000    2.500    1.875    0.000    3.000 
#    0.000    1.250    0.000    6.000    0.000    0.000 
#    0.000    0.000    0.000    0.000    0.000    0.000 
#
# Total GULP energy -89314.192095 kJ/mol
# GULP energy per Si atom -5582.137006 kJ/mol
# Density = 1.740277 g / cm^3
# Si number density = 17.442471 Si / 1000 Ang^3
#
#
#
# Elastic Constant Matrix: (Units=GPa)
#
#
# Indices 1 2 3 4 5 6 
#
# 1 93.5283 49.0233 76.2563 0.0000 -6.2352 0.0000
# 2 49.0233 51.1626 60.2166 0.0000 0.8392 0.0000
# 3 76.2563 60.2166 186.6268 0.0000 -3.6348 0.0000
# 4 0.0000 0.0000 0.0000 32.9120 0.0000 -2.2268
# 5 -6.2352 0.8392 -3.6348 0.0000 25.1276 0.0000
# 6 0.0000 0.0000 0.0000 -2.2268 0.0000 26.1919
#
#
#
# Elastic Compliance Matrix: (Units=1/GPa)
#
#
# Indices 1 2 3 4 5 6 
#
# 1 0.023816 -0.018708 -0.003578 0.000000 0.006017 0.000000
# 2 -0.018708 0.046369 -0.007459 0.000000 -0.007270 0.000000
# 3 -0.003578 -0.007459 0.009240 0.000000 0.000698 0.000000
# 4 0.000000 0.000000 0.000000 0.030560 0.000000 0.002598
# 5 0.006017 -0.007270 0.000698 0.000000 0.041634 0.000000
# 6 0.000000 0.000000 0.000000 0.002598 0.000000 0.038401
#
#
# Mechanical properties :
#
#
# Convention : Reuss Voigt Hill
#
# Bulk Modulus (GPa) = 50.15931 78.03446 64.09688
# Shear Modulus (GPa) = 19.51944 26.56772 23.04358
#
# Velocity S-wave (km/s) = 3.34889 3.90701 3.63866
# Velocity P-wave (km/s) = 6.61610 8.07392 7.38109
#
# Compressibility (1/GPa) = 0.01993648
#
# Stress axis : x y z
#
# Youngs Moduli (GPa) = 41.98846 21.56603 108.21933
#
# Poissons Ratio (x) = 0.40345 0.38720
# Poissons Ratio (y) = 0.78551 0.80720
# Poissons Ratio (z) = 0.15023 0.16086
#
# Static dielectric constant tensor:
#      x y z
#    x 1.563050 0.000000 0.002600 
#    y 0.000000 1.585100 0.000000 
#    z 0.002600 0.000000 1.597530 
# 
# From -- ./inp_files/23825.got.cif
#   From: 2010.05.17/outbox.cif.g08.bks.cpg/sg8_12_cif.got.tgz:23825.got - 2010.06.03 19:46:02.
