data_PCOD9132110
_publ_section_title
;
Structure prediction by ZEFSAII (Michael W. Deem and Ramdas Pophale) SiO2 
 PCOD9132110
Probable space group: C M
;
_chemical_formula_sum "Si O2"
_cell_formula_units_Z 32
_cell_length_a 25.903788
_cell_length_b 8.659357
_cell_length_c 17.110863
_cell_angle_alpha 90.000000
_cell_angle_beta 155.399169
_cell_angle_gamma 90.000000
_cell_volume 1597.794662
_symmetry_space_group_name_H-M "C M"
_symmetry_group_IT_number 8
_symmetry_cell_setting 'monoclinic'
loop_
_space_group_symop_operation_xyz
x,y,z
x,-y,z
1/2+x,1/2+y,z
1/2+x,1/2-y,z
loop_
_atom_site_type_symbol
_atom_site_label
_atom_site_fract_x
_atom_site_fract_y
_atom_site_fract_z
Si Si1 0.596010 0.678344 0.276550
Si Si2 0.509083 0.183611 0.740345
Si Si3 0.678999 0.315534 0.842728
Si Si4 0.352796 0.319520 0.832075
Si Si5 0.962039 0.315754 0.235353
Si Si6 0.245111 0.317294 0.346231
Si Si7 0.110744 0.685552 0.588528
Si Si8 0.525649 0.686486 0.937294
O O1 0.635796 0.500000 0.331970
O O2 0.559856 0.737219 0.312070
O O3 0.693676 0.778056 0.362263
O O4 0.468087 0.687944 0.050577
O O5 0.619732 0.239298 0.837077
O O6 0.380862 0.245320 0.527178
O O7 0.521855 0.253223 0.844489
O O8 0.506099 0.000000 0.740847
O O9 0.678145 0.500000 0.850558
O O10 0.604523 0.265740 0.663208
O O11 0.821654 0.264571 0.026495
O O12 0.323246 0.500000 0.777048
O O13 0.232412 0.254598 0.709064
O O14 0.407321 0.256235 0.825908
O O15 0.969929 0.500000 0.232689
O O16 0.997781 0.287023 0.374265
O O17 0.249504 0.500000 0.341157
O O18 0.147645 0.243392 0.151426
O O19 0.122832 0.500000 0.617273
O O20 0.524588 0.500000 0.936906
#
# Coordination Sequence:
#
# PCOD9132110 Si02
#       8
#     4   4   4   4   4   4   4   4
#     4  10  19  35  60  91 127 164 204 255 311 372
#     4  12  26  44  66  92 122 169 220 266 317 378
#     4  11  24  43  61  88 125 163 209 265 317 370
#     4   8  16  32  58  88 123 161 198 245 305 365
#     4  10  22  37  60  91 123 160 206 255 312 374
#     4  11  23  41  64  93 128 167 209 262 320 378
#     4  10  20  38  61  89 121 163 208 250 308 377
#     4  10  21  40  64  96 131 167 208 260 314 376
#
# _framework density 20.027605999999999
#
# number of rings (size 3 to 8) (size 9 to 14) (size 15 to 20)
#    0.000    1.750    1.250    4.125    1.750    2.000 
#    0.000    4.375    0.000    0.000    0.000    0.000 
#    0.000    0.000    0.000    0.000    0.000    0.000 
#
# Total GULP energy -89404.580316 kJ/mol
# GULP energy per Si atom -5587.786270 kJ/mol
# Density = 1.998202 g / cm^3
# Si number density = 20.027606 Si / 1000 Ang^3
#
#
#
# Elastic Constant Matrix: (Units=GPa)
#
#
# Indices 1 2 3 4 5 6 
#
# 1 93.9855 24.2400 8.9449 0.0000 -16.5787 0.0000
# 2 24.2400 80.4521 14.1156 0.0000 -5.2960 0.0000
# 3 8.9449 14.1156 34.2816 0.0000 -6.9701 0.0000
# 4 0.0000 0.0000 0.0000 26.7493 0.0000 -4.6528
# 5 -16.5787 -5.2960 -6.9701 0.0000 28.6377 0.0000
# 6 0.0000 0.0000 0.0000 -4.6528 0.0000 34.0950
#
#
#
# Elastic Compliance Matrix: (Units=1/GPa)
#
#
# Indices 1 2 3 4 5 6 
#
# 1 0.012711 -0.003286 -0.000622 0.000000 0.006599 0.000000
# 2 -0.003286 0.014286 -0.005128 0.000000 -0.000509 0.000000
# 3 -0.000622 -0.005128 0.032801 0.000000 0.006675 0.000000
# 4 0.000000 0.000000 0.000000 0.038293 0.000000 0.005226
# 5 0.006599 -0.000509 0.006675 0.000000 0.040270 0.000000
# 6 0.000000 0.000000 0.000000 0.005226 0.000000 0.030043
#
#
# Mechanical properties :
#
#
# Convention : Reuss Voigt Hill
#
# Bulk Modulus (GPa) = 23.96609 33.70225 28.83417
# Shear Modulus (GPa) = 24.95193 28.65765 26.80479
#
# Velocity S-wave (km/s) = 3.53353 3.78684 3.66237
# Velocity P-wave (km/s) = 5.35166 5.99872 5.68440
#
# Compressibility (1/GPa) = 0.04172563
#
# Stress axis : x y z
#
# Youngs Moduli (GPa) = 78.67344 69.99763 30.48674
#
# Poissons Ratio (x) = 0.23003 0.01895
# Poissons Ratio (y) = 0.25854 0.15635
# Poissons Ratio (z) = 0.04891 0.35897
#
# Static dielectric constant tensor:
#      x y z
#    x 1.695580 0.000000 0.005280 
#    y 0.000000 1.681140 0.000000 
#    z 0.005280 0.000000 1.713730 
# 
# From -- ./inp_files/28213.got.cif
#   From: 2010.05.17/outbox.cif.g08.bks.cpg/sg8_15_cif.got.tgz:28213.got - 2010.06.03 19:46:02.
