data_PCOD9132118
_publ_section_title
;
Structure prediction by ZEFSAII (Michael W. Deem and Ramdas Pophale) SiO2 
 PCOD9132118
Probable space group: C M
;
_chemical_formula_sum "Si O2"
_cell_formula_units_Z 32
_cell_length_a 15.126953
_cell_length_b 8.459661
_cell_length_c 23.659267
_cell_angle_alpha 90.000000
_cell_angle_beta 151.480031
_cell_angle_gamma 90.000000
_cell_volume 1445.597084
_symmetry_space_group_name_H-M "C M"
_symmetry_group_IT_number 8
_symmetry_cell_setting 'monoclinic'
loop_
_space_group_symop_operation_xyz
x,y,z
x,-y,z
1/2+x,1/2+y,z
1/2+x,1/2-y,z
loop_
_atom_site_type_symbol
_atom_site_label
_atom_site_fract_x
_atom_site_fract_y
_atom_site_fract_z
Si Si1 0.817160 0.688511 0.753420
Si Si2 0.313945 0.810026 0.181253
Si Si3 0.405375 0.815223 0.529331
Si Si4 0.637752 0.309320 0.863441
Si Si5 0.839761 0.813542 0.373496
Si Si6 0.426051 0.189694 0.937324
Si Si7 0.938796 0.307376 0.126566
Si Si8 0.111959 0.312022 0.441855
O O1 0.787832 0.500000 0.737528
O O2 0.620559 0.772193 0.647560
O O3 0.926878 0.735969 0.872235
O O4 0.942924 0.735957 0.771171
O O5 0.375933 0.755476 0.153637
O O6 0.456945 0.754975 0.309247
O O7 0.319171 0.000000 0.184715
O O8 0.103134 0.755821 0.069264
O O9 0.317810 0.719804 0.427575
O O10 0.303500 0.764007 0.529548
O O11 0.377839 0.000000 0.504479
O O12 0.618914 0.500000 0.854297
O O13 0.733246 0.262776 0.858267
O O14 0.790618 0.260390 0.996382
O O15 0.650982 0.754519 0.237763
O O16 0.022470 0.732677 0.451322
O O17 0.857630 0.000000 0.374485
O O18 0.436151 0.000000 0.946377
O O19 0.942663 0.500000 0.128491
O O20 0.131788 0.500000 0.449463
#
# Coordination Sequence:
#
# PCOD9132118 Si02
#       8
#     4   4   4   4   4   4   4   4
#     4  11  24  42  61  86 120 157 202 260 314 362
#     4  10  19  35  61  91 124 163 200 244 301 360
#     4  12  26  44  65  89 118 163 214 261 314 367
#     4  10  20  38  62  88 121 160 201 243 298 368
#     4  11  22  41  66  94 127 163 204 254 312 371
#     4  10  22  38  60  91 123 157 199 251 305 360
#     4   9  17  33  60  90 123 161 196 242 305 365
#     4  11  23  41  63  93 130 166 206 253 305 367
#
# _framework density 22.136182999999999
#
# number of rings (size 3 to 8) (size 9 to 14) (size 15 to 20)
#    0.000    1.500    2.500    3.000    0.000    4.000 
#    0.000    5.000    0.000    0.000    0.000    0.000 
#    0.000    0.000    0.000    0.000    0.000    0.000 
#
# Total GULP energy -89468.039489 kJ/mol
# GULP energy per Si atom -5591.752468 kJ/mol
# Density = 2.208580 g / cm^3
# Si number density = 22.136183 Si / 1000 Ang^3
#
#
#
# Elastic Constant Matrix: (Units=GPa)
#
#
# Indices 1 2 3 4 5 6 
#
# 1 104.7374 7.6767 0.7784 0.0000 33.4080 0.0000
# 2 7.6767 27.8047 6.0606 0.0001 8.6199 0.0000
# 3 0.7784 6.0606 52.8884 0.0008 27.4749 0.0001
# 4 0.0000 0.0001 0.0008 25.2433 0.0000 6.7540
# 5 33.4080 8.6199 27.4749 0.0000 39.4946 0.0000
# 6 0.0000 0.0000 0.0001 6.7540 0.0000 29.0228
#
#
#
# Elastic Compliance Matrix: (Units=1/GPa)
#
#
# Indices 1 2 3 4 5 6 
#
# 1 0.016252 -0.000268 0.010809 0.000000 -0.021208 0.000000
# 2 -0.000268 0.038580 -0.000252 0.000000 -0.008018 0.000000
# 3 0.010809 -0.000252 0.036796 -0.000001 -0.034686 0.000000
# 4 0.000000 0.000000 -0.000001 0.042245 0.000001 -0.009831
# 5 -0.021208 -0.008018 -0.034686 0.000001 0.069139 0.000000
# 6 0.000000 0.000000 0.000000 -0.009831 0.000000 0.036743
#
#
# Mechanical properties :
#
#
# Convention : Reuss Voigt Hill
#
# Bulk Modulus (GPa) = 8.91224 23.82912 16.37068
# Shear Modulus (GPa) = 19.48719 30.14646 24.81682
#
# Velocity S-wave (km/s) = 2.97026 3.69435 3.35191
# Velocity P-wave (km/s) = 3.97468 5.38384 4.73201
#
# Compressibility (1/GPa) = 0.11220520
#
# Stress axis : x y z
#
# Youngs Moduli (GPa) = 61.53254 25.92025 27.17666
#
# Poissons Ratio (x) = 0.00695 -0.29374
# Poissons Ratio (y) = 0.01651 0.00684
# Poissons Ratio (z) = -0.66508 0.00652
#
# Static dielectric constant tensor:
#      x y z
#    x 1.814730 0.000000 -0.006610 
#    y 0.000000 1.743800 0.000000 
#    z -0.006610 0.000000 1.828910 
# 
# From -- ./inp_files/28174.got.cif
#   From: 2010.05.17/outbox.cif.g08.bks.cpg/sg8_15_cif.got.tgz:28174.got - 2010.06.03 19:46:02.
