data_PCOD9132177
_publ_section_title
;
Structure prediction by ZEFSAII (Michael W. Deem and Ramdas Pophale) SiO2 
 PCOD9132177
Probable space group: C M
;
_chemical_formula_sum "Si O2"
_cell_formula_units_Z 32
_cell_length_a 15.698559
_cell_length_b 20.876373
_cell_length_c 11.696337
_cell_angle_alpha 90.000000
_cell_angle_beta 153.405403
_cell_angle_gamma 90.000000
_cell_volume 1716.039683
_symmetry_space_group_name_H-M "C M"
_symmetry_group_IT_number 8
_symmetry_cell_setting 'monoclinic'
loop_
_space_group_symop_operation_xyz
x,y,z
x,-y,z
1/2+x,1/2+y,z
1/2+x,1/2-y,z
loop_
_atom_site_type_symbol
_atom_site_label
_atom_site_fract_x
_atom_site_fract_y
_atom_site_fract_z
Si Si1 0.140010 0.797553 0.959800
Si Si2 0.520108 0.073957 0.994379
Si Si3 0.656976 0.297557 0.243975
Si Si4 0.241366 0.655582 0.438612
Si Si5 0.151475 0.155582 0.483087
Si Si6 0.592990 0.174160 0.746057
Si Si7 0.809367 0.072269 0.133020
Si Si8 0.088787 0.301337 0.485060
O O1 0.139173 0.728282 0.896392
O O2 0.971810 0.840710 0.702524
O O3 0.080067 0.794225 0.021989
O O4 0.361414 0.816185 0.212463
O O5 0.623266 0.102133 0.230034
O O6 0.686232 0.073713 0.099590
O O7 0.453180 0.000000 0.927773
O O8 0.353378 0.121319 0.748920
O O9 0.672127 0.224320 0.305236
O O10 0.593162 0.338466 0.278467
O O11 0.866867 0.325533 0.475188
O O12 0.185084 0.655342 0.504176
O O13 0.135932 0.228071 0.508598
O O14 0.997582 0.114203 0.365796
O O15 0.660194 0.191725 0.700065
O O16 0.678294 0.106859 0.882991
O O17 0.857235 0.000000 0.159920
#
# Coordination Sequence:
#
# PCOD9132177 Si02
#       8
#     4   4   4   4   4   4   4   4
#     4  10  20  36  57  90 123 150 186 250 306 361
#     4  11  25  43  60  85 124 166 213 252 291 365
#     4   9  20  35  59  89 121 149 188 255 311 357
#     4  10  23  35  61  86 119 159 198 243 311 357
#     4  11  22  37  64  91 121 156 201 255 305 359
#     4  10  19  37  56  87 125 152 191 245 302 364
#     4  11  23  38  59  84 116 162 204 245 295 358
#     4  10  23  33  60  96 118 150 193 249 315 359
#
# _framework density 18.647587999999999
#
# number of rings (size 3 to 8) (size 9 to 14) (size 15 to 20)
#    0.000    1.750    2.500    1.125   10.500    0.000 
#    0.000    0.625    0.000    3.000    0.000    0.000 
#    0.000    0.000    0.000    0.000    0.000    0.000 
#
# Total GULP energy -89168.558853 kJ/mol
# GULP energy per Si atom -5573.034928 kJ/mol
# Density = 1.860515 g / cm^3
# Si number density = 18.647588 Si / 1000 Ang^3
#
#
#
# Elastic Constant Matrix: (Units=GPa)
#
#
# Indices 1 2 3 4 5 6 
#
# 1 92.1824 38.6887 30.4227 0.0000 -12.8056 0.0000
# 2 38.6887 63.6834 20.6195 0.0000 -6.9100 0.0000
# 3 30.4227 20.6195 75.8129 0.0000 -4.8429 0.0000
# 4 0.0000 0.0000 0.0000 14.2331 0.0000 2.4237
# 5 -12.8056 -6.9100 -4.8429 0.0000 30.0963 0.0000
# 6 0.0000 0.0000 0.0000 2.4237 0.0000 15.1126
#
#
#
# Elastic Compliance Matrix: (Units=1/GPa)
#
#
# Indices 1 2 3 4 5 6 
#
# 1 0.016157 -0.008039 -0.004017 0.000000 0.004382 0.000000
# 2 -0.008039 0.021536 -0.002560 0.000000 0.001112 0.000000
# 3 -0.004017 -0.002560 0.015511 0.000000 0.000199 0.000000
# 4 0.000000 0.000000 0.000000 0.072231 0.000000 -0.011584
# 5 0.004382 0.001112 0.000199 0.000000 0.035379 0.000000
# 6 0.000000 0.000000 0.000000 -0.011584 0.000000 0.068028
#
#
# Mechanical properties :
#
#
# Convention : Reuss Voigt Hill
#
# Bulk Modulus (GPa) = 41.71680 45.68228 43.69954
# Shear Modulus (GPa) = 18.79237 21.35158 20.07197
#
# Velocity S-wave (km/s) = 3.17797 3.38746 3.28439
# Velocity P-wave (km/s) = 5.99047 6.31274 6.15372
#
# Compressibility (1/GPa) = 0.02397116
#
# Stress axis : x y z
#
# Youngs Moduli (GPa) = 61.89421 46.43318 64.46870
#
# Poissons Ratio (x) = 0.37329 0.25897
# Poissons Ratio (y) = 0.49758 0.16506
# Poissons Ratio (z) = 0.24863 0.11888
#
# Static dielectric constant tensor:
#      x y z
#    x 1.689820 0.000000 -0.008350 
#    y 0.000000 1.609530 0.000000 
#    z -0.008350 0.000000 1.717380 
# 
# From -- ./inp_files/22419.got.cif
#   From: 2010.05.17/outbox.cif.g08.bks.cpg/sg8_12_cif.got.tgz:22419.got - 2010.06.03 19:46:02.
