data_PCOD9132409
_publ_section_title
;
Structure prediction by ZEFSAII (Michael W. Deem and Ramdas Pophale) SiO2 
 PCOD9132409
Probable space group: C M
;
_chemical_formula_sum "Si O2"
_cell_formula_units_Z 32
_cell_length_a 20.387592
_cell_length_b 8.823123
_cell_length_c 12.397327
_cell_angle_alpha 90.000000
_cell_angle_beta 126.272382
_cell_angle_gamma 90.000000
_cell_volume 1797.903671
_symmetry_space_group_name_H-M "C M"
_symmetry_group_IT_number 8
_symmetry_cell_setting 'monoclinic'
loop_
_space_group_symop_operation_xyz
x,y,z
x,-y,z
1/2+x,1/2+y,z
1/2+x,1/2-y,z
loop_
_atom_site_type_symbol
_atom_site_label
_atom_site_fract_x
_atom_site_fract_y
_atom_site_fract_z
Si Si1 0.240760 0.680127 0.388580
Si Si2 0.417464 0.819002 0.589363
Si Si3 0.166419 0.179880 0.100573
Si Si4 0.988291 0.319155 0.897205
Si Si5 0.834109 0.181457 0.850955
Si Si6 0.719201 0.180030 0.934153
Si Si7 0.692795 0.319544 0.563471
Si Si8 0.078973 0.681143 0.623434
O O1 0.233464 0.500000 0.386382
O O2 0.334784 0.729663 0.490814
O O3 0.205474 0.742858 0.242907
O O4 0.194554 0.754076 0.445207
O O5 0.453831 0.788802 0.743492
O O6 0.488039 0.782102 0.572139
O O7 0.400988 0.000000 0.567430
O O8 0.166941 0.000000 0.113422
O O9 0.214288 0.228372 0.039156
O O10 0.074627 0.240180 0.996789
O O11 0.997523 0.500000 0.917170
O O12 0.920844 0.255666 0.913358
O O13 0.795779 0.212170 0.931288
O O14 0.769844 0.248960 0.702497
O O15 0.837625 0.000000 0.840196
O O16 0.639935 0.213035 0.782931
O O17 0.717474 0.000000 0.956362
O O18 0.700753 0.500000 0.569459
O O19 0.614251 0.268694 0.555410
O O20 0.084808 0.500000 0.609518
#
# Coordination Sequence:
#
# PCOD9132409 Si02
#       8
#     4   4   4   4   4   4   4   4
#     4  12  25  41  61  84 118 159 200 241 295 355
#     4  10  20  37  61  89 120 152 193 244 292 344
#     4  12  25  40  60  86 120 157 199 243 293 354
#     4  11  21  37  61  89 121 154 194 245 295 342
#     4  10  20  35  58  88 119 153 195 243 290 341
#     4   9  18  36  58  84 119 155 193 237 291 345
#     4  11  21  35  56  86 121 153 193 242 294 347
#     4   9  18  35  59  86 118 153 191 237 290 346
#
# _framework density 17.798504999999999
#
# number of rings (size 3 to 8) (size 9 to 14) (size 15 to 20)
#    0.000    1.500    2.500    4.875    0.000    3.500 
#    0.000    1.250    0.000    6.000    0.000    0.000 
#    0.000    0.000    0.000    0.000    0.000    0.000 
#
# Total GULP energy -89409.325789 kJ/mol
# GULP energy per Si atom -5588.082862 kJ/mol
# Density = 1.775799 g / cm^3
# Si number density = 17.798505 Si / 1000 Ang^3
#
#
#
# Elastic Constant Matrix: (Units=GPa)
#
#
# Indices 1 2 3 4 5 6 
#
# 1 113.3599 55.4746 43.8971 0.0000 -16.5985 0.0000
# 2 55.4746 89.2176 49.0372 0.0000 -11.3721 0.0000
# 3 43.8971 49.0372 78.4114 0.0000 -16.4477 0.0000
# 4 0.0000 0.0000 0.0000 25.5497 0.0000 1.2282
# 5 -16.5985 -11.3721 -16.4477 0.0000 21.7030 0.0000
# 6 0.0000 0.0000 0.0000 1.2282 0.0000 35.2789
#
#
#
# Elastic Compliance Matrix: (Units=1/GPa)
#
#
# Indices 1 2 3 4 5 6 
#
# 1 0.013739 -0.006480 -0.002553 0.000000 0.005177 0.000000
# 2 -0.006480 0.020154 -0.009275 0.000000 -0.001424 0.000000
# 3 -0.002553 -0.009275 0.022061 0.000000 0.009906 0.000000
# 4 0.000000 0.000000 0.000000 0.039205 0.000000 -0.001365
# 5 0.005177 -0.001424 0.009906 0.000000 0.056797 0.000000
# 6 0.000000 0.000000 0.000000 -0.001365 0.000000 0.028393
#
#
# Mechanical properties :
#
#
# Convention : Reuss Voigt Hill
#
# Bulk Modulus (GPa) = 51.71177 64.20078 57.95627
# Shear Modulus (GPa) = 22.38013 25.34497 23.86255
#
# Velocity S-wave (km/s) = 3.54985 3.77768 3.66554
# Velocity P-wave (km/s) = 6.77636 7.42812 7.10971
#
# Compressibility (1/GPa) = 0.01933796
#
# Stress axis : x y z
#
# Youngs Moduli (GPa) = 72.78451 49.61810 45.32823
#
# Poissons Ratio (x) = 0.32150 0.11574
# Poissons Ratio (y) = 0.47161 0.42043
# Poissons Ratio (z) = 0.18585 0.46022
#
# Static dielectric constant tensor:
#      x y z
#    x 1.615620 0.000000 -0.004830 
#    y 0.000000 1.590840 0.000000 
#    z -0.004830 0.000000 1.575760 
# 
# From -- ./inp_files/23889.got.cif
#   From: 2010.05.17/outbox.cif.g08.bks.cpg/sg8_12_cif.got.tgz:23889.got - 2010.06.03 19:46:02.
