data_PCOD9132935
_publ_section_title
;
Structure prediction by ZEFSAII (Michael W. Deem and Ramdas Pophale) SiO2 
 PCOD9132935
Probable space group: C M
;
_chemical_formula_sum "Si O2"
_cell_formula_units_Z 24
_cell_length_a 9.397866
_cell_length_b 16.742566
_cell_length_c 5.173097
_cell_angle_alpha 90.000000
_cell_angle_beta 90.069031
_cell_angle_gamma 90.000000
_cell_volume 813.957210
_symmetry_space_group_name_H-M "C M"
_symmetry_group_IT_number 8
_symmetry_cell_setting 'monoclinic'
loop_
_space_group_symop_operation_xyz
x,y,z
x,-y,z
1/2+x,1/2+y,z
1/2+x,1/2-y,z
loop_
_atom_site_type_symbol
_atom_site_label
_atom_site_fract_x
_atom_site_fract_y
_atom_site_fract_z
Si Si1 0.957980 0.000000 0.856890
Si Si2 0.120905 0.167176 0.272308
Si Si3 0.434176 0.000000 0.037812
Si Si4 0.440612 0.164511 0.886667
Si Si5 0.235311 0.000000 0.488261
Si Si6 0.435757 0.670497 0.764652
Si Si7 0.630889 0.166315 0.388925
Si Si8 0.244902 0.500000 0.216817
O O1 0.875730 0.918184 0.790522
O O2 0.112538 0.000000 0.724998
O O3 0.916174 0.000000 0.160134
O O4 0.205986 0.249051 0.329154
O O5 0.994525 0.176543 0.478180
O O6 0.192689 0.084851 0.352786
O O7 0.061469 0.166560 0.981800
O O8 0.396304 0.000000 0.343866
O O9 0.606081 0.000000 0.017568
O O10 0.372654 0.923542 0.878972
O O11 0.358072 0.246815 0.833904
O O12 0.562892 0.165695 0.671339
O O13 0.507253 0.165765 0.171214
O O14 0.715941 0.085736 0.342549
#
# Coordination Sequence:
#
# PCOD9132935 Si02
#       8
#     2   4   2   4   2   4   4   2
#     4  10  21  38  61  88 120 156 196 242 292 348
#     4   9  18  35  58  85 117 152 192 239 290 344
#     4  10  21  38  61  88 120 156 196 242 292 348
#     4   9  18  35  58  85 117 152 192 239 290 344
#     4  10  21  38  61  88 120 156 196 242 292 348
#     4   9  18  35  58  85 117 152 192 239 290 344
#     4   9  18  35  58  85 117 152 192 239 290 344
#     4  10  21  38  61  88 120 156 196 242 292 348
#
# _framework density 29.485576999999999
#
# number of rings (size 3 to 8) (size 9 to 14) (size 15 to 20)
#    0.000    2.667    0.000    1.000    0.000    1.333 
#    0.000   26.667    0.000   54.000    0.000    0.000 
#    0.000    0.000    0.000    0.000    0.000    0.000 
#
# Total GULP energy -67019.482331 kJ/mol
# GULP energy per Si atom -5584.956861 kJ/mol
# Density = 2.941847 g / cm^3
# Si number density = 29.485577 Si / 1000 Ang^3
#
#
#
# Elastic Constant Matrix: (Units=GPa)
#
#
# Indices 1 2 3 4 5 6 
#
# 1 105.7906 36.3951 63.8933 0.0000 -15.7972 0.0000
# 2 36.3951 308.7893 16.7194 0.0000 -24.3541 0.0000
# 3 63.8933 16.7194 167.9190 0.0000 -31.2169 0.0000
# 4 0.0000 0.0000 0.0000 50.3255 0.0000 -8.7983
# 5 -15.7972 -24.3541 -31.2169 0.0000 50.6860 0.0000
# 6 0.0000 0.0000 0.0000 -8.7983 0.0000 -36.3603
#
#
#
# Elastic Compliance Matrix: (Units=1/GPa)
#
#
# Indices 1 2 3 4 5 6 
#
# 1 0.012745 -0.001209 -0.004628 0.000000 0.000541 0.000000
# 2 -0.001209 0.003481 0.000400 0.000000 0.001542 0.000000
# 3 -0.004628 0.000400 0.008407 0.000000 0.003927 0.000000
# 4 0.000000 0.000000 0.000000 0.019064 0.000000 -0.004613
# 5 0.000541 0.001542 0.003927 0.000000 0.023058 0.000000
# 6 0.000000 0.000000 0.000000 -0.004613 0.000000 -0.026386
#
#
# Mechanical properties :
#
#
# Convention : Reuss Voigt Hill
#
# Bulk Modulus (GPa) = 72.68671 90.72382 81.70526
# Shear Modulus (GPa) = 89.56054 43.96298 66.76176
#
# Velocity S-wave (km/s) = 5.51727 3.86554 4.76354
# Velocity P-wave (km/s) = 8.08036 7.12452 7.61745
#
# Compressibility (1/GPa) = 0.01375767
#
# Stress axis : x y z
#
# Youngs Moduli (GPa) = 78.46407 287.28143 118.95331
#
# Poissons Ratio (x) = 0.34729 0.55057
# Poissons Ratio (y) = 0.09485 -0.04759
# Poissons Ratio (z) = 0.36317 -0.11494
#
# Static dielectric constant tensor:
#      x y z
#    x 2.216730 0.000000 0.067420 
#    y 0.000000 2.484370 0.000000 
#    z 0.067420 0.000000 2.354440 
# 
# From -- ./inp_files/2693.got.cif
#   From: 2010.05.17/outbox.cif.g08.bks.cpg/sg8_2_cif.got.tgz:2693.got - 2010.06.03 19:46:02.
