data_PCOD9132430
_publ_section_title
;
Structure prediction by ZEFSAII (Michael W. Deem and Ramdas Pophale) SiO2 
 PCOD9132430
Probable space group: C M
;
_chemical_formula_sum "Si O2"
_cell_formula_units_Z 32
_cell_length_a 34.040177
_cell_length_b 8.735695
_cell_length_c 12.760718
_cell_angle_alpha 90.000000
_cell_angle_beta 154.592813
_cell_angle_gamma 90.000000
_cell_volume 1628.061147
_symmetry_space_group_name_H-M "C M"
_symmetry_group_IT_number 8
_symmetry_cell_setting 'monoclinic'
loop_
_space_group_symop_operation_xyz
x,y,z
x,-y,z
1/2+x,1/2+y,z
1/2+x,1/2-y,z
loop_
_atom_site_type_symbol
_atom_site_label
_atom_site_fract_x
_atom_site_fract_y
_atom_site_fract_z
Si Si1 0.583170 0.179840 0.991820
Si Si2 0.719587 0.316512 0.036677
Si Si3 0.521437 0.818594 0.612984
Si Si4 0.268581 0.818093 0.738935
Si Si5 0.894831 0.180080 0.870395
Si Si6 0.776615 0.680827 0.404421
Si Si7 0.827103 0.181539 0.098155
Si Si8 0.069769 0.817131 0.174092
O O1 0.523171 0.204559 0.743446
O O2 0.607966 0.000000 0.053583
O O3 0.674064 0.281406 0.196712
O O4 0.540352 0.228637 0.998543
O O5 0.711419 0.500000 0.013000
O O6 0.617943 0.245706 0.803058
O O7 0.774409 0.278493 0.276149
O O8 0.773106 0.256285 0.065096
O O9 0.432211 0.737861 0.352689
O O10 0.516971 0.000000 0.582320
O O11 0.349132 0.773818 0.853371
O O12 0.172747 0.774094 0.453357
O O13 0.266933 0.000000 0.752209
O O14 0.282322 0.734541 0.881660
O O15 0.843108 0.223113 0.638149
O O16 0.066463 0.000000 0.145877
O O17 0.000659 0.214465 0.102452
O O18 0.795370 0.500000 0.461455
O O19 0.824003 0.000000 0.100795
O O20 0.883925 0.000000 0.865687
#
# Coordination Sequence:
#
# PCOD9132430 Si02
#       8
#     4   4   4   4   4   4   4   4
#     4  10  20  35  61  92 127 163 203 257 311 370
#     4  10  22  41  64  93 129 168 211 263 317 375
#     4  10  22  41  63  94 129 166 211 261 318 378
#     4  11  24  45  66  87 123 169 213 264 317 373
#     4  11  23  39  61  93 126 163 209 257 311 375
#     4  10  20  36  60  90 128 167 204 252 315 372
#     4  12  26  43  66  93 125 170 217 264 317 378
#     4  10  23  40  61  90 125 164 204 252 314 375
#
# _framework density 19.655280999999999
#
# number of rings (size 3 to 8) (size 9 to 14) (size 15 to 20)
#    0.000    1.500    1.250    3.375    1.750    5.500 
#    0.000    3.750    0.000    0.000    0.000    0.000 
#    0.000    0.000    0.000    0.000    0.000    0.000 
#
# Total GULP energy -89444.870250 kJ/mol
# GULP energy per Si atom -5590.304391 kJ/mol
# Density = 1.961054 g / cm^3
# Si number density = 19.655281 Si / 1000 Ang^3
#
#
#
# Elastic Constant Matrix: (Units=GPa)
#
#
# Indices 1 2 3 4 5 6 
#
# 1 90.1519 16.4628 8.0659 0.0000 -4.4398 0.0000
# 2 16.4628 47.6323 8.6614 0.0000 -5.9170 0.0000
# 3 8.0659 8.6614 17.1457 0.0000 -5.9395 0.0000
# 4 0.0000 0.0000 0.0000 29.4025 0.0000 0.1177
# 5 -4.4398 -5.9170 -5.9395 0.0000 21.3865 0.0000
# 6 0.0000 0.0000 0.0000 0.1177 0.0000 33.2198
#
#
#
# Elastic Compliance Matrix: (Units=1/GPa)
#
#
# Indices 1 2 3 4 5 6 
#
# 1 0.012081 -0.003425 -0.003776 0.000000 0.000512 0.000000
# 2 -0.003425 0.024326 -0.009507 0.000000 0.003379 0.000000
# 3 -0.003776 -0.009507 0.070502 0.000000 0.016166 0.000000
# 4 0.000000 0.000000 0.000000 0.034011 0.000000 -0.000120
# 5 0.000512 0.003379 0.016166 0.000000 0.052289 0.000000
# 6 0.000000 0.000000 0.000000 -0.000120 0.000000 0.030103
#
#
# Mechanical properties :
#
#
# Convention : Reuss Voigt Hill
#
# Bulk Modulus (GPa) = 13.60653 24.58999 19.09826
# Shear Modulus (GPa) = 17.77923 24.91775 21.34849
#
# Velocity S-wave (km/s) = 3.01084 3.56439 3.29925
# Velocity P-wave (km/s) = 4.36171 5.42933 4.92454
#
# Compressibility (1/GPa) = 0.07349415
#
# Stress axis : x y z
#
# Youngs Moduli (GPa) = 82.77526 41.10744 14.18390
#
# Poissons Ratio (x) = 0.14081 0.05355
# Poissons Ratio (y) = 0.28353 0.13484
# Poissons Ratio (z) = 0.31253 0.39080
#
# Static dielectric constant tensor:
#      x y z
#    x 1.682520 0.000000 0.007540 
#    y 0.000000 1.653720 0.000000 
#    z 0.007540 0.000000 1.677310 
# 
# From -- ./inp_files/21540.got.cif
#   From: 2010.05.17/outbox.cif.g08.bks.cpg/sg8_11_cif.got.tgz:21540.got - 2010.06.03 19:46:02.
