data_PCOD9132717
_publ_section_title
;
Structure prediction by ZEFSAII (Michael W. Deem and Ramdas Pophale) SiO2 
 PCOD9132717
Probable space group: C M
;
_chemical_formula_sum "Si O2"
_cell_formula_units_Z 28
_cell_length_a 7.706614
_cell_length_b 14.188357
_cell_length_c 12.186877
_cell_angle_alpha 90.000000
_cell_angle_beta 54.721520
_cell_angle_gamma 90.000000
_cell_volume 1087.844880
_symmetry_space_group_name_H-M "C M"
_symmetry_group_IT_number 8
_symmetry_cell_setting 'monoclinic'
loop_
_space_group_symop_operation_xyz
x,y,z
x,-y,z
1/2+x,1/2+y,z
1/2+x,1/2-y,z
loop_
_atom_site_type_symbol
_atom_site_label
_atom_site_fract_x
_atom_site_fract_y
_atom_site_fract_z
Si Si1 0.175030 0.392003 0.855670
Si Si2 0.904477 0.884961 0.978576
Si Si3 0.009840 0.649561 0.513150
Si Si4 0.755180 0.393653 0.258881
Si Si5 0.372106 0.107013 0.790698
Si Si6 0.913590 0.813975 0.221872
Si Si7 0.064951 0.864753 0.553840
O O1 0.113727 0.500000 0.900051
O O2 0.235263 0.349985 0.950640
O O3 0.384418 0.397769 0.702818
O O4 0.994097 0.346126 0.846948
O O5 0.139110 0.856339 0.849673
O O6 0.888647 0.000000 0.987612
O O7 0.890670 0.844655 0.104997
O O8 0.014366 0.602399 0.630231
O O9 0.794442 0.623724 0.528036
O O10 0.214340 0.641958 0.361760
O O11 0.003417 0.757692 0.551998
O O12 0.847310 0.500000 0.211216
O O13 0.895255 0.300575 0.239598
O O14 0.622881 0.358335 0.201383
O O15 0.593952 0.402802 0.420699
O O16 0.332724 0.000000 0.839205
#
# Coordination Sequence:
#
# PCOD9132717 Si02
#       7
#     4   4   4   4   4   4   4
#     4  10  20  39  67 101 140 186 242 303 368 443
#     4  10  22  44  68 100 148 200 251 305 375 458
#     4  11  22  39  66 101 140 186 249 307 368 448
#     4  11  24  46  74 107 148 196 250 312 377 451
#     4  10  21  40  67 101 141 191 251 308 373 446
#     4  11  24  47  71 105 148 195 248 309 379 448
#     4  11  21  39  67 103 141 184 244 310 374 438
#
# _framework density 25.738965
#
# number of rings (size 3 to 8) (size 9 to 14) (size 15 to 20)
#    0.000    1.429    1.429    6.000    0.000    2.857 
#    7.714    4.286    0.000    0.000    0.000    1.000 
#    0.000    0.000    0.000    0.000    0.000    0.000 
#
# Total GULP energy -78329.384522 kJ/mol
# GULP energy per Si atom -5594.956037 kJ/mol
# Density = 2.568038 g / cm^3
# Si number density = 25.738965 Si / 1000 Ang^3
#
#
#
# Elastic Constant Matrix: (Units=GPa)
#
#
# Indices 1 2 3 4 5 6 
#
# 1 111.8188 12.0325 25.1265 0.0000 34.9868 0.0000
# 2 12.0325 115.3469 -2.7185 0.0000 7.7132 0.0000
# 3 25.1265 -2.7185 144.7156 0.0000 19.6912 0.0000
# 4 0.0000 0.0000 0.0000 27.9116 0.0000 3.6968
# 5 34.9868 7.7132 19.6912 0.0000 53.8218 0.0000
# 6 0.0000 0.0000 0.0000 3.6968 0.0000 18.5668
#
#
#
# Elastic Compliance Matrix: (Units=1/GPa)
#
#
# Indices 1 2 3 4 5 6 
#
# 1 0.011432 -0.000753 -0.001055 0.000000 -0.006937 0.000000
# 2 -0.000753 0.008820 0.000423 0.000000 -0.000929 0.000000
# 3 -0.001055 0.000423 0.007384 0.000000 -0.002076 0.000000
# 4 0.000000 0.000000 0.000000 0.036798 0.000000 -0.007327
# 5 -0.006937 -0.000929 -0.002076 0.000000 0.023982 0.000000
# 6 0.000000 0.000000 0.000000 -0.007327 0.000000 0.055319
#
#
# Mechanical properties :
#
#
# Convention : Reuss Voigt Hill
#
# Bulk Modulus (GPa) = 40.21816 48.97358 44.59587
# Shear Modulus (GPa) = 32.30107 42.55607 37.42857
#
# Velocity S-wave (km/s) = 3.54637 4.07058 3.81748
# Velocity P-wave (km/s) = 5.69458 6.41569 6.06586
#
# Compressibility (1/GPa) = 0.02486439
#
# Stress axis : x y z
#
# Youngs Moduli (GPa) = 87.47544 113.37628 135.43269
#
# Poissons Ratio (x) = 0.08543 0.14289
# Poissons Ratio (y) = 0.06591 -0.05728
# Poissons Ratio (z) = 0.09229 -0.04795
#
# Static dielectric constant tensor:
#      x y z
#    x 2.044330 0.000000 -0.016890 
#    y 0.000000 2.008240 0.000000 
#    z -0.016890 0.000000 1.979470 
# 
# From -- ./inp_files/18840.got.cif
#   From: 2010.05.17/outbox.cif.g08.bks.cpg/sg8_10_cif.got.tgz:18840.got - 2010.06.03 19:46:02.
