data_PCOD9132734
_publ_section_title
;
Structure prediction by ZEFSAII (Michael W. Deem and Ramdas Pophale) SiO2 
 PCOD9132734
Probable space group: C M
;
_chemical_formula_sum "Si O2"
_cell_formula_units_Z 18
_cell_length_a 14.352000
_cell_length_b 7.319057
_cell_length_c 18.797359
_cell_angle_alpha 90.000000
_cell_angle_beta 161.014319
_cell_angle_gamma 90.000000
_cell_volume 642.378458
_symmetry_space_group_name_H-M "C M"
_symmetry_group_IT_number 8
_symmetry_cell_setting 'monoclinic'
loop_
_space_group_symop_operation_xyz
x,y,z
x,-y,z
1/2+x,1/2+y,z
1/2+x,1/2-y,z
loop_
_atom_site_type_symbol
_atom_site_label
_atom_site_fract_x
_atom_site_fract_y
_atom_site_fract_z
Si Si1 0.429680 0.204292 0.970090
Si Si2 0.323148 0.275888 0.140162
Si Si3 0.921138 0.703890 0.507809
Si Si4 0.534081 0.000000 0.444759
Si Si5 0.477274 0.204822 0.755632
O O1 0.190621 0.193417 0.734971
O O2 0.261817 0.297022 0.912558
O O3 0.508897 0.000000 0.049951
O O4 0.698319 0.301030 0.124795
O O5 0.321706 0.500000 0.144347
O O6 0.622611 0.221717 0.321676
O O7 0.088410 0.224875 0.911656
O O8 0.950293 0.500000 0.562103
O O9 0.925734 0.659552 0.427315
O O10 0.743495 0.842194 0.558981
O O11 0.365550 0.000000 0.680720
#
# Coordination Sequence:
#
# PCOD9132734 Si02
#       5
#     4   4   4   2   4
#     4  11  21  38  60  89 122 160 205 245 302 367
#     4   9  19  39  61  85 120 161 200 251 303 360
#     4   9  19  38  62  83 122 155 200 251 306 347
#     4  10  20  40  64  88 120 168 198 252 300 374
#     4  11  22  39  65  89 123 163 203 250 306 356
#
# _framework density 28.020864
#
# number of rings (size 3 to 8) (size 9 to 14) (size 15 to 20)
#    0.667    1.333    3.333    0.667    0.000    0.000 
#    6.000    0.000    0.000    0.000    0.000    0.000 
#    0.000    0.000    0.000    0.000    0.000    0.000 
#
# Total GULP energy -50118.783128 kJ/mol
# GULP energy per Si atom -5568.753681 kJ/mol
# Density = 2.795709 g / cm^3
# Si number density = 28.020864 Si / 1000 Ang^3
#
#
#
# Elastic Constant Matrix: (Units=GPa)
#
#
# Indices 1 2 3 4 5 6 
#
# 1 164.3950 -27.5447 15.0378 -0.0103 14.4864 0.0032
# 2 -27.5447 135.3587 -17.6955 0.0068 25.5766 0.0013
# 3 15.0378 -17.6955 103.4588 -0.0084 34.4852 0.0123
# 4 -0.0103 0.0068 -0.0084 -30.9593 -0.0015 31.5230
# 5 14.4864 25.5766 34.4852 -0.0015 49.8251 0.0008
# 6 0.0032 0.0013 0.0123 31.5230 0.0008 11.4256
#
#
#
# Elastic Compliance Matrix: (Units=1/GPa)
#
#
# Indices 1 2 3 4 5 6 
#
# 1 0.006676 0.002053 0.000493 -0.000001 -0.003336 0.000001
# 2 0.002053 0.010022 0.004328 -0.000001 -0.008737 -0.000002
# 3 0.000493 0.004328 0.014458 -0.000005 -0.012372 -0.000002
# 4 -0.000001 -0.000001 -0.000005 -0.008480 0.000004 0.023395
# 5 -0.003336 -0.008737 -0.012372 0.000004 0.034088 0.000003
# 6 0.000001 -0.000002 -0.000002 0.023395 0.000003 0.022977
#
#
# Mechanical properties :
#
#
# Convention : Reuss Voigt Hill
#
# Bulk Modulus (GPa) = 22.26927 38.08975 30.17951
# Shear Modulus (GPa) = 61.75789 34.95261 48.35525
#
# Velocity S-wave (km/s) = 4.69977 3.53566 4.15865
# Velocity P-wave (km/s) = 6.11679 5.50370 5.81832
#
# Compressibility (1/GPa) = 0.04490492
#
# Stress axis : x y z
#
# Youngs Moduli (GPa) = 149.79401 99.77666 69.16509
#
# Poissons Ratio (x) = -0.20487 -0.03409
# Poissons Ratio (y) = -0.30757 -0.29936
# Poissons Ratio (z) = -0.07383 -0.43185
#
# Static dielectric constant tensor:
#      x y z
#    x 2.222120 0.000000 -0.084660 
#    y 0.000000 2.139500 0.000000 
#    z -0.084660 0.000000 2.299730 
# 
# From -- ./inp_files/14150.got.cif
#   From: 2010.05.17/outbox.cif.g08.bks.cpg/sg8_8_cif.got.tgz:14150.got - 2010.06.03 19:46:02.
