data_PCOD9132246
_publ_section_title
;
Structure prediction by ZEFSAII (Michael W. Deem and Ramdas Pophale) SiO2 
 PCOD9132246
Probable space group: C M
;
_chemical_formula_sum "Si O2"
_cell_formula_units_Z 24
_cell_length_a 5.025066
_cell_length_b 23.456046
_cell_length_c 9.952125
_cell_angle_alpha 90.000000
_cell_angle_beta 70.174333
_cell_angle_gamma 90.000000
_cell_volume 1103.511584
_symmetry_space_group_name_H-M "C M"
_symmetry_group_IT_number 8
_symmetry_cell_setting 'monoclinic'
loop_
_space_group_symop_operation_xyz
x,y,z
x,-y,z
1/2+x,1/2+y,z
1/2+x,1/2-y,z
loop_
_atom_site_type_symbol
_atom_site_label
_atom_site_fract_x
_atom_site_fract_y
_atom_site_fract_z
Si Si1 0.541510 0.500000 0.530431
Si Si2 0.025859 0.620265 0.290030
Si Si3 0.185100 0.500000 0.349717
Si Si4 0.743221 0.792423 0.443193
Si Si5 0.913268 0.433707 0.043936
Si Si6 0.557495 0.566755 0.840472
Si Si7 0.496464 0.378277 0.588884
O O1 0.467274 0.500000 0.386790
O O2 0.386577 0.443091 0.602277
O O3 0.882192 0.500000 0.482095
O O4 0.762894 0.624592 0.440451
O O5 0.176267 0.559050 0.274588
O O6 0.244181 0.667079 0.310205
O O7 0.900687 0.614325 0.162503
O O8 0.484420 0.751650 0.447666
O O9 0.764720 0.836065 0.566564
O O10 0.855135 0.500000 0.095847
O O11 0.229623 0.433234 0.932935
O O12 0.717770 0.421160 0.950659
O O13 0.631057 0.500000 0.786305
O O14 0.605732 0.617363 0.722819
#
# Coordination Sequence:
#
# PCOD9132246 Si02
#       7
#     2   4   2   4   4   4   4
#     4  10  20  32  56  98 124 150 199 253 326 378
#     4  11  23  41  69  97 130 171 215 272 321 393
#     4  10  20  32  56  98 124 150 199 253 326 378
#     4  12  26  43  64  97 128 168 228 284 322 358
#     4  10  23  39  60  97 142 172 199 252 330 406
#     4  10  23  39  60  97 142 172 199 252 330 406
#     4  11  23  41  69  97 130 171 215 272 321 393
#
# _framework density 21.748752
#
# number of rings (size 3 to 8) (size 9 to 14) (size 15 to 20)
#    0.000    1.333    5.000    0.000    4.667    0.000 
#    0.000    0.000    0.000    6.000    0.000    0.000 
#    0.000    0.000    0.000    0.000    0.000    0.000 
#
# Total GULP energy -66821.289501 kJ/mol
# GULP energy per Si atom -5568.440792 kJ/mol
# Density = 2.169925 g / cm^3
# Si number density = 21.748752 Si / 1000 Ang^3
#
#
#
# Elastic Constant Matrix: (Units=GPa)
#
#
# Indices 1 2 3 4 5 6 
#
# 1 83.5678 27.8420 24.5406 0.0000 -6.5694 0.0000
# 2 27.8420 128.5285 36.6217 0.0000 22.4124 0.0000
# 3 24.5406 36.6217 110.2885 0.0000 -7.0982 0.0000
# 4 0.0000 0.0000 0.0000 55.2842 0.0000 0.2176
# 5 -6.5694 22.4124 -7.0982 0.0000 3.2810 0.0000
# 6 0.0000 0.0000 0.0000 0.2176 0.0000 58.0152
#
#
#
# Elastic Compliance Matrix: (Units=1/GPa)
#
#
# Indices 1 2 3 4 5 6 
#
# 1 0.009157 0.005760 -0.006161 0.000000 -0.034343 0.000000
# 2 0.005760 -0.006290 0.005012 0.000000 0.065343 0.000000
# 3 -0.006161 0.005012 0.006710 0.000000 -0.032056 0.000000
# 4 0.000000 0.000000 0.000000 0.018089 0.000000 -0.000068
# 5 -0.034343 0.065343 -0.032056 0.000000 -0.279680 0.000000
# 6 0.000000 0.000000 0.000000 -0.000068 0.000000 0.017237
#
#
# Mechanical properties :
#
#
# Convention : Reuss Voigt Hill
#
# Bulk Modulus (GPa) = 53.18741 55.59928 54.39334
# Shear Modulus (GPa) = -21.03190 38.87480 8.92145
#
# Velocity S-wave (km/s) = -3.11310 4.23241 2.02755
# Velocity P-wave (km/s) = 3.40391 7.03593 5.52679
#
# Compressibility (1/GPa) = 0.01880144
#
# Stress axis : x y z
#
# Youngs Moduli (GPa) = 109.21201 -158.98564 149.02157
#
# Poissons Ratio (x) = 0.91582 0.91805
# Poissons Ratio (y) = -0.62910 -0.74694
# Poissons Ratio (z) = 0.67280 0.79688
#
# Static dielectric constant tensor:
#      x y z
#    x 1.842390 0.000000 0.046420 
#    y 0.000000 1.836650 0.000000 
#    z 0.046420 0.000000 1.992650 
# 
# From -- ./inp_files/6849.got.cif
#   From: 2010.05.17/outbox.cif.g08.bks.cpg/sg8_4_cif.got.tgz:6849.got - 2010.06.03 19:46:02.
