data_PCOD9132933
_publ_section_title
;
Structure prediction by ZEFSAII (Michael W. Deem and Ramdas Pophale) SiO2 
 PCOD9132933
Probable space group: C M
;
_chemical_formula_sum "Si O2"
_cell_formula_units_Z 26
_cell_length_a 9.760393
_cell_length_b 7.286276
_cell_length_c 19.798553
_cell_angle_alpha 90.000000
_cell_angle_beta 135.666961
_cell_angle_gamma 90.000000
_cell_volume 983.958060
_symmetry_space_group_name_H-M "C M"
_symmetry_group_IT_number 8
_symmetry_cell_setting 'monoclinic'
loop_
_space_group_symop_operation_xyz
x,y,z
x,-y,z
1/2+x,1/2+y,z
1/2+x,1/2-y,z
loop_
_atom_site_type_symbol
_atom_site_label
_atom_site_fract_x
_atom_site_fract_y
_atom_site_fract_z
Si Si1 0.414230 0.712104 0.742390
Si Si2 0.493437 0.222561 0.622638
Si Si3 0.262503 0.721283 0.033167
Si Si4 0.351159 0.721884 0.216884
Si Si5 0.342888 0.789481 0.915326
Si Si6 0.768557 0.706173 0.413866
Si Si7 0.829128 0.500000 0.308149
O O1 0.426585 0.500000 0.767450
O O2 0.380985 0.720887 0.650066
O O3 0.218151 0.789340 0.706344
O O4 0.628813 0.796672 0.829519
O O5 0.390690 0.288184 0.517615
O O6 0.501235 0.000000 0.622602
O O7 0.260820 0.500000 0.030562
O O8 0.325780 0.775592 0.130496
O O9 0.377890 0.788349 0.008480
O O10 0.035101 0.787162 0.947376
O O11 0.339421 0.500000 0.216867
O O12 0.564048 0.795845 0.319691
O O13 0.224331 0.839864 0.223454
O O14 0.329135 0.000000 0.888315
O O15 0.708017 0.500000 0.415884
O O16 0.883243 0.659609 0.385433
#
# Coordination Sequence:
#
# PCOD9132933 Si02
#       7
#     4   4   4   4   4   4   2
#     4  10  22  38  60  87 121 156 202 252 304 362
#     4  10  21  38  61  86 120 158 198 252 302 359
#     4  10  23  38  60  88 120 155 204 250 300 365
#     4  10  22  40  61  91 124 163 205 255 303 372
#     4  10  22  40  58  87 121 156 203 252 301 368
#     4   8  20  38  56  85 122 149 203 255 287 373
#     4  10  22  40  64  84 130 164 202 254 312 358
#
# _framework density 26.42389
#
# number of rings (size 3 to 8) (size 9 to 14) (size 15 to 20)
#    0.462    1.846    0.000    0.923    5.385    1.846 
#    1.385    0.000    0.000    0.000    0.000    0.000 
#    0.000    0.000    0.000    0.000    0.000    0.000 
#
# Total GULP energy -72383.128110 kJ/mol
# GULP energy per Si atom -5567.932932 kJ/mol
# Density = 2.636375 g / cm^3
# Si number density = 26.423890 Si / 1000 Ang^3
#
#
#
# Elastic Constant Matrix: (Units=GPa)
#
#
# Indices 1 2 3 4 5 6 
#
# 1 90.3208 -6.1809 8.6748 0.0000 -10.9308 0.0000
# 2 -6.1809 134.9642 17.1442 0.0000 -4.1558 0.0000
# 3 8.6748 17.1442 112.8807 0.0000 -18.7249 0.0000
# 4 0.0000 0.0000 0.0000 13.5563 0.0000 -32.6253
# 5 -10.9308 -4.1558 -18.7249 0.0000 55.5424 0.0000
# 6 0.0000 0.0000 0.0000 -32.6253 0.0000 -134.2822
#
#
#
# Elastic Compliance Matrix: (Units=1/GPa)
#
#
# Indices 1 2 3 4 5 6 
#
# 1 0.011431 0.000668 -0.000634 0.000000 0.002086 0.000000
# 2 0.000668 0.007596 -0.001153 0.000000 0.000311 0.000000
# 3 -0.000634 -0.001153 0.009584 0.000000 0.003020 0.000000
# 4 0.000000 0.000000 0.000000 0.046548 0.000000 -0.011309
# 5 0.002086 0.000311 0.003020 0.000000 0.019456 0.000000
# 6 0.000000 0.000000 0.000000 -0.011309 0.000000 -0.004699
#
#
# Mechanical properties :
#
#
# Convention : Reuss Voigt Hill
#
# Bulk Modulus (GPa) = 37.91863 41.93799 39.92831
# Shear Modulus (GPa) = 49.53202 8.19848 28.86525
#
# Velocity S-wave (km/s) = 4.33427 1.76335 3.30872
# Velocity P-wave (km/s) = 6.27926 4.47790 5.45347
#
# Compressibility (1/GPa) = 0.02637226
#
# Stress axis : x y z
#
# Youngs Moduli (GPa) = 87.48372 131.64703 104.34325
#
# Poissons Ratio (x) = -0.08797 0.06615
# Poissons Ratio (y) = -0.05846 0.12035
# Poissons Ratio (z) = 0.05546 0.15185
#
# Static dielectric constant tensor:
#      x y z
#    x 2.229630 0.000000 0.086650 
#    y 0.000000 1.998910 0.000000 
#    z 0.086650 0.000000 2.141160 
# 
# From -- ./inp_files/25773.got.cif
#   From: 2010.05.17/outbox.cif.g08.bks.cpg/sg8_13_cif.got.tgz:25773.got - 2010.06.03 19:46:02.
