data_PCOD9132892
_publ_section_title
;
Structure prediction by ZEFSAII (Michael W. Deem and Ramdas Pophale) SiO2 
 PCOD9132892
Probable space group: C M
;
_chemical_formula_sum "Si O2"
_cell_formula_units_Z 32
_cell_length_a 10.345594
_cell_length_b 26.963636
_cell_length_c 8.483078
_cell_angle_alpha 90.000000
_cell_angle_beta 140.675104
_cell_angle_gamma 90.000000
_cell_volume 1499.625254
_symmetry_space_group_name_H-M "C M"
_symmetry_group_IT_number 8
_symmetry_cell_setting 'monoclinic'
loop_
_space_group_symop_operation_xyz
x,y,z
x,-y,z
1/2+x,1/2+y,z
1/2+x,1/2-y,z
loop_
_atom_site_type_symbol
_atom_site_label
_atom_site_fract_x
_atom_site_fract_y
_atom_site_fract_z
Si Si1 0.615210 0.789837 0.997330
Si Si2 0.693892 0.054339 0.248225
Si Si3 0.887457 0.370591 0.929048
Si Si4 0.054886 0.127400 0.125274
Si Si5 0.767324 0.220200 0.810123
Si Si6 0.753348 0.943143 0.677822
Si Si7 0.475370 0.358464 0.401677
Si Si8 0.979068 0.348618 0.368874
O O1 0.492798 0.842041 0.882527
O O2 0.658930 0.765303 0.870505
O O3 0.448619 0.756437 0.929613
O O4 0.837181 0.808504 0.270004
O O5 0.762408 0.054271 0.495752
O O6 0.826287 0.096025 0.291406
O O7 0.723512 0.000000 0.209944
O O8 0.460096 0.072550 0.005369
O O9 0.649983 0.359066 0.697333
O O10 0.979228 0.350458 0.179731
O O11 0.251174 0.147243 0.218908
O O12 0.087022 0.127900 0.343078
O O13 0.881049 0.168716 0.948639
O O14 0.957267 0.078167 0.954321
O O15 0.593685 0.202004 0.525526
O O16 0.586217 0.898989 0.538082
O O17 0.706736 0.000000 0.686265
#
# Coordination Sequence:
#
# PCOD9132892 Si02
#       8
#     4   4   4   4   4   4   4   4
#     4  10  23  43  63  90 120 163 207 261 313 375
#     4   9  19  37  60  87 120 161 212 259 307 370
#     4  10  21  39  62  90 125 166 204 256 315 374
#     4  10  21  37  60  87 125 162 201 256 315 371
#     4  10  23  43  63  89 121 159 211 261 315 372
#     4   9  19  37  60  88 121 162 211 260 307 369
#     4  10  21  39  61  87 127 164 205 254 316 374
#     4  10  21  39  63  90 125 161 209 259 314 371
#
# _framework density 21.338664000000001
#
# number of rings (size 3 to 8) (size 9 to 14) (size 15 to 20)
#    0.000    2.250    0.000    1.500    1.750    4.500 
#    4.500    2.500    0.000    0.000    0.000    0.000 
#    0.000    0.000    0.000    0.000    0.000    0.000 
#
# Total GULP energy -89110.303399 kJ/mol
# GULP energy per Si atom -5569.393962 kJ/mol
# Density = 2.129010 g / cm^3
# Si number density = 21.338664 Si / 1000 Ang^3
#
#
#
# Elastic Constant Matrix: (Units=GPa)
#
#
# Indices 1 2 3 4 5 6 
#
# 1 95.4201 19.0581 12.3549 0.0000 3.9456 0.0000
# 2 19.0581 94.5116 34.3182 0.0000 -7.1312 0.0000
# 3 12.3549 34.3182 99.1547 0.0000 7.4419 0.0000
# 4 0.0000 0.0000 0.0000 21.0420 0.0000 3.5462
# 5 3.9456 -7.1312 7.4419 0.0000 15.6665 0.0000
# 6 0.0000 0.0000 0.0000 3.5462 0.0000 23.7670
#
#
#
# Elastic Compliance Matrix: (Units=1/GPa)
#
#
# Indices 1 2 3 4 5 6 
#
# 1 0.011158 -0.002442 -0.000260 0.000000 -0.003798 0.000000
# 2 -0.002442 0.013624 -0.005105 0.000000 0.009241 0.000000
# 3 -0.000260 -0.005105 0.012500 0.000000 -0.008196 0.000000
# 4 0.000000 0.000000 0.000000 0.048750 0.000000 -0.007274
# 5 -0.003798 0.009241 -0.008196 0.000000 0.072887 0.000000
# 6 0.000000 0.000000 0.000000 -0.007274 0.000000 0.043160
#
#
# Mechanical properties :
#
#
# Convention : Reuss Voigt Hill
#
# Bulk Modulus (GPa) = 46.15068 46.72767 46.43917
# Shear Modulus (GPa) = 22.23056 26.98546 24.60801
#
# Velocity S-wave (km/s) = 3.23119 3.56002 3.39958
# Velocity P-wave (km/s) = 5.96619 6.23249 6.10080
#
# Compressibility (1/GPa) = 0.02166815
#
# Stress axis : x y z
#
# Youngs Moduli (GPa) = 89.61779 73.39964 80.00308
#
# Poissons Ratio (x) = 0.17926 0.02080
# Poissons Ratio (y) = 0.21887 0.40839
# Poissons Ratio (z) = 0.02330 0.37468
#
# Static dielectric constant tensor:
#      x y z
#    x 1.818110 0.000000 -0.035680 
#    y 0.000000 1.789960 0.000000 
#    z -0.035680 0.000000 1.854580 
# 
# From -- ./inp_files/11720.got.cif
#   From: 2010.05.17/outbox.cif.g08.bks.cpg/sg8_6_cif.got.tgz:11720.got - 2010.06.03 19:46:02.
