data_PCOD9132980
_publ_section_title
;
Structure prediction by ZEFSAII (Michael W. Deem and Ramdas Pophale) SiO2 
 PCOD9132980
Probable space group: C M
;
_chemical_formula_sum "Si O2"
_cell_formula_units_Z 28
_cell_length_a 27.896971
_cell_length_b 8.231398
_cell_length_c 5.179813
_cell_angle_alpha 90.000000
_cell_angle_beta 99.736781
_cell_angle_gamma 90.000000
_cell_volume 1172.312163
_symmetry_space_group_name_H-M "C M"
_symmetry_group_IT_number 8
_symmetry_cell_setting 'monoclinic'
loop_
_space_group_symop_operation_xyz
x,y,z
x,-y,z
1/2+x,1/2+y,z
1/2+x,1/2-y,z
loop_
_atom_site_type_symbol
_atom_site_label
_atom_site_fract_x
_atom_site_fract_y
_atom_site_fract_z
Si Si1 0.360000 0.302943 0.477120
Si Si2 0.689538 0.305836 0.896824
Si Si3 0.437153 0.822714 0.910833
Si Si4 0.052697 0.322978 0.919256
Si Si5 0.799702 0.805831 0.933605
Si Si6 0.629095 0.302919 0.353553
Si Si7 0.029389 0.000000 0.698161
Si Si8 0.960919 0.000000 0.142842
O O1 0.368013 0.500000 0.477917
O O2 0.408999 0.217966 0.621424
O O3 0.322398 0.266802 0.677166
O O4 0.334084 0.243374 0.194827
O O5 0.689188 0.500000 0.872030
O O6 0.744654 0.250017 0.916525
O O7 0.655555 0.243176 0.634591
O O8 0.666384 0.266850 0.151713
O O9 0.494840 0.830907 0.912001
O O10 0.430162 0.664536 0.084993
O O11 0.422153 0.000000 0.996015
O O12 0.068083 0.500000 0.835739
O O13 0.060306 0.164561 0.747146
O O14 0.080020 0.282508 0.210621
O O15 0.800118 0.000000 0.958198
O O16 0.621086 0.500000 0.352576
O O17 0.996327 0.000000 0.925918
O O18 0.994091 0.000000 0.423650
#
# Coordination Sequence:
#
# PCOD9132980 Si02
#       8
#     4   4   4   4   4   4   2   2
#     4  10  21  39  61  89 123 165 208 255 314 379
#     4  10  22  39  62  89 122 160 207 259 316 379
#     4  10  22  41  65  96 130 170 219 262 314 380
#     4  10  22  41  65  96 130 170 219 262 314 380
#     4  10  22  39  62  89 122 160 207 259 316 379
#     4  10  21  39  61  89 123 165 208 255 314 379
#     4  10  22  40  62  86 124 168 204 258 314 360
#     4  10  22  40  62  86 124 168 204 258 314 360
#
# _framework density 23.884425
#
# number of rings (size 3 to 8) (size 9 to 14) (size 15 to 20)
#    0.000    2.000    1.429    0.857    0.000    7.429 
#    0.000    5.714    0.000    0.000    0.000    0.000 
#    0.000    0.000    0.000    0.000    0.000    0.000 
#
# Total GULP energy -78378.378541 kJ/mol
# GULP energy per Si atom -5598.455610 kJ/mol
# Density = 2.383006 g / cm^3
# Si number density = 23.884425 Si / 1000 Ang^3
#
#
#
# Elastic Constant Matrix: (Units=GPa)
#
#
# Indices 1 2 3 4 5 6 
#
# 1 125.9598 10.3450 46.0477 0.0000 24.1890 0.0000
# 2 10.3450 132.9915 36.9133 0.0000 1.9346 0.0000
# 3 46.0477 36.9133 110.7281 0.0000 18.1435 0.0000
# 4 0.0000 0.0000 0.0000 15.2155 0.0000 8.3455
# 5 24.1890 1.9346 18.1435 0.0000 40.9283 0.0000
# 6 0.0000 0.0000 0.0000 8.3455 0.0000 31.7027
#
#
#
# Elastic Compliance Matrix: (Units=1/GPa)
#
#
# Indices 1 2 3 4 5 6 
#
# 1 0.010058 0.000268 -0.003554 0.000000 -0.004381 0.000000
# 2 0.000268 0.008324 -0.003015 0.000000 0.000785 0.000000
# 3 -0.003554 -0.003015 0.012020 0.000000 -0.003085 0.000000
# 4 0.000000 0.000000 0.000000 0.076813 0.000000 -0.020221
# 5 -0.004381 0.000785 -0.003085 0.000000 0.028353 0.000000
# 6 0.000000 0.000000 0.000000 -0.020221 0.000000 0.036866
#
#
# Mechanical properties :
#
#
# Convention : Reuss Voigt Hill
#
# Bulk Modulus (GPa) = 56.18237 61.81015 58.99626
# Shear Modulus (GPa) = 26.18230 35.99419 31.08825
#
# Velocity S-wave (km/s) = 3.31450 3.88624 3.61170
# Velocity P-wave (km/s) = 6.18235 6.78765 6.49206
#
# Compressibility (1/GPa) = 0.01779918
#
# Stress axis : x y z
#
# Youngs Moduli (GPa) = 99.42651 120.13686 83.19662
#
# Poissons Ratio (x) = -0.03218 0.29568
# Poissons Ratio (y) = -0.02663 0.25083
# Poissons Ratio (z) = 0.35336 0.36220
#
# Static dielectric constant tensor:
#      x y z
#    x 2.803970 0.000000 -0.538140 
#    y 0.000000 1.954820 0.000000 
#    z -0.538140 0.000000 2.173610 
# 
# From -- ./inp_files/6381.got.cif
#   From: 2010.05.17/outbox.cif.g08.bks.cpg/sg8_4_cif.got.tgz:6381.got - 2010.06.03 19:46:02.
