data_PCOD9132751
_publ_section_title
;
Structure prediction by ZEFSAII (Michael W. Deem and Ramdas Pophale) SiO2 
 PCOD9132751
Probable space group: C M
;
_chemical_formula_sum "Si O2"
_cell_formula_units_Z 28
_cell_length_a 7.524143
_cell_length_b 24.752388
_cell_length_c 8.394307
_cell_angle_alpha 90.000000
_cell_angle_beta 127.258955
_cell_angle_gamma 90.000000
_cell_volume 1244.289768
_symmetry_space_group_name_H-M "C M"
_symmetry_group_IT_number 8
_symmetry_cell_setting 'monoclinic'
loop_
_space_group_symop_operation_xyz
x,y,z
x,-y,z
1/2+x,1/2+y,z
1/2+x,1/2-y,z
loop_
_atom_site_type_symbol
_atom_site_label
_atom_site_fract_x
_atom_site_fract_y
_atom_site_fract_z
Si Si1 0.473530 0.185379 0.109020
Si Si2 0.431973 0.322813 0.544151
Si Si3 0.760763 0.766877 0.760937
Si Si4 0.608980 0.137829 0.866072
Si Si5 0.952358 0.561407 0.512621
Si Si6 0.462042 0.561678 0.670255
Si Si7 0.121229 0.113265 0.081853
O O1 0.705131 0.188169 0.327355
O O2 0.274322 0.163816 0.110719
O O3 0.408349 0.239443 0.979053
O O4 0.511765 0.142311 0.988313
O O5 0.623647 0.280887 0.600576
O O6 0.380414 0.305808 0.699677
O O7 0.500725 0.385719 0.579944
O O8 0.589632 0.805346 0.762700
O O9 0.488912 0.094107 0.693508
O O10 0.875639 0.127646 0.013043
O O11 0.901393 0.500000 0.522235
O O12 0.765072 0.584655 0.295607
O O13 0.194089 0.563852 0.556070
O O14 0.517246 0.500000 0.650175
O O15 0.578492 0.575747 0.902926
#
# Coordination Sequence:
#
# PCOD9132751 Si02
#       7
#     4   4   4   4   4   4   4
#     4  12  26  42  68  99 135 177 225 277 335 403
#     4  12  25  43  67 100 133 181 229 275 347 411
#     4  12  23  44  63  96 142 175 221 282 335 405
#     4  11  25  43  67  98 137 175 225 281 334 408
#     4  10  21  42  71  98 134 179 222 282 345 401
#     4  10  20  40  69  99 132 173 227 281 332 407
#     4  11  21  44  70  98 134 176 226 272 344 401
#
# _framework density 22.502794999999999
#
# number of rings (size 3 to 8) (size 9 to 14) (size 15 to 20)
#    0.000    0.857    7.143    0.429    2.000    2.857 
#    0.000    2.143    0.000    0.000    0.000    0.000 
#    0.000    0.000    0.000    0.000    0.000    0.000 
#
# Total GULP energy -78338.626705 kJ/mol
# GULP energy per Si atom -5595.616193 kJ/mol
# Density = 2.245158 g / cm^3
# Si number density = 22.502795 Si / 1000 Ang^3
#
#
#
# Elastic Constant Matrix: (Units=GPa)
#
#
# Indices 1 2 3 4 5 6 
#
# 1 73.4514 27.6063 23.4425 0.0000 17.9237 0.0000
# 2 27.6063 148.8510 54.7139 0.0000 6.8486 0.0000
# 3 23.4425 54.7139 158.9787 0.0000 29.2852 0.0000
# 4 0.0000 0.0000 0.0000 28.4690 0.0000 3.6935
# 5 17.9237 6.8486 29.2852 0.0000 27.4307 0.0000
# 6 0.0000 0.0000 0.0000 3.6935 0.0000 18.8870
#
#
#
# Elastic Compliance Matrix: (Units=1/GPa)
#
#
# Indices 1 2 3 4 5 6 
#
# 1 0.017237 -0.002865 0.000482 0.000000 -0.011062 0.000000
# 2 -0.002865 0.008195 -0.002945 0.000000 0.002970 0.000000
# 3 0.000482 -0.002945 0.008907 0.000000 -0.009089 0.000000
# 4 0.000000 0.000000 0.000000 0.036040 0.000000 -0.007048
# 5 -0.011062 0.002970 -0.009089 0.000000 0.052645 0.000000
# 6 0.000000 0.000000 0.000000 -0.007048 0.000000 0.054325
#
#
# Mechanical properties :
#
#
# Convention : Reuss Voigt Hill
#
# Bulk Modulus (GPa) = 42.22462 65.86737 54.04600
# Shear Modulus (GPa) = 25.52321 33.32523 29.42422
#
# Velocity S-wave (km/s) = 3.37148 3.85247 3.61997
# Velocity P-wave (km/s) = 5.82758 7.00878 6.44530
#
# Compressibility (1/GPa) = 0.02368286
#
# Stress axis : x y z
#
# Youngs Moduli (GPa) = 58.01547 122.01971 112.27241
#
# Poissons Ratio (x) = 0.34959 -0.05413
# Poissons Ratio (y) = 0.16621 0.33066
# Poissons Ratio (z) = -0.02797 0.35937
#
# Static dielectric constant tensor:
#      x y z
#    x 1.853310 0.000000 0.019630 
#    y 0.000000 1.852090 0.000000 
#    z 0.019630 0.000000 1.794960 
# 
# From -- ./inp_files/9235.got.cif
#   From: 2010.05.17/outbox.cif.g08.bks.cpg/sg8_5_cif.got.tgz:9235.got - 2010.06.03 19:46:02.
