data_PCOD9132641
_publ_section_title
;
Structure prediction by ZEFSAII (Michael W. Deem and Ramdas Pophale) SiO2 
 PCOD9132641
Probable space group: C M
;
_chemical_formula_sum "Si O2"
_cell_formula_units_Z 32
_cell_length_a 13.842805
_cell_length_b 19.147043
_cell_length_c 8.896184
_cell_angle_alpha 90.000000
_cell_angle_beta 46.875802
_cell_angle_gamma 90.000000
_cell_volume 1720.985655
_symmetry_space_group_name_H-M "C M"
_symmetry_group_IT_number 8
_symmetry_cell_setting 'monoclinic'
loop_
_space_group_symop_operation_xyz
x,y,z
x,-y,z
1/2+x,1/2+y,z
1/2+x,1/2-y,z
loop_
_atom_site_type_symbol
_atom_site_label
_atom_site_fract_x
_atom_site_fract_y
_atom_site_fract_z
Si Si1 0.991320 0.638539 0.570290
Si Si2 0.265584 0.577669 0.287846
Si Si3 0.243681 0.079807 0.675340
Si Si4 0.887662 0.421496 0.218528
Si Si5 0.388312 0.796780 0.979289
Si Si6 0.687244 0.076506 0.018734
Si Si7 0.633265 0.778640 0.153793
Si Si8 0.012824 0.179609 0.036387
O O1 0.878685 0.587364 0.627280
O O2 0.927501 0.682965 0.769907
O O3 0.121871 0.601511 0.498632
O O4 0.040738 0.683972 0.375640
O O5 0.300050 0.500000 0.304281
O O6 0.236854 0.573717 0.138585
O O7 0.381977 0.632136 0.196090
O O8 0.283304 0.096337 0.460885
O O9 0.196903 0.000000 0.730562
O O10 0.133771 0.130787 0.858145
O O11 0.858833 0.500000 0.191812
O O12 0.030640 0.425887 0.148537
O O13 0.891934 0.363650 0.085089
O O14 0.243323 0.763567 0.127255
O O15 0.482975 0.736758 0.941201
O O16 0.705803 0.160734 0.974173
O O17 0.736426 0.000000 0.901870
O O18 0.551618 0.725201 0.139509
#
# Coordination Sequence:
#
# PCOD9132641 Si02
#       8
#     4   4   4   4   4   4   4   4
#     4  11  22  39  65  86 121 166 209 256 303 371
#     4  10  20  38  62  89 119 159 206 253 306 364
#     4  11  22  39  63  93 125 167 210 252 306 371
#     4  10  21  39  63  88 122 163 207 256 304 361
#     4  12  24  39  60  93 126 159 206 260 313 367
#     4   9  16  33  61  84 111 153 202 245 290 354
#     4  11  22  41  59  94 124 159 202 258 319 360
#     4  12  23  38  62  93 127 160 202 260 315 372
#
# _framework density 18.593995
#
# number of rings (size 3 to 8) (size 9 to 14) (size 15 to 20)
#    0.000    1.250    7.500    0.750    1.750    2.000 
#    0.000    0.000    0.000    0.000    0.000    0.000 
#    0.000    0.000    0.000    0.000    0.000    0.000 
#
# Total GULP energy -89079.349105 kJ/mol
# GULP energy per Si atom -5567.459319 kJ/mol
# Density = 1.855167 g / cm^3
# Si number density = 18.593995 Si / 1000 Ang^3
#
#
#
# Elastic Constant Matrix: (Units=GPa)
#
#
# Indices 1 2 3 4 5 6 
#
# 1 69.1153 43.2702 13.0745 0.0000 -4.8456 0.0000
# 2 43.2702 132.3002 38.9887 0.0000 1.9864 0.0000
# 3 13.0745 38.9887 42.1861 0.0000 2.4411 0.0000
# 4 0.0000 0.0000 0.0000 199.0504 0.0000 590.2638
# 5 -4.8456 1.9864 2.4411 0.0000 20.0236 0.0000
# 6 0.0000 0.0000 0.0000 590.2638 0.0000 1974.2612
#
#
#
# Elastic Compliance Matrix: (Units=1/GPa)
#
#
# Indices 1 2 3 4 5 6 
#
# 1 0.018716 -0.006049 -0.000511 0.000000 0.005191 0.000000
# 2 -0.006049 0.012343 -0.009444 0.000000 -0.001537 0.000000
# 3 -0.000511 -0.009444 0.032775 0.000000 -0.003182 0.000000
# 4 0.000000 0.000000 0.000000 0.044300 0.000000 -0.013245
# 5 0.005191 -0.001537 -0.003182 0.000000 0.051738 0.000000
# 6 0.000000 0.000000 0.000000 -0.013245 0.000000 0.004466
#
#
# Mechanical properties :
#
#
# Convention : Reuss Voigt Hill
#
# Bulk Modulus (GPa) = 31.41943 48.25204 39.83573
# Shear Modulus (GPa) = 24.15996 448.55158 236.35577
#
# Velocity S-wave (km/s) = 3.60855 15.54858 11.28672
# Velocity P-wave (km/s) = 5.85632 18.66417 13.83198
#
# Compressibility (1/GPa) = 0.03182744
#
# Stress axis : x y z
#
# Youngs Moduli (GPa) = 53.43025 81.01705 30.51094
#
# Poissons Ratio (x) = 0.49005 0.01558
# Poissons Ratio (y) = 0.32318 0.28815
# Poissons Ratio (z) = 0.02728 0.76513
#
# Static dielectric constant tensor:
#      x y z
#    x 1.640550 0.000000 -0.010940 
#    y 0.000000 1.484490 0.000000 
#    z -0.010940 0.000000 1.638930 
# 
# From -- ./inp_files/11448.got.cif
#   From: 2010.05.17/outbox.cif.g08.bks.cpg/sg8_6_cif.got.tgz:11448.got - 2010.06.03 19:46:02.
