data_PCOD9132183
_publ_section_title
;
Structure prediction by ZEFSAII (Michael W. Deem and Ramdas Pophale) SiO2 
 PCOD9132183
Probable space group: C M
;
_chemical_formula_sum "Si O2"
_cell_formula_units_Z 24
_cell_length_a 7.385037
_cell_length_b 23.489574
_cell_length_c 9.373854
_cell_angle_alpha 90.000000
_cell_angle_beta 135.493404
_cell_angle_gamma 90.000000
_cell_volume 1139.878790
_symmetry_space_group_name_H-M "C M"
_symmetry_group_IT_number 8
_symmetry_cell_setting 'monoclinic'
loop_
_space_group_symop_operation_xyz
x,y,z
x,-y,z
1/2+x,1/2+y,z
1/2+x,1/2-y,z
loop_
_atom_site_type_symbol
_atom_site_label
_atom_site_fract_x
_atom_site_fract_y
_atom_site_fract_z
Si Si1 0.487850 0.136823 0.280430
Si Si2 0.503077 0.565436 0.529316
Si Si3 0.346347 0.720687 0.628941
Si Si4 0.852948 0.350423 0.878320
Si Si5 0.326744 0.067649 0.437701
Si Si6 0.109081 0.667119 0.750554
O O1 0.742998 0.097924 0.417435
O O2 0.591693 0.193863 0.414848
O O3 0.291862 0.100812 0.268862
O O4 0.407732 0.148034 0.075019
O O5 0.468499 0.500000 0.542065
O O6 0.734868 0.590815 0.753507
O O7 0.586942 0.571821 0.411412
O O8 0.611191 0.692503 0.720550
O O9 0.374544 0.786834 0.606589
O O10 0.331929 0.697951 0.785244
O O11 0.101987 0.338339 0.917978
O O12 0.544635 0.106874 0.639700
O O13 0.387289 0.000000 0.456061
#
# Coordination Sequence:
#
# PCOD9132183 Si02
#       6
#     4   4   4   4   4   4
#     4  10  21  36  58  86 114 152 197 239 289 340
#     4   9  19  36  58  81 116 155 190 235 287 340
#     4  10  20  38  56  81 117 152 190 239 293 344
#     4  10  21  37  56  88 114 151 195 240 286 342
#     4   9  19  36  58  84 115 153 194 235 286 343
#     4  10  19  37  60  80 119 155 190 240 289 345
#
# _framework density 21.054870000000001
#
# number of rings (size 3 to 8) (size 9 to 14) (size 15 to 20)
#    0.000    2.333    1.667    0.500    0.000    2.667 
#    6.000    0.000    0.000    8.000    0.000    0.000 
#    0.000    0.000    0.000    0.000    0.000    0.000 
#
# Total GULP energy -66804.937409 kJ/mol
# GULP energy per Si atom -5567.078117 kJ/mol
# Density = 2.100695 g / cm^3
# Si number density = 21.054870 Si / 1000 Ang^3
#
#
#
# Elastic Constant Matrix: (Units=GPa)
#
#
# Indices 1 2 3 4 5 6 
#
# 1 84.8839 1.6930 9.8024 0.0000 -25.2564 0.0000
# 2 1.6930 93.8338 8.6284 0.0000 -5.9275 0.0000
# 3 9.8024 8.6284 72.2061 0.0000 -34.5844 0.0000
# 4 0.0000 0.0000 0.0000 5.2993 0.0000 -9.6272
# 5 -25.2564 -5.9275 -34.5844 0.0000 30.2968 0.0000
# 6 0.0000 0.0000 0.0000 -9.6272 0.0000 29.0615
#
#
#
# Elastic Compliance Matrix: (Units=1/GPa)
#
#
# Indices 1 2 3 4 5 6 
#
# 1 0.018970 0.000444 0.011004 0.000000 0.028462 0.000000
# 2 0.000444 0.010813 -0.000357 0.000000 0.002078 0.000000
# 3 0.011004 -0.000357 0.036974 0.000000 0.051310 0.000000
# 4 0.000000 0.000000 0.000000 0.473913 0.000000 0.156993
# 5 0.028462 0.002078 0.051310 0.000000 0.115712 0.000000
# 6 0.000000 0.000000 0.000000 0.156993 0.000000 0.086417
#
#
# Mechanical properties :
#
#
# Convention : Reuss Voigt Hill
#
# Bulk Modulus (GPa) = 11.24370 32.35237 21.79804
# Shear Modulus (GPa) = 6.66432 28.31818 17.49125
#
# Velocity S-wave (km/s) = 1.78104 3.67136 2.88539
# Velocity P-wave (km/s) = 3.09536 5.77676 4.63423
#
# Compressibility (1/GPa) = 0.08893868
#
# Stress axis : x y z
#
# Youngs Moduli (GPa) = 52.71532 92.47921 27.04609
#
# Poissons Ratio (x) = -0.04105 -0.29762
# Poissons Ratio (y) = -0.02340 0.00966
# Poissons Ratio (z) = -0.58009 0.03303
#
# Static dielectric constant tensor:
#      x y z
#    x 1.799750 0.000000 -0.047620 
#    y 0.000000 1.792100 0.000000 
#    z -0.047620 0.000000 1.762220 
# 
# From -- ./inp_files/8655.got.cif
#   From: 2010.05.17/outbox.cif.g08.bks.cpg/sg8_5_cif.got.tgz:8655.got - 2010.06.03 19:46:02.
