data_PCOD9132991
_publ_section_title
;
Structure prediction by ZEFSAII (Michael W. Deem and Ramdas Pophale) SiO2 
 PCOD9132991
Probable space group: C M
;
_chemical_formula_sum "Si O2"
_cell_formula_units_Z 20
_cell_length_a 7.579115
_cell_length_b 20.315715
_cell_length_c 7.077849
_cell_angle_alpha 90.000000
_cell_angle_beta 121.765980
_cell_angle_gamma 90.000000
_cell_volume 926.564753
_symmetry_space_group_name_H-M "C M"
_symmetry_group_IT_number 8
_symmetry_cell_setting 'monoclinic'
loop_
_space_group_symop_operation_xyz
x,y,z
x,-y,z
1/2+x,1/2+y,z
1/2+x,1/2-y,z
loop_
_atom_site_type_symbol
_atom_site_label
_atom_site_fract_x
_atom_site_fract_y
_atom_site_fract_z
Si Si1 0.733940 0.634731 0.308980
Si Si2 0.149609 0.572430 0.579378
Si Si3 0.057528 0.691662 0.750344
Si Si4 0.251773 0.165118 0.880536
Si Si5 0.468769 0.577630 0.452364
O O1 0.851206 0.690628 0.499402
O O2 0.520473 0.615384 0.288379
O O3 0.900434 0.575719 0.431073
O O4 0.735790 0.650864 0.091921
O O5 0.220174 0.500000 0.682643
O O6 0.247002 0.584991 0.428534
O O7 0.200340 0.634369 0.741081
O O8 0.977883 0.670510 0.911661
O O9 0.155611 0.762641 0.798249
O O10 0.128065 0.109747 0.693261
O O11 0.504254 0.500000 0.448145
#
# Coordination Sequence:
#
# PCOD9132991 Si02
#       5
#     4   4   4   4   4
#     4   9  22  39  62  88 123 163 204 254 297 365
#     4   9  19  42  65  87 125 162 198 252 309 360
#     4   9  22  38  60  93 122 159 204 252 305 357
#     4  11  21  40  62  92 125 166 204 253 306 370
#     4  10  21  39  63  90 126 164 202 255 306 362
#
# _framework density 21.58511
#
# number of rings (size 3 to 8) (size 9 to 14) (size 15 to 20)
#    1.200    1.200    0.000    1.800    0.000    4.800 
#    7.200    0.000    0.000    0.000    0.000    0.000 
#    0.000    0.000    0.000    0.000    0.000    0.000 
#
# Total GULP energy -55730.234475 kJ/mol
# GULP energy per Si atom -5573.023448 kJ/mol
# Density = 2.153598 g / cm^3
# Si number density = 21.585110 Si / 1000 Ang^3
#
#
#
# Elastic Constant Matrix: (Units=GPa)
#
#
# Indices 1 2 3 4 5 6 
#
# 1 86.7528 5.4472 16.5793 0.0000 -38.1538 0.0000
# 2 5.4472 86.3855 35.7400 0.0000 -16.1150 0.0000
# 3 16.5793 35.7400 102.9722 0.0000 -42.1632 0.0000
# 4 0.0000 0.0000 0.0000 7.3352 0.0000 -10.4355
# 5 -38.1538 -16.1150 -42.1632 0.0000 39.7296 0.0000
# 6 0.0000 0.0000 0.0000 -10.4355 0.0000 5.9584
#
#
#
# Elastic Compliance Matrix: (Units=1/GPa)
#
#
# Indices 1 2 3 4 5 6 
#
# 1 0.024866 0.000799 0.009956 0.000000 0.034769 0.000000
# 2 0.000799 0.013561 -0.004012 0.000000 0.002010 0.000000
# 3 0.009956 -0.004012 0.022547 0.000000 0.031862 0.000000
# 4 0.000000 0.000000 0.000000 -0.091396 0.000000 -0.160070
# 5 0.034769 0.002010 0.031862 0.000000 0.093189 0.000000
# 6 0.000000 0.000000 0.000000 -0.160070 0.000000 -0.112514
#
#
# Mechanical properties :
#
#
# Convention : Reuss Voigt Hill
#
# Bulk Modulus (GPa) = 13.43034 43.51594 28.47314
# Shear Modulus (GPa) = -130.16367 25.16090 -52.50139
#
# Velocity S-wave (km/s) = -7.77389 3.41788 -4.93718
# Velocity P-wave (km/s) = 8.62220 5.98162 4.39105
#
# Compressibility (1/GPa) = 0.07445829
#
# Stress axis : x y z
#
# Youngs Moduli (GPa) = 40.21619 73.74314 44.35142
#
# Poissons Ratio (x) = -0.05894 -0.44155
# Poissons Ratio (y) = -0.03214 0.17796
# Poissons Ratio (z) = -0.40038 0.29589
#
# Static dielectric constant tensor:
#      x y z
#    x 1.830010 0.000000 0.011410 
#    y 0.000000 1.751310 0.000000 
#    z 0.011410 0.000000 1.789880 
# 
# From -- ./inp_files/1301.got.cif
#   From: 2010.05.17/outbox.cif.g08.bks.cpg/sg8_1_cif.got.tgz:1301.got - 2010.06.03 19:46:02.
