data_PCOD9132986
_publ_section_title
;
Structure prediction by ZEFSAII (Michael W. Deem and Ramdas Pophale) SiO2 
 PCOD9132986
Probable space group: C M
;
_chemical_formula_sum "Si O2"
_cell_formula_units_Z 32
_cell_length_a 12.107369
_cell_length_b 19.963871
_cell_length_c 8.256112
_cell_angle_alpha 90.000000
_cell_angle_beta 51.043925
_cell_angle_gamma 90.000000
_cell_volume 1551.822723
_symmetry_space_group_name_H-M "C M"
_symmetry_group_IT_number 8
_symmetry_cell_setting 'monoclinic'
loop_
_space_group_symop_operation_xyz
x,y,z
x,-y,z
1/2+x,1/2+y,z
1/2+x,1/2-y,z
loop_
_atom_site_type_symbol
_atom_site_label
_atom_site_fract_x
_atom_site_fract_y
_atom_site_fract_z
Si Si1 0.885530 0.076762 0.538660
Si Si2 0.586986 0.853622 0.787739
Si Si3 0.984899 0.303055 0.218661
Si Si4 0.654151 0.284681 0.559610
Si Si5 0.404795 0.072640 0.439801
Si Si6 0.096298 0.074129 0.651921
Si Si7 0.610687 0.326415 0.225737
Si Si8 0.838281 0.425299 0.873343
O O1 0.738320 0.115718 0.699300
O O2 0.984310 0.072985 0.608484
O O3 0.978098 0.122827 0.333679
O O4 0.862930 0.000000 0.505861
O O5 0.599618 0.787089 0.666703
O O6 0.498687 0.910528 0.778059
O O7 0.500805 0.830860 0.024833
O O8 0.825081 0.282188 0.414093
O O9 0.010561 0.367276 0.308690
O O10 0.086888 0.240672 0.147035
O O11 0.589592 0.348398 0.720489
O O12 0.621055 0.301776 0.402651
O O13 0.265741 0.074170 0.450166
O O14 0.336619 0.078737 0.680420
O O15 0.473108 0.000000 0.361302
O O16 0.077911 0.000000 0.752054
O O17 0.743027 0.368827 0.042402
O O18 0.792905 0.500000 0.964599
#
# Coordination Sequence:
#
# PCOD9132986 Si02
#       8
#     4   4   4   4   4   4   4   4
#     4  10  21  39  62  91 125 161 205 264 319 370
#     4  12  24  40  64  95 129 166 211 260 321 383
#     4  11  23  39  61  93 125 164 208 262 315 376
#     4  10  21  40  59  92 126 160 204 262 319 366
#     4   9  20  40  65  92 127 167 211 264 315 372
#     4   8  17  35  63  88 115 159 205 249 306 365
#     4  11  22  40  64  92 126 167 213 260 312 376
#     4  11  24  41  66  97 127 168 215 261 313 378
#
# _framework density 20.620912000000001
#
# number of rings (size 3 to 8) (size 9 to 14) (size 15 to 20)
#    0.000    1.750    2.500    1.500    3.500    3.500 
#    0.000    0.000    0.000    0.000    0.000    0.000 
#    0.000    0.000    0.000    0.000    0.000    0.000 
#
# Total GULP energy -89143.272910 kJ/mol
# GULP energy per Si atom -5571.454557 kJ/mol
# Density = 2.057398 g / cm^3
# Si number density = 20.620912 Si / 1000 Ang^3
#
#
#
# Elastic Constant Matrix: (Units=GPa)
#
#
# Indices 1 2 3 4 5 6 
#
# 1 63.8106 34.7503 14.2586 0.0000 -5.7254 0.0000
# 2 34.7503 158.8699 30.1190 0.0000 2.0275 0.0000
# 3 14.2586 30.1190 48.1338 0.0000 -2.0617 0.0000
# 4 0.0000 0.0000 0.0000 28.1068 0.0000 -8.1095
# 5 -5.7254 2.0275 -2.0617 0.0000 21.0293 0.0000
# 6 0.0000 0.0000 0.0000 -8.1095 0.0000 25.9799
#
#
#
# Elastic Compliance Matrix: (Units=1/GPa)
#
#
# Indices 1 2 3 4 5 6 
#
# 1 0.018779 -0.003586 -0.003098 0.000000 0.005155 0.000000
# 2 -0.003586 0.007853 -0.003943 0.000000 -0.002120 0.000000
# 3 -0.003098 -0.003943 0.024242 0.000000 0.001913 0.000000
# 4 0.000000 0.000000 0.000000 0.039100 0.000000 0.012205
# 5 0.005155 -0.002120 0.001913 0.000000 0.049348 0.000000
# 6 0.000000 0.000000 0.000000 0.012205 0.000000 0.042301
#
#
# Mechanical properties :
#
#
# Convention : Reuss Voigt Hill
#
# Bulk Modulus (GPa) = 33.75998 47.67445 40.71722
# Shear Modulus (GPa) = 23.50167 27.80231 25.65199
#
# Velocity S-wave (km/s) = 3.37961 3.67585 3.53084
# Velocity P-wave (km/s) = 5.62461 6.41759 6.03414
#
# Compressibility (1/GPa) = 0.02962087
#
# Stress axis : x y z
#
# Youngs Moduli (GPa) = 53.25070 127.33398 41.25043
#
# Poissons Ratio (x) = 0.45663 0.12780
# Poissons Ratio (y) = 0.19096 0.16264
# Poissons Ratio (z) = 0.16498 0.50203
#
# Static dielectric constant tensor:
#      x y z
#    x 1.771940 0.000000 0.015910 
#    y 0.000000 1.802210 0.000000 
#    z 0.015910 0.000000 1.715310 
# 
# From -- ./inp_files/11445.got.cif
#   From: 2010.05.17/outbox.cif.g08.bks.cpg/sg8_6_cif.got.tgz:11445.got - 2010.06.03 19:46:02.
