data_PCOD9132698
_publ_section_title
;
Structure prediction by ZEFSAII (Michael W. Deem and Ramdas Pophale) SiO2 
 PCOD9132698
Probable space group: C M
;
_chemical_formula_sum "Si O2"
_cell_formula_units_Z 28
_cell_length_a 8.087964
_cell_length_b 31.064111
_cell_length_c 4.954639
_cell_angle_alpha 90.000000
_cell_angle_beta 116.060819
_cell_angle_gamma 90.000000
_cell_volume 1118.266191
_symmetry_space_group_name_H-M "C M"
_symmetry_group_IT_number 8
_symmetry_cell_setting 'monoclinic'
loop_
_space_group_symop_operation_xyz
x,y,z
x,-y,z
1/2+x,1/2+y,z
1/2+x,1/2-y,z
loop_
_atom_site_type_symbol
_atom_site_label
_atom_site_fract_x
_atom_site_fract_y
_atom_site_fract_z
Si Si1 0.903890 0.229399 0.544440
Si Si2 0.215155 0.000000 0.029680
Si Si3 0.095362 0.582978 0.487940
Si Si4 0.440569 0.000000 0.673710
Si Si5 0.003895 0.852543 0.295953
Si Si6 0.496029 0.781397 0.140472
Si Si7 0.035482 0.093016 0.809019
Si Si8 0.559139 0.132021 0.952050
O O1 0.696565 0.212798 0.425133
O O2 0.020968 0.193648 0.460511
O O3 0.877541 0.267219 0.308067
O O4 0.978415 0.246731 0.882287
O O5 0.118785 0.954163 0.910100
O O6 0.248894 0.000000 0.374789
O O7 0.393737 0.000000 0.956309
O O8 0.029836 0.592707 0.138920
O O9 0.041991 0.540724 0.614351
O O10 0.315126 0.586234 0.647554
O O11 0.015237 0.620768 0.615960
O O12 0.071497 0.868993 0.053385
O O13 0.779573 0.857764 0.117707
O O14 0.085487 0.887893 0.556339
O O15 0.453157 0.826577 0.976413
#
# Coordination Sequence:
#
# PCOD9132698 Si02
#       8
#     4   2   4   2   4   4   4   4
#     4  11  22  39  61  89 123 159 199 248 301 355
#     4  12  25  40  57  86 124 152 178 236 309 356
#     4  10  20  39  63  84 107 151 204 240 277 345
#     4  12  25  40  57  86 124 152 178 236 309 356
#     4   9  19  36  61  86 112 149 199 248 285 332
#     4  11  22  39  61  89 123 159 199 248 301 355
#     4  10  20  39  63  84 107 151 204 240 277 345
#     4   9  19  36  61  86 112 149 199 248 285 332
#
# _framework density 25.038762999999999
#
# number of rings (size 3 to 8) (size 9 to 14) (size 15 to 20)
#    0.000    1.714    0.000    4.714    0.000    4.571 
#    0.000   20.000    0.000    0.000    0.000    0.000 
#    0.000    0.000    0.000    0.000    0.000    0.000 
#
# Total GULP energy -78233.515443 kJ/mol
# GULP energy per Si atom -5588.108246 kJ/mol
# Density = 2.498177 g / cm^3
# Si number density = 25.038763 Si / 1000 Ang^3
#
#
#
# Elastic Constant Matrix: (Units=GPa)
#
#
# Indices 1 2 3 4 5 6 
#
# 1 57.7693 4.9931 13.3463 0.0000 -3.3199 0.0000
# 2 4.9931 70.5143 2.5272 0.0000 4.9463 0.0000
# 3 13.3463 2.5272 106.5294 0.0000 -14.3237 0.0000
# 4 0.0000 0.0000 0.0000 25.9916 0.0000 -15.6364
# 5 -3.3199 4.9463 -14.3237 0.0000 34.8236 0.0000
# 6 0.0000 0.0000 0.0000 -15.6364 0.0000 9.5819
#
#
#
# Elastic Compliance Matrix: (Units=1/GPa)
#
#
# Indices 1 2 3 4 5 6 
#
# 1 0.017960 -0.001270 -0.002081 0.000000 0.001037 0.000000
# 2 -0.001270 0.014457 -0.000504 0.000000 -0.002382 0.000000
# 3 -0.002081 -0.000504 0.010207 0.000000 0.004072 0.000000
# 4 0.000000 0.000000 0.000000 2.105873 0.000000 3.436526
# 5 0.001037 -0.002382 0.004072 0.000000 0.030828 0.000000
# 6 0.000000 0.000000 0.000000 3.436526 0.000000 5.712353
#
#
# Mechanical properties :
#
#
# Convention : Reuss Voigt Hill
#
# Bulk Modulus (GPa) = 28.64116 30.72735 29.68426
# Shear Modulus (GPa) = 0.63203 28.34253 14.48728
#
# Velocity S-wave (km/s) = 0.50296 3.36809 2.40801
# Velocity P-wave (km/s) = 3.43524 5.23679 4.42859
#
# Compressibility (1/GPa) = 0.03491478
#
# Stress axis : x y z
#
# Youngs Moduli (GPa) = 55.67852 69.17266 97.97040
#
# Poissons Ratio (x) = 0.08784 0.20383
# Poissons Ratio (y) = 0.07071 0.04939
# Poissons Ratio (z) = 0.11584 0.03487
#
# Static dielectric constant tensor:
#      x y z
#    x 1.967550 0.000000 0.044880 
#    y 0.000000 2.025590 0.000000 
#    z 0.044880 0.000000 1.913010 
# 
# From -- ./inp_files/1911.got.cif
#   From: 2010.05.17/outbox.cif.g08.bks.cpg/sg8_1_cif.got.tgz:1911.got - 2010.06.03 19:46:02.
