data_PCOD9132755
_publ_section_title
;
Structure prediction by ZEFSAII (Michael W. Deem and Ramdas Pophale) SiO2 
 PCOD9132755
Probable space group: C M
;
_chemical_formula_sum "Si O2"
_cell_formula_units_Z 28
_cell_length_a 12.714543
_cell_length_b 13.730553
_cell_length_c 7.895574
_cell_angle_alpha 90.000000
_cell_angle_beta 108.275526
_cell_angle_gamma 90.000000
_cell_volume 1308.864478
_symmetry_space_group_name_H-M "C M"
_symmetry_group_IT_number 8
_symmetry_cell_setting 'monoclinic'
loop_
_space_group_symop_operation_xyz
x,y,z
x,-y,z
1/2+x,1/2+y,z
1/2+x,1/2-y,z
loop_
_atom_site_type_symbol
_atom_site_label
_atom_site_fract_x
_atom_site_fract_y
_atom_site_fract_z
Si Si1 0.125000 0.387949 0.988820
Si Si2 0.751170 0.808786 0.725509
Si Si3 0.034947 0.757335 0.470442
Si Si4 0.488275 0.386908 0.769235
Si Si5 0.112270 0.806849 0.163843
Si Si6 0.368129 0.109131 0.879359
Si Si7 0.353500 0.109954 0.279613
O O1 0.147281 0.500000 0.048745
O O2 0.200865 0.354552 0.871295
O O3 0.994043 0.382736 0.876094
O O4 0.139709 0.306399 0.139662
O O5 0.649574 0.801775 0.545169
O O6 0.795224 0.698676 0.779471
O O7 0.857078 0.869355 0.720822
O O8 0.028648 0.827482 0.627373
O O9 0.039109 0.813352 0.294650
O O10 0.931635 0.685168 0.414081
O O11 0.514355 0.500000 0.766398
O O12 0.547703 0.345576 0.967009
O O13 0.225806 0.864582 0.243301
O O14 0.325857 0.000000 0.818128
O O15 0.374578 0.117018 0.087472
O O16 0.377937 0.000000 0.345207
#
# Coordination Sequence:
#
# PCOD9132755 Si02
#       7
#     4   4   4   4   4   4   4
#     4  11  22  40  70 104 138 183 231 279 349 417
#     4  12  22  45  68 104 144 184 227 295 346 416
#     4  12  26  45  71 100 142 182 231 289 349 416
#     4  12  27  48  70 101 141 185 233 293 358 418
#     4  12  24  46  74 101 140 180 236 293 346 412
#     4  10  20  40  71 102 137 184 233 284 344 413
#     4  11  23  42  68 100 136 180 229 285 346 410
#
# _framework density 21.392589000000001
#
# number of rings (size 3 to 8) (size 9 to 14) (size 15 to 20)
#    0.000    0.571    5.714    1.714    0.000    4.000 
#    0.000    5.714    0.000    0.000    0.000    0.000 
#    0.000    0.000    0.000    0.000    0.000    0.000 
#
# Total GULP energy -78382.343147 kJ/mol
# GULP energy per Si atom -5598.738796 kJ/mol
# Density = 2.134390 g / cm^3
# Si number density = 21.392589 Si / 1000 Ang^3
#
#
#
# Elastic Constant Matrix: (Units=GPa)
#
#
# Indices 1 2 3 4 5 6 
#
# 1 98.6143 38.9225 29.7856 0.0000 -9.2479 0.0000
# 2 38.9225 70.0556 41.9270 0.0000 7.9154 0.0000
# 3 29.7856 41.9270 104.5255 0.0000 -11.2483 0.0000
# 4 0.0000 0.0000 0.0000 8.0994 0.0000 2.0865
# 5 -9.2479 7.9154 -11.2483 0.0000 26.9167 0.0000
# 6 0.0000 0.0000 0.0000 2.0865 0.0000 17.6884
#
#
#
# Elastic Compliance Matrix: (Units=1/GPa)
#
#
# Indices 1 2 3 4 5 6 
#
# 1 0.014330 -0.009071 0.000389 0.000000 0.007754 0.000000
# 2 -0.009071 0.026915 -0.009841 0.000000 -0.015144 0.000000
# 3 0.000389 -0.009841 0.014376 0.000000 0.009035 0.000000
# 4 0.000000 0.000000 0.000000 0.127336 0.000000 -0.015021
# 5 0.007754 -0.015144 0.009035 0.000000 0.048045 0.000000
# 6 0.000000 0.000000 0.000000 -0.015021 0.000000 0.058306
#
#
# Mechanical properties :
#
#
# Convention : Reuss Voigt Hill
#
# Bulk Modulus (GPa) = 53.83291 54.94064 54.38677
# Shear Modulus (GPa) = 15.03562 21.37826 18.20694
#
# Velocity S-wave (km/s) = 2.65399 3.16465 2.92050
# Velocity P-wave (km/s) = 5.88307 6.25229 6.07049
#
# Compressibility (1/GPa) = 0.01857600
#
# Stress axis : x y z
#
# Youngs Moduli (GPa) = 69.78224 37.15446 69.56192
#
# Poissons Ratio (x) = 0.33702 -0.02708
# Poissons Ratio (y) = 0.63299 0.68454
# Poissons Ratio (z) = -0.02717 0.36563
#
# Static dielectric constant tensor:
#      x y z
#    x 1.772780 0.000000 -0.019190 
#    y 0.000000 1.758430 0.000000 
#    z -0.019190 0.000000 1.771200 
# 
# From -- ./inp_files/10662.got.cif
#   From: 2010.05.17/outbox.cif.g08.bks.cpg/sg8_6_cif.got.tgz:10662.got - 2010.06.03 19:46:02.
