data_PCOD9132967
_publ_section_title
;
Structure prediction by ZEFSAII (Michael W. Deem and Ramdas Pophale) SiO2 
 PCOD9132967
Probable space group: C M
;
_chemical_formula_sum "Si O2"
_cell_formula_units_Z 32
_cell_length_a 20.874383
_cell_length_b 8.864558
_cell_length_c 12.513121
_cell_angle_alpha 90.000000
_cell_angle_beta 127.828117
_cell_angle_gamma 90.000000
_cell_volume 1828.871861
_symmetry_space_group_name_H-M "C M"
_symmetry_group_IT_number 8
_symmetry_cell_setting 'monoclinic'
loop_
_space_group_symop_operation_xyz
x,y,z
x,-y,z
1/2+x,1/2+y,z
1/2+x,1/2-y,z
loop_
_atom_site_type_symbol
_atom_site_label
_atom_site_fract_x
_atom_site_fract_y
_atom_site_fract_z
Si Si1 0.243280 0.181782 0.153520
Si Si2 0.095685 0.320383 0.888307
Si Si3 0.341121 0.818563 0.867315
Si Si4 0.891379 0.683201 0.150448
Si Si5 0.153302 0.179244 0.724088
Si Si6 0.510337 0.180321 0.453660
Si Si7 0.860777 0.679097 0.463523
Si Si8 0.918211 0.821024 0.735706
O O1 0.309915 0.226325 0.131703
O O2 0.284920 0.216961 0.309615
O O3 0.233384 0.000000 0.136799
O O4 0.159607 0.262106 0.041502
O O5 0.090973 0.500000 0.882931
O O6 0.128565 0.262327 0.807827
O O7 0.007081 0.252333 0.816555
O O8 0.245787 0.787919 0.787153
O O9 0.375719 0.738659 0.798980
O O10 0.350674 0.000000 0.866101
O O11 0.385994 0.769105 0.022507
O O12 0.891458 0.500000 0.151763
O O13 0.968487 0.729972 0.299944
O O14 0.090518 0.233044 0.569793
O O15 0.146340 0.000000 0.734801
O O16 0.441399 0.204443 0.474019
O O17 0.525531 0.000000 0.465222
O O18 0.857798 0.500000 0.483399
O O19 0.868403 0.769318 0.580233
O O20 0.925753 0.000000 0.745222
#
# Coordination Sequence:
#
# PCOD9132967 Si02
#       8
#     4   4   4   4   4   4   4   4
#     4   9  17  34  59  87 115 144 184 233 285 336
#     4  12  23  36  57  85 116 150 192 237 283 334
#     4  10  21  39  60  80 111 153 192 228 283 345
#     4   8  15  32  57  83 111 147 184 223 279 338
#     4  11  21  35  58  86 114 147 188 236 282 332
#     4   9  17  31  56  86 114 144 182 230 280 334
#     4   9  18  34  58  85 115 150 185 228 285 341
#     4  12  25  39  57  82 116 153 195 239 281 334
#
# _framework density 17.497123999999999
#
# number of rings (size 3 to 8) (size 9 to 14) (size 15 to 20)
#    0.000    2.000    2.500    4.125    0.000    1.500 
#    0.000    3.750    0.000    3.000    0.000    0.000 
#    0.000    0.000    0.000    0.000    0.000    0.000 
#
# Total GULP energy -89317.815079 kJ/mol
# GULP energy per Si atom -5582.363442 kJ/mol
# Density = 1.745730 g / cm^3
# Si number density = 17.497124 Si / 1000 Ang^3
#
#
#
# Elastic Constant Matrix: (Units=GPa)
#
#
# Indices 1 2 3 4 5 6 
#
# 1 91.5678 64.3171 74.7519 0.0000 -10.0842 0.0000
# 2 64.3171 79.2661 73.4391 0.0000 -5.5539 0.0000
# 3 74.7519 73.4391 164.6826 0.0000 -6.4123 0.0000
# 4 0.0000 0.0000 0.0000 29.8649 0.0000 3.7263
# 5 -10.0842 -5.5539 -6.4123 0.0000 22.2283 0.0000
# 6 0.0000 0.0000 0.0000 3.7263 0.0000 22.7491
#
#
#
# Elastic Compliance Matrix: (Units=1/GPa)
#
#
# Indices 1 2 3 4 5 6 
#
# 1 0.028030 -0.018269 -0.004307 0.000000 0.006909 0.000000
# 2 -0.018269 0.033559 -0.006745 0.000000 -0.001849 0.000000
# 3 -0.004307 -0.006745 0.011017 0.000000 -0.000461 0.000000
# 4 0.000000 0.000000 0.000000 0.034183 0.000000 -0.005599
# 5 0.006909 -0.001849 -0.000461 0.000000 0.047527 0.000000
# 6 0.000000 0.000000 0.000000 -0.005599 0.000000 0.044875
#
#
# Mechanical properties :
#
#
# Convention : Reuss Voigt Hill
#
# Bulk Modulus (GPa) = 71.61283 84.50362 78.05823
# Shear Modulus (GPa) = 19.04846 23.16903 21.10875
#
# Velocity S-wave (km/s) = 3.30307 3.64285 3.47711
# Velocity P-wave (km/s) = 7.45414 8.12985 7.79931
#
# Compressibility (1/GPa) = 0.01396398
#
# Stress axis : x y z
#
# Youngs Moduli (GPa) = 35.67556 29.79840 90.76706
#
# Poissons Ratio (x) = 0.54440 0.39096
# Poissons Ratio (y) = 0.65177 0.61219
# Poissons Ratio (z) = 0.15367 0.20098
#
# Static dielectric constant tensor:
#      x y z
#    x 1.561170 0.000000 -0.001040 
#    y 0.000000 1.580610 0.000000 
#    z -0.001040 0.000000 1.614760 
# 
# From -- ./inp_files/23862.got.cif
#   From: 2010.05.17/outbox.cif.g08.bks.cpg/sg8_12_cif.got.tgz:23862.got - 2010.06.03 19:46:02.
