data_PCOD9132800
_publ_section_title
;
Structure prediction by ZEFSAII (Michael W. Deem and Ramdas Pophale) SiO2 
 PCOD9132800
Probable space group: C M
;
_chemical_formula_sum "Si O2"
_cell_formula_units_Z 32
_cell_length_a 10.993412
_cell_length_b 20.595869
_cell_length_c 8.436928
_cell_angle_alpha 90.000000
_cell_angle_beta 53.773976
_cell_angle_gamma 90.000000
_cell_volume 1541.007327
_symmetry_space_group_name_H-M "C M"
_symmetry_group_IT_number 8
_symmetry_cell_setting 'monoclinic'
loop_
_space_group_symop_operation_xyz
x,y,z
x,-y,z
1/2+x,1/2+y,z
1/2+x,1/2-y,z
loop_
_atom_site_type_symbol
_atom_site_label
_atom_site_fract_x
_atom_site_fract_y
_atom_site_fract_z
Si Si1 0.575220 0.074089 0.687470
Si Si2 0.461813 0.780538 0.187615
Si Si3 0.781039 0.197781 0.533137
Si Si4 0.240955 0.789179 0.902636
Si Si5 0.495692 0.293462 0.680108
Si Si6 0.917236 0.371819 0.506569
Si Si7 0.644956 0.429302 0.534465
Si Si8 0.786808 0.615498 0.118104
O O1 0.700558 0.128942 0.621625
O O2 0.520595 0.089859 0.550258
O O3 0.626921 0.000000 0.662620
O O4 0.429649 0.083779 0.916491
O O5 0.382960 0.714234 0.302722
O O6 0.497549 0.823440 0.319308
O O7 0.353430 0.828265 0.178305
O O8 0.606806 0.760256 0.977064
O O9 0.643672 0.248786 0.594507
O O10 0.901894 0.205881 0.584975
O O11 0.370834 0.744047 0.879752
O O12 0.312376 0.827096 0.700239
O O13 0.194394 0.846083 0.057020
O O14 0.544779 0.367739 0.663512
O O15 0.805543 0.418955 0.498043
O O16 0.581592 0.500000 0.621709
O O17 0.684645 0.425152 0.316494
#
# Coordination Sequence:
#
# PCOD9132800 Si02
#       8
#     4   4   4   4   4   4   4   4
#     4  11  23  40  63  93 133 174 217 266 325 391
#     4  11  22  36  64  97 127 164 215 273 324 380
#     4  12  22  41  65  93 130 167 216 266 326 384
#     4  11  22  36  64  97 127 164 215 273 324 380
#     4  12  22  41  65  93 130 167 216 266 326 384
#     4  10  21  40  64  92 129 172 218 260 325 394
#     4  11  23  40  63  93 133 174 217 266 325 391
#     4  10  21  34  60  94 125 170 214 266 319 386
#
# _framework density 20.765637000000002
#
# number of rings (size 3 to 8) (size 9 to 14) (size 15 to 20)
#    0.000    1.000    6.250    2.250    3.500    0.500 
#    0.000    0.000    0.000    4.500    0.000    0.000 
#    0.000    0.000    0.000    0.000    0.000    0.000 
#
# Total GULP energy -89101.188079 kJ/mol
# GULP energy per Si atom -5568.824255 kJ/mol
# Density = 2.071837 g / cm^3
# Si number density = 20.765637 Si / 1000 Ang^3
#
#
#
# Elastic Constant Matrix: (Units=GPa)
#
#
# Indices 1 2 3 4 5 6 
#
# 1 86.4168 24.0625 1.9724 0.0000 4.3090 0.0000
# 2 24.0625 155.9652 23.6378 0.0000 -2.3247 0.0000
# 3 1.9724 23.6378 43.9407 0.0000 2.7007 0.0000
# 4 0.0000 0.0000 0.0000 24.0681 0.0000 -7.6771
# 5 4.3090 -2.3247 2.7007 0.0000 31.8995 0.0000
# 6 0.0000 0.0000 0.0000 -7.6771 0.0000 18.4292
#
#
#
# Elastic Compliance Matrix: (Units=1/GPa)
#
#
# Indices 1 2 3 4 5 6 
#
# 1 0.012209 -0.002009 0.000647 0.000000 -0.001850 0.000000
# 2 -0.002009 0.007333 -0.003925 0.000000 0.001138 0.000000
# 3 0.000647 -0.003925 0.024993 0.000000 -0.002489 0.000000
# 4 0.000000 0.000000 0.000000 0.047916 0.000000 0.019960
# 5 -0.001850 0.001138 -0.002489 0.000000 0.031892 0.000000
# 6 0.000000 0.000000 0.000000 0.019960 0.000000 0.062577
#
#
# Mechanical properties :
#
#
# Convention : Reuss Voigt Hill
#
# Bulk Modulus (GPa) = 29.44586 42.85202 36.14894
# Shear Modulus (GPa) = 23.94467 30.65604 27.30036
#
# Velocity S-wave (km/s) = 3.39940 3.84642 3.62980
# Velocity P-wave (km/s) = 5.44232 6.35668 5.91719
#
# Compressibility (1/GPa) = 0.03396063
#
# Stress axis : x y z
#
# Youngs Moduli (GPa) = 81.90838 136.36136 40.01081
#
# Poissons Ratio (x) = 0.27397 -0.02587
# Poissons Ratio (y) = 0.16457 0.15703
# Poissons Ratio (z) = -0.05295 0.53519
#
# Static dielectric constant tensor:
#      x y z
#    x 1.793460 0.000000 0.040970 
#    y 0.000000 1.778410 0.000000 
#    z 0.040970 0.000000 1.832840 
# 
# From -- ./inp_files/11440.got.cif
#   From: 2010.05.17/outbox.cif.g08.bks.cpg/sg8_6_cif.got.tgz:11440.got - 2010.06.03 19:46:02.
