data_PCOD9132411
_publ_section_title
;
Structure prediction by ZEFSAII (Michael W. Deem and Ramdas Pophale) SiO2 
 PCOD9132411
Probable space group: C M
;
_chemical_formula_sum "Si O2"
_cell_formula_units_Z 24
_cell_length_a 12.766144
_cell_length_b 11.525102
_cell_length_c 18.283769
_cell_angle_alpha 90.000000
_cell_angle_beta 22.955209
_cell_angle_gamma 90.000000
_cell_volume 1049.174070
_symmetry_space_group_name_H-M "C M"
_symmetry_group_IT_number 8
_symmetry_cell_setting 'monoclinic'
loop_
_space_group_symop_operation_xyz
x,y,z
x,-y,z
1/2+x,1/2+y,z
1/2+x,1/2-y,z
loop_
_atom_site_type_symbol
_atom_site_label
_atom_site_fract_x
_atom_site_fract_y
_atom_site_fract_z
Si Si1 0.322610 0.186138 0.301170
Si Si2 0.444803 0.794563 0.069338
Si Si3 0.411787 0.131476 0.713499
Si Si4 0.751219 0.294626 0.660053
Si Si5 0.873321 0.313908 0.428274
Si Si6 0.284316 0.868513 0.015846
O O1 0.441204 0.138321 0.148798
O O2 0.347944 0.128648 0.364731
O O3 0.496063 0.305382 0.197740
O O4 0.009086 0.209317 0.491165
O O5 0.389849 0.867565 0.031807
O O6 0.186890 0.709256 0.238237
O O7 0.702480 0.714681 0.889648
O O8 0.306284 0.132400 0.697516
O O9 0.699975 0.194643 0.531647
O O10 0.423539 0.000000 0.732367
O O11 0.754704 0.361728 0.580659
O O12 0.493540 0.214741 0.839756
O O13 0.272646 0.000000 0.996935
#
# Coordination Sequence:
#
# PCOD9132411 Si02
#       6
#     4   4   4   4   4   4
#     4   9  18  33  54  78 109 143 176 218 271 319
#     4   9  19  34  53  81 116 140 171 229 281 312
#     4  10  20  35  59  85 106 139 187 228 265 318
#     4   9  19  34  53  81 116 140 171 229 281 312
#     4   9  18  33  54  78 109 143 176 218 271 319
#     4  10  20  35  59  85 106 139 187 228 265 318
#
# _framework density 22.875136000000001
#
# number of rings (size 3 to 8) (size 9 to 14) (size 15 to 20)
#    0.000    2.667    0.000    1.000    0.000    8.667 
#    0.000    8.333    0.000   62.000    0.000    0.000 
#    0.000    0.000    0.000    0.000    0.000    0.000 
#
# Total GULP energy -66899.230563 kJ/mol
# GULP energy per Si atom -5574.935880 kJ/mol
# Density = 2.282307 g / cm^3
# Si number density = 22.875136 Si / 1000 Ang^3
#
#
#
# Elastic Constant Matrix: (Units=GPa)
#
#
# Indices 1 2 3 4 5 6 
#
# 1 168.5909 7.6133 26.7144 0.0097 43.8516 0.0025
# 2 7.6133 84.6424 18.8066 0.0231 -5.7708 0.0061
# 3 26.7144 18.8066 129.2332 0.0801 8.5544 0.0206
# 4 0.0097 0.0231 0.0801 -12.2866 0.0047 -9.0835
# 5 43.8516 -5.7708 8.5544 0.0047 58.2092 -0.0090
# 6 0.0025 0.0061 0.0206 -9.0835 -0.0090 -4.1435
#
#
#
# Elastic Compliance Matrix: (Units=1/GPa)
#
#
# Indices 1 2 3 4 5 6 
#
# 1 0.007612 -0.000831 -0.001078 0.000020 -0.005658 -0.000033
# 2 -0.000831 0.012429 -0.001777 -0.000014 0.002119 0.000035
# 3 -0.001078 -0.001777 0.008258 -0.000033 -0.000578 0.000112
# 4 0.000020 -0.000014 -0.000033 0.131117 -0.000067 -0.287441
# 5 -0.005658 0.002119 -0.000578 -0.000067 0.021737 0.000095
# 6 -0.000033 0.000035 0.000112 -0.287441 0.000095 0.388801
#
#
# Mechanical properties :
#
#
# Convention : Reuss Voigt Hill
#
# Bulk Modulus (GPa) = 47.78831 54.30392 51.04611
# Shear Modulus (GPa) = 8.55725 30.31131 19.43428
#
# Velocity S-wave (km/s) = 1.93623 3.64411 2.91792
# Velocity P-wave (km/s) = 5.09263 6.44181 5.80654
#
# Compressibility (1/GPa) = 0.02092562
#
# Stress axis : x y z
#
# Youngs Moduli (GPa) = 131.37911 80.46018 121.09991
#
# Poissons Ratio (x) = 0.06685 0.13054
# Poissons Ratio (y) = 0.10916 0.21522
# Poissons Ratio (z) = 0.14162 0.14299
#
# Static dielectric constant tensor:
#      x y z
#    x 1.974820 0.000000 0.091020 
#    y 0.000000 1.744010 0.000010 
#    z 0.091020 0.000010 1.822630 
# 
# From -- ./inp_files/12825.got.cif
#   From: 2010.05.17/outbox.cif.g08.bks.cpg/sg8_7_cif.got.tgz:12825.got - 2010.06.03 19:46:02.
