data_PCOD9132391
_publ_section_title
;
Structure prediction by ZEFSAII (Michael W. Deem and Ramdas Pophale) SiO2 
 PCOD9132391
Probable space group: C M
;
_chemical_formula_sum "Si O2"
_cell_formula_units_Z 32
_cell_length_a 13.875597
_cell_length_b 13.101549
_cell_length_c 11.265725
_cell_angle_alpha 90.000000
_cell_angle_beta 39.159669
_cell_angle_gamma 90.000000
_cell_volume 1293.289000
_symmetry_space_group_name_H-M "C M"
_symmetry_group_IT_number 8
_symmetry_cell_setting 'monoclinic'
loop_
_space_group_symop_operation_xyz
x,y,z
x,-y,z
1/2+x,1/2+y,z
1/2+x,1/2-y,z
loop_
_atom_site_type_symbol
_atom_site_label
_atom_site_fract_x
_atom_site_fract_y
_atom_site_fract_z
Si Si1 0.553660 0.179739 0.299220
Si Si2 0.355167 0.380479 0.156897
Si Si3 0.315816 0.882936 0.333859
Si Si4 0.193479 0.615364 0.538074
Si Si5 0.232193 0.248064 0.941901
Si Si6 0.049393 0.375738 0.927009
Si Si7 0.903460 0.390447 0.642873
Si Si8 0.516448 0.375174 0.769902
O O1 0.698934 0.128000 0.225924
O O2 0.458234 0.120122 0.290240
O O3 0.435238 0.196954 0.516931
O O4 0.628223 0.269756 0.155642
O O5 0.376882 0.500000 0.158778
O O6 0.317393 0.336471 0.326099
O O7 0.490965 0.351813 0.935408
O O8 0.170304 0.846159 0.550796
O O9 0.275215 0.000000 0.348115
O O10 0.381209 0.844811 0.142436
O O11 0.248333 0.500000 0.514311
O O12 0.118419 0.653528 0.732668
O O13 0.046420 0.606214 0.593398
O O14 0.158155 0.323753 0.918624
O O15 0.262955 0.140055 0.855004
O O16 0.383775 0.308274 0.836442
O O17 0.051457 0.500000 0.929564
O O18 0.886693 0.500000 0.598215
O O19 0.496080 0.500000 0.779732
#
# Coordination Sequence:
#
# PCOD9132391 Si02
#       8
#     4   4   4   4   4   4   4   4
#     4   9  17  33  58  81 107 147 199 242 280 346
#     4   8  13  25  51  80 106 143 191 238 281 335
#     4   9  16  28  51  83 114 149 190 235 290 346
#     4   8  15  30  54  81 108 149 197 234 281 352
#     4  10  20  35  57  89 115 150 199 248 294 343
#     4   9  17  32  57  85 115 153 194 236 290 361
#     4  10  20  37  61  85 116 157 200 244 291 350
#     4   9  17  30  51  84 121 150 188 247 301 339
#
# _framework density 24.743117999999999
#
# number of rings (size 3 to 8) (size 9 to 14) (size 15 to 20)
#    0.000    3.000    0.000    2.250    0.000    4.000 
#    4.500    0.000    2.750    0.750    0.000    3.500 
#    0.000    0.000    0.000    0.000    0.000    0.000 
#
# Total GULP energy -89110.453235 kJ/mol
# GULP energy per Si atom -5569.403327 kJ/mol
# Density = 2.468680 g / cm^3
# Si number density = 24.743118 Si / 1000 Ang^3
#
#
#
# Elastic Constant Matrix: (Units=GPa)
#
#
# Indices 1 2 3 4 5 6 
#
# 1 74.2286 9.6900 40.0630 0.0000 8.8437 0.0000
# 2 9.6900 40.2511 50.0428 0.0000 0.2948 0.0000
# 3 40.0630 50.0428 237.2935 0.0000 39.5290 0.0000
# 4 0.0000 0.0000 0.0000 46.7399 0.0000 5.7034
# 5 8.8437 0.2948 39.5290 0.0000 36.5069 0.0000
# 6 0.0000 0.0000 0.0000 5.7034 0.0000 14.1249
#
#
#
# Elastic Compliance Matrix: (Units=1/GPa)
#
#
# Indices 1 2 3 4 5 6 
#
# 1 0.014884 -0.000986 -0.002081 0.000000 -0.001344 0.000000
# 2 -0.000986 0.036381 -0.009146 0.000000 0.009849 0.000000
# 3 -0.002081 -0.009146 0.007806 0.000000 -0.007874 0.000000
# 4 0.000000 0.000000 0.000000 0.022504 0.000000 -0.009087
# 5 -0.001344 0.009849 -0.007874 0.000000 0.036165 0.000000
# 6 0.000000 0.000000 0.000000 -0.009087 0.000000 0.074466
#
#
# Mechanical properties :
#
#
# Convention : Reuss Voigt Hill
#
# Bulk Modulus (GPa) = 28.86517 61.26277 45.06397
# Shear Modulus (GPa) = 21.91252 36.27284 29.09268
#
# Velocity S-wave (km/s) = 2.97913 3.83296 3.43270
# Velocity P-wave (km/s) = 4.85025 6.66349 5.82782
#
# Compressibility (1/GPa) = 0.03464382
#
# Stress axis : x y z
#
# Youngs Moduli (GPa) = 67.18644 27.48703 128.10370
#
# Poissons Ratio (x) = 0.02710 0.26659
# Poissons Ratio (y) = 0.06625 1.17170
# Poissons Ratio (z) = 0.13982 0.25141
#
# Static dielectric constant tensor:
#      x y z
#    x 1.925670 0.000000 0.003610 
#    y 0.000000 1.973980 0.000000 
#    z 0.003610 0.000000 2.072640 
# 
# From -- ./inp_files/23307.got.cif
#   From: 2010.05.17/outbox.cif.g08.bks.cpg/sg8_12_cif.got.tgz:23307.got - 2010.06.03 19:46:02.
