data_PCOD9132859
_publ_section_title
;
Structure prediction by ZEFSAII (Michael W. Deem and Ramdas Pophale) SiO2 
 PCOD9132859
Probable space group: C M
;
_chemical_formula_sum "Si O2"
_cell_formula_units_Z 24
_cell_length_a 14.369544
_cell_length_b 14.047828
_cell_length_c 5.010839
_cell_angle_alpha 90.000000
_cell_angle_beta 88.712411
_cell_angle_gamma 90.000000
_cell_volume 1011.236981
_symmetry_space_group_name_H-M "C M"
_symmetry_group_IT_number 8
_symmetry_cell_setting 'monoclinic'
loop_
_space_group_symop_operation_xyz
x,y,z
x,-y,z
1/2+x,1/2+y,z
1/2+x,1/2-y,z
loop_
_atom_site_type_symbol
_atom_site_label
_atom_site_fract_x
_atom_site_fract_y
_atom_site_fract_z
Si Si1 0.714050 0.267009 0.335730
Si Si2 0.625944 0.897403 0.028055
Si Si3 0.782574 0.000000 0.749761
Si Si4 0.239554 0.108926 0.821757
Si Si5 0.948528 0.327124 0.745286
Si Si6 0.924112 0.207024 0.255605
Si Si7 0.910361 0.000000 0.246173
O O1 0.645224 0.189552 0.219814
O O2 0.693625 0.316615 0.618216
O O3 0.814355 0.214441 0.332649
O O4 0.723143 0.351929 0.119129
O O5 0.618738 0.000000 0.172522
O O6 0.535250 0.883824 0.855125
O O7 0.716068 0.911398 0.830006
O O8 0.822986 0.000000 0.454366
O O9 0.868125 0.000000 0.951524
O O10 0.350914 0.116600 0.758026
O O11 0.209387 0.000000 0.790983
O O12 0.964960 0.284382 0.454064
O O13 0.935283 0.239533 0.951653
O O14 0.960446 0.100210 0.290415
#
# Coordination Sequence:
#
# PCOD9132859 Si02
#       7
#     4   4   2   4   4   4   2
#     4  10  21  36  61  90 116 154 205 248 297 363
#     4  10  22  41  61  97 127 160 191 263 321 372
#     4  10  24  32  66  94 124 153 197 252 328 358
#     4  10  21  39  62  84 116 160 206 247 292 355
#     4  10  22  38  59  89 122 156 197 250 314 363
#     4  10  21  37  60  87 119 161 204 252 294 363
#     4  12  20  40  62  92 120 159 219 252 300 366
#
# _framework density 23.733308999999998
#
# number of rings (size 3 to 8) (size 9 to 14) (size 15 to 20)
#    0.500    1.333    1.667    2.000    4.667    2.667 
#    0.000    1.667   11.000    0.000    0.000    0.000 
#    0.000    0.000    0.000    0.000    0.000    0.000 
#
# Total GULP energy -67154.593241 kJ/mol
# GULP energy per Si atom -5596.216103 kJ/mol
# Density = 2.367929 g / cm^3
# Si number density = 23.733309 Si / 1000 Ang^3
#
#
#
# Elastic Constant Matrix: (Units=GPa)
#
#
# Indices 1 2 3 4 5 6 
#
# 1 45.4390 4.0053 2.0162 0.0000 11.1040 0.0000
# 2 4.0053 114.0313 6.3110 0.0000 8.8923 0.0000
# 3 2.0162 6.3110 64.9250 0.0000 9.9513 0.0000
# 4 0.0000 0.0000 0.0000 20.8982 0.0000 7.7562
# 5 11.1040 8.8923 9.9513 0.0000 31.1851 0.0000
# 6 0.0000 0.0000 0.0000 7.7562 0.0000 9.5696
#
#
#
# Elastic Compliance Matrix: (Units=1/GPa)
#
#
# Indices 1 2 3 4 5 6 
#
# 1 0.024131 -0.000201 0.000608 0.000000 -0.008729 0.000000
# 2 -0.000201 0.008986 -0.000510 0.000000 -0.002328 0.000000
# 3 0.000608 -0.000510 0.016238 0.000000 -0.005253 0.000000
# 4 0.000000 0.000000 0.000000 0.068438 0.000000 -0.055469
# 5 -0.008729 -0.002328 -0.005253 0.000000 0.037515 0.000000
# 6 0.000000 0.000000 0.000000 -0.055469 0.000000 0.149455
#
#
# Mechanical properties :
#
#
# Convention : Reuss Voigt Hill
#
# Bulk Modulus (GPa) = 20.34582 27.67338 24.00960
# Shear Modulus (GPa) = 15.55922 26.46811 21.01366
#
# Velocity S-wave (km/s) = 2.56322 3.34313 2.97881
# Velocity P-wave (km/s) = 4.16550 5.15630 4.68716
#
# Compressibility (1/GPa) = 0.04915014
#
# Stress axis : x y z
#
# Youngs Moduli (GPa) = 41.43976 111.27967 61.58313
#
# Poissons Ratio (x) = 0.02232 -0.03745
# Poissons Ratio (y) = 0.00831 0.03144
# Poissons Ratio (z) = -0.02520 0.05680
#
# Static dielectric constant tensor:
#      x y z
#    x 1.925490 0.000000 0.004810 
#    y 0.000000 1.880140 0.000000 
#    z 0.004810 0.000000 1.849480 
# 
# From -- ./inp_files/3885.got.cif
#   From: 2010.05.17/outbox.cif.g08.bks.cpg/sg8_2_cif.got.tgz:3885.got - 2010.06.03 19:46:02.
