data_PCOD9132369
_publ_section_title
;
Structure prediction by ZEFSAII (Michael W. Deem and Ramdas Pophale) SiO2 
 PCOD9132369
Probable space group: C M
;
_chemical_formula_sum "Si O2"
_cell_formula_units_Z 30
_cell_length_a 12.825949
_cell_length_b 12.586613
_cell_length_c 8.309318
_cell_angle_alpha 90.000000
_cell_angle_beta 79.584440
_cell_angle_gamma 90.000000
_cell_volume 1319.313565
_symmetry_space_group_name_H-M "C M"
_symmetry_group_IT_number 8
_symmetry_cell_setting 'monoclinic'
loop_
_space_group_symop_operation_xyz
x,y,z
x,-y,z
1/2+x,1/2+y,z
1/2+x,1/2-y,z
loop_
_atom_site_type_symbol
_atom_site_label
_atom_site_fract_x
_atom_site_fract_y
_atom_site_fract_z
Si Si1 0.061141 0.000000 0.304821
Si Si2 0.436582 0.114941 0.566136
Si Si3 0.019050 0.844680 0.613648
Si Si4 0.245773 0.626848 0.389115
Si Si5 0.818688 0.884442 0.861190
Si Si6 0.547625 0.117479 0.204212
Si Si7 0.217199 0.785399 0.699082
Si Si8 0.455944 0.328105 0.132692
O O1 0.061137 0.906471 0.446735
O O2 0.044325 0.908080 0.170963
O O3 0.498309 0.218959 0.603719
O O4 0.458466 0.112906 0.369857
O O5 0.315740 0.136071 0.646072
O O6 0.473888 0.000000 0.618399
O O7 0.108929 0.850256 0.724212
O O8 0.903671 0.887001 0.692228
O O9 0.247177 0.500000 0.428566
O O10 0.157376 0.638474 0.272036
O O11 0.220136 0.703628 0.545361
O O12 0.361810 0.659508 0.293003
O O13 0.738791 0.789500 0.845795
O O14 0.768419 0.000000 0.891786
O O15 0.892727 0.861228 0.992086
O O16 0.507344 0.212371 0.105471
O O17 0.553300 0.000000 0.129421
#
# Coordination Sequence:
#
# PCOD9132369 Si02
#       8
#     2   4   4   4   4   4   4   4
#     4  12  20  38  68  90 124 152 214 264 310 348
#     4  10  20  35  56  88 119 151 200 258 307 352
#     4  11  23  40  63  93 119 164 206 263 309 362
#     4  11  20  35  64  91 118 154 209 261 304 353
#     4  11  24  40  62  91 131 168 205 249 319 381
#     4  10  21  38  60  89 123 159 207 261 307 361
#     4  11  22  38  60  90 122 159 205 256 308 367
#     4  12  22  40  62  95 127 166 205 258 314 377
#
# _framework density 22.739097999999998
#
# number of rings (size 3 to 8) (size 9 to 14) (size 15 to 20)
#    0.000    1.067    6.000    1.200    0.933    1.600 
#    0.000    2.667    0.000    0.000    0.000    0.000 
#    0.000    0.000    0.000    0.000    0.000    0.000 
#
# Total GULP energy -83531.032191 kJ/mol
# GULP energy per Si atom -5568.735479 kJ/mol
# Density = 2.268734 g / cm^3
# Si number density = 22.739098 Si / 1000 Ang^3
#
#
#
# Elastic Constant Matrix: (Units=GPa)
#
#
# Indices 1 2 3 4 5 6 
#
# 1 63.7406 22.0268 -2.2512 0.0000 0.2796 0.0000
# 2 22.0268 148.3483 7.8097 0.0000 8.8226 0.0000
# 3 -2.2512 7.8097 38.2757 0.0000 13.9380 0.0000
# 4 0.0000 0.0000 0.0000 23.5134 0.0000 16.4997
# 5 0.2796 8.8226 13.9380 0.0000 29.5582 0.0000
# 6 0.0000 0.0000 0.0000 16.4997 0.0000 7.3196
#
#
#
# Elastic Compliance Matrix: (Units=1/GPa)
#
#
# Indices 1 2 3 4 5 6 
#
# 1 0.016622 -0.002542 0.001542 0.000000 -0.000126 0.000000
# 2 -0.002542 0.007271 -0.001028 0.000000 -0.001661 0.000000
# 3 0.001542 -0.001028 0.031777 0.000000 -0.014692 0.000000
# 4 0.000000 0.000000 0.000000 -0.073098 0.000000 0.164777
# 5 -0.000126 -0.001661 -0.014692 0.000000 0.041256 0.000000
# 6 0.000000 0.000000 0.000000 0.164777 0.000000 -0.234819
#
#
# Mechanical properties :
#
#
# Convention : Reuss Voigt Hill
#
# Bulk Modulus (GPa) = 19.37451 33.94836 26.66143
# Shear Modulus (GPa) = -26.35315 26.93018 0.28851
#
# Velocity S-wave (km/s) = -3.40801 3.44512 0.35659
# Velocity P-wave (km/s) = 2.63575 5.54861 3.45252
#
# Compressibility (1/GPa) = 0.05161422
#
# Stress axis : x y z
#
# Youngs Moduli (GPa) = 60.16145 137.52842 31.46962
#
# Poissons Ratio (x) = 0.34956 -0.04853
# Poissons Ratio (y) = 0.15291 0.03235
# Poissons Ratio (z) = -0.09277 0.14139
#
# Static dielectric constant tensor:
#      x y z
#    x 1.877280 0.000000 -0.040300 
#    y 0.000000 1.903270 0.000000 
#    z -0.040300 0.000000 1.911390 
# 
# From -- ./inp_files/12644.got.cif
#   From: 2010.05.17/outbox.cif.g08.bks.cpg/sg8_7_cif.got.tgz:12644.got - 2010.06.03 19:46:02.
