data_PCOD9132203
_publ_section_title
;
Structure prediction by ZEFSAII (Michael W. Deem and Ramdas Pophale) SiO2 
 PCOD9132203
Probable space group: C M
;
_chemical_formula_sum "Si O2"
_cell_formula_units_Z 32
_cell_length_a 14.796011
_cell_length_b 8.521092
_cell_length_c 22.880960
_cell_angle_alpha 90.000000
_cell_angle_beta 150.999939
_cell_angle_gamma 90.000000
_cell_volume 1398.576430
_symmetry_space_group_name_H-M "C M"
_symmetry_group_IT_number 8
_symmetry_cell_setting 'monoclinic'
loop_
_space_group_symop_operation_xyz
x,y,z
x,-y,z
1/2+x,1/2+y,z
1/2+x,1/2-y,z
loop_
_atom_site_type_symbol
_atom_site_label
_atom_site_fract_x
_atom_site_fract_y
_atom_site_fract_z
Si Si1 0.887550 0.690665 0.122210
Si Si2 0.718240 0.317693 0.613436
Si Si3 0.999227 0.181955 0.684738
Si Si4 0.676067 0.812542 0.194678
Si Si5 0.998315 0.687300 0.309869
Si Si6 0.991013 0.185685 0.863666
Si Si7 0.871386 0.184103 0.931700
Si Si8 0.405765 0.183185 0.513017
O O1 0.880616 0.500000 0.118375
O O2 0.079524 0.739142 0.200416
O O3 0.885359 0.739875 0.187996
O O4 0.705839 0.740727 0.983839
O O5 0.717758 0.500000 0.597494
O O6 0.809884 0.221555 0.612217
O O7 0.857845 0.283809 0.746648
O O8 0.517394 0.266074 0.523979
O O9 0.014967 0.286796 0.635636
O O10 0.176526 0.223272 0.825156
O O11 0.002468 0.000000 0.669807
O O12 0.882118 0.751202 0.298464
O O13 0.679851 0.000000 0.195223
O O14 0.531180 0.750627 0.063956
O O15 0.001063 0.500000 0.314293
O O16 0.204823 0.747154 0.414811
O O17 0.936523 0.197697 0.901043
O O18 0.976914 0.000000 0.839147
O O19 0.842585 0.000000 0.927902
O O20 0.394546 0.000000 0.494546
#
# Coordination Sequence:
#
# PCOD9132203 Si02
#       8
#     4   4   4   4   4   4   4   4
#     4   9  20  39  63  89 123 166 206 250 310 374
#     4  12  25  42  66  98 131 169 212 261 322 386
#     4  12  25  43  67  96 129 170 215 264 323 385
#     4  11  22  38  63  95 128 166 213 264 318 378
#     4  11  23  44  66  88 122 167 216 266 322 380
#     4  10  19  37  64  93 129 171 209 256 317 379
#     4  11  21  37  64  96 131 169 209 261 321 382
#     4  12  26  46  67  93 127 166 216 272 325 382
#
# _framework density 22.880407000000002
#
# number of rings (size 3 to 8) (size 9 to 14) (size 15 to 20)
#    0.000    1.000    2.500    5.250    0.000    2.500 
#    0.000    6.875    0.000    0.000    0.000    0.000 
#    0.000    0.000    0.000    0.000    0.000    0.000 
#
# Total GULP energy -89572.696102 kJ/mol
# GULP energy per Si atom -5598.293506 kJ/mol
# Density = 2.282833 g / cm^3
# Si number density = 22.880407 Si / 1000 Ang^3
#
#
#
# Elastic Constant Matrix: (Units=GPa)
#
#
# Indices 1 2 3 4 5 6 
#
# 1 74.4265 5.8946 16.4714 0.0001 29.4034 0.0000
# 2 5.8946 68.8101 -7.5659 0.0000 12.6386 0.0000
# 3 16.4714 -7.5659 65.9249 0.0008 31.7753 0.0000
# 4 0.0001 0.0000 0.0008 32.3357 -0.0001 5.0418
# 5 29.4034 12.6386 31.7753 -0.0001 44.0402 0.0000
# 6 0.0000 0.0000 0.0000 5.0418 0.0000 25.3976
#
#
#
# Elastic Compliance Matrix: (Units=1/GPa)
#
#
# Indices 1 2 3 4 5 6 
#
# 1 0.018538 0.001384 0.002582 0.000000 -0.014637 0.000000
# 2 0.001384 0.017137 0.006802 0.000000 -0.010750 0.000000
# 3 0.002582 0.006802 0.026181 -0.000001 -0.022566 0.000000
# 4 0.000000 0.000000 -0.000001 0.031913 0.000001 -0.006335
# 5 -0.014637 -0.010750 -0.022566 0.000001 0.051845 0.000000
# 6 0.000000 0.000000 0.000000 -0.006335 0.000000 0.040631
#
#
# Mechanical properties :
#
#
# Convention : Reuss Voigt Hill
#
# Bulk Modulus (GPa) = 11.99151 26.52906 19.26028
# Shear Modulus (GPa) = 25.97333 33.31211 29.64272
#
# Velocity S-wave (km/s) = 3.37290 3.81980 3.60328
# Velocity P-wave (km/s) = 4.51895 5.57443 5.07421
#
# Compressibility (1/GPa) = 0.08339233
#
# Stress axis : x y z
#
# Youngs Moduli (GPa) = 53.94459 58.35472 38.19589
#
# Poissons Ratio (x) = -0.08078 -0.09863
# Poissons Ratio (y) = -0.07468 -0.25982
# Poissons Ratio (z) = -0.13929 -0.39694
#
# Static dielectric constant tensor:
#      x y z
#    x 1.887290 0.000000 -0.016870 
#    y 0.000000 1.764680 0.000000 
#    z -0.016870 0.000000 1.908620 
# 
# From -- ./inp_files/26533.got.cif
#   From: 2010.05.17/outbox.cif.g08.bks.cpg/sg8_14_cif.got.tgz:26533.got - 2010.06.03 19:46:02.
