data_PCOD9132677
_publ_section_title
;
Structure prediction by ZEFSAII (Michael W. Deem and Ramdas Pophale) SiO2 
 PCOD9132677
Probable space group: C M
;
_chemical_formula_sum "Si O2"
_cell_formula_units_Z 30
_cell_length_a 11.096555
_cell_length_b 21.180549
_cell_length_c 7.928530
_cell_angle_alpha 90.000000
_cell_angle_beta 142.210555
_cell_angle_gamma 90.000000
_cell_volume 1141.851204
_symmetry_space_group_name_H-M "C M"
_symmetry_group_IT_number 8
_symmetry_cell_setting 'monoclinic'
loop_
_space_group_symop_operation_xyz
x,y,z
x,-y,z
1/2+x,1/2+y,z
1/2+x,1/2-y,z
loop_
_atom_site_type_symbol
_atom_site_label
_atom_site_fract_x
_atom_site_fract_y
_atom_site_fract_z
Si Si1 0.813000 0.256676 0.204340
Si Si2 0.656038 0.571084 0.246017
Si Si3 0.529428 0.632682 0.770464
Si Si4 0.833719 0.881763 0.086955
Si Si5 0.867184 0.605252 0.936886
Si Si6 0.601581 0.000000 0.991536
Si Si7 0.561297 0.927454 0.516222
Si Si8 0.637549 0.794130 0.315745
O O1 0.754024 0.258498 0.336494
O O2 0.028507 0.274458 0.368468
O O3 0.657980 0.304860 0.951812
O O4 0.788277 0.184303 0.123093
O O5 0.611059 0.500000 0.246458
O O6 0.562231 0.584928 0.959356
O O7 0.560651 0.614797 0.280161
O O8 0.885319 0.575189 0.458600
O O9 0.305151 0.652451 0.513851
O O10 0.635309 0.605608 0.721538
O O11 0.722932 0.884869 0.782873
O O12 0.752810 0.943171 0.094148
O O13 0.964188 0.588042 0.229380
O O14 0.951010 0.554871 0.901831
O O15 0.957935 0.675066 0.008868
O O16 0.630955 0.000000 0.585178
#
# Coordination Sequence:
#
# PCOD9132677 Si02
#       8
#     4   4   4   4   4   2   4   4
#     4  11  26  44  67  97 137 175 233 284 338 405
#     4  10  21  40  65  99 129 167 227 282 331 404
#     4  10  24  44  70  93 128 178 232 281 335 404
#     4  12  23  41  65  99 137 179 216 278 343 407
#     4  10  22  42  67  99 136 174 222 279 338 405
#     4  12  22  42  66  98 150 174 214 284 346 400
#     4  10  20  38  67  94 128 180 223 271 332 406
#     4  11  24  45  67  98 130 181 227 283 345 404
#
# _framework density 26.273126000000001
#
# number of rings (size 3 to 8) (size 9 to 14) (size 15 to 20)
#    0.000    1.333    3.333    1.600    0.933    7.467 
#    3.600    1.333    0.000    0.000    0.000    0.000 
#    0.000    0.000    0.000    0.000    0.000    0.000 
#
# Total GULP energy -83666.861370 kJ/mol
# GULP energy per Si atom -5577.790758 kJ/mol
# Density = 2.621333 g / cm^3
# Si number density = 26.273126 Si / 1000 Ang^3
#
#
#
# Elastic Constant Matrix: (Units=GPa)
#
#
# Indices 1 2 3 4 5 6 
#
# 1 202.5066 22.8344 31.1633 0.0000 27.1119 0.0000
# 2 22.8344 91.6362 9.3279 0.0000 3.6210 0.0000
# 3 31.1633 9.3279 54.0616 0.0000 4.5725 0.0000
# 4 0.0000 0.0000 0.0000 10.2807 0.0000 -0.1661
# 5 27.1119 3.6210 4.5725 0.0000 46.2930 0.0000
# 6 0.0000 0.0000 0.0000 -0.1661 0.0000 63.3834
#
#
#
# Elastic Compliance Matrix: (Units=1/GPa)
#
#
# Indices 1 2 3 4 5 6 
#
# 1 0.005929 -0.001052 -0.002974 0.000000 -0.003096 0.000000
# 2 -0.001052 0.011316 -0.001334 0.000000 -0.000137 0.000000
# 3 -0.002974 -0.001334 0.020457 0.000000 -0.000174 0.000000
# 4 0.000000 0.000000 0.000000 0.097274 0.000000 0.000255
# 5 -0.003096 -0.000137 -0.000174 0.000000 0.023443 0.000000
# 6 0.000000 0.000000 0.000000 0.000255 0.000000 0.015778
#
#
# Mechanical properties :
#
#
# Convention : Reuss Voigt Hill
#
# Bulk Modulus (GPa) = 37.06417 52.76173 44.91295
# Shear Modulus (GPa) = 25.78491 42.98333 34.38412
#
# Velocity S-wave (km/s) = 3.13616 4.04916 3.62155
# Velocity P-wave (km/s) = 5.22033 6.47970 5.88381
#
# Compressibility (1/GPa) = 0.02698024
#
# Stress axis : x y z
#
# Youngs Moduli (GPa) = 168.66238 88.36903 48.88331
#
# Poissons Ratio (x) = 0.09299 0.14539
# Poissons Ratio (y) = 0.17748 0.06523
# Poissons Ratio (z) = 0.50165 0.11791
#
# Static dielectric constant tensor:
#      x y z
#    x 2.113840 0.000000 -0.027830 
#    y 0.000000 2.076740 0.000000 
#    z -0.027830 0.000000 2.108790 
# 
# From -- ./inp_files/11604.got.cif
#   From: 2010.05.17/outbox.cif.g08.bks.cpg/sg8_6_cif.got.tgz:11604.got - 2010.06.03 19:46:02.
