data_PCOD9132764
_publ_section_title
;
Structure prediction by ZEFSAII (Michael W. Deem and Ramdas Pophale) SiO2 
 PCOD9132764
Probable space group: C M
;
_chemical_formula_sum "Si O2"
_cell_formula_units_Z 32
_cell_length_a 16.478488
_cell_length_b 17.223488
_cell_length_c 12.559824
_cell_angle_alpha 90.000000
_cell_angle_beta 25.329067
_cell_angle_gamma 90.000000
_cell_volume 1525.033955
_symmetry_space_group_name_H-M "C M"
_symmetry_group_IT_number 8
_symmetry_cell_setting 'monoclinic'
loop_
_space_group_symop_operation_xyz
x,y,z
x,-y,z
1/2+x,1/2+y,z
1/2+x,1/2-y,z
loop_
_atom_site_type_symbol
_atom_site_label
_atom_site_fract_x
_atom_site_fract_y
_atom_site_fract_z
Si Si1 0.060410 0.180869 0.757990
Si Si2 0.166753 0.409680 0.927841
Si Si3 0.145279 0.357299 0.722754
Si Si4 0.948430 0.644459 0.383710
Si Si5 0.049058 0.819956 0.521215
Si Si6 0.155953 0.355980 0.338766
Si Si7 0.079523 0.174292 0.243979
Si Si8 0.936128 0.417052 0.778965
O O1 0.083375 0.272894 0.752277
O O2 0.225166 0.146895 0.635635
O O3 0.097665 0.163468 0.588047
O O4 0.858975 0.152557 0.041482
O O5 0.221789 0.500000 0.845754
O O6 0.087713 0.373251 0.912698
O O7 0.338612 0.354185 0.759674
O O8 0.023596 0.402378 0.194418
O O9 0.376365 0.362465 0.450693
O O10 0.030970 0.413053 0.781908
O O11 0.016846 0.611760 0.413590
O O12 0.035988 0.733300 0.281371
O O13 0.088385 0.728985 0.458630
O O14 0.125254 0.847918 0.313913
O O15 0.116876 0.406498 0.487929
O O16 0.269036 0.146346 0.960356
O O17 0.842752 0.500000 0.872505
#
# Coordination Sequence:
#
# PCOD9132764 Si02
#       8
#     4   4   4   4   4   4   4   4
#     4  11  22  40  69  98 120 163 220 278 314 374
#     4  11  23  40  64  95 138 173 205 263 329 392
#     4  10  22  41  63  95 128 164 214 269 323 377
#     4  10  22  40  66  95 122 166 214 265 325 373
#     4  10  20  41  67  91 127 164 216 270 317 371
#     4  11  23  42  63  95 129 164 218 271 320 376
#     4   9  22  40  66  96 125 166 212 275 318 374
#     4  12  25  40  64  93 132 178 213 255 323 397
#
# _framework density 20.983138
#
# number of rings (size 3 to 8) (size 9 to 14) (size 15 to 20)
#    0.000    1.500    2.500    3.375    3.500    4.000 
#    0.000    1.250    0.000    0.000    0.000    0.000 
#    0.000    0.000    0.000    0.000    0.000    0.000 
#
# Total GULP energy -89119.914835 kJ/mol
# GULP energy per Si atom -5569.994677 kJ/mol
# Density = 2.093538 g / cm^3
# Si number density = 20.983138 Si / 1000 Ang^3
#
#
#
# Elastic Constant Matrix: (Units=GPa)
#
#
# Indices 1 2 3 4 5 6 
#
# 1 119.4500 6.1332 38.8516 0.0143 -8.9272 -0.0015
# 2 6.1332 14.8203 8.9830 0.0110 -10.1910 -0.0040
# 3 38.8516 8.9830 91.1173 0.0179 0.0402 -0.0048
# 4 0.0143 0.0110 0.0179 -55.8273 -0.0026 -5.6845
# 5 -8.9272 -10.1910 0.0402 -0.0026 17.4157 0.0011
# 6 -0.0015 -0.0040 -0.0048 -5.6845 0.0011 3.8944
#
#
#
# Elastic Compliance Matrix: (Units=1/GPa)
#
#
# Indices 1 2 3 4 5 6 
#
# 1 0.010287 0.003787 -0.004763 0.000001 0.007500 0.000002
# 2 0.003787 0.126918 -0.014161 0.000008 0.076241 0.000102
# 3 -0.004763 -0.014161 0.014407 0.000001 -0.010761 0.000005
# 4 0.000001 0.000008 0.000001 -0.015595 0.000004 -0.022763
# 5 0.007500 0.076241 -0.010761 0.000004 0.105902 0.000043
# 6 0.000002 0.000102 0.000005 -0.022763 0.000043 0.223553
#
#
# Mechanical properties :
#
#
# Convention : Reuss Voigt Hill
#
# Bulk Modulus (GPa) = 8.24145 37.03589 22.63867
# Shear Modulus (GPa) = 9.32505 4.52455 6.92480
#
# Velocity S-wave (km/s) = 2.11038 1.47002 1.81861
# Velocity P-wave (km/s) = 3.14237 4.53541 3.90156
#
# Compressibility (1/GPa) = 0.12133781
#
# Stress axis : x y z
#
# Youngs Moduli (GPa) = 97.21060 7.87913 69.41274
#
# Poissons Ratio (x) = -0.02984 0.33061
# Poissons Ratio (y) = -0.36816 0.98295
# Poissons Ratio (z) = 0.46301 0.11158
#
# Static dielectric constant tensor:
#      x y z
#    x 1.753650 0.000000 0.015320 
#    y 0.000000 1.790670 0.000000 
#    z 0.015320 0.000000 1.761410 
# 
# From -- ./inp_files/22374.got.cif
#   From: 2010.05.17/outbox.cif.g08.bks.cpg/sg8_12_cif.got.tgz:22374.got - 2010.06.03 19:46:02.
