data_PCOD9132365
_publ_section_title
;
Structure prediction by ZEFSAII (Michael W. Deem and Ramdas Pophale) SiO2 
 PCOD9132365
Probable space group: C M
;
_chemical_formula_sum "Si O2"
_cell_formula_units_Z 24
_cell_length_a 17.411439
_cell_length_b 13.672766
_cell_length_c 13.660827
_cell_angle_alpha 90.000000
_cell_angle_beta 22.364287
_cell_angle_gamma 90.000000
_cell_volume 1237.416431
_symmetry_space_group_name_H-M "C M"
_symmetry_group_IT_number 8
_symmetry_cell_setting 'monoclinic'
loop_
_space_group_symop_operation_xyz
x,y,z
x,-y,z
1/2+x,1/2+y,z
1/2+x,1/2-y,z
loop_
_atom_site_type_symbol
_atom_site_label
_atom_site_fract_x
_atom_site_fract_y
_atom_site_fract_z
Si Si1 0.240760 0.384267 0.121490
Si Si2 0.623405 0.383282 0.268508
Si Si3 0.498784 0.387547 0.630183
Si Si4 0.473096 0.113293 0.121895
Si Si5 0.943843 0.719985 0.354384
Si Si6 0.493241 0.228870 0.906884
O O1 0.259033 0.500000 0.112784
O O2 0.014938 0.351500 0.359197
O O3 0.369488 0.348424 0.873770
O O4 0.341670 0.322004 0.089383
O O5 0.608894 0.500000 0.276681
O O6 0.509138 0.352235 0.505161
O O7 0.535336 0.323551 0.281037
O O8 0.856268 0.349920 0.009995
O O9 0.432311 0.500000 0.701209
O O10 0.731205 0.387307 0.390882
O O11 0.523088 0.167807 0.163050
O O12 0.538672 0.000000 0.043431
O O13 0.549571 0.176414 0.941508
O O14 0.706834 0.734196 0.616621
#
# Coordination Sequence:
#
# PCOD9132365 Si02
#       6
#     4   4   4   4   4   4
#     4  10  20  35  56  84 119 155 190 237 291 341
#     4   9  20  37  56  83 117 153 193 238 290 344
#     4   8  15  32  57  81 110 148 187 229 279 336
#     4  10  20  37  62  89 113 149 196 240 287 344
#     4  11  22  34  57  91 119 147 195 243 289 341
#     4  10  21  37  57  86 120 152 194 241 287 340
#
# _framework density 19.395249
#
# number of rings (size 3 to 8) (size 9 to 14) (size 15 to 20)
#    0.000    2.333    1.667    2.000    2.333    2.000 
#    0.000    0.833    0.000    2.000    0.000    0.000 
#    0.000    0.000    0.000    0.000    0.000    0.000 
#
# Total GULP energy -66811.343052 kJ/mol
# GULP energy per Si atom -5567.611921 kJ/mol
# Density = 1.935110 g / cm^3
# Si number density = 19.395249 Si / 1000 Ang^3
#
#
#
# Elastic Constant Matrix: (Units=GPa)
#
#
# Indices 1 2 3 4 5 6 
#
# 1 102.1914 56.4621 8.5092 -0.0016 -10.5275 0.0010
# 2 56.4621 141.6445 12.9780 -0.0014 9.6572 0.0019
# 3 8.5092 12.9780 32.1731 -0.0021 -3.9874 0.0018
# 4 -0.0016 -0.0014 -0.0021 20.2994 0.0019 3.9199
# 5 -10.5275 9.6572 -3.9874 0.0019 29.3652 -0.0017
# 6 0.0010 0.0019 0.0018 3.9199 -0.0017 34.0144
#
#
#
# Elastic Compliance Matrix: (Units=1/GPa)
#
#
# Indices 1 2 3 4 5 6 
#
# 1 0.013801 -0.005930 -0.000410 0.000000 0.006842 0.000000
# 2 -0.005930 0.010123 -0.003246 0.000001 -0.005896 -0.000001
# 3 -0.000410 -0.003246 0.033172 0.000003 0.005425 -0.000002
# 4 0.000000 0.000001 0.000003 0.050384 -0.000003 -0.005806
# 5 0.006842 -0.005896 0.005425 -0.000003 0.039183 0.000002
# 6 0.000000 -0.000001 -0.000002 -0.005806 0.000002 0.030068
#
#
# Mechanical properties :
#
#
# Convention : Reuss Voigt Hill
#
# Bulk Modulus (GPa) = 26.36844 47.98974 37.17909
# Shear Modulus (GPa) = 23.97569 29.93978 26.95774
#
# Velocity S-wave (km/s) = 3.51973 3.93321 3.73220
# Velocity P-wave (km/s) = 5.49024 6.73971 6.14681
#
# Compressibility (1/GPa) = 0.03792412
#
# Stress axis : x y z
#
# Youngs Moduli (GPa) = 72.45766 98.78255 30.14603
#
# Poissons Ratio (x) = 0.58581 0.01236
# Poissons Ratio (y) = 0.42970 0.09785
# Poissons Ratio (z) = 0.02970 0.32063
#
# Static dielectric constant tensor:
#      x y z
#    x 1.720700 0.000000 0.004420 
#    y 0.000000 1.673860 0.000000 
#    z 0.004420 0.000000 1.745080 
# 
# From -- ./inp_files/22196.got.cif
#   From: 2010.05.17/outbox.cif.g08.bks.cpg/sg8_12_cif.got.tgz:22196.got - 2010.06.03 19:46:02.
