data_PCOD9132551
_publ_section_title
;
Structure prediction by ZEFSAII (Michael W. Deem and Ramdas Pophale) SiO2 
 PCOD9132551
Probable space group: C M
;
_chemical_formula_sum "Si O2"
_cell_formula_units_Z 32
_cell_length_a 14.845005
_cell_length_b 8.380374
_cell_length_c 12.724782
_cell_angle_alpha 90.000000
_cell_angle_beta 90.763590
_cell_angle_gamma 90.000000
_cell_volume 1582.907477
_symmetry_space_group_name_H-M "C M"
_symmetry_group_IT_number 8
_symmetry_cell_setting 'monoclinic'
loop_
_space_group_symop_operation_xyz
x,y,z
x,-y,z
1/2+x,1/2+y,z
1/2+x,1/2-y,z
loop_
_atom_site_type_symbol
_atom_site_label
_atom_site_fract_x
_atom_site_fract_y
_atom_site_fract_z
Si Si1 0.105630 0.811109 0.027220
Si Si2 0.959871 0.688781 0.868059
Si Si3 0.815662 0.307012 0.030866
Si Si4 0.600493 0.186065 0.251669
Si Si5 0.302723 0.192653 0.259265
Si Si6 0.320700 0.812248 0.491959
Si Si7 0.974878 0.816038 0.634444
Si Si8 0.618747 0.188457 0.480075
O O1 0.210755 0.761665 0.021863
O O2 0.072650 0.775366 0.145353
O O3 0.100253 0.000000 0.007806
O O4 0.046890 0.719751 0.941212
O O5 0.947876 0.500000 0.851044
O O6 0.968040 0.769699 0.755725
O O7 0.877169 0.753476 0.937681
O O8 0.818761 0.500000 0.025147
O O9 0.848928 0.266485 0.149427
O O10 0.708642 0.213025 0.257848
O O11 0.573877 0.241823 0.368244
O O12 0.576743 0.000000 0.239159
O O13 0.348304 0.224798 0.371461
O O14 0.283373 0.000000 0.257108
O O15 0.380461 0.717265 0.575073
O O16 0.214396 0.774512 0.498008
O O17 0.335557 0.000000 0.509749
O O18 0.050744 0.717537 0.573678
O O19 0.999499 0.000000 0.624583
O O20 0.636903 0.000000 0.468767
#
# Coordination Sequence:
#
# PCOD9132551 Si02
#       8
#     4   4   4   4   4   4   4   4
#     4  10  20  37  59  85 117 151 187 229 283 346
#     4  11  23  40  59  81 110 148 198 247 290 339
#     4   8  17  35  59  83 111 147 182 221 275 339
#     4   9  17  31  55  87 118 147 183 229 283 343
#     4   8  15  31  56  85 115 146 181 224 281 347
#     4  10  20  37  62  90 120 153 188 234 294 353
#     4  12  26  42  58  81 115 155 202 249 294 348
#     4  10  21  39  62  88 118 153 195 243 294 347
#
# _framework density 20.215964
#
# number of rings (size 3 to 8) (size 9 to 14) (size 15 to 20)
#    0.000    2.250    0.000    3.750    0.000    4.000 
#    0.000   12.500    0.000    0.000    0.000    0.000 
#    0.000    0.000    0.000    0.000    0.000    0.000 
#
# Total GULP energy -89300.550797 kJ/mol
# GULP energy per Si atom -5581.284425 kJ/mol
# Density = 2.016995 g / cm^3
# Si number density = 20.215964 Si / 1000 Ang^3
#
#
#
# Elastic Constant Matrix: (Units=GPa)
#
#
# Indices 1 2 3 4 5 6 
#
# 1 66.9859 -8.4070 34.8892 0.0000 -8.8243 0.0000
# 2 -8.4070 26.6848 2.3113 0.0000 1.4883 0.0000
# 3 34.8892 2.3113 140.8756 0.0000 -10.7681 0.0000
# 4 0.0000 0.0000 0.0000 29.8324 0.0000 3.6848
# 5 -8.8243 1.4883 -10.7681 0.0000 30.7495 0.0000
# 6 0.0000 0.0000 0.0000 3.6848 0.0000 22.1385
#
#
#
# Elastic Compliance Matrix: (Units=1/GPa)
#
#
# Indices 1 2 3 4 5 6 
#
# 1 0.018427 0.005993 -0.004398 0.000000 0.003458 0.000000
# 2 0.005993 0.039608 -0.002208 0.000000 -0.000970 0.000000
# 3 -0.004398 -0.002208 0.008359 0.000000 0.001772 0.000000
# 4 0.000000 0.000000 0.000000 0.034224 0.000000 -0.005696
# 5 0.003458 -0.000970 0.001772 0.000000 0.034181 0.000000
# 6 0.000000 0.000000 0.000000 -0.005696 0.000000 0.046118
#
#
# Mechanical properties :
#
#
# Convention : Reuss Voigt Hill
#
# Bulk Modulus (GPa) = 15.34475 32.45927 23.90201
# Shear Modulus (GPa) = 24.52600 30.26094 27.39347
#
# Velocity S-wave (km/s) = 3.48688 3.87315 3.68508
# Velocity P-wave (km/s) = 4.88037 6.00774 5.47316
#
# Compressibility (1/GPa) = 0.06516887
#
# Stress axis : x y z
#
# Youngs Moduli (GPa) = 54.26919 25.24738 119.62796
#
# Poissons Ratio (x) = -0.15132 0.52607
# Poissons Ratio (y) = -0.32525 0.26418
# Poissons Ratio (z) = 0.23865 0.05575
#
# Static dielectric constant tensor:
#      x y z
#    x 1.720530 0.000000 -0.012990 
#    y 0.000000 1.681940 0.000000 
#    z -0.012990 0.000000 1.718940 
# 
# From -- ./inp_files/21565.got.cif
#   From: 2010.05.17/outbox.cif.g08.bks.cpg/sg8_11_cif.got.tgz:21565.got - 2010.06.03 19:46:02.
