data_PCOD9132486
_publ_section_title
;
Structure prediction by ZEFSAII (Michael W. Deem and Ramdas Pophale) SiO2 
 PCOD9132486
Probable space group: C M
;
_chemical_formula_sum "Si O2"
_cell_formula_units_Z 32
_cell_length_a 15.352568
_cell_length_b 8.658989
_cell_length_c 12.718023
_cell_angle_alpha 90.000000
_cell_angle_beta 73.672344
_cell_angle_gamma 90.000000
_cell_volume 1622.518320
_symmetry_space_group_name_H-M "C M"
_symmetry_group_IT_number 8
_symmetry_cell_setting 'monoclinic'
loop_
_space_group_symop_operation_xyz
x,y,z
x,-y,z
1/2+x,1/2+y,z
1/2+x,1/2-y,z
loop_
_atom_site_type_symbol
_atom_site_label
_atom_site_fract_x
_atom_site_fract_y
_atom_site_fract_z
Si Si1 0.583540 0.679706 0.407540
Si Si2 0.773768 0.183725 0.293943
Si Si3 0.830590 0.812213 0.043086
Si Si4 0.289249 0.679125 0.652490
Si Si5 0.083089 0.679373 0.635307
Si Si6 0.704221 0.186848 0.898207
Si Si7 0.018210 0.185358 0.871924
Si Si8 0.397642 0.180108 0.432543
O O1 0.603751 0.500000 0.388818
O O2 0.667584 0.777873 0.336237
O O3 0.571838 0.722382 0.534300
O O4 0.489460 0.724611 0.385183
O O5 0.823938 0.268641 0.371995
O O6 0.786880 0.000000 0.301586
O O7 0.813188 0.235849 0.168321
O O8 0.750099 0.764971 0.991480
O O9 0.927181 0.763995 0.962659
O O10 0.830317 0.000000 0.042882
O O11 0.319175 0.500000 0.637384
O O12 0.188790 0.687556 0.634935
O O13 0.273141 0.723776 0.778860
O O14 0.356335 0.780507 0.560902
O O15 0.062066 0.500000 0.621090
O O16 0.026451 0.741723 0.753217
O O17 0.607950 0.262513 0.904657
O O18 0.692896 0.000000 0.899667
O O19 0.017508 0.000000 0.862209
O O20 0.417092 0.000000 0.418144
#
# Coordination Sequence:
#
# PCOD9132486 Si02
#       8
#     4   4   4   4   4   4   4   4
#     4  12  25  41  63  91 122 162 209 258 315 371
#     4  11  23  44  66  89 126 165 209 260 311 366
#     4   9  21  40  64  89 119 164 206 247 304 368
#     4   9  18  34  60  88 124 162 198 248 309 365
#     4  10  20  37  61  91 127 163 199 249 312 369
#     4   9  19  38  60  86 121 162 202 245 305 365
#     4  10  20  36  59  91 124 159 203 250 301 359
#     4  12  25  40  61  91 125 163 210 255 309 371
#
# _framework density 19.722427
#
# number of rings (size 3 to 8) (size 9 to 14) (size 15 to 20)
#    0.000    1.750    1.250    4.125    1.750    3.000 
#    0.000    7.500    0.000    0.000    0.000    0.000 
#    0.000    0.000    0.000    0.000    0.000    0.000 
#
# Total GULP energy -89438.471064 kJ/mol
# GULP energy per Si atom -5589.904442 kJ/mol
# Density = 1.967754 g / cm^3
# Si number density = 19.722427 Si / 1000 Ang^3
#
#
#
# Elastic Constant Matrix: (Units=GPa)
#
#
# Indices 1 2 3 4 5 6 
#
# 1 35.8411 -7.2952 6.8532 0.0000 -17.1185 0.0000
# 2 -7.2952 38.2034 4.0541 0.0000 3.5287 0.0000
# 3 6.8532 4.0541 72.7952 0.0000 -16.3325 0.0000
# 4 0.0000 0.0000 0.0000 20.1333 0.0000 -4.3041
# 5 -17.1185 3.5287 -16.3325 0.0000 21.4889 0.0000
# 6 0.0000 0.0000 0.0000 -4.3041 0.0000 29.5983
#
#
#
# Elastic Compliance Matrix: (Units=1/GPa)
#
#
# Indices 1 2 3 4 5 6 
#
# 1 0.047203 0.004861 0.004271 0.000000 0.040051 0.000000
# 2 0.004861 0.027621 -0.002586 0.000000 -0.002628 0.000000
# 3 0.004271 -0.002586 0.017285 0.000000 0.016965 0.000000
# 4 0.000000 0.000000 0.000000 0.051263 0.000000 0.007455
# 5 0.040051 -0.002628 0.016965 0.000000 0.091767 0.000000
# 6 0.000000 0.000000 0.000000 0.007455 0.000000 0.034870
#
#
# Mechanical properties :
#
#
# Convention : Reuss Voigt Hill
#
# Bulk Modulus (GPa) = 9.50541 17.11820 13.31181
# Shear Modulus (GPa) = 17.12434 23.79261 20.45847
#
# Velocity S-wave (km/s) = 2.94983 3.47706 3.22424
# Velocity P-wave (km/s) = 4.05365 4.98180 4.54150
#
# Compressibility (1/GPa) = 0.10520320
#
# Stress axis : x y z
#
# Youngs Moduli (GPa) = 21.18513 36.20419 57.85255
#
# Poissons Ratio (x) = -0.17599 -0.24711
# Poissons Ratio (y) = -0.10298 0.14958
# Poissons Ratio (z) = -0.09049 0.09361
#
# Static dielectric constant tensor:
#      x y z
#    x 1.684490 0.000000 0.005040 
#    y 0.000000 1.660600 0.000000 
#    z 0.005040 0.000000 1.676540 
# 
# From -- ./inp_files/21522.got.cif
#   From: 2010.05.17/outbox.cif.g08.bks.cpg/sg8_11_cif.got.tgz:21522.got - 2010.06.03 19:46:02.
