data_PCOD9132029
_publ_section_title
;
Structure prediction by ZEFSAII (Michael W. Deem and Ramdas Pophale) SiO2 
 PCOD9132029
Probable space group: C M
;
_chemical_formula_sum "Si O2"
_cell_formula_units_Z 32
_cell_length_a 33.989213
_cell_length_b 8.079404
_cell_length_c 12.850219
_cell_angle_alpha 90.000000
_cell_angle_beta 153.650673
_cell_angle_gamma 90.000000
_cell_volume 1566.246704
_symmetry_space_group_name_H-M "C M"
_symmetry_group_IT_number 8
_symmetry_cell_setting 'monoclinic'
loop_
_space_group_symop_operation_xyz
x,y,z
x,-y,z
1/2+x,1/2+y,z
1/2+x,1/2-y,z
loop_
_atom_site_type_symbol
_atom_site_label
_atom_site_fract_x
_atom_site_fract_y
_atom_site_fract_z
Si Si1 0.350900 0.301582 0.366850
Si Si2 0.462891 0.800404 0.432368
Si Si3 0.013597 0.191107 0.166309
Si Si4 0.653410 0.798903 0.955693
Si Si5 0.213681 0.303480 0.322277
Si Si6 0.381251 0.805250 0.024943
Si Si7 0.407125 0.809637 0.724876
Si Si8 0.191673 0.798916 0.498200
O O1 0.349766 0.500000 0.363674
O O2 0.401464 0.239511 0.385278
O O3 0.400298 0.244480 0.589093
O O4 0.247949 0.243811 0.132170
O O5 0.563163 0.737943 0.689377
O O6 0.468965 0.000000 0.438530
O O7 0.419179 0.735275 0.222552
O O8 0.113594 0.253069 0.390485
O O9 0.014519 0.000000 0.200755
O O10 0.953105 0.285737 0.104596
O O11 0.969870 0.205601 0.948621
O O12 0.652991 0.000000 0.948501
O O13 0.656131 0.756363 0.085035
O O14 0.231389 0.500000 0.356583
O O15 0.307691 0.211985 0.534179
O O16 0.173834 0.263497 0.339419
O O17 0.287380 0.736642 0.762888
O O18 0.365560 0.000000 0.005136
O O19 0.434685 0.000000 0.796711
O O20 0.191496 0.000000 0.493784
#
# Coordination Sequence:
#
# PCOD9132029 Si02
#       8
#     4   4   4   4   4   4   4   4
#     4  10  21  38  58  86 119 153 192 240 295 348
#     4  10  21  39  62  86 114 156 201 241 287 347
#     4  11  23  38  58  86 118 154 199 246 296 347
#     4   8  18  36  56  82 117 151 189 235 286 344
#     4  10  19  34  58  87 119 155 194 239 291 349
#     4  10  22  41  61  83 117 158 199 242 294 351
#     4  11  21  36  59  86 120 156 192 240 302 355
#     4  10  22  38  56  84 120 157 194 241 295 349
#
# _framework density 20.431011000000002
#
# number of rings (size 3 to 8) (size 9 to 14) (size 15 to 20)
#    0.000    2.000    1.250    3.000    1.750    2.500 
#    0.000    3.125    0.000    0.000    0.000    0.000 
#    0.000    0.000    0.000    0.000    0.000    0.000 
#
# Total GULP energy -89356.172326 kJ/mol
# GULP energy per Si atom -5584.760770 kJ/mol
# Density = 2.038451 g / cm^3
# Si number density = 20.431011 Si / 1000 Ang^3
#
#
#
# Elastic Constant Matrix: (Units=GPa)
#
#
# Indices 1 2 3 4 5 6 
#
# 1 91.6304 -15.0910 49.9850 0.0000 -2.9943 0.0000
# 2 -15.0910 18.6105 -3.3077 0.0000 -1.5356 0.0000
# 3 49.9850 -3.3077 63.4996 0.0000 0.8420 0.0000
# 4 0.0000 0.0000 0.0000 13.1478 0.0000 0.0393
# 5 -2.9943 -1.5356 0.8420 0.0000 23.0053 0.0000
# 6 0.0000 0.0000 0.0000 0.0393 0.0000 19.9223
#
#
#
# Elastic Compliance Matrix: (Units=1/GPa)
#
#
# Indices 1 2 3 4 5 6 
#
# 1 0.023324 0.016181 -0.017580 0.000000 0.004759 0.000000
# 2 0.016181 0.065747 -0.009403 0.000000 0.006839 0.000000
# 3 -0.017580 -0.009403 0.029150 0.000000 -0.003983 0.000000
# 4 0.000000 0.000000 0.000000 0.076059 0.000000 -0.000150
# 5 0.004759 0.006839 -0.003983 0.000000 0.044690 0.000000
# 6 0.000000 0.000000 0.000000 -0.000150 0.000000 0.050195
#
#
# Mechanical properties :
#
#
# Convention : Reuss Voigt Hill
#
# Bulk Modulus (GPa) = 10.35018 26.32367 18.33693
# Shear Modulus (GPa) = 14.57833 20.69203 17.63518
#
# Velocity S-wave (km/s) = 2.67411 3.18587 2.94114
# Velocity P-wave (km/s) = 3.82249 5.14248 4.53081
#
# Compressibility (1/GPa) = 0.09661663
#
# Stress axis : x y z
#
# Youngs Moduli (GPa) = 42.87434 15.20974 34.30567
#
# Poissons Ratio (x) = -0.24611 0.60310
# Poissons Ratio (y) = -0.69376 0.32258
# Poissons Ratio (z) = 0.75374 0.14302
#
# Static dielectric constant tensor:
#      x y z
#    x 1.698670 0.000000 0.008380 
#    y 0.000000 1.727030 0.000000 
#    z 0.008380 0.000000 1.744510 
# 
# From -- ./inp_files/24798.got.cif
#   From: 2010.05.17/outbox.cif.g08.bks.cpg/sg8_13_cif.got.tgz:24798.got - 2010.06.03 19:46:02.
