data_PCOD9132184
_publ_section_title
;
Structure prediction by ZEFSAII (Michael W. Deem and Ramdas Pophale) SiO2 
 PCOD9132184
Probable space group: C M
;
_chemical_formula_sum "Si O2"
_cell_formula_units_Z 28
_cell_length_a 8.342314
_cell_length_b 24.699355
_cell_length_c 9.084769
_cell_angle_alpha 90.000000
_cell_angle_beta 133.971828
_cell_angle_gamma 90.000000
_cell_volume 1347.181888
_symmetry_space_group_name_H-M "C M"
_symmetry_group_IT_number 8
_symmetry_cell_setting 'monoclinic'
loop_
_space_group_symop_operation_xyz
x,y,z
x,-y,z
1/2+x,1/2+y,z
1/2+x,1/2-y,z
loop_
_atom_site_type_symbol
_atom_site_label
_atom_site_fract_x
_atom_site_fract_y
_atom_site_fract_z
Si Si1 0.648760 0.561895 0.806590
Si Si2 0.524460 0.119058 0.225719
Si Si3 0.146916 0.563060 0.594130
Si Si4 0.910683 0.180604 0.130095
Si Si5 0.853820 0.280388 0.295479
Si Si6 0.475491 0.163869 0.670473
Si Si7 0.032319 0.883536 0.447565
O O1 0.706302 0.500000 0.875387
O O2 0.411272 0.574372 0.734685
O O3 0.608525 0.568727 0.605466
O O4 0.845075 0.599729 0.992166
O O5 0.529936 0.076154 0.363573
O O6 0.461749 0.176592 0.254077
O O7 0.776376 0.123715 0.330676
O O8 0.121171 0.500000 0.617552
O O9 0.042437 0.605789 0.641177
O O10 0.894667 0.221559 0.257402
O O11 0.093374 0.205286 0.138341
O O12 0.004203 0.123176 0.252214
O O13 0.673654 0.178003 0.904528
O O14 0.947397 0.293823 0.517999
O O15 0.239906 0.157509 0.601967
#
# Coordination Sequence:
#
# PCOD9132184 Si02
#       7
#     4   4   4   4   4   4   4
#     4  10  20  35  58  85 113 150 190 232 285 337
#     4  10  19  37  60  84 114 148 189 236 282 331
#     4   9  19  36  57  82 112 148 192 235 278 335
#     4  11  22  39  58  82 113 150 188 233 288 336
#     4  10  23  37  58  85 110 146 193 234 280 339
#     4  10  22  39  57  83 116 148 189 235 283 337
#     4  10  22  37  56  83 116 148 188 235 278 337
#
# _framework density 20.784127000000002
#
# number of rings (size 3 to 8) (size 9 to 14) (size 15 to 20)
#    0.000    2.000    0.000    3.000    0.000    4.571 
#    0.000    0.714    0.000    0.000    0.000    0.000 
#    0.000    0.000    0.000    0.000    0.000    0.000 
#
# Total GULP energy -78016.221159 kJ/mol
# GULP energy per Si atom -5572.587226 kJ/mol
# Density = 2.073682 g / cm^3
# Si number density = 20.784127 Si / 1000 Ang^3
#
#
#
# Elastic Constant Matrix: (Units=GPa)
#
#
# Indices 1 2 3 4 5 6 
#
# 1 61.6276 22.3242 20.7911 0.0000 15.7643 0.0000
# 2 22.3242 71.0108 44.4295 0.0000 -3.5468 0.0000
# 3 20.7911 44.4295 135.6624 0.0000 25.1682 0.0000
# 4 0.0000 0.0000 0.0000 15.5872 0.0000 2.3169
# 5 15.7643 -3.5468 25.1682 0.0000 24.9093 0.0000
# 6 0.0000 0.0000 0.0000 2.3169 0.0000 24.3844
#
#
#
# Elastic Compliance Matrix: (Units=1/GPa)
#
#
# Indices 1 2 3 4 5 6 
#
# 1 0.024229 -0.010968 0.003709 0.000000 -0.020643 0.000000
# 2 -0.010968 0.025130 -0.010462 0.000000 0.021090 0.000000
# 3 0.003709 -0.010462 0.013465 0.000000 -0.017441 0.000000
# 4 0.000000 0.000000 0.000000 0.065074 0.000000 -0.006183
# 5 -0.020643 0.021090 -0.017441 0.000000 0.073835 0.000000
# 6 0.000000 0.000000 0.000000 -0.006183 0.000000 0.041597
#
#
# Mechanical properties :
#
#
# Convention : Reuss Voigt Hill
#
# Bulk Modulus (GPa) = 36.52258 49.26560 42.89409
# Shear Modulus (GPa) = 17.36713 25.02657 21.19685
#
# Velocity S-wave (km/s) = 2.89380 3.47381 3.19699
# Velocity P-wave (km/s) = 5.36432 6.31227 5.85750
#
# Compressibility (1/GPa) = 0.02738032
#
# Stress axis : x y z
#
# Youngs Moduli (GPa) = 41.27297 39.79376 74.26764
#
# Poissons Ratio (x) = 0.43648 -0.27543
# Poissons Ratio (y) = 0.45270 0.77696
# Poissons Ratio (z) = -0.15306 0.41631
#
# Static dielectric constant tensor:
#      x y z
#    x 1.763000 0.000000 -0.010730 
#    y 0.000000 1.745370 0.000000 
#    z -0.010730 0.000000 1.737130 
# 
# From -- ./inp_files/1874.got.cif
#   From: 2010.05.17/outbox.cif.g08.bks.cpg/sg8_1_cif.got.tgz:1874.got - 2010.06.03 19:46:02.
