data_PCOD9132138
_publ_section_title
;
Structure prediction by ZEFSAII (Michael W. Deem and Ramdas Pophale) SiO2 
 PCOD9132138
Probable space group: C M
;
_chemical_formula_sum "Si O2"
_cell_formula_units_Z 32
_cell_length_a 20.645905
_cell_length_b 8.555795
_cell_length_c 12.535958
_cell_angle_alpha 90.000000
_cell_angle_beta 53.386613
_cell_angle_gamma 90.000000
_cell_volume 1777.433097
_symmetry_space_group_name_H-M "C M"
_symmetry_group_IT_number 8
_symmetry_cell_setting 'monoclinic'
loop_
_space_group_symop_operation_xyz
x,y,z
x,-y,z
1/2+x,1/2+y,z
1/2+x,1/2-y,z
loop_
_atom_site_type_symbol
_atom_site_label
_atom_site_fract_x
_atom_site_fract_y
_atom_site_fract_z
Si Si1 0.041020 0.186891 0.042790
Si Si2 0.189069 0.810599 0.745957
Si Si3 0.529197 0.686697 0.487014
Si Si4 0.850894 0.312479 0.696001
Si Si5 0.571696 0.310684 0.681304
Si Si6 0.930540 0.314310 0.972826
Si Si7 0.102739 0.313594 0.198241
Si Si8 0.288986 0.313025 0.982312
O O1 0.050427 0.238496 0.154912
O O2 0.035626 0.000000 0.040142
O O3 0.123068 0.237430 0.899740
O O4 0.967335 0.260297 0.049443
O O5 0.277938 0.757791 0.690768
O O6 0.151262 0.763969 0.669613
O O7 0.191181 0.000000 0.745920
O O8 0.535838 0.500000 0.472339
O O9 0.435583 0.734606 0.585330
O O10 0.568400 0.736324 0.561560
O O11 0.570947 0.762952 0.344372
O O12 0.859080 0.500000 0.680735
O O13 0.823830 0.267386 0.841929
O O14 0.564769 0.500000 0.693142
O O15 0.495744 0.242072 0.820346
O O16 0.923599 0.500000 0.976111
O O17 0.846091 0.237139 0.023657
O O18 0.098445 0.500000 0.192176
O O19 0.196238 0.266046 0.090977
O O20 0.293009 0.500000 0.964782
#
# Coordination Sequence:
#
# PCOD9132138 Si02
#       8
#     4   4   4   4   4   4   4   4
#     4  10  19  36  59  84 117 152 189 234 294 350
#     4   8  16  31  55  84 111 143 183 233 286 336
#     4  11  23  38  58  82 116 158 196 236 292 351
#     4  11  20  34  58  87 116 147 191 243 289 340
#     4   9  18  35  56  81 113 151 191 234 286 342
#     4  11  21  33  56  88 117 149 192 240 288 339
#     4  11  24  40  59  84 117 154 198 245 290 344
#     4  11  22  37  57  84 117 152 194 245 293 338
#
# _framework density 18.003489999999999
#
# number of rings (size 3 to 8) (size 9 to 14) (size 15 to 20)
#    0.000    1.750    2.500    3.750    0.000    2.000 
#    0.000    1.875    0.000    4.500    0.000    0.000 
#    0.000    0.000    0.000    0.000    0.000    0.000 
#
# Total GULP energy -89340.241271 kJ/mol
# GULP energy per Si atom -5583.765079 kJ/mol
# Density = 1.796251 g / cm^3
# Si number density = 18.003490 Si / 1000 Ang^3
#
#
#
# Elastic Constant Matrix: (Units=GPa)
#
#
# Indices 1 2 3 4 5 6 
#
# 1 120.1586 4.3531 27.0355 0.0000 16.4608 0.0000
# 2 4.3531 27.9255 3.8217 0.0000 4.2271 0.0000
# 3 27.0355 3.8217 64.9529 0.0000 10.8458 0.0000
# 4 0.0000 0.0000 0.0000 26.6172 0.0000 2.4829
# 5 16.4608 4.2271 10.8458 0.0000 26.9766 0.0000
# 6 0.0000 0.0000 0.0000 2.4829 0.0000 26.0810
#
#
#
# Elastic Compliance Matrix: (Units=1/GPa)
#
#
# Indices 1 2 3 4 5 6 
#
# 1 0.009691 -0.000377 -0.003252 0.000000 -0.004546 0.000000
# 2 -0.000377 0.036794 -0.001162 0.000000 -0.005068 0.000000
# 3 -0.003252 -0.001162 0.017640 0.000000 -0.004926 0.000000
# 4 0.000000 0.000000 0.000000 0.037906 0.000000 -0.003609
# 5 -0.004546 -0.005068 -0.004926 0.000000 0.042618 0.000000
# 6 0.000000 0.000000 0.000000 -0.003609 0.000000 0.038686
#
#
# Mechanical properties :
#
#
# Convention : Reuss Voigt Hill
#
# Bulk Modulus (GPa) = 18.33408 31.49527 24.91467
# Shear Modulus (GPa) = 23.68564 27.79008 25.73786
#
# Velocity S-wave (km/s) = 3.63107 3.93312 3.78511
# Velocity P-wave (km/s) = 5.27118 6.17721 5.74209
#
# Compressibility (1/GPa) = 0.05454324
#
# Stress axis : x y z
#
# Youngs Moduli (GPa) = 103.19325 27.17798 56.68844
#
# Poissons Ratio (x) = 0.01025 0.18436
# Poissons Ratio (y) = 0.03894 0.06585
# Poissons Ratio (z) = 0.33560 0.03157
#
# Static dielectric constant tensor:
#      x y z
#    x 1.637700 0.000000 0.008710 
#    y 0.000000 1.607030 0.000000 
#    z 0.008710 0.000000 1.579910 
# 
# From -- ./inp_files/23710.got.cif
#   From: 2010.05.17/outbox.cif.g08.bks.cpg/sg8_12_cif.got.tgz:23710.got - 2010.06.03 19:46:02.
