data_PCOD9132602
_publ_section_title
;
Structure prediction by ZEFSAII (Michael W. Deem and Ramdas Pophale) SiO2 
 PCOD9132602
Probable space group: C M
;
_chemical_formula_sum "Si O2"
_cell_formula_units_Z 20
_cell_length_a 15.230527
_cell_length_b 9.781407
_cell_length_c 6.953977
_cell_angle_alpha 90.000000
_cell_angle_beta 60.330896
_cell_angle_gamma 90.000000
_cell_volume 900.157672
_symmetry_space_group_name_H-M "C M"
_symmetry_group_IT_number 8
_symmetry_cell_setting 'monoclinic'
loop_
_space_group_symop_operation_xyz
x,y,z
x,-y,z
1/2+x,1/2+y,z
1/2+x,1/2-y,z
loop_
_atom_site_type_symbol
_atom_site_label
_atom_site_fract_x
_atom_site_fract_y
_atom_site_fract_z
Si Si1 0.494940 0.652525 0.252150
Si Si2 0.347730 0.837280 0.196178
Si Si3 0.703303 0.239388 0.038729
Si Si4 0.539274 0.149170 0.507399
Si Si5 0.203679 0.343994 0.609974
O O1 0.454579 0.500000 0.290214
O O2 0.446243 0.752366 0.148651
O O3 0.615812 0.648758 0.096104
O O4 0.477700 0.728543 0.476456
O O5 0.300858 0.798216 0.040059
O O6 0.266811 0.773975 0.435259
O O7 0.360312 0.000000 0.199785
O O8 0.639238 0.147929 0.259883
O O9 0.719958 0.168540 0.818628
O O10 0.587960 0.173370 0.662214
O O11 0.489661 0.000000 0.552693
O O12 0.229668 0.500000 0.523693
#
# Coordination Sequence:
#
# PCOD9132602 Si02
#       5
#     4   4   4   4   4
#     4  10  21  39  61  85 118 159 199 245 295 347
#     4  11  23  40  61  88 121 158 198 245 296 351
#     4   9  21  38  63  85 117 155 196 241 293 352
#     4   8  17  34  59  85 114 151 190 238 291 346
#     4  10  20  37  64  91 118 155 197 243 297 352
#
# _framework density 22.218328
#
# number of rings (size 3 to 8) (size 9 to 14) (size 15 to 20)
#    1.200    1.200    0.000    2.400    0.000    4.000 
#    3.600    0.000    0.000    0.000    0.000    0.000 
#    0.000    0.000    0.000    0.000    0.000    0.000 
#
# Total GULP energy -55694.915086 kJ/mol
# GULP energy per Si atom -5569.491509 kJ/mol
# Density = 2.216776 g / cm^3
# Si number density = 22.218328 Si / 1000 Ang^3
#
#
#
# Elastic Constant Matrix: (Units=GPa)
#
#
# Indices 1 2 3 4 5 6 
#
# 1 139.5832 66.8062 26.7097 0.0000 41.9762 0.0000
# 2 66.8062 192.0650 36.5539 0.0000 25.3660 0.0000
# 3 26.7097 36.5539 69.8627 0.0000 30.2663 0.0000
# 4 0.0000 0.0000 0.0000 15.5617 0.0000 6.9425
# 5 41.9762 25.3660 30.2663 0.0000 28.4270 0.0000
# 6 0.0000 0.0000 0.0000 6.9425 0.0000 19.9372
#
#
#
# Elastic Compliance Matrix: (Units=1/GPa)
#
#
# Indices 1 2 3 4 5 6 
#
# 1 0.016097 -0.003269 0.008520 0.000000 -0.029924 0.000000
# 2 -0.003269 0.006651 -0.003249 0.000000 0.002350 0.000000
# 3 0.008520 -0.003249 0.031463 0.000000 -0.043180 0.000000
# 4 0.000000 0.000000 0.000000 0.076079 0.000000 -0.026492
# 5 -0.029924 0.002350 -0.043180 0.000000 0.123241 0.000000
# 6 0.000000 0.000000 0.000000 -0.026492 0.000000 0.059383
#
#
# Mechanical properties :
#
#
# Convention : Reuss Voigt Hill
#
# Bulk Modulus (GPa) = 17.17721 73.51673 45.34697
# Shear Modulus (GPa) = 15.22926 30.88127 23.05526
#
# Velocity S-wave (km/s) = 2.62092 3.73218 3.22478
# Velocity P-wave (km/s) = 4.11180 7.19252 5.85830
#
# Compressibility (1/GPa) = 0.05821668
#
# Stress axis : x y z
#
# Youngs Moduli (GPa) = 62.12301 150.34484 31.78318
#
# Poissons Ratio (x) = 0.49140 -0.27078
# Poissons Ratio (y) = 0.20305 0.10325
# Poissons Ratio (z) = -0.52927 0.48842
#
# Static dielectric constant tensor:
#      x y z
#    x 1.884250 0.000000 -0.035040 
#    y 0.000000 1.777430 0.000000 
#    z -0.035040 0.000000 1.863840 
# 
# From -- ./inp_files/12007.got.cif
#   From: 2010.05.17/outbox.cif.g08.bks.cpg/sg8_7_cif.got.tgz:12007.got - 2010.06.03 19:46:02.
