data_PCOD9132125
_publ_section_title
;
Structure prediction by ZEFSAII (Michael W. Deem and Ramdas Pophale) SiO2 
 PCOD9132125
Probable space group: C M
;
_chemical_formula_sum "Si O2"
_cell_formula_units_Z 32
_cell_length_a 14.859172
_cell_length_b 22.971692
_cell_length_c 7.074644
_cell_angle_alpha 90.000000
_cell_angle_beta 34.586146
_cell_angle_gamma 90.000000
_cell_volume 1370.783188
_symmetry_space_group_name_H-M "C M"
_symmetry_group_IT_number 8
_symmetry_cell_setting 'monoclinic'
loop_
_space_group_symop_operation_xyz
x,y,z
x,-y,z
1/2+x,1/2+y,z
1/2+x,1/2-y,z
loop_
_atom_site_type_symbol
_atom_site_label
_atom_site_fract_x
_atom_site_fract_y
_atom_site_fract_z
Si Si1 0.530380 0.814664 0.191130
Si Si2 0.955319 0.715966 0.882737
Si Si3 0.284214 0.672395 0.226138
Si Si4 0.913365 0.065873 0.822886
Si Si5 0.381540 0.304068 0.497435
Si Si6 0.257810 0.104709 0.233800
Si Si7 0.359582 0.064857 0.443681
Si Si8 0.096660 0.909422 0.162503
O O1 0.429484 0.762466 0.456687
O O2 0.453663 0.878141 0.352575
O O3 0.506406 0.793539 0.013497
O O4 0.719452 0.816780 0.891290
O O5 0.107670 0.696067 0.506376
O O6 0.904688 0.781202 0.928429
O O7 0.812174 0.670587 0.114012
O O8 0.332853 0.677767 0.364761
O O9 0.287781 0.608571 0.131629
O O10 0.076191 0.096558 0.609796
O O11 0.945546 0.064645 0.539031
O O12 0.899019 0.000000 0.912093
O O13 0.538466 0.342923 0.257792
O O14 0.360557 0.073487 0.214485
O O15 0.243560 0.077876 0.050782
O O16 0.417897 0.000000 0.390178
O O17 0.175960 0.070355 0.832524
#
# Coordination Sequence:
#
# PCOD9132125 Si02
#       8
#     4   4   4   4   4   4   4   4
#     4   9  20  37  65  93 126 161 207 256 312 368
#     4   9  18  37  60  95 123 155 204 257 308 365
#     4  10  19  35  66  87 122 164 200 251 315 365
#     4  10  21  39  55  84 122 155 204 250 293 365
#     4  10  19  40  63  92 127 160 203 266 312 364
#     4   9  21  39  63  93 120 160 206 257 302 362
#     4  11  21  40  67  91 127 171 204 249 312 371
#     4  10  23  39  61  93 119 164 208 256 306 360
#
# _framework density 23.344318999999999
#
# number of rings (size 3 to 8) (size 9 to 14) (size 15 to 20)
#    0.750    1.500    0.000    3.000    0.000    4.000 
#    6.750    8.125    0.000    0.000    0.000    0.000 
#    0.000    0.000    0.000    0.000    0.000    0.000 
#
# Total GULP energy -89122.095071 kJ/mol
# GULP energy per Si atom -5570.130942 kJ/mol
# Density = 2.329119 g / cm^3
# Si number density = 23.344319 Si / 1000 Ang^3
#
#
#
# Elastic Constant Matrix: (Units=GPa)
#
#
# Indices 1 2 3 4 5 6 
#
# 1 66.3887 14.8883 17.9980 0.0000 9.5958 0.0000
# 2 14.8883 205.7557 70.5441 0.0000 -12.3855 0.0000
# 3 17.9980 70.5441 105.9754 0.0000 -3.6524 0.0000
# 4 0.0000 0.0000 0.0000 17.1339 0.0000 2.8199
# 5 9.5958 -12.3855 -3.6524 0.0000 23.7967 0.0000
# 6 0.0000 0.0000 0.0000 2.8199 0.0000 13.1878
#
#
#
# Elastic Compliance Matrix: (Units=1/GPa)
#
#
# Indices 1 2 3 4 5 6 
#
# 1 0.017069 -0.000795 -0.002635 0.000000 -0.007701 0.000000
# 2 -0.000795 0.006505 -0.004089 0.000000 0.003079 0.000000
# 3 -0.002635 -0.004089 0.012636 0.000000 0.000874 0.000000
# 4 0.000000 0.000000 0.000000 0.060493 0.000000 -0.012935
# 5 -0.007701 0.003079 0.000874 0.000000 0.046864 0.000000
# 6 0.000000 0.000000 0.000000 -0.012935 0.000000 0.078594
#
#
# Mechanical properties :
#
#
# Convention : Reuss Voigt Hill
#
# Bulk Modulus (GPa) = 47.23435 64.99783 56.11609
# Shear Modulus (GPa) = 20.47041 29.13630 24.80336
#
# Velocity S-wave (km/s) = 2.96445 3.53669 3.26314
# Velocity P-wave (km/s) = 5.65641 6.67691 6.18773
#
# Compressibility (1/GPa) = 0.02117103
#
# Stress axis : x y z
#
# Youngs Moduli (GPa) = 58.58727 153.73021 79.14156
#
# Poissons Ratio (x) = 0.12226 0.20852
# Poissons Ratio (y) = 0.04659 0.32360
# Poissons Ratio (z) = 0.15437 0.62859
#
# Static dielectric constant tensor:
#      x y z
#    x 1.989730 0.000000 0.053660 
#    y 0.000000 1.849410 0.000000 
#    z 0.053660 0.000000 1.893190 
# 
# From -- ./inp_files/15326.got.cif
#   From: 2010.05.17/outbox.cif.g08.bks.cpg/sg8_8_cif.got.tgz:15326.got - 2010.06.03 19:46:02.
