data_PCOD9132472
_publ_section_title
;
Structure prediction by ZEFSAII (Michael W. Deem and Ramdas Pophale) SiO2 
 PCOD9132472
Probable space group: C M
;
_chemical_formula_sum "Si O2"
_cell_formula_units_Z 24
_cell_length_a 19.543894
_cell_length_b 8.503333
_cell_length_c 12.545528
_cell_angle_alpha 90.000000
_cell_angle_beta 38.154654
_cell_angle_gamma 90.000000
_cell_volume 1288.034407
_symmetry_space_group_name_H-M "C M"
_symmetry_group_IT_number 8
_symmetry_cell_setting 'monoclinic'
loop_
_space_group_symop_operation_xyz
x,y,z
x,-y,z
1/2+x,1/2+y,z
1/2+x,1/2-y,z
loop_
_atom_site_type_symbol
_atom_site_label
_atom_site_fract_x
_atom_site_fract_y
_atom_site_fract_z
Si Si1 0.443950 0.187002 0.460180
Si Si2 0.532361 0.309593 0.782673
Si Si3 0.472187 0.309041 0.091130
Si Si4 0.636027 0.311468 0.075817
Si Si5 0.780727 0.810994 0.484495
Si Si6 0.883623 0.811730 0.765048
O O1 0.552158 0.262175 0.272439
O O2 0.338865 0.244657 0.519473
O O3 0.427717 0.238475 0.601397
O O4 0.451800 0.000000 0.443181
O O5 0.533611 0.500000 0.782288
O O6 0.657418 0.249935 0.620824
O O7 0.457229 0.259194 0.775506
O O8 0.484607 0.254495 0.955176
O O9 0.472410 0.500000 0.089501
O O10 0.574792 0.261397 0.040919
O O11 0.360641 0.261032 0.288950
O O12 0.646200 0.500000 0.062010
O O13 0.756301 0.236780 0.937504
O O14 0.781762 0.000000 0.489207
O O15 0.890588 0.000000 0.748393
#
# Coordination Sequence:
#
# PCOD9132472 Si02
#       6
#     4   4   4   4   4   4
#     4  11  22  38  60  83 112 152 196 239 284 333
#     4  10  21  37  56  81 115 151 185 225 280 345
#     4   8  17  35  57  79 105 140 179 224 279 335
#     4  10  20  37  61  86 112 145 190 240 288 341
#     4  10  20  36  59  85 112 143 186 237 285 338
#     4  11  23  37  55  84 120 155 192 233 280 338
#
# _framework density 18.633042
#
# number of rings (size 3 to 8) (size 9 to 14) (size 15 to 20)
#    0.000    2.000    0.000    5.000    0.000    4.000 
#    0.000    5.833    0.000    0.000    0.000    0.000 
#    0.000    0.000    0.000    0.000    0.000    0.000 
#
# Total GULP energy -67032.090148 kJ/mol
# GULP energy per Si atom -5586.007512 kJ/mol
# Density = 1.859063 g / cm^3
# Si number density = 18.633042 Si / 1000 Ang^3
#
#
#
# Elastic Constant Matrix: (Units=GPa)
#
#
# Indices 1 2 3 4 5 6 
#
# 1 127.3311 9.1736 88.9550 0.0000 39.5461 0.0000
# 2 9.1736 27.5377 -0.9175 0.0000 12.6640 0.0000
# 3 88.9550 -0.9175 94.3148 0.0000 24.8963 0.0000
# 4 0.0000 0.0000 0.0000 29.5749 0.0000 -9.3252
# 5 39.5461 12.6640 24.8963 0.0000 -5.5261 0.0000
# 6 0.0000 0.0000 0.0000 -9.3252 0.0000 21.0397
#
#
#
# Elastic Compliance Matrix: (Units=1/GPa)
#
#
# Indices 1 2 3 4 5 6 
#
# 1 0.021332 -0.014038 -0.023780 0.000000 0.013350 0.000000
# 2 -0.014038 0.033453 0.009066 0.000000 0.017047 0.000000
# 3 -0.023780 0.009066 0.033142 0.000000 -0.000086 0.000000
# 4 0.000000 0.000000 0.000000 0.039305 0.000000 0.017421
# 5 0.013350 0.017047 -0.000086 0.000000 -0.046745 0.000000
# 6 0.000000 0.000000 0.000000 0.017421 0.000000 0.055250
#
#
# Mechanical properties :
#
#
# Convention : Reuss Voigt Hill
#
# Bulk Modulus (GPa) = 32.87049 49.28957 41.08003
# Shear Modulus (GPa) = 24.58426 19.14921 21.86673
#
# Velocity S-wave (km/s) = 3.63628 3.20926 3.42942
# Velocity P-wave (km/s) = 5.94217 6.34371 6.14622
#
# Compressibility (1/GPa) = 0.03042242
#
# Stress axis : x y z
#
# Youngs Moduli (GPa) = 46.87880 29.89283 30.17290
#
# Poissons Ratio (x) = 0.41963 0.71751
# Poissons Ratio (y) = 0.65808 -0.27354
# Poissons Ratio (z) = 1.11478 -0.27100
#
# Static dielectric constant tensor:
#      x y z
#    x 1.618940 0.000000 0.014800 
#    y 0.000000 1.630120 0.000000 
#    z 0.014800 0.000000 1.628030 
# 
# From -- ./inp_files/23640.got.cif
#   From: 2010.05.17/outbox.cif.g08.bks.cpg/sg8_12_cif.got.tgz:23640.got - 2010.06.03 19:46:02.
