data_PCOD9132088
_publ_section_title
;
Structure prediction by ZEFSAII (Michael W. Deem and Ramdas Pophale) SiO2 
 PCOD9132088
Probable space group: C M
;
_chemical_formula_sum "Si O2"
_cell_formula_units_Z 24
_cell_length_a 15.547586
_cell_length_b 7.684065
_cell_length_c 15.313825
_cell_angle_alpha 90.000000
_cell_angle_beta 39.746873
_cell_angle_gamma 90.000000
_cell_volume 1169.791063
_symmetry_space_group_name_H-M "C M"
_symmetry_group_IT_number 8
_symmetry_cell_setting 'monoclinic'
loop_
_space_group_symop_operation_xyz
x,y,z
x,-y,z
1/2+x,1/2+y,z
1/2+x,1/2-y,z
loop_
_atom_site_type_symbol
_atom_site_label
_atom_site_fract_x
_atom_site_fract_y
_atom_site_fract_z
Si Si1 0.670480 0.786182 0.939400
Si Si2 0.882985 0.290748 0.239666
Si Si3 0.702639 0.710911 0.221869
Si Si4 0.681066 0.796013 0.732823
Si Si5 0.399691 0.708939 0.426448
Si Si6 0.884775 0.205467 0.912375
O O1 0.679395 0.724565 0.832669
O O2 0.795597 0.729267 0.900997
O O3 0.668569 0.000000 0.941432
O O4 0.530140 0.729286 0.092836
O O5 0.885180 0.500000 0.232319
O O6 0.770776 0.228982 0.258801
O O7 0.859550 0.244876 0.358163
O O8 0.699598 0.500000 0.225240
O O9 0.551002 0.774868 0.325458
O O10 0.797627 0.763365 0.067507
O O11 0.791926 0.721838 0.580280
O O12 0.532113 0.782841 0.809454
O O13 0.712684 0.000000 0.718285
O O14 0.404421 0.500000 0.431746
O O15 0.903074 0.000000 0.886691
#
# Coordination Sequence:
#
# PCOD9132088 Si02
#       6
#     4   4   4   4   4   4
#     4   9  18  34  57  82 108 145 185 223 271 328
#     4  10  19  35  59  83 110 147 185 224 274 332
#     4  10  20  36  58  83 110 148 188 221 272 337
#     4  10  21  40  58  78 115 152 183 222 276 336
#     4  10  22  37  57  85 114 145 182 231 278 321
#     4  11  21  34  57  87 111 141 187 235 275 316
#
# _framework density 20.516483000000001
#
# number of rings (size 3 to 8) (size 9 to 14) (size 15 to 20)
#    0.000    2.000    3.333    0.500    0.000    2.667 
#    0.000    5.000    0.000    0.000    0.000    0.000 
#    0.000    0.000    0.000    0.000    0.000    0.000 
#
# Total GULP energy -67025.417335 kJ/mol
# GULP energy per Si atom -5585.451445 kJ/mol
# Density = 2.046979 g / cm^3
# Si number density = 20.516483 Si / 1000 Ang^3
#
#
#
# Elastic Constant Matrix: (Units=GPa)
#
#
# Indices 1 2 3 4 5 6 
#
# 1 117.6928 -7.0280 28.4290 0.0000 10.6999 0.0000
# 2 -7.0280 31.2688 -7.4668 0.0000 4.2476 0.0001
# 3 28.4290 -7.4668 120.2465 0.0000 10.4183 0.0000
# 4 0.0000 0.0000 0.0000 -11.2989 0.0000 10.6682
# 5 10.6999 4.2476 10.4183 0.0000 29.5675 0.0000
# 6 0.0000 0.0001 0.0000 10.6682 0.0000 18.7118
#
#
#
# Elastic Compliance Matrix: (Units=1/GPa)
#
#
# Indices 1 2 3 4 5 6 
#
# 1 0.009335 0.002077 -0.001815 0.000000 -0.003037 0.000000
# 2 0.002077 0.033830 0.002162 0.000000 -0.006373 0.000000
# 3 -0.001815 0.002162 0.009128 0.000000 -0.002870 0.000000
# 4 0.000000 0.000000 0.000000 -0.057533 0.000000 0.032802
# 5 -0.003037 -0.006373 -0.002870 0.000000 0.036847 0.000000
# 6 0.000000 0.000000 0.000000 0.032802 0.000000 0.034741
#
#
# Mechanical properties :
#
#
# Convention : Reuss Voigt Hill
#
# Bulk Modulus (GPa) = 17.50038 33.00849 25.25443
# Shear Modulus (GPa) = 62.07601 24.41433 43.24517
#
# Velocity S-wave (km/s) = 5.50657 3.45336 4.59609
# Velocity P-wave (km/s) = 6.99844 5.65903 6.36407
#
# Compressibility (1/GPa) = 0.05714163
#
# Stress axis : x y z
#
# Youngs Moduli (GPa) = 107.12058 29.55982 109.55000
#
# Poissons Ratio (x) = -0.06141 0.19883
# Poissons Ratio (y) = -0.22253 -0.23682
# Poissons Ratio (z) = 0.19442 -0.06390
#
# Static dielectric constant tensor:
#      x y z
#    x 1.717500 0.000000 -0.002060 
#    y 0.000000 1.777430 0.000000 
#    z -0.002060 0.000000 1.696750 
# 
# From -- ./inp_files/12076.got.cif
#   From: 2010.05.17/outbox.cif.g08.bks.cpg/sg8_7_cif.got.tgz:12076.got - 2010.06.03 19:46:02.
