data_PCOD9132835
_publ_section_title
;
Structure prediction by ZEFSAII (Michael W. Deem and Ramdas Pophale) SiO2 
 PCOD9132835
Probable space group: C M
;
_chemical_formula_sum "Si O2"
_cell_formula_units_Z 32
_cell_length_a 8.954969
_cell_length_b 13.534168
_cell_length_c 12.028503
_cell_angle_alpha 90.000000
_cell_angle_beta 83.020614
_cell_angle_gamma 90.000000
_cell_volume 1447.028541
_symmetry_space_group_name_H-M "C M"
_symmetry_group_IT_number 8
_symmetry_cell_setting 'monoclinic'
loop_
_space_group_symop_operation_xyz
x,y,z
x,-y,z
1/2+x,1/2+y,z
1/2+x,1/2-y,z
loop_
_atom_site_type_symbol
_atom_site_label
_atom_site_fract_x
_atom_site_fract_y
_atom_site_fract_z
Si Si1 0.587740 0.391537 0.937000
Si Si2 0.752021 0.106049 0.025358
Si Si3 0.285131 0.813253 0.077410
Si Si4 0.148521 0.710952 0.400081
Si Si5 0.865838 0.799467 0.559000
Si Si6 0.881536 0.384631 0.297170
Si Si7 0.995527 0.616040 0.863919
Si Si8 0.091739 0.210062 0.707844
O O1 0.654199 0.500000 0.936073
O O2 0.633455 0.340902 0.819109
O O3 0.409269 0.397523 0.947527
O O4 0.619481 0.345301 0.055162
O O5 0.770065 0.198446 0.104482
O O6 0.722508 0.000000 0.082026
O O7 0.631841 0.123870 0.939861
O O8 0.363823 0.874142 0.165851
O O9 0.366238 0.834575 0.952050
O O10 0.264838 0.651381 0.470384
O O11 0.251541 0.805467 0.350820
O O12 0.008189 0.749118 0.486824
O O13 0.048618 0.650126 0.319985
O O14 0.742960 0.725451 0.623422
O O15 0.956631 0.846227 0.654944
O O16 0.855599 0.500000 0.331815
O O17 0.975082 0.500000 0.840840
O O18 0.030620 0.682190 0.753240
#
# Coordination Sequence:
#
# PCOD9132835 Si02
#       8
#     4   4   4   4   4   4   4   4
#     4  11  22  36  56  90 133 172 210 251 303 382
#     4  10  21  36  56  85 128 176 212 247 299 369
#     4  12  22  40  58  91 129 171 207 259 318 378
#     4   9  22  47  66  94 130 161 220 291 342 378
#     4   9  20  39  66  91 123 171 209 279 338 383
#     4  11  25  45  72  99 128 174 224 273 335 402
#     4  11  22  36  56  90 133 172 210 251 303 382
#     4  11  18  35  60  88 130 171 216 253 324 386
#
# _framework density 22.114284000000001
#
# number of rings (size 3 to 8) (size 9 to 14) (size 15 to 20)
#    0.000    1.500    2.500    2.625    3.500    0.000 
#    0.000   15.000    0.000    0.000    0.000    0.000 
#    0.000    0.000    0.000    0.000    0.000    0.000 
#
# Total GULP energy -89076.324650 kJ/mol
# GULP energy per Si atom -5567.270291 kJ/mol
# Density = 2.206395 g / cm^3
# Si number density = 22.114284 Si / 1000 Ang^3
#
#
#
# Elastic Constant Matrix: (Units=GPa)
#
#
# Indices 1 2 3 4 5 6 
#
# 1 129.4250 10.9195 46.7423 0.0000 24.7918 0.0000
# 2 10.9195 120.4780 25.6829 0.0000 3.7335 0.0000
# 3 46.7423 25.6829 82.9628 0.0000 19.9269 0.0000
# 4 0.0000 0.0000 0.0000 -16.2133 0.0000 -4.0440
# 5 24.7918 3.7335 19.9269 0.0000 45.2745 0.0000
# 6 0.0000 0.0000 0.0000 -4.0440 0.0000 22.7421
#
#
#
# Elastic Compliance Matrix: (Units=1/GPa)
#
#
# Indices 1 2 3 4 5 6 
#
# 1 0.010154 0.000247 -0.004984 0.000000 -0.003387 0.000000
# 2 0.000247 0.008904 -0.003005 0.000000 0.000453 0.000000
# 3 -0.004984 -0.003005 0.016859 0.000000 -0.004443 0.000000
# 4 0.000000 0.000000 0.000000 -0.059058 0.000000 -0.010502
# 5 -0.003387 0.000453 -0.004443 0.000000 0.025861 0.000000
# 6 0.000000 0.000000 0.000000 -0.010502 0.000000 0.042104
#
#
# Mechanical properties :
#
#
# Convention : Reuss Voigt Hill
#
# Bulk Modulus (GPa) = 48.93597 55.50613 52.22105
# Shear Modulus (GPa) = 74.49511 26.99540 50.74526
#
# Velocity S-wave (km/s) = 5.81030 3.49767 4.79548
# Velocity P-wave (km/s) = 8.19692 6.43939 7.37073
#
# Compressibility (1/GPa) = 0.02043487
#
# Stress axis : x y z
#
# Youngs Moduli (GPa) = 98.47873 112.30496 59.31536
#
# Poissons Ratio (x) = -0.02775 0.29563
# Poissons Ratio (y) = -0.02433 0.17821
# Poissons Ratio (z) = 0.49083 0.33742
#
# Static dielectric constant tensor:
#      x y z
#    x 1.892840 0.000000 0.036910 
#    y 0.000000 1.884670 0.000000 
#    z 0.036910 0.000000 1.894150 
# 
# From -- ./inp_files/18881.got.cif
#   From: 2010.05.17/outbox.cif.g08.bks.cpg/sg8_10_cif.got.tgz:18881.got - 2010.06.03 19:46:02.
