data_PCOD9132631
_publ_section_title
;
Structure prediction by ZEFSAII (Michael W. Deem and Ramdas Pophale) SiO2 
 PCOD9132631
Probable space group: C M
;
_chemical_formula_sum "Si O2"
_cell_formula_units_Z 20
_cell_length_a 9.094105
_cell_length_b 10.129020
_cell_length_c 10.629238
_cell_angle_alpha 90.000000
_cell_angle_beta 80.090284
_cell_angle_gamma 90.000000
_cell_volume 964.497476
_symmetry_space_group_name_H-M "C M"
_symmetry_group_IT_number 8
_symmetry_cell_setting 'monoclinic'
loop_
_space_group_symop_operation_xyz
x,y,z
x,-y,z
1/2+x,1/2+y,z
1/2+x,1/2-y,z
loop_
_atom_site_type_symbol
_atom_site_label
_atom_site_fract_x
_atom_site_fract_y
_atom_site_fract_z
Si Si1 0.641380 0.651418 0.121890
Si Si2 0.250878 0.645259 0.903738
Si Si3 0.407283 0.151749 0.274567
Si Si4 0.518477 0.224745 0.730613
Si Si5 0.294364 0.851985 0.555426
O O1 0.602524 0.500000 0.092207
O O2 0.506755 0.745322 0.183224
O O3 0.751599 0.645133 0.224225
O O4 0.725017 0.730809 0.998913
O O5 0.247731 0.500000 0.964977
O O6 0.410267 0.667879 0.812518
O O7 0.114846 0.652314 0.823467
O O8 0.378515 0.202136 0.420388
O O9 0.468848 0.000000 0.268336
O O10 0.403743 0.146937 0.659221
O O11 0.644968 0.280275 0.619537
O O12 0.253302 0.000000 0.525157
#
# Coordination Sequence:
#
# PCOD9132631 Si02
#       5
#     4   4   4   4   4
#     4  11  24  40  60  87 118 154 197 243 290 343
#     4  11  23  39  60  87 119 155 196 240 288 345
#     4  10  22  40  62  88 118 153 194 240 290 346
#     4  10  22  37  59  89 118 151 192 238 288 345
#     4  10  20  38  61  85 117 153 189 235 290 345
#
# _framework density 20.736186
#
# number of rings (size 3 to 8) (size 9 to 14) (size 15 to 20)
#    0.000    1.600    0.000    4.200    0.000    9.600 
#    0.000    5.000    0.000    0.000    0.000    0.000 
#    0.000    0.000    0.000    0.000    0.000    0.000 
#
# Total GULP energy -55801.177123 kJ/mol
# GULP energy per Si atom -5580.117712 kJ/mol
# Density = 2.068899 g / cm^3
# Si number density = 20.736186 Si / 1000 Ang^3
#
#
#
# Elastic Constant Matrix: (Units=GPa)
#
#
# Indices 1 2 3 4 5 6 
#
# 1 84.0886 26.3836 1.2655 0.0000 -5.0310 0.0000
# 2 26.3836 117.2240 22.4207 0.0000 -18.2960 0.0000
# 3 1.2655 22.4207 64.6902 0.0000 -3.8841 0.0000
# 4 0.0000 0.0000 0.0000 27.7711 0.0000 -0.6763
# 5 -5.0310 -18.2960 -3.8841 0.0000 36.2587 0.0000
# 6 0.0000 0.0000 0.0000 -0.6763 0.0000 2.8254
#
#
#
# Elastic Compliance Matrix: (Units=1/GPa)
#
#
# Indices 1 2 3 4 5 6 
#
# 1 0.012839 -0.002988 0.000806 0.000000 0.000360 0.000000
# 2 -0.002988 0.010550 -0.003325 0.000000 0.004553 0.000000
# 3 0.000806 -0.003325 0.016608 0.000000 0.000213 0.000000
# 4 0.000000 0.000000 0.000000 0.036220 0.000000 0.008669
# 5 0.000360 0.004553 0.000213 0.000000 0.029950 0.000000
# 6 0.000000 0.000000 0.000000 0.008669 0.000000 0.356006
#
#
# Mechanical properties :
#
#
# Convention : Reuss Voigt Hill
#
# Bulk Modulus (GPa) = 34.50212 40.68250 37.59231
# Shear Modulus (GPa) = 10.35530 27.76659 19.06094
#
# Velocity S-wave (km/s) = 2.23711 3.66326 3.03514
# Velocity P-wave (km/s) = 4.83194 6.12816 5.51824
#
# Compressibility (1/GPa) = 0.02898372
#
# Stress axis : x y z
#
# Youngs Moduli (GPa) = 77.88748 94.79109 60.21356
#
# Poissons Ratio (x) = 0.28320 -0.04853
# Poissons Ratio (y) = 0.23270 0.20018
# Poissons Ratio (z) = -0.06277 0.31514
#
# Static dielectric constant tensor:
#      x y z
#    x 1.714660 0.000000 -0.006150 
#    y 0.000000 1.750110 0.000000 
#    z -0.006150 0.000000 1.771460 
# 
# From -- ./inp_files/14954.got.cif
#   From: 2010.05.17/outbox.cif.g08.bks.cpg/sg8_8_cif.got.tgz:14954.got - 2010.06.03 19:46:02.
