data_PCOD9132370
_publ_section_title
;
Structure prediction by ZEFSAII (Michael W. Deem and Ramdas Pophale) SiO2 
 PCOD9132370
Probable space group: C M
;
_chemical_formula_sum "Si O2"
_cell_formula_units_Z 28
_cell_length_a 8.592858
_cell_length_b 12.989950
_cell_length_c 16.277124
_cell_angle_alpha 90.000000
_cell_angle_beta 50.882840
_cell_angle_gamma 90.000000
_cell_volume 1409.628725
_symmetry_space_group_name_H-M "C M"
_symmetry_group_IT_number 8
_symmetry_cell_setting 'monoclinic'
loop_
_space_group_symop_operation_xyz
x,y,z
x,-y,z
1/2+x,1/2+y,z
1/2+x,1/2-y,z
loop_
_atom_site_type_symbol
_atom_site_label
_atom_site_fract_x
_atom_site_fract_y
_atom_site_fract_z
Si Si1 0.503640 0.270046 0.186070
Si Si2 0.404078 0.619124 0.499320
Si Si3 0.047482 0.282019 0.695329
Si Si4 0.201911 0.888096 0.554599
Si Si5 0.563706 0.807916 0.341394
Si Si6 0.414306 0.880777 0.065382
Si Si7 0.676780 0.878029 0.813964
O O1 0.533829 0.197057 0.254442
O O2 0.296924 0.328032 0.275386
O O3 0.479398 0.198151 0.114773
O O4 0.689944 0.346256 0.116372
O O5 0.432382 0.500000 0.468037
O O6 0.165661 0.642263 0.591947
O O7 0.527718 0.635383 0.544436
O O8 0.501914 0.696683 0.401204
O O9 0.207566 0.189222 0.628866
O O10 0.043086 0.345245 0.780489
O O11 0.848559 0.211127 0.755202
O O12 0.408662 0.881842 0.436975
O O13 0.165144 0.000000 0.599408
O O14 0.418649 0.000000 0.090863
O O15 0.557103 0.870411 0.938797
O O16 0.735079 0.000000 0.785380
#
# Coordination Sequence:
#
# PCOD9132370 Si02
#       7
#     4   4   4   4   4   4   4
#     4  10  21  39  61  91 120 154 205 249 298 357
#     4  10  20  36  59  89 123 163 201 239 292 357
#     4  11  21  37  63  88 122 158 198 248 296 354
#     4  10  20  35  56  88 124 160 199 241 290 356
#     4  10  20  35  59  88 123 160 197 246 295 353
#     4  10  23  42  65  89 118 156 202 254 307 356
#     4  11  23  42  65  89 118 159 202 249 308 359
#
# _framework density 19.863385999999998
#
# number of rings (size 3 to 8) (size 9 to 14) (size 15 to 20)
#    0.000    1.714    2.857    1.714    0.000    3.429 
#    0.000    6.429    0.000   10.286    0.000    0.000 
#    0.000    0.000    0.000    0.000    0.000    0.000 
#
# Total GULP energy -77940.355090 kJ/mol
# GULP energy per Si atom -5567.168221 kJ/mol
# Density = 1.981818 g / cm^3
# Si number density = 19.863386 Si / 1000 Ang^3
#
#
#
# Elastic Constant Matrix: (Units=GPa)
#
#
# Indices 1 2 3 4 5 6 
#
# 1 46.6792 16.0385 12.3126 0.0000 -12.5900 0.0000
# 2 16.0385 98.8840 31.8831 0.0000 5.5384 0.0000
# 3 12.3126 31.8831 85.0252 0.0000 -4.7128 0.0000
# 4 0.0000 0.0000 0.0000 -9.7995 0.0000 10.4374
# 5 -12.5900 5.5384 -4.7128 0.0000 27.6188 0.0000
# 6 0.0000 0.0000 0.0000 10.4374 0.0000 21.2025
#
#
#
# Elastic Compliance Matrix: (Units=1/GPa)
#
#
# Indices 1 2 3 4 5 6 
#
# 1 0.026878 -0.004618 -0.001444 0.000000 0.012932 0.000000
# 2 -0.004618 0.012561 -0.004339 0.000000 -0.005365 0.000000
# 3 -0.001444 -0.004339 0.013739 0.000000 0.002556 0.000000
# 4 0.000000 0.000000 0.000000 -0.066946 0.000000 0.032955
# 5 0.012932 -0.005365 0.002556 0.000000 0.043614 0.000000
# 6 0.000000 0.000000 0.000000 0.032955 0.000000 0.030941
#
#
# Mechanical properties :
#
#
# Convention : Reuss Voigt Hill
#
# Bulk Modulus (GPa) = 30.88617 39.00630 34.94623
# Shear Modulus (GPa) = 54.12246 19.16131 36.64188
#
# Velocity S-wave (km/s) = 5.22556 3.10926 4.29965
# Velocity P-wave (km/s) = 7.21053 5.70700 6.50237
#
# Compressibility (1/GPa) = 0.03237696
#
# Stress axis : x y z
#
# Youngs Moduli (GPa) = 37.20454 79.60902 72.78558
#
# Poissons Ratio (x) = 0.36767 0.10508
# Poissons Ratio (y) = 0.17183 0.31581
# Poissons Ratio (z) = 0.05371 0.34541
#
# Static dielectric constant tensor:
#      x y z
#    x 1.770560 0.000000 -0.026920 
#    y 0.000000 1.704900 0.000000 
#    z -0.026920 0.000000 1.703630 
# 
# From -- ./inp_files/25298.got.cif
#   From: 2010.05.17/outbox.cif.g08.bks.cpg/sg8_13_cif.got.tgz:25298.got - 2010.06.03 19:46:02.
