data_PCOD9132854
_publ_section_title
;
Structure prediction by ZEFSAII (Michael W. Deem and Ramdas Pophale) SiO2 
 PCOD9132854
Probable space group: C M
;
_chemical_formula_sum "Si O2"
_cell_formula_units_Z 32
_cell_length_a 15.154640
_cell_length_b 8.367221
_cell_length_c 23.162890
_cell_angle_alpha 90.000000
_cell_angle_beta 148.203744
_cell_angle_gamma 90.000000
_cell_volume 1547.561868
_symmetry_space_group_name_H-M "C M"
_symmetry_group_IT_number 8
_symmetry_cell_setting 'monoclinic'
loop_
_space_group_symop_operation_xyz
x,y,z
x,-y,z
1/2+x,1/2+y,z
1/2+x,1/2-y,z
loop_
_atom_site_type_symbol
_atom_site_label
_atom_site_fract_x
_atom_site_fract_y
_atom_site_fract_z
Si Si1 0.705310 0.308122 0.875000
Si Si2 0.965999 0.688903 0.842419
Si Si3 0.230966 0.190550 0.073620
Si Si4 0.990843 0.308759 0.113084
Si Si5 0.472855 0.188907 0.305497
Si Si6 0.854360 0.810464 0.352956
Si Si7 0.616526 0.694034 0.697137
Si Si8 0.817251 0.313422 0.455252
O O1 0.721090 0.500000 0.880321
O O2 0.565157 0.270748 0.845251
O O3 0.653395 0.250771 0.782990
O O4 0.882380 0.244736 0.998923
O O5 0.968478 0.500000 0.833470
O O6 0.775716 0.741422 0.746477
O O7 0.067641 0.724402 0.958050
O O8 0.372687 0.214402 0.103133
O O9 0.314858 0.247969 0.179532
O O10 0.200303 0.000000 0.060186
O O11 0.009365 0.500000 0.115254
O O12 0.174561 0.246310 0.229636
O O13 0.480112 0.273933 0.371064
O O14 0.642962 0.220118 0.365441
O O15 0.452893 0.000000 0.302640
O O16 0.892699 0.728428 0.434721
O O17 0.842830 0.000000 0.356457
O O18 0.607656 0.500000 0.692181
O O19 0.447432 0.761478 0.576513
O O20 0.781266 0.500000 0.439083
#
# Coordination Sequence:
#
# PCOD9132854 Si02
#       8
#     4   4   4   4   4   4   4   4
#     4   9  19  38  61  86 119 161 202 241 301 369
#     4  10  21  36  59  92 123 154 198 253 304 357
#     4   9  18  36  60  86 123 165 198 242 304 367
#     4   8  15  32  59  87 119 158 195 239 299 362
#     4  11  23  41  63  91 125 164 208 255 311 370
#     4  11  22  39  64  93 126 163 205 255 309 369
#     4  10  23  42  64  86 118 165 207 249 305 368
#     4  12  26  44  64  89 123 164 213 262 309 366
#
# _framework density 20.677688
#
# number of rings (size 3 to 8) (size 9 to 14) (size 15 to 20)
#    0.000    2.000    1.250    3.000    1.750    3.500 
#    0.000    3.125    0.000    0.000    0.000    0.000 
#    0.000    0.000    0.000    0.000    0.000    0.000 
#
# Total GULP energy -89371.655028 kJ/mol
# GULP energy per Si atom -5585.728439 kJ/mol
# Density = 2.063062 g / cm^3
# Si number density = 20.677688 Si / 1000 Ang^3
#
#
#
# Elastic Constant Matrix: (Units=GPa)
#
#
# Indices 1 2 3 4 5 6 
#
# 1 47.8195 -2.4087 7.6990 0.0000 -23.3133 0.0000
# 2 -2.4087 18.4736 4.9020 0.0000 -5.1245 0.0000
# 3 7.6990 4.9020 74.4198 0.0000 -20.8810 0.0000
# 4 0.0000 0.0000 0.0000 24.0190 0.0000 0.5264
# 5 -23.3133 -5.1245 -20.8810 0.0000 34.5993 0.0000
# 6 0.0000 0.0000 0.0000 0.5264 0.0000 23.9734
#
#
#
# Elastic Compliance Matrix: (Units=1/GPa)
#
#
# Indices 1 2 3 4 5 6 
#
# 1 0.033749 0.010844 0.003161 0.000000 0.026254 0.000000
# 2 0.010844 0.060104 -0.000642 0.000000 0.015822 0.000000
# 3 0.003161 -0.000642 0.016521 0.000000 0.012005 0.000000
# 4 0.000000 0.000000 0.000000 0.041654 0.000000 -0.000915
# 5 0.026254 0.015822 0.012005 0.000000 0.056181 0.000000
# 6 0.000000 0.000000 0.000000 -0.000915 0.000000 0.041733
#
#
# Mechanical properties :
#
#
# Convention : Reuss Voigt Hill
#
# Bulk Modulus (GPa) = 7.29387 17.89971 12.59679
# Shear Modulus (GPa) = 18.59321 25.21973 21.90647
#
# Velocity S-wave (km/s) = 3.00191 3.49615 3.25841
# Velocity P-wave (km/s) = 3.94339 4.99727 4.50128
#
# Compressibility (1/GPa) = 0.13710139
#
# Stress axis : x y z
#
# Youngs Moduli (GPa) = 29.63065 16.63771 60.52886
#
# Poissons Ratio (x) = -0.18043 -0.19131
# Poissons Ratio (y) = -0.32133 0.03883
# Poissons Ratio (z) = -0.09365 0.01067
#
# Static dielectric constant tensor:
#      x y z
#    x 1.739900 0.000000 -0.005660 
#    y 0.000000 1.696720 0.000000 
#    z -0.005660 0.000000 1.730660 
# 
# From -- ./inp_files/28199.got.cif
#   From: 2010.05.17/outbox.cif.g08.bks.cpg/sg8_15_cif.got.tgz:28199.got - 2010.06.03 19:46:02.
