data_PCOD9132753
_publ_section_title
;
Structure prediction by ZEFSAII (Michael W. Deem and Ramdas Pophale) SiO2 
 PCOD9132753
Probable space group: C M
;
_chemical_formula_sum "Si O2"
_cell_formula_units_Z 32
_cell_length_a 12.345030
_cell_length_b 30.333770
_cell_length_c 5.168469
_cell_angle_alpha 90.000000
_cell_angle_beta 50.127071
_cell_angle_gamma 90.000000
_cell_volume 1485.391071
_symmetry_space_group_name_H-M "C M"
_symmetry_group_IT_number 8
_symmetry_cell_setting 'monoclinic'
loop_
_space_group_symop_operation_xyz
x,y,z
x,-y,z
1/2+x,1/2+y,z
1/2+x,1/2-y,z
loop_
_atom_site_type_symbol
_atom_site_label
_atom_site_fract_x
_atom_site_fract_y
_atom_site_fract_z
Si Si1 0.711120 0.630355 0.738720
Si Si2 0.564455 0.665988 0.473299
Si Si3 0.899835 0.232736 0.317024
Si Si4 0.057346 0.048792 0.764698
Si Si5 0.605807 0.244574 0.581585
Si Si6 0.779623 0.147104 0.795852
Si Si7 0.865661 0.949436 0.556230
Si Si8 0.478520 0.177960 0.464382
O O1 0.674281 0.657971 0.536214
O O2 0.867642 0.639151 0.602443
O O3 0.613626 0.642726 0.134576
O O4 0.672914 0.582544 0.689589
O O5 0.560735 0.718722 0.440683
O O6 0.410446 0.648971 0.801236
O O7 0.771785 0.239810 0.305986
O O8 0.845098 0.185712 0.512583
O O9 0.897944 0.279024 0.475339
O O10 0.045005 0.235129 0.936307
O O11 0.933129 0.051133 0.168089
O O12 0.117856 0.000000 0.674859
O O13 0.988026 0.055449 0.588481
O O14 0.529877 0.197614 0.659712
O O15 0.775083 0.095826 0.717498
O O16 0.626846 0.164383 0.109179
O O17 0.807183 0.000000 0.685300
#
# Coordination Sequence:
#
# PCOD9132753 Si02
#       8
#     4   4   4   4   4   4   4   4
#     4  12  24  44  65 100 128 175 214 275 334 396
#     4  12  24  39  71  88 132 172 225 261 329 390
#     4  12  25  42  61  90 132 178 229 275 329 393
#     4  10  20  40  70 102 128 166 222 283 336 400
#     4  12  25  42  61  90 133 182 226 276 324 395
#     4  12  24  44  66  99 130 181 227 279 343 402
#     4  10  22  41  70 102 133 169 226 284 333 400
#     4  12  28  40  61  97 136 177 224 283 336 400
#
# _framework density 21.543151000000002
#
# number of rings (size 3 to 8) (size 9 to 14) (size 15 to 20)
#    0.000    0.500    6.250    2.250    1.750    1.000 
#    0.000    0.625    0.000    0.000    0.000    6.125 
#    0.000    0.000    0.000    0.000    0.000    0.000 
#
# Total GULP energy -89175.020540 kJ/mol
# GULP energy per Si atom -5573.438784 kJ/mol
# Density = 2.149412 g / cm^3
# Si number density = 21.543151 Si / 1000 Ang^3
#
#
#
# Elastic Constant Matrix: (Units=GPa)
#
#
# Indices 1 2 3 4 5 6 
#
# 1 35.9406 8.6553 23.7886 0.0000 -10.2219 0.0000
# 2 8.6553 144.8168 22.9243 0.0000 -10.3848 0.0000
# 3 23.7886 22.9243 82.6891 0.0000 -4.9991 0.0000
# 4 0.0000 0.0000 0.0000 22.7543 0.0000 7.1501
# 5 -10.2219 -10.3848 -4.9991 0.0000 42.0728 0.0000
# 6 0.0000 0.0000 0.0000 7.1501 0.0000 21.9971
#
#
#
# Elastic Compliance Matrix: (Units=1/GPa)
#
#
# Indices 1 2 3 4 5 6 
#
# 1 0.036698 -0.000045 -0.010079 0.000000 0.007707 0.000000
# 2 -0.000045 0.007325 -0.001923 0.000000 0.001569 0.000000
# 3 -0.010079 -0.001923 0.015461 0.000000 -0.001086 0.000000
# 4 0.000000 0.000000 0.000000 0.048947 0.000000 -0.015910
# 5 0.007707 0.001569 -0.001086 0.000000 0.025899 0.000000
# 6 0.000000 0.000000 0.000000 -0.015910 0.000000 0.050632
#
#
# Mechanical properties :
#
#
# Convention : Reuss Voigt Hill
#
# Bulk Modulus (GPa) = 28.25737 41.57588 34.91662
# Shear Modulus (GPa) = 22.63961 31.23671 26.93816
#
# Velocity S-wave (km/s) = 3.24527 3.81197 3.53998
# Velocity P-wave (km/s) = 5.21416 6.22218 5.74034
#
# Compressibility (1/GPa) = 0.03538900
#
# Stress axis : x y z
#
# Youngs Moduli (GPa) = 27.24966 136.52161 64.68090
#
# Poissons Ratio (x) = 0.00616 0.65192
# Poissons Ratio (y) = 0.00123 0.12437
# Poissons Ratio (z) = 0.27465 0.26252
#
# Static dielectric constant tensor:
#      x y z
#    x 1.922680 0.000000 0.040290 
#    y 0.000000 1.941350 0.000000 
#    z 0.040290 0.000000 1.761810 
# 
# From -- ./inp_files/4358.got.cif
#   From: 2010.05.17/outbox.cif.g08.bks.cpg/sg8_3_cif.got.tgz:4358.got - 2010.06.03 19:46:02.
