data_PCOD9132480
_publ_section_title
;
Structure prediction by ZEFSAII (Michael W. Deem and Ramdas Pophale) SiO2 
 PCOD9132480
Probable space group: C M
;
_chemical_formula_sum "Si O2"
_cell_formula_units_Z 32
_cell_length_a 15.730942
_cell_length_b 8.238507
_cell_length_c 22.962887
_cell_angle_alpha 90.000000
_cell_angle_beta 32.218584
_cell_angle_gamma 90.000000
_cell_volume 1586.644854
_symmetry_space_group_name_H-M "C M"
_symmetry_group_IT_number 8
_symmetry_cell_setting 'monoclinic'
loop_
_space_group_symop_operation_xyz
x,y,z
x,-y,z
1/2+x,1/2+y,z
1/2+x,1/2-y,z
loop_
_atom_site_type_symbol
_atom_site_label
_atom_site_fract_x
_atom_site_fract_y
_atom_site_fract_z
Si Si1 0.685800 0.694935 0.447020
Si Si2 0.024883 0.196710 0.419199
Si Si3 0.337071 0.688178 0.176124
Si Si4 0.376369 0.192459 0.829654
Si Si5 0.996031 0.307126 0.200837
Si Si6 0.674629 0.195203 0.583553
Si Si7 0.837142 0.302983 0.983745
Si Si8 0.066731 0.688592 0.947137
O O1 0.675021 0.500000 0.456544
O O2 0.579226 0.746925 0.453097
O O3 0.643850 0.763560 0.534080
O O4 0.868635 0.737924 0.324234
O O5 0.849128 0.253220 0.503012
O O6 0.159718 0.258653 0.296629
O O7 0.029317 0.000000 0.415572
O O8 0.340007 0.500000 0.157722
O O9 0.441171 0.715562 0.174222
O O10 0.423136 0.789990 0.076373
O O11 0.532389 0.258726 0.706826
O O12 0.345325 0.256825 0.912598
O O13 0.400370 0.000000 0.822867
O O14 0.219910 0.219399 0.881881
O O15 0.978585 0.500000 0.200608
O O16 0.178494 0.264801 0.106009
O O17 0.677243 0.000000 0.587042
O O18 0.826648 0.500000 0.991061
O O19 0.994372 0.255172 0.927947
O O20 0.109808 0.500000 0.917909
#
# Coordination Sequence:
#
# PCOD9132480 Si02
#       8
#     4   4   4   4   4   4   4   4
#     4   9  20  37  57  85 119 152 191 239 294 351
#     4   9  20  39  59  84 117 157 196 240 294 352
#     4  11  21  35  58  87 122 158 193 242 299 352
#     4  10  22  42  61  84 118 157 199 247 298 347
#     4  10  20  36  59  87 122 155 192 242 298 353
#     4  10  22  39  62  86 115 156 202 244 290 350
#     4  10  22  38  59  86 117 155 197 241 296 356
#     4  11  23  38  59  89 118 154 200 245 295 355
#
# _framework density 20.168344999999999
#
# number of rings (size 3 to 8) (size 9 to 14) (size 15 to 20)
#    0.000    2.000    1.250    2.625    1.750    5.500 
#    0.000    2.500    0.000    0.000    0.000    0.000 
#    0.000    0.000    0.000    0.000    0.000    0.000 
#
# Total GULP energy -89356.791733 kJ/mol
# GULP energy per Si atom -5584.799483 kJ/mol
# Density = 2.012244 g / cm^3
# Si number density = 20.168345 Si / 1000 Ang^3
#
#
#
# Elastic Constant Matrix: (Units=GPa)
#
#
# Indices 1 2 3 4 5 6 
#
# 1 48.6658 -3.0764 22.5873 0.0000 -13.6983 0.0000
# 2 -3.0764 11.6142 -4.6354 0.0000 0.5252 0.0000
# 3 22.5873 -4.6354 85.3108 -0.0001 -11.2432 0.0000
# 4 0.0000 0.0000 -0.0001 21.0263 0.0000 -0.6738
# 5 -13.6983 0.5252 -11.2432 0.0000 20.7087 0.0000
# 6 0.0000 0.0000 0.0000 -0.6738 0.0000 26.1388
#
#
#
# Elastic Compliance Matrix: (Units=1/GPa)
#
#
# Indices 1 2 3 4 5 6 
#
# 1 0.027480 0.004588 -0.005004 0.000000 0.015344 0.000000
# 2 0.004588 0.088779 0.003998 0.000000 0.002954 0.000000
# 3 -0.005004 0.003998 0.013802 0.000000 0.004082 0.000000
# 4 0.000000 0.000000 0.000000 0.047599 0.000000 0.001227
# 5 0.015344 0.002954 0.004082 0.000000 0.060580 0.000000
# 6 0.000000 0.000000 0.000000 0.001227 0.000000 0.038289
#
#
# Mechanical properties :
#
#
# Convention : Reuss Voigt Hill
#
# Bulk Modulus (GPa) = 7.28734 19.48244 13.38489
# Shear Modulus (GPa) = 15.86770 22.28913 19.07841
#
# Velocity S-wave (km/s) = 2.80797 3.32799 3.07898
# Velocity P-wave (km/s) = 3.75953 4.94452 4.39217
#
# Compressibility (1/GPa) = 0.13722437
#
# Stress axis : x y z
#
# Youngs Moduli (GPa) = 36.39024 11.26396 72.45326
#
# Poissons Ratio (x) = -0.05168 0.36257
# Poissons Ratio (y) = -0.16695 -0.28970
# Poissons Ratio (z) = 0.18211 -0.04504
#
# Static dielectric constant tensor:
#      x y z
#    x 1.717030 0.000000 -0.004070 
#    y 0.000000 1.705330 0.000000 
#    z -0.004070 0.000000 1.699950 
# 
# From -- ./inp_files/24778.got.cif
#   From: 2010.05.17/outbox.cif.g08.bks.cpg/sg8_13_cif.got.tgz:24778.got - 2010.06.03 19:46:02.
