data_PCOD9132964
_publ_section_title
;
Structure prediction by ZEFSAII (Michael W. Deem and Ramdas Pophale) SiO2 
 PCOD9132964
Probable space group: C M
;
_chemical_formula_sum "Si O2"
_cell_formula_units_Z 32
_cell_length_a 25.305728
_cell_length_b 8.540637
_cell_length_c 20.877992
_cell_angle_alpha 90.000000
_cell_angle_beta 23.587731
_cell_angle_gamma 90.000000
_cell_volume 1805.608891
_symmetry_space_group_name_H-M "C M"
_symmetry_group_IT_number 8
_symmetry_cell_setting 'monoclinic'
loop_
_space_group_symop_operation_xyz
x,y,z
x,-y,z
1/2+x,1/2+y,z
1/2+x,1/2-y,z
loop_
_atom_site_type_symbol
_atom_site_label
_atom_site_fract_x
_atom_site_fract_y
_atom_site_fract_z
Si Si1 0.381560 0.188404 0.314970
Si Si2 0.073902 0.187080 0.205738
Si Si3 0.057178 0.810235 0.370871
Si Si4 0.619502 0.690566 0.540499
Si Si5 0.757374 0.690426 0.254806
Si Si6 0.806715 0.314210 0.726710
Si Si7 0.523263 0.811255 0.022545
Si Si8 0.326086 0.312048 0.849874
O O1 0.450090 0.260282 0.300444
O O2 0.232045 0.240670 0.465475
O O3 0.382436 0.000000 0.319898
O O4 0.467529 0.225658 0.155749
O O5 0.064143 0.242959 0.289796
O O6 0.079520 0.000000 0.199910
O O7 0.205069 0.249926 0.025673
O O8 0.183454 0.758382 0.272853
O O9 0.925987 0.752020 0.551963
O O10 0.055275 0.000000 0.373687
O O11 0.620355 0.500000 0.539956
O O12 0.670282 0.737871 0.413376
O O13 0.469337 0.741283 0.716774
O O14 0.758906 0.500000 0.253359
O O15 0.907664 0.739029 0.101987
O O16 0.816933 0.500000 0.719530
O O17 0.664547 0.265957 0.856491
O O18 0.814268 0.243366 0.789730
O O19 0.537025 0.000000 0.003979
O O20 0.322214 0.500000 0.854318
#
# Coordination Sequence:
#
# PCOD9132964 Si02
#       8
#     4   4   4   4   4   4   4   4
#     4   9  17  32  55  80 107 144 182 218 264 320
#     4  11  23  36  53  82 115 145 180 222 267 320
#     4  10  21  39  59  77 107 149 184 219 269 325
#     4   8  15  29  55  84 102 130 184 229 261 313
#     4   8  14  30  56  81 102 134 184 226 260 314
#     4  12  23  34  53  84 115 139 177 229 271 316
#     4   9  17  31  56  83 105 139 182 222 267 320
#     4  11  20  35  59  81 107 144 183 223 269 320
#
# _framework density 17.722553999999999
#
# number of rings (size 3 to 8) (size 9 to 14) (size 15 to 20)
#    0.000    2.250    2.500    3.375    0.000    1.000 
#    0.000    3.125    0.000    4.500    0.000    0.000 
#    0.000    0.000    0.000    0.000    0.000    0.000 
#
# Total GULP energy -89254.142126 kJ/mol
# GULP energy per Si atom -5578.383883 kJ/mol
# Density = 1.768222 g / cm^3
# Si number density = 17.722554 Si / 1000 Ang^3
#
#
#
# Elastic Constant Matrix: (Units=GPa)
#
#
# Indices 1 2 3 4 5 6 
#
# 1 175.0991 32.0376 93.6523 0.0000 -15.5290 0.0000
# 2 32.0376 19.8338 18.4661 -0.0002 -0.1816 0.0001
# 3 93.6523 18.4661 113.4326 0.0000 -11.7901 0.0000
# 4 0.0000 -0.0002 0.0000 8.0269 0.0000 8.8708
# 5 -15.5290 -0.1816 -11.7901 0.0000 32.3758 0.0000
# 6 0.0000 0.0001 0.0000 8.8708 0.0000 14.6432
#
#
#
# Elastic Compliance Matrix: (Units=1/GPa)
#
#
# Indices 1 2 3 4 5 6 
#
# 1 0.012628 -0.012917 -0.008004 -0.000001 0.003070 0.000001
# 2 -0.012917 0.072984 -0.001889 0.000007 -0.006475 -0.000005
# 3 -0.008004 -0.001889 0.015934 0.000000 0.001953 0.000000
# 4 -0.000001 0.000007 0.000000 0.376940 -0.000001 -0.228350
# 5 0.003070 -0.006475 0.001953 -0.000001 0.033035 0.000000
# 6 0.000001 -0.000005 0.000000 -0.228350 0.000000 0.206625
#
#
# Mechanical properties :
#
#
# Convention : Reuss Voigt Hill
#
# Bulk Modulus (GPa) = 17.88099 66.29750 42.08925
# Shear Modulus (GPa) = 6.39052 21.95647 14.17350
#
# Velocity S-wave (km/s) = 1.90097 3.52362 2.83104
# Velocity P-wave (km/s) = 3.86388 7.35148 5.87256
#
# Compressibility (1/GPa) = 0.05592531
#
# Stress axis : x y z
#
# Youngs Moduli (GPa) = 79.19199 13.70155 62.75751
#
# Poissons Ratio (x) = 0.17699 0.50229
# Poissons Ratio (y) = 1.02296 0.11858
# Poissons Ratio (z) = 0.63382 0.02589
#
# Static dielectric constant tensor:
#      x y z
#    x 1.615020 0.000000 -0.027480 
#    y 0.000000 1.603730 0.000000 
#    z -0.027480 0.000000 1.588020 
# 
# From -- ./inp_files/31364.got.cif
#   From: 2010.05.17/outbox.cif.g08.bks.cpg/sg8_16_cif.got.tgz:31364.got - 2010.06.03 19:46:02.
