data_PCOD9132669
_publ_section_title
;
Structure prediction by ZEFSAII (Michael W. Deem and Ramdas Pophale) SiO2 
 PCOD9132669
Probable space group: C M
;
_chemical_formula_sum "Si O2"
_cell_formula_units_Z 28
_cell_length_a 9.970945
_cell_length_b 23.544674
_cell_length_c 8.042787
_cell_angle_alpha 90.000000
_cell_angle_beta 140.435118
_cell_angle_gamma 90.000000
_cell_volume 1202.657613
_symmetry_space_group_name_H-M "C M"
_symmetry_group_IT_number 8
_symmetry_cell_setting 'monoclinic'
loop_
_space_group_symop_operation_xyz
x,y,z
x,-y,z
1/2+x,1/2+y,z
1/2+x,1/2-y,z
loop_
_atom_site_type_symbol
_atom_site_label
_atom_site_fract_x
_atom_site_fract_y
_atom_site_fract_z
Si Si1 0.315000 0.763910 0.169810
Si Si2 0.991397 0.844891 0.029261
Si Si3 0.186207 0.935988 0.029348
Si Si4 0.556462 0.812359 0.686213
Si Si5 0.484597 0.856459 0.116031
Si Si6 0.378744 0.435438 0.417766
Si Si7 0.205702 0.129972 0.530815
O O1 0.131046 0.809679 0.036505
O O2 0.438644 0.764340 0.463934
O O3 0.473701 0.794724 0.191267
O O4 0.169317 0.715415 0.952711
O O5 0.050938 0.829474 0.276933
O O6 0.071341 0.908524 0.077281
O O7 0.748831 0.836644 0.764230
O O8 0.011920 0.934248 0.715797
O O9 0.250673 0.000000 0.121556
O O10 0.385199 0.900454 0.154187
O O11 0.406960 0.864067 0.599776
O O12 0.697880 0.886930 0.255564
O O13 0.313800 0.851278 0.804867
O O14 0.294652 0.500000 0.314599
O O15 0.552029 0.420618 0.441507
#
# Coordination Sequence:
#
# PCOD9132669 Si02
#       7
#     4   4   4   4   4   4   4
#     4  10  25  40  65  91 125 171 220 261 319 378
#     4  10  22  41  60  92 128 164 214 264 320 381
#     4   9  19  37  61  89 122 161 209 261 321 388
#     4  11  24  43  63  91 128 173 214 267 318 380
#     4  10  20  39  63  94 125 164 210 268 318 380
#     4  10  20  38  66  93 124 166 211 266 330 382
#     4  10  23  40  60  92 130 163 211 269 316 385
#
# _framework density 23.281772
#
# number of rings (size 3 to 8) (size 9 to 14) (size 15 to 20)
#    0.000    2.000    0.000    2.143    4.000    2.286 
#    2.571    0.714    0.000    0.000    0.000    0.000 
#    0.000    0.000    0.000    0.000    0.000    0.000 
#
# Total GULP energy -77996.847179 kJ/mol
# GULP energy per Si atom -5571.203370 kJ/mol
# Density = 2.322878 g / cm^3
# Si number density = 23.281772 Si / 1000 Ang^3
#
#
#
# Elastic Constant Matrix: (Units=GPa)
#
#
# Indices 1 2 3 4 5 6 
#
# 1 82.4156 26.2641 48.2290 0.0000 8.8497 0.0000
# 2 26.2641 90.8967 28.8593 0.0000 11.9842 0.0000
# 3 48.2290 28.8593 79.8435 0.0000 16.7939 0.0000
# 4 0.0000 0.0000 0.0000 24.6692 0.0000 5.9418
# 5 8.8497 11.9842 16.7939 0.0000 30.9467 0.0000
# 6 0.0000 0.0000 0.0000 5.9418 0.0000 28.2004
#
#
#
# Elastic Compliance Matrix: (Units=1/GPa)
#
#
# Indices 1 2 3 4 5 6 
#
# 1 0.019167 -0.002205 -0.011071 0.000000 0.001381 0.000000
# 2 -0.002205 0.012882 -0.002718 0.000000 -0.002883 0.000000
# 3 -0.011071 -0.002718 0.021795 0.000000 -0.007609 0.000000
# 4 0.000000 0.000000 0.000000 0.042704 0.000000 -0.008998
# 5 0.001381 -0.002883 -0.007609 0.000000 0.037164 0.000000
# 6 0.000000 0.000000 0.000000 -0.008998 0.000000 0.037356
#
#
# Mechanical properties :
#
#
# Convention : Reuss Voigt Hill
#
# Bulk Modulus (GPa) = 45.75519 51.09565 48.42542
# Shear Modulus (GPa) = 23.77107 26.75015 25.26061
#
# Velocity S-wave (km/s) = 3.19880 3.39333 3.29750
# Velocity P-wave (km/s) = 5.77396 6.11123 5.94499
#
# Compressibility (1/GPa) = 0.02185544
#
# Stress axis : x y z
#
# Youngs Moduli (GPa) = 52.17374 77.63005 45.88304
#
# Poissons Ratio (x) = 0.17119 0.50797
# Poissons Ratio (y) = 0.11505 0.12469
# Poissons Ratio (z) = 0.57761 0.21097
#
# Static dielectric constant tensor:
#      x y z
#    x 1.927630 0.000000 -0.012470 
#    y 0.000000 1.945280 0.000000 
#    z -0.012470 0.000000 1.883960 
# 
# From -- ./inp_files/9239.got.cif
#   From: 2010.05.17/outbox.cif.g08.bks.cpg/sg8_5_cif.got.tgz:9239.got - 2010.06.03 19:46:02.
