data_PCOD9132185
_publ_section_title
;
Structure prediction by ZEFSAII (Michael W. Deem and Ramdas Pophale) SiO2 
 PCOD9132185
Probable space group: C M
;
_chemical_formula_sum "Si O2"
_cell_formula_units_Z 28
_cell_length_a 8.552622
_cell_length_b 11.665167
_cell_length_c 14.650750
_cell_angle_alpha 90.000000
_cell_angle_beta 118.394385
_cell_angle_gamma 90.000000
_cell_volume 1285.826312
_symmetry_space_group_name_H-M "C M"
_symmetry_group_IT_number 8
_symmetry_cell_setting 'monoclinic'
loop_
_space_group_symop_operation_xyz
x,y,z
x,-y,z
1/2+x,1/2+y,z
1/2+x,1/2-y,z
loop_
_atom_site_type_symbol
_atom_site_label
_atom_site_fract_x
_atom_site_fract_y
_atom_site_fract_z
Si Si1 0.990750 0.376093 0.703740
Si Si2 0.256010 0.178899 0.970806
Si Si3 0.573701 0.838727 0.184710
Si Si4 0.765576 0.370278 0.458303
Si Si5 0.063010 0.627689 0.394351
Si Si6 0.878162 0.795248 0.826808
Si Si7 0.366005 0.372611 0.121598
O O1 0.935833 0.500000 0.726852
O O2 0.907504 0.367819 0.580335
O O3 0.924610 0.273356 0.748334
O O4 0.203130 0.368196 0.761617
O O5 0.330011 0.202048 0.891188
O O6 0.054358 0.138078 0.909015
O O7 0.405715 0.122414 0.075844
O O8 0.245980 0.305379 0.015095
O O9 0.554071 0.876496 0.282387
O O10 0.543895 0.701547 0.176105
O O11 0.756251 0.868633 0.185542
O O12 0.678697 0.500000 0.438001
O O13 0.655926 0.251694 0.438880
O O14 0.876412 0.365414 0.395325
O O15 0.139932 0.500000 0.443703
O O16 0.401036 0.500000 0.103185
#
# Coordination Sequence:
#
# PCOD9132185 Si02
#       7
#     4   4   4   4   4   4   4
#     4  10  22  41  63  86 116 157 199 255 315 362
#     4   9  18  35  55  84 122 155 197 243 293 357
#     4  10  20  37  58  87 123 159 202 245 298 360
#     4  10  23  42  64  92 125 161 207 262 318 376
#     4  11  23  40  65  95 126 163 206 259 313 371
#     4  10  19  37  60  85 118 153 200 251 292 367
#     4  10  20  36  56  77 117 166 200 243 294 347
#
# _framework density 21.775881999999999
#
# number of rings (size 3 to 8) (size 9 to 14) (size 15 to 20)
#    0.857    1.143    1.429    2.143    0.000    3.429 
#    0.000    6.429    0.000    0.000    0.000    0.000 
#    0.000    0.000    0.000    0.000    0.000    0.000 
#
# Total GULP energy -78005.889897 kJ/mol
# GULP energy per Si atom -5571.849278 kJ/mol
# Density = 2.172632 g / cm^3
# Si number density = 21.775882 Si / 1000 Ang^3
#
#
#
# Elastic Constant Matrix: (Units=GPa)
#
#
# Indices 1 2 3 4 5 6 
#
# 1 41.6971 17.6466 8.7576 0.0000 -1.8041 0.0000
# 2 17.6466 166.8352 13.5064 0.0000 13.0676 0.0000
# 3 8.7576 13.5064 73.7304 0.0000 3.2026 0.0000
# 4 0.0000 0.0000 0.0000 -6.1830 0.0000 50.3022
# 5 -1.8041 13.0676 3.2026 0.0000 28.8020 0.0000
# 6 0.0000 0.0000 0.0000 50.3022 0.0000 -149.1538
#
#
#
# Elastic Compliance Matrix: (Units=1/GPa)
#
#
# Indices 1 2 3 4 5 6 
#
# 1 0.025858 -0.002765 -0.002703 0.000000 0.003175 0.000000
# 2 -0.002765 0.006588 -0.000745 0.000000 -0.003079 0.000000
# 3 -0.002703 -0.000745 0.014081 0.000000 -0.001397 0.000000
# 4 0.000000 0.000000 0.000000 0.092752 0.000000 0.031281
# 5 0.003175 -0.003079 -0.001397 0.000000 0.036471 0.000000
# 6 0.000000 0.000000 0.000000 0.031281 0.000000 0.003845
#
#
# Mechanical properties :
#
#
# Convention : Reuss Voigt Hill
#
# Bulk Modulus (GPa) = 29.32381 40.23154 34.77768
# Shear Modulus (GPa) = 24.58379 -9.15015 7.71682
#
# Velocity S-wave (km/s) = 3.36362 -2.05209 1.88453
# Velocity P-wave (km/s) = 5.34609 3.59174 4.55419
#
# Compressibility (1/GPa) = 0.03410198
#
# Stress axis : x y z
#
# Youngs Moduli (GPa) = 38.67336 151.79427 71.01739
#
# Poissons Ratio (x) = 0.41969 0.19194
# Poissons Ratio (y) = 0.10693 0.05288
# Poissons Ratio (z) = 0.10452 0.11303
#
# Static dielectric constant tensor:
#      x y z
#    x 1.774530 0.000000 0.021750 
#    y 0.000000 1.889580 0.000000 
#    z 0.021750 0.000000 1.800430 
# 
# From -- ./inp_files/25176.got.cif
#   From: 2010.05.17/outbox.cif.g08.bks.cpg/sg8_13_cif.got.tgz:25176.got - 2010.06.03 19:46:02.
