data_PCOD9132713
_publ_section_title
;
Structure prediction by ZEFSAII (Michael W. Deem and Ramdas Pophale) SiO2 
 PCOD9132713
Probable space group: C M
;
_chemical_formula_sum "Si O2"
_cell_formula_units_Z 32
_cell_length_a 23.159777
_cell_length_b 13.055753
_cell_length_c 8.218354
_cell_angle_alpha 90.000000
_cell_angle_beta 33.235551
_cell_angle_gamma 90.000000
_cell_volume 1361.968088
_symmetry_space_group_name_H-M "C M"
_symmetry_group_IT_number 8
_symmetry_cell_setting 'monoclinic'
loop_
_space_group_symop_operation_xyz
x,y,z
x,-y,z
1/2+x,1/2+y,z
1/2+x,1/2-y,z
loop_
_atom_site_type_symbol
_atom_site_label
_atom_site_fract_x
_atom_site_fract_y
_atom_site_fract_z
Si Si1 0.130780 0.821043 0.708360
Si Si2 0.443468 0.619747 0.357528
Si Si3 0.265255 0.691154 0.165043
Si Si4 0.562344 0.710770 0.334284
Si Si5 0.847600 0.617709 0.368173
Si Si6 0.708697 0.885893 0.948841
Si Si7 0.462331 0.291795 0.889212
Si Si8 0.778425 0.384511 0.901543
O O1 0.176013 0.722367 0.507527
O O2 0.231943 0.872780 0.553446
O O3 0.051272 0.865808 0.757051
O O4 0.039892 0.817060 0.056756
O O5 0.464249 0.500000 0.285039
O O6 0.462604 0.652871 0.496798
O O7 0.322276 0.637314 0.599081
O O8 0.229719 0.624420 0.094369
O O9 0.360736 0.653537 0.052611
O O10 0.295077 0.800273 0.003509
O O11 0.521922 0.758283 0.597356
O O12 0.622354 0.803742 0.105830
O O13 0.655367 0.629589 0.146289
O O14 0.883449 0.500000 0.260462
O O15 0.836458 0.634100 0.590653
O O16 0.918745 0.703645 0.112780
O O17 0.677372 0.000000 0.981515
O O18 0.801389 0.500000 0.901285
#
# Coordination Sequence:
#
# PCOD9132713 Si02
#       8
#     4   4   4   4   4   4   4   4
#     4  11  22  38  60  93 131 162 210 257 325 376
#     4  11  23  40  67  95 124 166 211 263 320 379
#     4  10  22  40  61  93 128 174 212 265 320 377
#     4  11  21  40  64  91 124 166 212 258 320 374
#     4  10  23  41  63  95 128 163 214 271 320 378
#     4  10  22  40  63  90 120 162 214 258 308 373
#     4  11  23  38  60  93 126 173 206 256 324 381
#     4  10  20  39  65  94 127 164 209 270 325 374
#
# _framework density 23.495412000000002
#
# number of rings (size 3 to 8) (size 9 to 14) (size 15 to 20)
#    0.000    1.500    5.000    0.750    3.500    3.000 
#    0.000    1.250    0.000    1.500    0.000    0.000 
#    0.000    0.000    0.000    0.000    0.000    0.000 
#
# Total GULP energy -89129.489412 kJ/mol
# GULP energy per Si atom -5570.593088 kJ/mol
# Density = 2.344194 g / cm^3
# Si number density = 23.495412 Si / 1000 Ang^3
#
#
#
# Elastic Constant Matrix: (Units=GPa)
#
#
# Indices 1 2 3 4 5 6 
#
# 1 48.7444 27.0141 2.6949 0.0000 -14.3530 0.0000
# 2 27.0141 71.7468 28.0223 0.0000 7.4503 0.0000
# 3 2.6949 28.0223 127.7028 0.0000 10.8850 0.0000
# 4 0.0000 0.0000 0.0000 14.8523 0.0000 -0.1433
# 5 -14.3530 7.4503 10.8850 0.0000 28.2211 0.0000
# 6 0.0000 0.0000 0.0000 -0.1433 0.0000 15.7185
#
#
#
# Elastic Compliance Matrix: (Units=1/GPa)
#
#
# Indices 1 2 3 4 5 6 
#
# 1 0.036004 -0.016219 0.000903 0.000000 0.022245 0.000000
# 2 -0.016219 0.022772 -0.003556 0.000000 -0.012889 0.000000
# 3 0.000903 -0.003556 0.008761 0.000000 -0.001981 0.000000
# 4 0.000000 0.000000 0.000000 0.067336 0.000000 0.000614
# 5 0.022245 -0.012889 -0.001981 0.000000 0.050915 0.000000
# 6 0.000000 0.000000 0.000000 0.000614 0.000000 0.063625
#
#
# Mechanical properties :
#
#
# Convention : Reuss Voigt Hill
#
# Bulk Modulus (GPa) = 33.56494 40.40626 36.98560
# Shear Modulus (GPa) = 16.83014 24.45588 20.64301
#
# Velocity S-wave (km/s) = 2.67931 3.22977 2.96733
# Velocity P-wave (km/s) = 4.88757 5.58062 5.24556
#
# Compressibility (1/GPa) = 0.02979299
#
# Stress axis : x y z
#
# Youngs Moduli (GPa) = 27.77490 43.91377 114.14492
#
# Poissons Ratio (x) = 0.71223 -0.10308
# Poissons Ratio (y) = 0.45047 0.40590
# Poissons Ratio (z) = -0.02508 0.15616
#
# Static dielectric constant tensor:
#      x y z
#    x 2.072340 0.000000 0.111880 
#    y 0.000000 1.835240 0.000000 
#    z 0.111880 0.000000 2.014230 
# 
# From -- ./inp_files/17593.got.cif
#   From: 2010.05.17/outbox.cif.g08.bks.cpg/sg8_9_cif.got.tgz:17593.got - 2010.06.03 19:46:02.
