data_PCOD9132018
_publ_section_title
;
Structure prediction by ZEFSAII (Michael W. Deem and Ramdas Pophale) SiO2 
 PCOD9132018
Probable space group: C M
;
_chemical_formula_sum "Si O2"
_cell_formula_units_Z 24
_cell_length_a 8.556629
_cell_length_b 13.139014
_cell_length_c 14.844199
_cell_angle_alpha 90.000000
_cell_angle_beta 47.875643
_cell_angle_gamma 90.000000
_cell_volume 1237.784726
_symmetry_space_group_name_H-M "C M"
_symmetry_group_IT_number 8
_symmetry_cell_setting 'monoclinic'
loop_
_space_group_symop_operation_xyz
x,y,z
x,-y,z
1/2+x,1/2+y,z
1/2+x,1/2-y,z
loop_
_atom_site_type_symbol
_atom_site_label
_atom_site_fract_x
_atom_site_fract_y
_atom_site_fract_z
Si Si1 0.573610 0.385772 0.584260
Si Si2 0.722453 0.186297 0.595757
Si Si3 0.008429 0.376981 0.083052
Si Si4 0.402565 0.233485 0.939227
Si Si5 0.284139 0.117771 0.802197
Si Si6 0.130798 0.881997 0.360697
O O1 0.578003 0.500000 0.616755
O O2 0.661055 0.303933 0.618496
O O3 0.338900 0.356903 0.639568
O O4 0.697059 0.378320 0.440799
O O5 0.504077 0.128848 0.663064
O O6 0.903597 0.171879 0.450269
O O7 0.039841 0.500000 0.074436
O O8 0.954437 0.338366 0.003675
O O9 0.812695 0.348716 0.223690
O O10 0.211051 0.311239 0.033396
O O11 0.344021 0.162539 0.877583
O O12 0.599154 0.307475 0.842876
O O13 0.220226 0.000000 0.829613
O O14 0.087256 0.000000 0.357528
#
# Coordination Sequence:
#
# PCOD9132018 Si02
#       6
#     4   4   4   4   4   4
#     4   9  19  35  52  80 112 139 174 212 266 323
#     4  10  19  34  58  80 107 142 175 217 273 317
#     4  10  20  37  57  79 109 140 180 224 262 315
#     4  10  23  36  55  82 104 146 184 217 264 312
#     4  11  21  38  57  78 111 142 178 223 265 317
#     4   8  18  34  57  81 107 141 175 217 272 318
#
# _framework density 19.389479000000001
#
# number of rings (size 3 to 8) (size 9 to 14) (size 15 to 20)
#    1.000    1.333    0.000    3.000    2.333    0.000 
#    0.000    8.333    0.000    1.000    0.000    0.000 
#    0.000    0.000    0.000    0.000    0.000    0.000 
#
# Total GULP energy -66842.729889 kJ/mol
# GULP energy per Si atom -5570.227491 kJ/mol
# Density = 1.934535 g / cm^3
# Si number density = 19.389479 Si / 1000 Ang^3
#
#
#
# Elastic Constant Matrix: (Units=GPa)
#
#
# Indices 1 2 3 4 5 6 
#
# 1 18.1451 2.0824 8.8006 0.0002 0.3048 -0.0001
# 2 2.0824 97.7539 18.8516 0.0000 2.1532 0.0000
# 3 8.8006 18.8516 96.4156 -0.0001 -14.5719 0.0000
# 4 0.0002 0.0000 -0.0001 24.8770 0.0000 1.3556
# 5 0.3048 2.1532 -14.5719 0.0000 18.2238 0.0000
# 6 -0.0001 0.0000 0.0000 1.3556 0.0000 25.7410
#
#
#
# Elastic Compliance Matrix: (Units=1/GPa)
#
#
# Indices 1 2 3 4 5 6 
#
# 1 0.058225 0.000094 -0.006235 -0.000001 -0.005971 0.000000
# 2 0.000094 0.010810 -0.002634 0.000000 -0.003385 0.000000
# 3 -0.006235 -0.002634 0.013102 0.000000 0.010892 0.000000
# 4 -0.000001 0.000000 0.000000 0.040313 0.000000 -0.002123
# 5 -0.005971 -0.003385 0.010892 0.000000 0.064082 0.000000
# 6 0.000000 0.000000 0.000000 -0.002123 0.000000 0.038960
#
#
# Mechanical properties :
#
#
# Convention : Reuss Voigt Hill
#
# Bulk Modulus (GPa) = 15.48313 30.19821 22.84067
# Shear Modulus (GPa) = 18.89835 25.94037 22.41936
#
# Velocity S-wave (km/s) = 3.12536 3.66164 3.40408
# Velocity P-wave (km/s) = 4.58546 5.78664 5.22071
#
# Compressibility (1/GPa) = 0.06458641
#
# Stress axis : x y z
#
# Youngs Moduli (GPa) = 17.17472 92.50483 76.32393
#
# Poissons Ratio (x) = -0.00866 0.47591
# Poissons Ratio (y) = -0.00161 0.20102
# Poissons Ratio (z) = 0.10709 0.24364
#
# Static dielectric constant tensor:
#      x y z
#    x 1.675650 0.000000 0.004880 
#    y 0.000000 1.666000 0.000000 
#    z 0.004880 0.000000 1.722900 
# 
# From -- ./inp_files/18645.got.cif
#   From: 2010.05.17/outbox.cif.g08.bks.cpg/sg8_10_cif.got.tgz:18645.got - 2010.06.03 19:46:02.
