data_PCOD9132426
_publ_section_title
;
Structure prediction by ZEFSAII (Michael W. Deem and Ramdas Pophale) SiO2 
 PCOD9132426
Probable space group: C M
;
_chemical_formula_sum "Si O2"
_cell_formula_units_Z 28
_cell_length_a 16.615479
_cell_length_b 14.582783
_cell_length_c 7.713705
_cell_angle_alpha 90.000000
_cell_angle_beta 142.037900
_cell_angle_gamma 90.000000
_cell_volume 1149.715364
_symmetry_space_group_name_H-M "C M"
_symmetry_group_IT_number 8
_symmetry_cell_setting 'monoclinic'
loop_
_space_group_symop_operation_xyz
x,y,z
x,-y,z
1/2+x,1/2+y,z
1/2+x,1/2-y,z
loop_
_atom_site_type_symbol
_atom_site_label
_atom_site_fract_x
_atom_site_fract_y
_atom_site_fract_z
Si Si1 0.732540 0.596647 0.866800
Si Si2 0.750214 0.604157 0.317184
Si Si3 0.931150 0.898875 0.370493
Si Si4 0.469599 0.387532 0.823016
Si Si5 0.681307 0.107538 0.433229
Si Si6 0.043367 0.388482 0.830745
Si Si7 0.207731 0.299280 0.802814
O O1 0.794841 0.500000 0.913684
O O2 0.579055 0.593117 0.559151
O O3 0.764218 0.698099 0.864205
O O4 0.743730 0.598897 0.095681
O O5 0.751248 0.500000 0.388661
O O6 0.892669 0.641896 0.601710
O O7 0.610134 0.647146 0.129532
O O8 0.943711 0.855389 0.581851
O O9 0.875133 0.000000 0.307220
O O10 0.836663 0.853926 0.075427
O O11 0.483552 0.500000 0.838804
O O12 0.335654 0.368904 0.691592
O O13 0.628639 0.166335 0.501991
O O14 0.668202 0.000000 0.453186
O O15 0.619774 0.120942 0.140833
O O16 0.043389 0.500000 0.784582
O O17 0.113372 0.325149 0.805540
#
# Coordination Sequence:
#
# PCOD9132426 Si02
#       7
#     4   4   4   4   4   4   4
#     4   9  21  39  63  92 131 178 225 274 332 396
#     4   8  16  34  64  92 123 177 221 254 330 407
#     4   9  17  35  63  94 126 170 219 271 328 392
#     4   8  14  31  60  91 129 176 221 261 317 397
#     4  10  20  35  61 102 141 172 217 279 335 396
#     4  10  20  36  63 100 142 177 209 274 348 397
#     4  12  22  34  68  99 132 172 232 273 332 399
#
# _framework density 24.353853000000001
#
# number of rings (size 3 to 8) (size 9 to 14) (size 15 to 20)
#    0.000    2.571    1.429    3.000    2.000    0.000 
#    0.000    0.000   15.714    0.857    0.000    0.000 
#    0.000    1.143    0.000    0.000    0.000    0.000 
#
# Total GULP energy -78123.618482 kJ/mol
# GULP energy per Si atom -5580.258463 kJ/mol
# Density = 2.429842 g / cm^3
# Si number density = 24.353853 Si / 1000 Ang^3
#
#
#
# Elastic Constant Matrix: (Units=GPa)
#
#
# Indices 1 2 3 4 5 6 
#
# 1 26.5126 22.6935 60.0115 0.0000 -21.7728 0.0000
# 2 22.6935 107.7852 23.2338 0.0000 -12.8174 0.0000
# 3 60.0115 23.2338 122.2650 0.0000 29.0718 0.0000
# 4 0.0000 0.0000 0.0000 23.4539 0.0000 17.2012
# 5 -21.7728 -12.8174 29.0718 0.0000 26.1742 0.0000
# 6 0.0000 0.0000 0.0000 17.2012 0.0000 9.0618
#
#
#
# Elastic Compliance Matrix: (Units=1/GPa)
#
#
# Indices 1 2 3 4 5 6 
#
# 1 -0.013062 -0.003502 0.013681 0.000000 -0.027776 0.000000
# 2 -0.003502 0.010702 -0.001180 0.000000 0.003638 0.000000
# 3 0.013681 -0.001180 -0.001197 0.000000 0.012132 0.000000
# 4 0.000000 0.000000 0.000000 -0.108727 0.000000 0.206385
# 5 -0.027776 0.003638 0.012132 0.000000 0.003408 0.000000
# 6 0.000000 0.000000 0.000000 0.206385 0.000000 -0.281408
#
#
# Mechanical properties :
#
#
# Convention : Reuss Voigt Hill
#
# Bulk Modulus (GPa) = 69.24205 52.04891 60.64548
# Shear Modulus (GPa) = -12.39258 21.77960 4.69351
#
# Velocity S-wave (km/s) = -2.25823 2.99373 1.38975
# Velocity P-wave (km/s) = 4.65767 5.77652 5.24700
#
# Compressibility (1/GPa) = 0.01444209
#
# Stress axis : x y z
#
# Youngs Moduli (GPa) = -76.55973 93.44058 -835.76802
#
# Poissons Ratio (x) = 0.32722 11.43413
# Poissons Ratio (y) = -0.26811 -0.98611
# Poissons Ratio (z) = 1.04741 0.11025
#
# Static dielectric constant tensor:
#      x y z
#    x 1.995730 0.000000 0.030260 
#    y 0.000000 2.003620 0.000000 
#    z 0.030260 0.000000 1.884530 
# 
# From -- ./inp_files/16457.got.cif
#   From: 2010.05.17/outbox.cif.g08.bks.cpg/sg8_9_cif.got.tgz:16457.got - 2010.06.03 19:46:02.
