data_PCOD9132335
_publ_section_title
;
Structure prediction by ZEFSAII (Michael W. Deem and Ramdas Pophale) SiO2 
 PCOD9132335
Probable space group: C M
;
_chemical_formula_sum "Si O2"
_cell_formula_units_Z 26
_cell_length_a 8.063472
_cell_length_b 21.727016
_cell_length_c 11.049429
_cell_angle_alpha 90.000000
_cell_angle_beta 40.116237
_cell_angle_gamma 90.000000
_cell_volume 1247.318452
_symmetry_space_group_name_H-M "C M"
_symmetry_group_IT_number 8
_symmetry_cell_setting 'monoclinic'
loop_
_space_group_symop_operation_xyz
x,y,z
x,-y,z
1/2+x,1/2+y,z
1/2+x,1/2-y,z
loop_
_atom_site_type_symbol
_atom_site_label
_atom_site_fract_x
_atom_site_fract_y
_atom_site_fract_z
Si Si1 0.657660 0.898486 0.977740
Si Si2 0.432823 0.336812 0.199447
Si Si3 0.083698 0.067921 0.928678
Si Si4 0.475872 0.391963 0.553511
Si Si5 0.632590 0.929775 0.518120
Si Si6 0.799089 0.500000 0.259225
Si Si7 0.268325 0.798218 0.243100
O O1 0.833813 0.894689 0.760796
O O2 0.826990 0.925417 0.992913
O O3 0.541746 0.832498 0.077855
O O4 0.419511 0.945663 0.102470
O O5 0.222907 0.386038 0.361229
O O6 0.303407 0.274458 0.226551
O O7 0.606665 0.317931 0.215961
O O8 0.596273 0.374604 0.010962
O O9 0.328945 0.069864 0.704447
O O10 0.085280 0.000000 0.987138
O O11 0.262528 0.405423 0.568882
O O12 0.682670 0.445797 0.414514
O O13 0.617057 0.327775 0.441723
O O14 0.728586 0.000000 0.448558
#
# Coordination Sequence:
#
# PCOD9132335 Si02
#       7
#     4   4   4   4   4   2   4
#     4  11  22  40  62  97 129 165 208 257 314 376
#     4  11  23  45  64  91 128 165 217 267 309 379
#     4  11  24  40  61  96 130 170 208 257 321 371
#     4  10  21  40  64  93 125 163 214 259 310 378
#     4  10  22  40  63  93 125 168 211 257 321 371
#     4  10  20  34  60  92 126 162 202 250 308 368
#     4  10  24  41  68  93 121 172 214 260 320 366
#
# _framework density 20.844716999999999
#
# number of rings (size 3 to 8) (size 9 to 14) (size 15 to 20)
#    0.000    1.538    1.538    2.769    0.000    4.923 
#    9.692    3.077    0.000    0.000    0.000    0.000 
#    0.000    0.000    0.000    0.000    0.000    0.000 
#
# Total GULP energy -72395.594173 kJ/mol
# GULP energy per Si atom -5568.891859 kJ/mol
# Density = 2.079727 g / cm^3
# Si number density = 20.844717 Si / 1000 Ang^3
#
#
#
# Elastic Constant Matrix: (Units=GPa)
#
#
# Indices 1 2 3 4 5 6 
#
# 1 22.0732 10.9949 1.5842 0.0000 -5.0166 0.0000
# 2 10.9949 118.2475 43.1022 0.0000 -0.2220 0.0000
# 3 1.5842 43.1022 126.4979 0.0000 11.1363 0.0000
# 4 0.0000 0.0000 0.0000 12.4089 0.0000 9.5550
# 5 -5.0166 -0.2220 11.1363 0.0000 19.9617 0.0000
# 6 0.0000 0.0000 0.0000 9.5550 0.0000 3.0841
#
#
#
# Elastic Compliance Matrix: (Units=1/GPa)
#
#
# Indices 1 2 3 4 5 6 
#
# 1 0.050507 -0.004605 -0.000186 0.000000 0.012745 0.000000
# 2 -0.004605 0.010156 -0.003482 0.000000 0.000898 0.000000
# 3 -0.000186 -0.003482 0.009572 0.000000 -0.005425 0.000000
# 4 0.000000 0.000000 0.000000 -0.058160 0.000000 0.180190
# 5 0.012745 0.000898 -0.005425 0.000000 0.056336 0.000000
# 6 0.000000 0.000000 0.000000 0.180190 0.000000 -0.234010
#
#
# Mechanical properties :
#
#
# Convention : Reuss Voigt Hill
#
# Bulk Modulus (GPa) = 18.62523 42.02012 30.32268
# Shear Modulus (GPa) = -38.12168 21.16677 -8.47746
#
# Velocity S-wave (km/s) = -4.28113 3.19007 -2.01886
# Velocity P-wave (km/s) = 3.93483 5.81129 3.02393
#
# Compressibility (1/GPa) = 0.05369060
#
# Stress axis : x y z
#
# Youngs Moduli (GPa) = 19.79906 98.46556 104.47593
#
# Poissons Ratio (x) = 0.45340 0.01939
# Poissons Ratio (y) = 0.09117 0.36377
# Poissons Ratio (z) = 0.00367 0.34284
#
# Static dielectric constant tensor:
#      x y z
#    x 1.807860 0.000000 -0.031550 
#    y 0.000000 1.737110 0.000000 
#    z -0.031550 0.000000 1.734940 
# 
# From -- ./inp_files/19237.got.cif
#   From: 2010.05.17/outbox.cif.g08.bks.cpg/sg8_10_cif.got.tgz:19237.got - 2010.06.03 19:46:02.
