data_PCOD9132709
_publ_section_title
;
Structure prediction by ZEFSAII (Michael W. Deem and Ramdas Pophale) SiO2 
 PCOD9132709
Probable space group: C M
;
_chemical_formula_sum "Si O2"
_cell_formula_units_Z 28
_cell_length_a 15.306022
_cell_length_b 13.922469
_cell_length_c 6.556319
_cell_angle_alpha 90.000000
_cell_angle_beta 64.637180
_cell_angle_gamma 90.000000
_cell_volume 1262.470832
_symmetry_space_group_name_H-M "C M"
_symmetry_group_IT_number 8
_symmetry_cell_setting 'monoclinic'
loop_
_space_group_symop_operation_xyz
x,y,z
x,-y,z
1/2+x,1/2+y,z
1/2+x,1/2-y,z
loop_
_atom_site_type_symbol
_atom_site_label
_atom_site_fract_x
_atom_site_fract_y
_atom_site_fract_z
Si Si1 0.682190 0.299173 0.952780
Si Si2 0.013892 0.700827 0.621078
Si Si3 0.848041 0.102691 0.420520
Si Si4 0.848041 0.387584 0.509612
Si Si5 0.057382 0.894358 0.389400
Si Si6 0.138700 0.605642 0.808083
Si Si7 0.348041 0.778363 0.115337
O O1 0.751933 0.338816 0.704088
O O2 0.624625 0.202060 0.953542
O O3 0.609146 0.376620 0.120451
O O4 0.756063 0.277535 0.061881
O O5 0.944150 0.661184 0.511871
O O6 0.071457 0.797940 0.506710
O O7 0.086936 0.623380 0.642661
O O8 0.940019 0.722465 0.877924
O O9 0.753283 0.106590 0.653614
O O10 0.848041 0.188037 0.263009
O O11 0.942800 0.106590 0.464097
O O12 0.848041 0.000000 0.310614
O O13 0.848041 0.500000 0.559245
O O14 0.848041 0.368751 0.268091
O O15 0.085622 0.000000 0.442555
O O16 0.110460 0.500000 0.917718
#
# Coordination Sequence:
#
# PCOD9132709 Si02
#       7
#     4   4   4   4   4   4   4
#     4  11  24  43  67  98 139 172 228 282 328 410
#     4  11  24  43  67  98 139 172 228 282 328 410
#     4  10  20  39  64  93 128 168 217 270 333 400
#     4  11  24  44  70  97 132 180 225 284 345 386
#     4  11  23  42  68  98 135 178 223 276 338 401
#     4  11  23  42  68  98 135 178 223 276 338 401
#     4  11  22  43  66  94 132 172 220 284 330 402
#
# _framework density 22.178730000000002
#
# number of rings (size 3 to 8) (size 9 to 14) (size 15 to 20)
#    0.000    1.143    2.857    3.429    0.000    4.571 
#    0.000    1.429    0.000    0.000    0.000    0.000 
#    0.000    0.000    0.000    0.000    0.000    0.000 
#
# Total GULP energy -78250.290324 kJ/mol
# GULP energy per Si atom -5589.306452 kJ/mol
# Density = 2.212825 g / cm^3
# Si number density = 22.178730 Si / 1000 Ang^3
#
#
#
# Elastic Constant Matrix: (Units=GPa)
#
#
# Indices 1 2 3 4 5 6 
#
# 1 63.0287 3.0491 -0.2175 0.0000 1.6668 0.0000
# 2 3.0491 154.0098 13.2422 0.0000 5.6354 0.0000
# 3 -0.2175 13.2422 64.6945 0.0000 -0.7458 0.0000
# 4 0.0000 0.0000 0.0000 36.9750 0.0000 -30.6418
# 5 1.6668 5.6354 -0.7458 0.0000 31.7966 0.0000
# 6 0.0000 0.0000 0.0000 -30.6418 0.0000 92.3984
#
#
#
# Elastic Compliance Matrix: (Units=1/GPa)
#
#
# Indices 1 2 3 4 5 6 
#
# 1 0.015901 -0.000295 0.000105 0.000000 -0.000779 0.000000
# 2 -0.000295 0.006661 -0.001378 0.000000 -0.001197 0.000000
# 3 0.000105 -0.001378 0.015747 0.000000 0.000608 0.000000
# 4 0.000000 0.000000 0.000000 0.037295 0.000000 0.012368
# 5 -0.000779 -0.001197 0.000608 0.000000 0.031717 0.000000
# 6 0.000000 0.000000 0.000000 0.012368 0.000000 0.014924
#
#
# Mechanical properties :
#
#
# Convention : Reuss Voigt Hill
#
# Bulk Modulus (GPa) = 28.43196 34.87561 31.65378
# Shear Modulus (GPa) = 36.46797 49.94462 43.20630
#
# Velocity S-wave (km/s) = 4.05937 4.75058 4.41851
# Velocity P-wave (km/s) = 5.90073 6.77124 6.35091
#
# Compressibility (1/GPa) = 0.03517169
#
# Stress axis : x y z
#
# Youngs Moduli (GPa) = 62.88899 150.12165 63.50515
#
# Poissons Ratio (x) = 0.04434 -0.00666
# Poissons Ratio (y) = 0.01857 0.08753
# Poissons Ratio (z) = -0.00660 0.20691
#
# Static dielectric constant tensor:
#      x y z
#    x 1.832100 0.000000 -0.017800 
#    y 0.000000 1.875730 0.000000 
#    z -0.017800 0.000000 1.799910 
# 
# From -- ./inp_files/4931.got.cif
#   From: 2010.05.17/outbox.cif.g08.bks.cpg/sg8_3_cif.got.tgz:4931.got - 2010.06.03 19:46:02.
