data_PCOD9132765
_publ_section_title
;
Structure prediction by ZEFSAII (Michael W. Deem and Ramdas Pophale) SiO2 
 PCOD9132765
Probable space group: C M
;
_chemical_formula_sum "Si O2"
_cell_formula_units_Z 32
_cell_length_a 12.068145
_cell_length_b 21.315611
_cell_length_c 13.046324
_cell_angle_alpha 90.000000
_cell_angle_beta 157.323607
_cell_angle_gamma 90.000000
_cell_volume 1293.838385
_symmetry_space_group_name_H-M "C M"
_symmetry_group_IT_number 8
_symmetry_cell_setting 'monoclinic'
loop_
_space_group_symop_operation_xyz
x,y,z
x,-y,z
1/2+x,1/2+y,z
1/2+x,1/2-y,z
loop_
_atom_site_type_symbol
_atom_site_label
_atom_site_fract_x
_atom_site_fract_y
_atom_site_fract_z
Si Si1 0.278520 0.570505 0.108240
Si Si2 0.351736 0.428098 0.737817
Si Si3 0.391514 0.170906 0.994925
Si Si4 0.197783 0.141162 0.611309
Si Si5 0.167317 0.796623 0.265163
Si Si6 0.054146 0.072302 0.119679
Si Si7 0.528708 0.072197 0.266745
Si Si8 0.047882 0.269670 0.784946
O O1 0.276740 0.500000 0.149921
O O2 0.426970 0.616940 0.316637
O O3 0.449269 0.568043 0.146869
O O4 0.955612 0.592166 0.808140
O O5 0.253905 0.500000 0.647536
O O6 0.196419 0.399399 0.506952
O O7 0.319650 0.412681 0.830770
O O8 0.692940 0.427840 0.009592
O O9 0.596207 0.231499 0.144182
O O10 0.556498 0.115278 0.190955
O O11 0.210847 0.148076 0.744139
O O12 0.169297 0.199734 0.888731
O O13 0.318212 0.207089 0.669976
O O14 0.236197 0.862792 0.270894
O O15 0.402326 0.781626 0.550825
O O16 0.851437 0.806397 0.048266
O O17 0.152448 0.000000 0.180385
O O18 0.617392 0.000000 0.321029
#
# Coordination Sequence:
#
# PCOD9132765 Si02
#       8
#     4   4   4   4   4   4   4   4
#     4  11  24  40  66 100 137 173 217 270 329 392
#     4   9  21  38  63  93 126 165 215 267 325 381
#     4  10  27  41  71  91 131 176 216 266 338 379
#     4  12  23  44  67  94 136 172 220 272 322 399
#     4  10  22  43  61  92 129 162 215 263 325 385
#     4  10  20  41  67  96 132 172 212 270 332 389
#     4  10  22  42  62  92 128 166 218 272 313 385
#     4  10  22  43  61  90 132 160 219 270 314 384
#
# _framework density 24.732609
#
# number of rings (size 3 to 8) (size 9 to 14) (size 15 to 20)
#    0.750    1.000    2.500    0.375    3.500    4.000 
#    0.000    6.875    0.000    0.000    0.000    0.000 
#    0.000    0.000    0.000    0.000    0.000    0.000 
#
# Total GULP energy -89256.084764 kJ/mol
# GULP energy per Si atom -5578.505298 kJ/mol
# Density = 2.467632 g / cm^3
# Si number density = 24.732609 Si / 1000 Ang^3
#
#
#
# Elastic Constant Matrix: (Units=GPa)
#
#
# Indices 1 2 3 4 5 6 
#
# 1 71.5238 29.9322 23.2779 -0.0017 -24.6648 -0.0025
# 2 29.9322 139.5174 25.8087 0.0004 -20.1878 -0.0010
# 3 23.2779 25.8087 125.7320 -0.0029 -18.7049 -0.0027
# 4 -0.0017 0.0004 -0.0029 24.9679 0.0002 -12.5839
# 5 -24.6648 -20.1878 -18.7049 0.0002 44.9368 -0.0005
# 6 -0.0025 -0.0010 -0.0027 -12.5839 -0.0005 17.8485
#
#
#
# Elastic Compliance Matrix: (Units=1/GPa)
#
#
# Indices 1 2 3 4 5 6 
#
# 1 0.018413 -0.002438 -0.001671 0.000003 0.008316 0.000005
# 2 -0.002438 0.008143 -0.000933 -0.000001 0.001932 0.000000
# 3 -0.001671 -0.000933 0.008800 0.000002 0.002327 0.000003
# 4 0.000003 -0.000001 0.000002 0.062128 0.000003 0.043802
# 5 0.008316 0.001932 0.002327 0.000003 0.028654 0.000004
# 6 0.000005 0.000000 0.000003 0.043802 0.000004 0.086909
#
#
# Mechanical properties :
#
#
# Convention : Reuss Voigt Hill
#
# Bulk Modulus (GPa) = 39.56925 54.97897 47.27411
# Shear Modulus (GPa) = 21.59309 34.73427 28.16368
#
# Velocity S-wave (km/s) = 2.95797 3.75159 3.37816
# Velocity P-wave (km/s) = 5.26305 6.40652 5.86273
#
# Compressibility (1/GPa) = 0.02527215
#
# Stress axis : x y z
#
# Youngs Moduli (GPa) = 54.30875 122.81014 113.63017
#
# Poissons Ratio (x) = 0.29941 0.18993
# Poissons Ratio (y) = 0.13240 0.10598
# Poissons Ratio (z) = 0.09078 0.11454
#
# Static dielectric constant tensor:
#      x y z
#    x 2.004760 0.000000 0.046430 
#    y 0.000000 2.021860 0.000000 
#    z 0.046430 0.000000 1.921650 
# 
# From -- ./inp_files/27078.got.cif
#   From: 2010.05.17/outbox.cif.g08.bks.cpg/sg8_14_cif.got.tgz:27078.got - 2010.06.03 19:46:02.
