data_PCOD9132194
_publ_section_title
;
Structure prediction by ZEFSAII (Michael W. Deem and Ramdas Pophale) SiO2 
 PCOD9132194
Probable space group: C M
;
_chemical_formula_sum "Si O2"
_cell_formula_units_Z 32
_cell_length_a 25.565995
_cell_length_b 8.738070
_cell_length_c 24.534887
_cell_angle_alpha 90.000000
_cell_angle_beta 17.778377
_cell_angle_gamma 90.000000
_cell_volume 1673.555932
_symmetry_space_group_name_H-M "C M"
_symmetry_group_IT_number 8
_symmetry_cell_setting 'monoclinic'
loop_
_space_group_symop_operation_xyz
x,y,z
x,-y,z
1/2+x,1/2+y,z
1/2+x,1/2-y,z
loop_
_atom_site_type_symbol
_atom_site_label
_atom_site_fract_x
_atom_site_fract_y
_atom_site_fract_z
Si Si1 0.768930 0.316931 0.823070
Si Si2 0.655259 0.682037 0.560490
Si Si3 0.246579 0.680489 0.962016
Si Si4 0.440446 0.315354 0.078854
Si Si5 0.148561 0.818776 0.172143
Si Si6 0.798205 0.684974 0.533440
Si Si7 0.456572 0.315675 0.936465
Si Si8 0.148549 0.184384 0.445615
O O1 0.788100 0.500000 0.803362
O O2 0.708994 0.262783 0.942453
O O3 0.954906 0.242801 0.627872
O O4 0.621686 0.272165 0.926492
O O5 0.688707 0.500000 0.526728
O O6 0.450600 0.700897 0.769536
O O7 0.746163 0.741893 0.524348
O O8 0.700869 0.739988 0.454909
O O9 0.211754 0.500000 0.991360
O O10 0.152848 0.746807 0.107415
O O11 0.426989 0.500000 0.095426
O O12 0.284149 0.243807 0.267504
O O13 0.437525 0.271805 0.018355
O O14 0.977544 0.758676 0.370792
O O15 0.149746 0.000000 0.167010
O O16 0.313098 0.760546 0.041587
O O17 0.815018 0.500000 0.515590
O O18 0.643408 0.722667 0.727473
O O19 0.437509 0.500000 0.950846
O O20 0.145315 0.000000 0.449422
#
# Coordination Sequence:
#
# PCOD9132194 Si02
#       8
#     4   4   4   4   4   4   4   4
#     4  10  21  38  59  91 128 158 196 253 308 353
#     4   8  16  33  58  87 116 150 198 245 286 342
#     4  10  19  37  62  88 121 161 204 246 294 362
#     4  10  23  41  63  89 119 158 206 254 300 354
#     4  12  25  38  57  92 128 157 192 247 313 366
#     4  10  20  38  63  88 115 157 207 249 292 358
#     4  10  22  44  67  85 113 161 212 252 295 356
#     4  10  21  37  59  90 124 162 203 244 296 361
#
# _framework density 19.120961999999999
#
# number of rings (size 3 to 8) (size 9 to 14) (size 15 to 20)
#    0.000    2.000    1.250    3.000    1.750    3.000 
#    0.000    3.125    0.000    0.000    0.000    0.000 
#    0.000    0.000    0.000    0.000    0.000    0.000 
#
# Total GULP energy -89365.157086 kJ/mol
# GULP energy per Si atom -5585.322318 kJ/mol
# Density = 1.907744 g / cm^3
# Si number density = 19.120962 Si / 1000 Ang^3
#
#
#
# Elastic Constant Matrix: (Units=GPa)
#
#
# Indices 1 2 3 4 5 6 
#
# 1 61.4133 16.7621 32.7972 -0.0045 23.2736 0.0002
# 2 16.7621 30.2872 27.9653 -0.0136 8.6045 0.0024
# 3 32.7972 27.9653 103.1463 -0.0137 26.4202 0.0029
# 4 -0.0045 -0.0136 -0.0137 23.5678 0.0022 0.8736
# 5 23.2736 8.6045 26.4202 0.0022 22.2211 0.0002
# 6 0.0002 0.0024 0.0029 0.8736 0.0002 23.5593
#
#
#
# Elastic Compliance Matrix: (Units=1/GPa)
#
#
# Indices 1 2 3 4 5 6 
#
# 1 0.028728 -0.008251 -0.000013 0.000003 -0.026879 0.000001
# 2 -0.008251 0.046675 -0.010950 0.000019 0.003588 -0.000004
# 3 -0.000013 -0.010950 0.016649 0.000005 -0.015541 -0.000001
# 4 0.000003 0.000019 0.000005 0.042489 -0.000021 -0.001575
# 5 -0.026879 0.003588 -0.015541 -0.000021 0.090243 0.000002
# 6 0.000001 -0.000004 -0.000001 -0.001575 0.000002 0.042505
#
#
# Mechanical properties :
#
#
# Convention : Reuss Voigt Hill
#
# Bulk Modulus (GPa) = 18.64852 38.87735 28.76293
# Shear Modulus (GPa) = 15.45158 21.69110 18.57134
#
# Velocity S-wave (km/s) = 2.84579 3.37176 3.11988
# Velocity P-wave (km/s) = 4.53565 5.96111 5.29655
#
# Compressibility (1/GPa) = 0.05362357
#
# Stress axis : x y z
#
# Youngs Moduli (GPa) = 34.80907 21.42467 60.06506
#
# Poissons Ratio (x) = 0.17678 0.00076
# Poissons Ratio (y) = 0.28722 0.65771
# Poissons Ratio (z) = 0.00044 0.23460
#
# Static dielectric constant tensor:
#      x y z
#    x 1.660540 0.000000 -0.002130 
#    y 0.000000 1.646110 0.000000 
#    z -0.002130 0.000000 1.657380 
# 
# From -- ./inp_files/32376.got.cif
#   From: 2010.05.17/outbox.cif.g08.bks.cpg/sg8_17_cif.got.tgz:32376.got - 2010.06.03 19:46:02.
