data_PCOD9132599
_publ_section_title
;
Structure prediction by ZEFSAII (Michael W. Deem and Ramdas Pophale) SiO2 
 PCOD9132599
Probable space group: C M
;
_chemical_formula_sum "Si O2"
_cell_formula_units_Z 28
_cell_length_a 7.610260
_cell_length_b 18.991480
_cell_length_c 14.637647
_cell_angle_alpha 90.000000
_cell_angle_beta 144.040764
_cell_angle_gamma 90.000000
_cell_volume 1242.289055
_symmetry_space_group_name_H-M "C M"
_symmetry_group_IT_number 8
_symmetry_cell_setting 'monoclinic'
loop_
_space_group_symop_operation_xyz
x,y,z
x,-y,z
1/2+x,1/2+y,z
1/2+x,1/2-y,z
loop_
_atom_site_type_symbol
_atom_site_label
_atom_site_fract_x
_atom_site_fract_y
_atom_site_fract_z
Si Si1 0.855790 0.080915 0.207580
Si Si2 0.818110 0.920202 0.643073
Si Si3 0.485255 0.915403 0.886698
Si Si4 0.757038 0.418253 0.079457
Si Si5 0.106012 0.810120 0.447683
Si Si6 0.659065 0.864613 0.762810
Si Si7 0.090644 0.340417 0.374841
O O1 0.543660 0.079976 0.133498
O O2 0.073297 0.130319 0.356465
O O3 0.964773 0.000000 0.247637
O O4 0.754105 0.108907 0.065664
O O5 0.677215 0.916502 0.683847
O O6 0.660985 0.874151 0.501217
O O7 0.163768 0.895539 0.792446
O O8 0.820145 0.000000 0.610721
O O9 0.507722 0.891045 0.792126
O O10 0.502423 0.000000 0.896719
O O11 0.643134 0.500000 0.036375
O O12 0.874243 0.390019 0.225381
O O13 0.506774 0.363515 0.938590
O O14 0.443858 0.804109 0.630210
O O15 0.988117 0.738543 0.353362
O O16 0.890124 0.832423 0.439620
#
# Coordination Sequence:
#
# PCOD9132599 Si02
#       7
#     4   4   4   4   4   4   4
#     4   9  20  41  67  95 131 174 220 277 339 394
#     4  11  22  40  67  98 134 172 215 279 333 388
#     4  10  20  37  63  98 132 164 212 273 328 385
#     4  10  21  41  69  99 131 172 223 281 338 399
#     4  11  25  44  66  96 136 181 226 278 330 405
#     4  12  23  40  66 102 133 173 222 271 333 400
#     4  11  24  47  64  94 137 180 230 271 337 399
#
# _framework density 22.539037
#
# number of rings (size 3 to 8) (size 9 to 14) (size 15 to 20)
#    0.000    1.429    2.857    2.571    0.000    4.571 
#    2.571    2.857    0.000    0.000    0.000    0.000 
#    0.000    0.000    0.000    0.000    0.000    0.000 
#
# Total GULP energy -78179.881080 kJ/mol
# GULP energy per Si atom -5584.277220 kJ/mol
# Density = 2.248774 g / cm^3
# Si number density = 22.539037 Si / 1000 Ang^3
#
#
#
# Elastic Constant Matrix: (Units=GPa)
#
#
# Indices 1 2 3 4 5 6 
#
# 1 100.1565 21.9941 32.4239 0.0002 -16.0017 0.0006
# 2 21.9941 46.3374 28.0839 -0.0003 -17.3396 0.0003
# 3 32.4239 28.0839 117.0614 0.0015 -27.6035 0.0030
# 4 0.0002 -0.0003 0.0015 11.4369 0.0004 -0.0148
# 5 -16.0017 -17.3396 -27.6035 0.0004 43.1271 0.0010
# 6 0.0006 0.0003 0.0030 -0.0148 0.0010 19.7249
#
#
#
# Elastic Compliance Matrix: (Units=1/GPa)
#
#
# Indices 1 2 3 4 5 6 
#
# 1 0.011700 -0.003777 -0.001966 0.000000 0.001565 0.000000
# 2 -0.003777 0.028644 -0.004052 0.000001 0.007522 0.000000
# 3 -0.001966 -0.004052 0.011192 -0.000002 0.004805 -0.000002
# 4 0.000000 0.000001 -0.000002 0.087436 -0.000001 0.000065
# 5 0.001565 0.007522 0.004805 -0.000001 0.029867 -0.000002
# 6 0.000000 0.000000 -0.000002 0.000065 -0.000002 0.050697
#
#
# Mechanical properties :
#
#
# Convention : Reuss Voigt Hill
#
# Bulk Modulus (GPa) = 31.30177 47.61770 39.45974
# Shear Modulus (GPa) = 20.01799 26.92801 23.47300
#
# Velocity S-wave (km/s) = 2.98341 3.46023 3.23063
# Velocity P-wave (km/s) = 5.07796 6.09401 5.60903
#
# Compressibility (1/GPa) = 0.03194707
#
# Stress axis : x y z
#
# Youngs Moduli (GPa) = 85.46979 34.91132 89.34805
#
# Poissons Ratio (x) = 0.13185 0.17564
# Poissons Ratio (y) = 0.32278 0.36206
# Poissons Ratio (z) = 0.16801 0.14147
#
# Static dielectric constant tensor:
#      x y z
#    x 1.866690 0.000000 0.038690 
#    y 0.000000 1.786230 0.000000 
#    z 0.038690 0.000000 1.856690 
# 
# From -- ./inp_files/25632.got.cif
#   From: 2010.05.17/outbox.cif.g08.bks.cpg/sg8_13_cif.got.tgz:25632.got - 2010.06.03 19:46:02.
