data_PCOD9132004
_publ_section_title
;
Structure prediction by ZEFSAII (Michael W. Deem and Ramdas Pophale) SiO2 
 PCOD9132004
Probable space group: C M
;
_chemical_formula_sum "Si O2"
_cell_formula_units_Z 28
_cell_length_a 20.360885
_cell_length_b 9.716984
_cell_length_c 14.635018
_cell_angle_alpha 90.000000
_cell_angle_beta 26.252232
_cell_angle_gamma 90.000000
_cell_volume 1280.741667
_symmetry_space_group_name_H-M "C M"
_symmetry_group_IT_number 8
_symmetry_cell_setting 'monoclinic'
loop_
_space_group_symop_operation_xyz
x,y,z
x,-y,z
1/2+x,1/2+y,z
1/2+x,1/2-y,z
loop_
_atom_site_type_symbol
_atom_site_label
_atom_site_fract_x
_atom_site_fract_y
_atom_site_fract_z
Si Si1 0.207550 0.268900 0.759590
Si Si2 0.387676 0.160892 0.081236
Si Si3 0.607722 0.161608 0.077921
Si Si4 0.256347 0.851454 0.515286
Si Si5 0.007218 0.334624 0.746119
Si Si6 0.570505 0.664370 0.505372
Si Si7 0.036908 0.153776 0.334686
O O1 0.231184 0.147091 0.656748
O O2 0.357218 0.351574 0.548083
O O3 0.045498 0.323567 0.932604
O O4 0.193027 0.264337 0.887592
O O5 0.397829 0.210442 0.964302
O O6 0.360059 0.000000 0.107570
O O7 0.240631 0.211324 0.313773
O O8 0.430366 0.160746 0.277610
O O9 0.608916 0.242835 0.172160
O O10 0.654064 0.000000 0.024851
O O11 0.161941 0.725395 0.593983
O O12 0.203842 0.000000 0.543785
O O13 0.010233 0.500000 0.733131
O O14 0.974469 0.255017 0.693759
O O15 0.546289 0.500000 0.547682
O O16 0.552746 0.694236 0.420602
O O17 0.098496 0.000000 0.244927
#
# Coordination Sequence:
#
# PCOD9132004 Si02
#       7
#     4   4   4   4   4   4   4
#     4  10  19  34  57  81 106 139 178 219 265 315
#     4   9  18  34  55  77 105 141 176 209 262 329
#     4  10  20  34  55  79 108 146 180 213 267 327
#     4   9  19  35  54  81 112 141 176 219 265 319
#     4  10  20  34  55  81 107 140 179 221 266 316
#     4  10  21  38  56  76 107 146 180 218 268 319
#     4  10  22  37  54  79 109 139 181 229 265 305
#
# _framework density 21.862331999999999
#
# number of rings (size 3 to 8) (size 9 to 14) (size 15 to 20)
#    0.000    2.286    0.000    2.571    0.000    8.571 
#    0.000    6.429    0.000    0.000    0.000    0.000 
#    0.000    0.000    0.000    0.000    0.000    0.000 
#
# Total GULP energy -77993.346440 kJ/mol
# GULP energy per Si atom -5570.953317 kJ/mol
# Density = 2.181257 g / cm^3
# Si number density = 21.862332 Si / 1000 Ang^3
#
#
#
# Elastic Constant Matrix: (Units=GPa)
#
#
# Indices 1 2 3 4 5 6 
#
# 1 106.2598 40.8741 35.2889 0.0000 37.2399 0.0000
# 2 40.8741 69.5684 28.5569 0.0000 24.8738 0.0000
# 3 35.2889 28.5569 114.7034 0.0000 28.1159 0.0000
# 4 0.0000 0.0000 0.0000 7.6655 0.0000 1.0974
# 5 37.2399 24.8738 28.1159 0.0000 55.1872 0.0000
# 6 0.0000 0.0000 0.0000 1.0974 0.0000 -2.9483
#
#
#
# Elastic Compliance Matrix: (Units=1/GPa)
#
#
# Indices 1 2 3 4 5 6 
#
# 1 0.014246 -0.005487 -0.001447 0.000000 -0.006403 0.000000
# 2 -0.005487 0.020020 -0.002276 0.000000 -0.004161 0.000000
# 3 -0.001447 -0.002276 0.010558 0.000000 -0.003376 0.000000
# 4 0.000000 0.000000 0.000000 0.123854 0.000000 0.046101
# 5 -0.006403 -0.004161 -0.003376 0.000000 0.026036 0.000000
# 6 0.000000 0.000000 0.000000 0.046101 0.000000 -0.322018
#
#
# Mechanical properties :
#
#
# Convention : Reuss Voigt Hill
#
# Bulk Modulus (GPa) = 37.87414 55.55239 46.71326
# Shear Modulus (GPa) = -49.95940 24.36834 -12.79553
#
# Velocity S-wave (km/s) = -4.78554 3.34222 -2.42188
# Velocity P-wave (km/s) = 3.62956 6.35289 3.68684
#
# Compressibility (1/GPa) = 0.02640324
#
# Stress axis : x y z
#
# Youngs Moduli (GPa) = 70.19513 49.94947 94.71769
#
# Poissons Ratio (x) = 0.27406 0.13710
# Poissons Ratio (y) = 0.38514 0.21560
# Poissons Ratio (z) = 0.10160 0.11370
#
# Static dielectric constant tensor:
#      x y z
#    x 1.904470 0.000000 -0.040630 
#    y 0.000000 1.770120 0.000000 
#    z -0.040630 0.000000 1.850150 
# 
# From -- ./inp_files/27824.got.cif
#   From: 2010.05.17/outbox.cif.g08.bks.cpg/sg8_14_cif.got.tgz:27824.got - 2010.06.03 19:46:02.
