data_PCOD9132384
_publ_section_title
;
Structure prediction by ZEFSAII (Michael W. Deem and Ramdas Pophale) SiO2 
 PCOD9132384
Probable space group: C M
;
_chemical_formula_sum "Si O2"
_cell_formula_units_Z 32
_cell_length_a 20.449443
_cell_length_b 8.931439
_cell_length_c 25.412196
_cell_angle_alpha 90.000000
_cell_angle_beta 23.230721
_cell_angle_gamma 90.000000
_cell_volume 1830.712747
_symmetry_space_group_name_H-M "C M"
_symmetry_group_IT_number 8
_symmetry_cell_setting 'monoclinic'
loop_
_space_group_symop_operation_xyz
x,y,z
x,-y,z
1/2+x,1/2+y,z
1/2+x,1/2-y,z
loop_
_atom_site_type_symbol
_atom_site_label
_atom_site_fract_x
_atom_site_fract_y
_atom_site_fract_z
Si Si1 0.701710 0.321526 0.887360
Si Si2 0.518762 0.321923 0.364362
Si Si3 0.397898 0.178545 0.056297
Si Si4 0.903315 0.821101 0.828393
Si Si5 0.013069 0.820726 0.862587
Si Si6 0.488257 0.320764 0.603328
Si Si7 0.729078 0.677635 0.517963
Si Si8 0.403746 0.821220 0.558519
O O1 0.704378 0.500000 0.881817
O O2 0.766836 0.265982 0.895747
O O3 0.832371 0.253289 0.748660
O O4 0.523078 0.257983 0.004051
O O5 0.504953 0.500000 0.381531
O O6 0.707377 0.285708 0.209770
O O7 0.390472 0.267881 0.414775
O O8 0.467090 0.241024 0.456440
O O9 0.420930 0.000000 0.042432
O O10 0.445664 0.235509 0.962950
O O11 0.918321 0.783059 0.878561
O O12 0.081256 0.791160 0.669108
O O13 0.875209 0.000000 0.843910
O O14 0.207702 0.787885 0.710007
O O15 0.999007 0.000000 0.881434
O O16 0.465168 0.500000 0.619716
O O17 0.648703 0.288569 0.520740
O O18 0.495228 0.255432 0.539936
O O19 0.763887 0.500000 0.495122
O O20 0.423210 0.000000 0.546022
#
# Coordination Sequence:
#
# PCOD9132384 Si02
#       8
#     4   4   4   4   4   4   4   4
#     4  11  21  34  55  85 115 147 190 235 284 336
#     4  11  24  39  57  83 116 154 194 233 283 340
#     4  11  24  40  57  81 116 156 193 233 283 341
#     4   9  18  35  57  83 115 146 181 231 286 340
#     4  10  20  36  59  87 114 144 189 237 284 337
#     4  10  20  35  57  85 116 149 186 232 283 336
#     4   9  18  35  57  82 114 149 186 229 282 337
#     4  11  21  36  59  88 116 145 191 240 281 333
#
# _framework density 17.479531000000001
#
# number of rings (size 3 to 8) (size 9 to 14) (size 15 to 20)
#    0.000    1.750    2.500    3.375    0.000    5.500 
#    0.000    1.250    0.000    1.500    0.000    0.000 
#    0.000    0.000    0.000    0.000    0.000    0.000 
#
# Total GULP energy -89363.437039 kJ/mol
# GULP energy per Si atom -5585.214815 kJ/mol
# Density = 1.743975 g / cm^3
# Si number density = 17.479531 Si / 1000 Ang^3
#
#
#
# Elastic Constant Matrix: (Units=GPa)
#
#
# Indices 1 2 3 4 5 6 
#
# 1 139.1478 73.1479 71.0009 0.0002 -18.6907 -0.0001
# 2 73.1479 84.0712 72.1938 -0.0002 -12.3731 0.0003
# 3 71.0009 72.1938 103.8357 -0.0002 -14.1517 0.0004
# 4 0.0002 -0.0002 -0.0002 23.1559 -0.0001 -2.5261
# 5 -18.6907 -12.3731 -14.1517 -0.0001 24.9943 0.0000
# 6 -0.0001 0.0003 0.0004 -2.5261 0.0000 34.6898
#
#
#
# Elastic Compliance Matrix: (Units=1/GPa)
#
#
# Indices 1 2 3 4 5 6 
#
# 1 0.013964 -0.009473 -0.002360 0.000000 0.004416 0.000000
# 2 -0.009473 0.036189 -0.018647 0.000000 0.000274 0.000000
# 3 -0.002360 -0.018647 0.024609 0.000000 0.002938 0.000000
# 4 0.000000 0.000000 0.000000 0.043531 0.000000 0.003170
# 5 0.004416 0.000274 0.002938 0.000000 0.045111 0.000000
# 6 0.000000 0.000000 0.000000 0.003170 0.000000 0.029058
#
#
# Mechanical properties :
#
#
# Convention : Reuss Voigt Hill
#
# Bulk Modulus (GPa) = 72.44729 84.41554 78.43142
# Shear Modulus (GPa) = 19.37815 23.94880 21.66348
#
# Velocity S-wave (km/s) = 3.33321 3.70551 3.52428
# Velocity P-wave (km/s) = 7.50670 8.16741 7.84401
#
# Compressibility (1/GPa) = 0.01380314
#
# Stress axis : x y z
#
# Youngs Moduli (GPa) = 71.61364 27.63245 40.63509
#
# Poissons Ratio (x) = 0.26176 0.09590
# Poissons Ratio (y) = 0.67839 0.75771
# Poissons Ratio (z) = 0.16902 0.51525
#
# Static dielectric constant tensor:
#      x y z
#    x 1.598330 0.000000 -0.010160 
#    y 0.000000 1.581790 0.000000 
#    z -0.010160 0.000000 1.566320 
# 
# From -- ./inp_files/31362.got.cif
#   From: 2010.05.17/outbox.cif.g08.bks.cpg/sg8_16_cif.got.tgz:31362.got - 2010.06.03 19:46:02.
