data_PCOD9132098
_publ_section_title
;
Structure prediction by ZEFSAII (Michael W. Deem and Ramdas Pophale) SiO2 
 PCOD9132098
Probable space group: C M
;
_chemical_formula_sum "Si O2"
_cell_formula_units_Z 32
_cell_length_a 15.484287
_cell_length_b 8.637912
_cell_length_c 23.310895
_cell_angle_alpha 90.000000
_cell_angle_beta 31.657600
_cell_angle_gamma 90.000000
_cell_volume 1636.392298
_symmetry_space_group_name_H-M "C M"
_symmetry_group_IT_number 8
_symmetry_cell_setting 'monoclinic'
loop_
_space_group_symop_operation_xyz
x,y,z
x,-y,z
1/2+x,1/2+y,z
1/2+x,1/2-y,z
loop_
_atom_site_type_symbol
_atom_site_label
_atom_site_fract_x
_atom_site_fract_y
_atom_site_fract_z
Si Si1 0.676370 0.685871 0.452450
Si Si2 0.958268 0.185764 0.467465
Si Si3 0.240784 0.680992 0.232860
Si Si4 0.332394 0.184523 0.850985
Si Si5 0.966448 0.181715 0.218920
Si Si6 0.622715 0.314611 0.612940
Si Si7 0.829352 0.311591 0.981948
Si Si8 0.989887 0.683978 0.005685
O O1 0.670885 0.500000 0.455996
O O2 0.545843 0.737981 0.477416
O O3 0.856179 0.736543 0.329088
O O4 0.637148 0.740634 0.538713
O O5 0.774565 0.245618 0.562919
O O6 0.070295 0.250913 0.352399
O O7 0.961169 0.000000 0.464423
O O8 0.223364 0.500000 0.228365
O O9 0.366012 0.694411 0.216053
O O10 0.325319 0.772799 0.133573
O O11 0.453149 0.263629 0.737680
O O12 0.368631 0.239023 0.895475
O O13 0.354578 0.000000 0.835752
O O14 0.143912 0.226462 0.944579
O O15 0.977644 0.000000 0.227209
O O16 0.149060 0.243552 0.104140
O O17 0.635040 0.500000 0.606112
O O18 0.819075 0.500000 0.986105
O O19 0.960456 0.271370 0.956261
O O20 0.017940 0.500000 0.993719
#
# Coordination Sequence:
#
# PCOD9132098 Si02
#       8
#     4   4   4   4   4   4   4   4
#     4   9  21  39  58  85 121 156 193 241 294 348
#     4  10  21  39  61  88 118 157 201 241 292 353
#     4  10  19  35  59  88 124 159 192 242 298 349
#     4  11  23  44  64  83 117 160 203 244 294 353
#     4   9  17  34  59  85 118 156 194 237 289 350
#     4  11  24  42  62  88 120 156 199 247 298 349
#     4   9  20  38  59  85 117 156 196 240 294 351
#     4  11  22  37  60  90 119 154 198 246 297 351
#
# _framework density 19.555212999999998
#
# number of rings (size 3 to 8) (size 9 to 14) (size 15 to 20)
#    0.000    2.000    1.250    1.875    1.750    3.000 
#    0.000    8.125    0.000    0.000    0.000    0.000 
#    0.000    0.000    0.000    0.000    0.000    0.000 
#
# Total GULP energy -89372.241485 kJ/mol
# GULP energy per Si atom -5585.765093 kJ/mol
# Density = 1.951070 g / cm^3
# Si number density = 19.555213 Si / 1000 Ang^3
#
#
#
# Elastic Constant Matrix: (Units=GPa)
#
#
# Indices 1 2 3 4 5 6 
#
# 1 63.5272 12.3627 11.3895 0.0001 27.8141 0.0000
# 2 12.3627 22.7081 -0.9305 -0.0001 3.0638 0.0000
# 3 11.3895 -0.9305 62.2876 -0.0002 23.1710 0.0000
# 4 0.0001 -0.0001 -0.0002 34.8579 0.0000 -1.6994
# 5 27.8141 3.0638 23.1710 0.0000 29.8407 0.0000
# 6 0.0000 0.0000 0.0000 -1.6994 0.0000 21.0861
#
#
#
# Elastic Compliance Matrix: (Units=1/GPa)
#
#
# Indices 1 2 3 4 5 6 
#
# 1 0.031449 -0.012418 0.006320 0.000000 -0.032946 0.000000
# 2 -0.012418 0.050057 0.000878 0.000000 0.005753 0.000000
# 3 0.006320 0.000878 0.024098 0.000000 -0.024692 0.000000
# 4 0.000000 0.000000 0.000000 0.028801 0.000000 0.002321
# 5 -0.032946 0.005753 -0.024692 0.000000 0.082802 0.000000
# 6 0.000000 0.000000 0.000000 0.002321 0.000000 0.047612
#
#
# Mechanical properties :
#
#
# Convention : Reuss Voigt Hill
#
# Bulk Modulus (GPa) = 10.50805 21.57405 16.04105
# Shear Modulus (GPa) = 16.28772 25.53702 20.91237
#
# Velocity S-wave (km/s) = 2.88915 3.61763 3.27372
# Velocity P-wave (km/s) = 4.06384 5.33910 4.74451
#
# Compressibility (1/GPa) = 0.09516515
#
# Stress axis : x y z
#
# Youngs Moduli (GPa) = 31.79713 19.97714 41.49794
#
# Poissons Ratio (x) = 0.24807 -0.26225
# Poissons Ratio (y) = 0.39484 -0.03645
# Poissons Ratio (z) = -0.20095 -0.01755
#
# Static dielectric constant tensor:
#      x y z
#    x 1.704120 0.000000 0.006100 
#    y 0.000000 1.661070 0.000000 
#    z 0.006100 0.000000 1.646530 
# 
# From -- ./inp_files/28198.got.cif
#   From: 2010.05.17/outbox.cif.g08.bks.cpg/sg8_15_cif.got.tgz:28198.got - 2010.06.03 19:46:02.
