data_PCOD9132756
_publ_section_title
;
Structure prediction by ZEFSAII (Michael W. Deem and Ramdas Pophale) SiO2 
 PCOD9132756
Probable space group: C M
;
_chemical_formula_sum "Si O2"
_cell_formula_units_Z 28
_cell_length_a 7.607986
_cell_length_b 26.270685
_cell_length_c 8.452360
_cell_angle_alpha 90.000000
_cell_angle_beta 133.390800
_cell_angle_gamma 90.000000
_cell_volume 1227.623734
_symmetry_space_group_name_H-M "C M"
_symmetry_group_IT_number 8
_symmetry_cell_setting 'monoclinic'
loop_
_space_group_symop_operation_xyz
x,y,z
x,-y,z
1/2+x,1/2+y,z
1/2+x,1/2-y,z
loop_
_atom_site_type_symbol
_atom_site_label
_atom_site_fract_x
_atom_site_fract_y
_atom_site_fract_z
Si Si1 0.186360 0.872002 0.468090
Si Si2 0.468106 0.121546 0.179757
Si Si3 0.886703 0.058181 0.034549
Si Si4 0.712155 0.127186 0.645823
Si Si5 0.340076 0.056329 0.833318
Si Si6 0.275941 0.693647 0.149905
Si Si7 0.538363 0.696182 0.987691
O O1 0.454776 0.862002 0.570382
O O2 0.204099 0.902527 0.642240
O O3 0.052933 0.909225 0.257976
O O4 0.033144 0.820016 0.390468
O O5 0.649291 0.107957 0.432406
O O6 0.598401 0.153334 0.120955
O O7 0.267574 0.159057 0.127224
O O8 0.352981 0.073542 0.022352
O O9 0.974847 0.000000 0.073275
O O10 0.845818 0.086520 0.841627
O O11 0.617416 0.055640 0.942837
O O12 0.877448 0.178026 0.739677
O O13 0.237422 0.000000 0.748798
O O14 0.351984 0.686447 0.015291
O O15 0.146646 0.747944 0.076447
#
# Coordination Sequence:
#
# PCOD9132756 Si02
#       7
#     4   4   4   4   4   4   4
#     4  11  21  46  75 105 148 189 240 306 360 429
#     4  12  25  46  74 105 151 192 242 303 359 439
#     4  10  20  40  74 107 146 194 242 296 363 432
#     4  11  24  45  70 104 151 185 243 300 360 432
#     4  10  23  42  72 111 148 196 245 296 364 432
#     4  12  24  49  72 101 145 188 243 301 366 426
#     4  12  26  50  69 107 141 192 252 296 368 438
#
# _framework density 22.80829
#
# number of rings (size 3 to 8) (size 9 to 14) (size 15 to 20)
#    0.000    0.857    5.714    1.286    2.000    1.143 
#    7.714    2.143    0.000    0.000    0.000    0.000 
#    0.000    0.000    0.000    0.000    0.000    0.000 
#
# Total GULP energy -78227.115511 kJ/mol
# GULP energy per Si atom -5587.651108 kJ/mol
# Density = 2.275638 g / cm^3
# Si number density = 22.808290 Si / 1000 Ang^3
#
#
#
# Elastic Constant Matrix: (Units=GPa)
#
#
# Indices 1 2 3 4 5 6 
#
# 1 98.0392 21.5186 22.2244 0.0000 4.3425 0.0000
# 2 21.5186 111.3524 58.8403 0.0000 -3.5906 0.0000
# 3 22.2244 58.8403 151.6665 0.0000 -11.3162 0.0000
# 4 0.0000 0.0000 0.0000 32.7804 0.0000 10.9073
# 5 4.3425 -3.5906 -11.3162 0.0000 39.8195 0.0000
# 6 0.0000 0.0000 0.0000 10.9073 0.0000 26.3269
#
#
#
# Elastic Compliance Matrix: (Units=1/GPa)
#
#
# Indices 1 2 3 4 5 6 
#
# 1 0.010868 -0.001568 -0.001106 0.000000 -0.001641 0.000000
# 2 -0.001568 0.011525 -0.004241 0.000000 0.000005 0.000000
# 3 -0.001106 -0.004241 0.008563 0.000000 0.002172 0.000000
# 4 0.000000 0.000000 0.000000 0.035384 0.000000 -0.014660
# 5 -0.001641 0.000005 0.002172 0.000000 0.025910 0.000000
# 6 0.000000 0.000000 0.000000 -0.014660 0.000000 0.044057
#
#
# Mechanical properties :
#
#
# Convention : Reuss Voigt Hill
#
# Bulk Modulus (GPa) = 58.39830 62.91385 60.65608
# Shear Modulus (GPa) = 32.08293 37.01702 34.54998
#
# Velocity S-wave (km/s) = 3.75458 4.03297 3.89626
# Velocity P-wave (km/s) = 6.66749 7.02354 6.84783
#
# Compressibility (1/GPa) = 0.01712378
#
# Stress axis : x y z
#
# Youngs Moduli (GPa) = 92.01521 86.77010 116.78311
#
# Poissons Ratio (x) = 0.13609 0.12922
# Poissons Ratio (y) = 0.14432 0.49527
# Poissons Ratio (z) = 0.10181 0.36798
#
# Static dielectric constant tensor:
#      x y z
#    x 1.891430 0.000000 -0.008600 
#    y 0.000000 1.874760 0.000000 
#    z -0.008600 0.000000 1.869560 
# 
# From -- ./inp_files/9240.got.cif
#   From: 2010.05.17/outbox.cif.g08.bks.cpg/sg8_5_cif.got.tgz:9240.got - 2010.06.03 19:46:02.
