data_PCOD9132139
_publ_section_title
;
Structure prediction by ZEFSAII (Michael W. Deem and Ramdas Pophale) SiO2 
 PCOD9132139
Probable space group: C M
;
_chemical_formula_sum "Si O2"
_cell_formula_units_Z 32
_cell_length_a 24.545539
_cell_length_b 7.426943
_cell_length_c 9.971015
_cell_angle_alpha 90.000000
_cell_angle_beta 127.677584
_cell_angle_gamma 90.000000
_cell_volume 1438.641215
_symmetry_space_group_name_H-M "C M"
_symmetry_group_IT_number 8
_symmetry_cell_setting 'monoclinic'
loop_
_space_group_symop_operation_xyz
x,y,z
x,-y,z
1/2+x,1/2+y,z
1/2+x,1/2-y,z
loop_
_atom_site_type_symbol
_atom_site_label
_atom_site_fract_x
_atom_site_fract_y
_atom_site_fract_z
Si Si1 0.021920 0.279945 0.104240
Si Si2 0.373469 0.782921 0.984039
Si Si3 0.663141 0.779369 0.825629
Si Si4 0.809296 0.206198 0.161373
Si Si5 0.631203 0.207034 0.478212
Si Si6 0.381965 0.794001 0.541108
Si Si7 0.535860 0.780441 0.820543
Si Si8 0.276028 0.218170 0.602534
O O1 0.024211 0.500000 0.107237
O O2 0.070446 0.213733 0.297109
O O3 0.944023 0.226651 0.020124
O O4 0.043545 0.224888 0.987356
O O5 0.360646 0.713540 0.112876
O O6 0.374168 0.000000 0.991720
O O7 0.310511 0.728331 0.794884
O O8 0.650214 0.716832 0.653107
O O9 0.598824 0.723618 0.821123
O O10 0.666628 0.000000 0.827922
O O11 0.736050 0.719191 0.998555
O O12 0.846053 0.294361 0.343085
O O13 0.797160 0.000000 0.183157
O O14 0.698941 0.212121 0.487916
O O15 0.611423 0.000000 0.474924
O O16 0.459595 0.719703 0.658300
O O17 0.327121 0.715727 0.563494
O O18 0.391353 0.000000 0.602401
O O19 0.537370 0.000000 0.817961
O O20 0.271976 0.000000 0.590349
#
# Coordination Sequence:
#
# PCOD9132139 Si02
#       8
#     4   4   4   4   4   4   4   4
#     4   9  18  32  56  85 106 134 185 233 269 314
#     4  10  19  36  60  83 106 141 187 232 273 318
#     4   9  19  33  50  78 112 141 175 223 273 316
#     4  11  23  37  54  82 116 147 181 223 274 331
#     4  10  20  34  55  83 110 142 183 224 269 325
#     4  10  21  37  59  83 108 143 187 229 272 322
#     4   9  17  33  55  80 108 137 178 234 274 308
#     4  10  20  36  57  82 112 143 180 228 278 328
#
# _framework density 22.243210000000001
#
# number of rings (size 3 to 8) (size 9 to 14) (size 15 to 20)
#    0.000    2.250    2.500    0.375    3.500    0.500 
#    0.000    0.625    0.000    2.250    0.000    0.000 
#    0.000    0.000    0.000    0.000    0.000    0.000 
#
# Total GULP energy -89359.961229 kJ/mol
# GULP energy per Si atom -5584.997577 kJ/mol
# Density = 2.219258 g / cm^3
# Si number density = 22.243210 Si / 1000 Ang^3
#
#
#
# Elastic Constant Matrix: (Units=GPa)
#
#
# Indices 1 2 3 4 5 6 
#
# 1 118.6897 -8.9211 28.3800 0.0000 -7.2119 0.0000
# 2 -8.9211 67.7000 -2.4911 0.0000 1.5696 0.0000
# 3 28.3800 -2.4911 109.5102 0.0000 -1.7662 0.0000
# 4 0.0000 0.0000 0.0000 129.7941 0.0000 -53.7831
# 5 -7.2119 1.5696 -1.7662 0.0000 36.5621 0.0000
# 6 0.0000 0.0000 0.0000 -53.7831 0.0000 39.2131
#
#
#
# Elastic Compliance Matrix: (Units=1/GPa)
#
#
# Indices 1 2 3 4 5 6 
#
# 1 0.009162 0.001084 -0.002323 0.000000 0.001649 0.000000
# 2 0.001084 0.014926 0.000052 0.000000 -0.000425 0.000000
# 3 -0.002323 0.000052 0.009735 0.000000 0.000010 0.000000
# 4 0.000000 0.000000 0.000000 0.017848 0.000000 0.024480
# 5 0.001649 -0.000425 0.000010 0.000000 0.027695 0.000000
# 6 0.000000 0.000000 0.000000 0.024480 0.000000 0.059077
#
#
# Mechanical properties :
#
#
# Convention : Reuss Voigt Hill
#
# Bulk Modulus (GPa) = 31.79897 36.64839 34.22368
# Shear Modulus (GPa) = 33.04661 59.70935 46.37798
#
# Velocity S-wave (km/s) = 3.85865 5.18673 4.57118
# Velocity P-wave (km/s) = 5.84631 7.23751 6.57878
#
# Compressibility (1/GPa) = 0.03144756
#
# Stress axis : x y z
#
# Youngs Moduli (GPa) = 109.14088 66.99901 102.72229
#
# Poissons Ratio (x) = -0.07260 0.23865
# Poissons Ratio (y) = -0.11827 -0.00533
# Poissons Ratio (z) = 0.25356 -0.00347
#
# Static dielectric constant tensor:
#      x y z
#    x 1.765570 0.000000 0.002780 
#    y 0.000000 1.725460 0.000000 
#    z 0.002780 0.000000 1.780030 
# 
# From -- ./inp_files/15812.got.cif
#   From: 2010.05.17/outbox.cif.g08.bks.cpg/sg8_8_cif.got.tgz:15812.got - 2010.06.03 19:46:02.
