data_PCOD9132586
_publ_section_title
;
Structure prediction by ZEFSAII (Michael W. Deem and Ramdas Pophale) SiO2 
 PCOD9132586
Probable space group: C M
;
_chemical_formula_sum "Si O2"
_cell_formula_units_Z 32
_cell_length_a 10.608261
_cell_length_b 19.791430
_cell_length_c 13.881305
_cell_angle_alpha 90.000000
_cell_angle_beta 147.267239
_cell_angle_gamma 90.000000
_cell_volume 1575.887546
_symmetry_space_group_name_H-M "C M"
_symmetry_group_IT_number 8
_symmetry_cell_setting 'monoclinic'
loop_
_space_group_symop_operation_xyz
x,y,z
x,-y,z
1/2+x,1/2+y,z
1/2+x,1/2-y,z
loop_
_atom_site_type_symbol
_atom_site_label
_atom_site_fract_x
_atom_site_fract_y
_atom_site_fract_z
Si Si1 0.060770 0.572661 0.970950
Si Si2 0.008754 0.326207 0.219851
Si Si3 0.516957 0.291391 0.466722
Si Si4 0.420886 0.314593 0.191573
Si Si5 0.681308 0.578416 0.886608
Si Si6 0.178089 0.353747 0.547098
Si Si7 0.760854 0.426679 0.609597
Si Si8 0.765866 0.424436 0.381073
O O1 0.171832 0.500000 0.068727
O O2 0.821491 0.576456 0.875855
O O3 0.006148 0.573033 0.822524
O O4 0.215575 0.636506 0.092624
O O5 0.248813 0.300139 0.324650
O O6 0.082861 0.347936 0.375730
O O7 0.850531 0.258190 0.107042
O O8 0.866390 0.386028 0.077573
O O9 0.547888 0.293265 0.371330
O O10 0.629677 0.219631 0.566353
O O11 0.634961 0.361501 0.571863
O O12 0.589066 0.363828 0.239066
O O13 0.633369 0.500000 0.882541
O O14 0.443800 0.621115 0.723857
O O15 0.013647 0.406880 0.495745
O O16 0.648727 0.500000 0.560056
O O17 0.778046 0.422809 0.505552
O O18 0.690147 0.500000 0.304117
#
# Coordination Sequence:
#
# PCOD9132586 Si02
#       8
#     4   4   4   4   4   4   4   4
#     4  10  20  38  61  91 123 157 209 265 312 362
#     4  11  23  42  64  95 126 165 214 257 317 374
#     4  10  20  39  62  89 123 163 212 261 310 371
#     4  10  20  37  62  90 121 158 211 261 308 368
#     4  11  25  43  66  95 129 169 210 259 318 378
#     4  11  24  42  63  94 131 169 208 255 315 389
#     4   9  20  36  60  92 118 158 210 261 316 363
#     4  10  20  39  62  86 123 167 206 253 314 377
#
# _framework density 20.306017000000001
#
# number of rings (size 3 to 8) (size 9 to 14) (size 15 to 20)
#    0.000    1.750    2.500    1.500    1.750    2.000 
#    2.250    0.000    0.000    0.000    0.000    0.000 
#    0.000    0.000    0.000    0.000    0.000    0.000 
#
# Total GULP energy -89093.783034 kJ/mol
# GULP energy per Si atom -5568.361440 kJ/mol
# Density = 2.025980 g / cm^3
# Si number density = 20.306017 Si / 1000 Ang^3
#
#
#
# Elastic Constant Matrix: (Units=GPa)
#
#
# Indices 1 2 3 4 5 6 
#
# 1 46.7483 33.0550 18.0410 0.0005 19.8905 0.0004
# 2 33.0550 163.0726 53.9466 0.0001 6.3447 0.0000
# 3 18.0410 53.9466 65.3256 0.0008 7.2808 0.0007
# 4 0.0005 0.0001 0.0008 25.5912 0.0007 11.2685
# 5 19.8905 6.3447 7.2808 0.0007 30.5315 0.0004
# 6 0.0004 0.0000 0.0007 11.2685 0.0004 16.3228
#
#
#
# Elastic Compliance Matrix: (Units=1/GPa)
#
#
# Indices 1 2 3 4 5 6 
#
# 1 0.035350 -0.005356 -0.002976 0.000000 -0.021207 0.000000
# 2 -0.005356 0.009249 -0.006506 0.000000 0.003119 0.000000
# 3 -0.002976 -0.006506 0.021713 0.000000 -0.001887 -0.000001
# 4 0.000000 0.000000 0.000000 0.056142 -0.000001 -0.038758
# 5 -0.021207 0.003119 -0.001887 -0.000001 0.046371 0.000000
# 6 0.000000 0.000000 -0.000001 -0.038758 0.000000 0.088021
#
#
# Mechanical properties :
#
#
# Convention : Reuss Voigt Hill
#
# Bulk Modulus (GPa) = 27.29604 53.91460 40.60532
# Shear Modulus (GPa) = 16.73733 25.82936 21.28335
#
# Velocity S-wave (km/s) = 2.87410 3.57039 3.24100
# Velocity P-wave (km/s) = 4.94828 6.60345 5.83485
#
# Compressibility (1/GPa) = 0.03663535
#
# Stress axis : x y z
#
# Youngs Moduli (GPa) = 28.28879 108.12090 46.05502
#
# Poissons Ratio (x) = 0.57907 0.13706
# Poissons Ratio (y) = 0.15151 0.29965
# Poissons Ratio (z) = 0.08419 0.70347
#
# Static dielectric constant tensor:
#      x y z
#    x 1.730780 0.000000 -0.000590 
#    y 0.000000 1.829310 0.000000 
#    z -0.000590 0.000000 1.745360 
# 
# From -- ./inp_files/26290.got.cif
#   From: 2010.05.17/outbox.cif.g08.bks.cpg/sg8_14_cif.got.tgz:26290.got - 2010.06.03 19:46:02.
