data_PCOD9132809
_publ_section_title
;
Structure prediction by ZEFSAII (Michael W. Deem and Ramdas Pophale) SiO2 
 PCOD9132809
Probable space group: C M
;
_chemical_formula_sum "Si O2"
_cell_formula_units_Z 28
_cell_length_a 14.869025
_cell_length_b 15.727513
_cell_length_c 8.104076
_cell_angle_alpha 90.000000
_cell_angle_beta 37.173083
_cell_angle_gamma 90.000000
_cell_volume 1145.103203
_symmetry_space_group_name_H-M "C M"
_symmetry_group_IT_number 8
_symmetry_cell_setting 'monoclinic'
loop_
_space_group_symop_operation_xyz
x,y,z
x,-y,z
1/2+x,1/2+y,z
1/2+x,1/2-y,z
loop_
_atom_site_type_symbol
_atom_site_label
_atom_site_fract_x
_atom_site_fract_y
_atom_site_fract_z
Si Si1 0.179930 0.597585 0.522960
Si Si2 0.614667 0.740148 0.797951
Si Si3 0.227775 0.098711 0.438176
Si Si4 0.394421 0.092236 0.702987
Si Si5 0.564273 0.411578 0.351748
Si Si6 0.322685 0.733081 0.091937
Si Si7 0.037886 0.739346 0.285443
O O1 0.218028 0.500000 0.505950
O O2 0.185093 0.667538 0.660349
O O3 0.016588 0.594329 0.673145
O O4 0.287614 0.645014 0.236428
O O5 0.690145 0.647161 0.664104
O O6 0.498182 0.734724 0.814537
O O7 0.546055 0.750292 0.078364
O O8 0.303312 0.180929 0.233104
O O9 0.290274 0.000000 0.363902
O O10 0.095769 0.084967 0.499927
O O11 0.228192 0.094862 0.023006
O O12 0.443887 0.164849 0.504959
O O13 0.410863 0.000000 0.597837
O O14 0.495430 0.500000 0.396909
O O15 0.475200 0.328207 0.442294
O O16 0.205051 0.733588 0.116780
#
# Coordination Sequence:
#
# PCOD9132809 Si02
#       7
#     4   4   4   4   4   4   4
#     4   9  18  34  54  77 108 144 183 225 268 321
#     4  11  22  35  56  84 112 145 181 223 277 330
#     4   9  19  36  57  83 113 145 185 228 271 326
#     4   9  18  35  59  82 107 145 187 228 275 322
#     4   9  18  35  58  80 107 146 187 228 273 320
#     4   9  20  38  56  76 108 148 185 223 269 322
#     4  10  21  35  56  84 113 141 182 229 273 327
#
# _framework density 24.451943
#
# number of rings (size 3 to 8) (size 9 to 14) (size 15 to 20)
#    0.000    2.571    0.000    2.571    0.000    5.714 
#    0.000    1.429    0.000    4.286    0.000    0.000 
#    0.000    0.000    0.000    0.000    0.000    0.000 
#
# Total GULP energy -77944.072767 kJ/mol
# GULP energy per Si atom -5567.433769 kJ/mol
# Density = 2.439629 g / cm^3
# Si number density = 24.451943 Si / 1000 Ang^3
#
#
#
# Elastic Constant Matrix: (Units=GPa)
#
#
# Indices 1 2 3 4 5 6 
#
# 1 111.7785 30.7008 19.9426 0.0000 -3.3050 0.0000
# 2 30.7008 287.2578 63.6823 0.0000 18.4276 0.0000
# 3 19.9426 63.6823 52.0125 0.0001 20.1359 0.0000
# 4 0.0000 0.0000 0.0001 26.4628 0.0000 -5.4994
# 5 -3.3050 18.4276 20.1359 0.0000 34.6875 0.0000
# 6 0.0000 0.0000 0.0000 -5.4994 0.0000 -8.0657
#
#
#
# Elastic Compliance Matrix: (Units=1/GPa)
#
#
# Indices 1 2 3 4 5 6 
#
# 1 0.010046 -0.000180 -0.005209 0.000000 0.004077 0.000000
# 2 -0.000180 0.004814 -0.006228 0.000000 0.001041 0.000000
# 3 -0.005209 -0.006228 0.035808 0.000000 -0.017974 0.000000
# 4 0.000000 0.000000 0.000000 0.033099 0.000000 -0.022568
# 5 0.004077 0.001041 -0.017974 0.000000 0.039098 0.000000
# 6 0.000000 0.000000 0.000000 -0.022568 0.000000 -0.108594
#
#
# Mechanical properties :
#
#
# Convention : Reuss Voigt Hill
#
# Bulk Modulus (GPa) = 36.45404 75.52225 55.98815
# Shear Modulus (GPa) = 107.17991 33.06512 70.12251
#
# Velocity S-wave (km/s) = 6.62782 3.68128 5.36096
# Velocity P-wave (km/s) = 8.57389 7.00158 7.82731
#
# Compressibility (1/GPa) = 0.02743180
#
# Stress axis : x y z
#
# Youngs Moduli (GPa) = 99.54488 207.70621 27.92701
#
# Poissons Ratio (x) = 0.03746 0.14548
# Poissons Ratio (y) = 0.01795 0.17394
# Poissons Ratio (z) = 0.51855 1.29369
#
# Static dielectric constant tensor:
#      x y z
#    x 1.946990 0.000000 -0.026250 
#    y 0.000000 2.011770 0.000000 
#    z -0.026250 0.000000 2.007760 
# 
# From -- ./inp_files/15156.got.cif
#   From: 2010.05.17/outbox.cif.g08.bks.cpg/sg8_8_cif.got.tgz:15156.got - 2010.06.03 19:46:02.
