data_PCOD9132497
_publ_section_title
;
Structure prediction by ZEFSAII (Michael W. Deem and Ramdas Pophale) SiO2 
 PCOD9132497
Probable space group: C M
;
_chemical_formula_sum "Si O2"
_cell_formula_units_Z 32
_cell_length_a 12.398034
_cell_length_b 17.173593
_cell_length_c 16.040773
_cell_angle_alpha 90.000000
_cell_angle_beta 156.040694
_cell_angle_gamma 90.000000
_cell_volume 1386.944612
_symmetry_space_group_name_H-M "C M"
_symmetry_group_IT_number 8
_symmetry_cell_setting 'monoclinic'
loop_
_space_group_symop_operation_xyz
x,y,z
x,-y,z
1/2+x,1/2+y,z
1/2+x,1/2-y,z
loop_
_atom_site_type_symbol
_atom_site_label
_atom_site_fract_x
_atom_site_fract_y
_atom_site_fract_z
Si Si1 0.457270 0.413937 0.639650
Si Si2 0.103537 0.314326 0.951290
Si Si3 0.509555 0.246058 0.707982
Si Si4 0.613142 0.126889 0.550877
Si Si5 0.061318 0.915303 0.198565
Si Si6 0.080775 0.911826 0.547334
Si Si7 0.296552 0.408701 0.843675
Si Si8 0.933806 0.772747 0.329298
O O1 0.584124 0.500000 0.742265
O O2 0.614296 0.332155 0.761618
O O3 0.391934 0.411871 0.495218
O O4 0.219134 0.406966 0.538591
O O5 0.028300 0.258868 0.821333
O O6 0.863428 0.376499 0.778168
O O7 0.377279 0.355273 0.116379
O O8 0.175131 0.272772 0.088686
O O9 0.624427 0.165596 0.754267
O O10 0.199742 0.244752 0.463906
O O11 0.373409 0.086858 0.431589
O O12 0.846705 0.113240 0.783111
O O13 0.474463 0.209720 0.431667
O O14 0.955014 0.000000 0.146549
O O15 0.031792 0.905837 0.077647
O O16 0.969790 0.856627 0.397133
O O17 0.119231 0.000000 0.545509
O O18 0.207503 0.500000 0.787742
#
# Coordination Sequence:
#
# PCOD9132497 Si02
#       8
#     4   4   4   4   4   4   4   4
#     4  10  21  39  60  81 116 164 204 240 284 340
#     4  10  21  38  61  90 117 147 190 243 300 355
#     4   9  20  37  60  89 119 152 194 243 296 354
#     4  11  22  37  58  85 118 156 196 238 287 349
#     4  10  21  36  59  90 118 145 184 241 303 356
#     4  10  22  40  60  84 117 156 199 244 288 345
#     4  10  20  36  60  89 119 151 189 242 304 356
#     4  10  22  37  59  86 116 155 195 239 296 349
#
# _framework density 23.072296999999999
#
# number of rings (size 3 to 8) (size 9 to 14) (size 15 to 20)
#    0.000    2.000    0.000    3.000    0.000   10.000 
#    0.000    1.250    0.000    8.250    0.000    0.000 
#    0.000    0.000    0.000    0.000    0.000    0.000 
#
# Total GULP energy -89079.402631 kJ/mol
# GULP energy per Si atom -5567.462664 kJ/mol
# Density = 2.301978 g / cm^3
# Si number density = 23.072297 Si / 1000 Ang^3
#
#
#
# Elastic Constant Matrix: (Units=GPa)
#
#
# Indices 1 2 3 4 5 6 
#
# 1 67.2751 25.0169 10.5772 0.0075 -4.8869 0.0085
# 2 25.0169 191.4048 29.4418 0.1648 -23.4039 0.0353
# 3 10.5772 29.4418 67.5121 0.0420 -19.8257 -0.0453
# 4 0.0075 0.1648 0.0420 21.8043 -0.0273 -7.5884
# 5 -4.8869 -23.4039 -19.8257 -0.0273 31.6295 -0.0772
# 6 0.0085 0.0353 -0.0453 -7.5884 -0.0772 32.8961
#
#
#
# Elastic Compliance Matrix: (Units=1/GPa)
#
#
# Indices 1 2 3 4 5 6 
#
# 1 0.015801 -0.001801 -0.001673 0.000011 0.000061 -0.000002
# 2 -0.001801 0.006083 -0.001386 -0.000042 0.003354 -0.000010
# 3 -0.001673 -0.001386 0.018754 0.000007 0.010471 0.000054
# 4 0.000011 -0.000042 0.000007 0.049866 0.000046 0.011503
# 5 0.000061 0.003354 0.010471 0.000046 0.040671 0.000117
# 6 -0.000002 -0.000010 0.000054 0.011503 0.000117 0.033053
#
#
# Mechanical properties :
#
#
# Convention : Reuss Voigt Hill
#
# Bulk Modulus (GPa) = 32.34117 50.69597 41.51857
# Shear Modulus (GPa) = 27.13665 34.67639 30.90652
#
# Velocity S-wave (km/s) = 3.43324 3.88099 3.66396
# Velocity P-wave (km/s) = 5.45563 6.48869 5.99446
#
# Compressibility (1/GPa) = 0.03092034
#
# Stress axis : x y z
#
# Youngs Moduli (GPa) = 63.28604 164.38708 53.32321
#
# Poissons Ratio (x) = 0.29599 0.08919
# Poissons Ratio (y) = 0.11395 0.07389
# Poissons Ratio (z) = 0.10585 0.22779
#
# Static dielectric constant tensor:
#      x y z
#    x 1.908090 -0.000010 0.000230 
#    y -0.000010 1.928920 -0.000070 
#    z 0.000230 -0.000070 1.861860 
# 
# From -- ./inp_files/26285.got.cif
#   From: 2010.05.17/outbox.cif.g08.bks.cpg/sg8_14_cif.got.tgz:26285.got - 2010.06.03 19:46:02.
