data_PCOD9132326
_publ_section_title
;
Structure prediction by ZEFSAII (Michael W. Deem and Ramdas Pophale) SiO2 
 PCOD9132326
Probable space group: C M
;
_chemical_formula_sum "Si O2"
_cell_formula_units_Z 32
_cell_length_a 20.887788
_cell_length_b 8.889119
_cell_length_c 12.459016
_cell_angle_alpha 90.000000
_cell_angle_beta 128.119664
_cell_angle_gamma 90.000000
_cell_volume 1819.939188
_symmetry_space_group_name_H-M "C M"
_symmetry_group_IT_number 8
_symmetry_cell_setting 'monoclinic'
loop_
_space_group_symop_operation_xyz
x,y,z
x,-y,z
1/2+x,1/2+y,z
1/2+x,1/2-y,z
loop_
_atom_site_type_symbol
_atom_site_label
_atom_site_fract_x
_atom_site_fract_y
_atom_site_fract_z
Si Si1 0.802670 0.678434 0.581010
Si Si2 0.548130 0.179017 0.292194
Si Si3 0.679831 0.680117 0.268894
Si Si4 0.124928 0.320355 0.998167
Si Si5 0.649665 0.679241 0.579917
Si Si6 0.708445 0.820436 0.857087
Si Si7 0.383992 0.179253 0.004196
Si Si8 0.447858 0.321047 0.848245
O O1 0.821251 0.500000 0.604196
O O2 0.759485 0.712585 0.423082
O O3 0.733179 0.707789 0.599187
O O4 0.882086 0.772301 0.691080
O O5 0.603963 0.253763 0.257774
O O6 0.578213 0.249114 0.434802
O O7 0.454511 0.205601 0.164847
O O8 0.562606 0.000000 0.307061
O O9 0.671078 0.500000 0.253443
O O10 0.677738 0.752683 0.150025
O O11 0.118144 0.500000 0.004476
O O12 0.164923 0.288087 0.924714
O O13 0.035845 0.247639 0.914657
O O14 0.639673 0.500000 0.576007
O O15 0.659668 0.751033 0.706558
O O16 0.713932 0.000000 0.849350
O O17 0.798315 0.750089 0.947283
O O18 0.374828 0.000000 0.979137
O O19 0.415096 0.251311 0.925568
O O20 0.453058 0.500000 0.862719
#
# Coordination Sequence:
#
# PCOD9132326 Si02
#       8
#     4   4   4   4   4   4   4   4
#     4   9  19  35  56  85 118 149 187 238 291 337
#     4  10  20  34  57  86 118 152 189 237 289 343
#     4  10  20  35  58  86 115 151 193 238 288 345
#     4  11  24  41  59  83 119 157 193 240 295 348
#     4  10  20  35  58  85 117 153 190 238 291 343
#     4  11  24  40  60  85 116 156 198 239 289 350
#     4  11  22  37  59  87 119 152 190 240 291 341
#     4  12  23  35  59  89 116 150 196 242 284 343
#
# _framework density 17.583003999999999
#
# number of rings (size 3 to 8) (size 9 to 14) (size 15 to 20)
#    0.000    1.500    2.500    4.125    0.000    6.000 
#    0.000    1.250    0.000    1.500    0.000    0.000 
#    0.000    0.000    0.000    0.000    0.000    0.000 
#
# Total GULP energy -89401.945014 kJ/mol
# GULP energy per Si atom -5587.621563 kJ/mol
# Density = 1.754298 g / cm^3
# Si number density = 17.583004 Si / 1000 Ang^3
#
#
#
# Elastic Constant Matrix: (Units=GPa)
#
#
# Indices 1 2 3 4 5 6 
#
# 1 96.9036 68.2166 73.0784 0.0000 -4.5541 0.0000
# 2 68.2166 98.4029 86.1441 0.0000 -6.8664 0.0000
# 3 73.0784 86.1441 161.3591 0.0000 -13.9008 0.0000
# 4 0.0000 0.0000 0.0000 36.2764 0.0000 1.1833
# 5 -4.5541 -6.8664 -13.9008 0.0000 24.3004 0.0000
# 6 0.0000 0.0000 0.0000 1.1833 0.0000 25.7473
#
#
#
# Elastic Compliance Matrix: (Units=1/GPa)
#
#
# Indices 1 2 3 4 5 6 
#
# 1 0.021076 -0.011729 -0.003396 0.000000 -0.001307 0.000000
# 2 -0.011729 0.025611 -0.008338 0.000000 0.000269 0.000000
# 3 -0.003396 -0.008338 0.012547 0.000000 0.004185 0.000000
# 4 0.000000 0.000000 0.000000 0.027608 0.000000 -0.001269
# 5 -0.001307 0.000269 0.004185 0.000000 0.043377 0.000000
# 6 0.000000 0.000000 0.000000 -0.001269 0.000000 0.038897
#
#
# Mechanical properties :
#
#
# Convention : Reuss Voigt Hill
#
# Bulk Modulus (GPa) = 81.24292 90.17154 85.70723
# Shear Modulus (GPa) = 22.71243 25.87993 24.29618
#
# Velocity S-wave (km/s) = 3.59796 3.84066 3.72129
# Velocity P-wave (km/s) = 7.97283 8.42984 8.20452
#
# Compressibility (1/GPa) = 0.01230877
#
# Stress axis : x y z
#
# Youngs Moduli (GPa) = 47.44765 39.04576 79.69883
#
# Poissons Ratio (x) = 0.45796 0.27067
# Poissons Ratio (y) = 0.55650 0.66451
# Poissons Ratio (z) = 0.16114 0.32556
#
# Static dielectric constant tensor:
#      x y z
#    x 1.560930 0.000000 0.001010 
#    y 0.000000 1.584320 0.000000 
#    z 0.001010 0.000000 1.610550 
# 
# From -- ./inp_files/23871.got.cif
#   From: 2010.05.17/outbox.cif.g08.bks.cpg/sg8_12_cif.got.tgz:23871.got - 2010.06.03 19:46:02.
