data_PCOD9132292
_publ_section_title
;
Structure prediction by ZEFSAII (Michael W. Deem and Ramdas Pophale) SiO2 
 PCOD9132292
Probable space group: C M
;
_chemical_formula_sum "Si O2"
_cell_formula_units_Z 32
_cell_length_a 28.915582
_cell_length_b 8.672178
_cell_length_c 22.638680
_cell_angle_alpha 90.000000
_cell_angle_beta 161.326755
_cell_angle_gamma 90.000000
_cell_volume 1817.576635
_symmetry_space_group_name_H-M "C M"
_symmetry_group_IT_number 8
_symmetry_cell_setting 'monoclinic'
loop_
_space_group_symop_operation_xyz
x,y,z
x,-y,z
1/2+x,1/2+y,z
1/2+x,1/2-y,z
loop_
_atom_site_type_symbol
_atom_site_label
_atom_site_fract_x
_atom_site_fract_y
_atom_site_fract_z
Si Si1 0.582710 0.684941 0.773510
Si Si2 0.135193 0.314707 0.082033
Si Si3 0.837812 0.686927 0.778277
Si Si4 0.987885 0.685369 0.081231
Si Si5 0.242226 0.815699 0.087923
Si Si6 0.517794 0.686189 0.359559
Si Si7 0.859988 0.184742 0.047174
Si Si8 0.770357 0.684109 0.364140
O O1 0.576049 0.500000 0.761379
O O2 0.427061 0.755681 0.572402
O O3 0.640625 0.726622 0.909127
O O4 0.703565 0.747235 0.874495
O O5 0.142884 0.500000 0.094778
O O6 0.187560 0.258114 0.082141
O O7 0.229631 0.245693 0.249654
O O8 0.969502 0.266432 0.895025
O O9 0.833475 0.500000 0.771706
O O10 0.679873 0.741299 0.568526
O O11 0.885278 0.731183 0.901875
O O12 0.995851 0.500000 0.092203
O O13 0.145600 0.751283 0.256372
O O14 0.924219 0.748028 0.064911
O O15 0.401428 0.757190 0.263319
O O16 0.242601 0.000000 0.093676
O O17 0.513235 0.500000 0.359686
O O18 0.463806 0.724526 0.228240
O O19 0.850402 0.000000 0.031778
O O20 0.767088 0.500000 0.360616
#
# Coordination Sequence:
#
# PCOD9132292 Si02
#       8
#     4   4   4   4   4   4   4   4
#     4  10  21  38  57  78 109 147 184 225 276 329
#     4  10  20  36  57  80 109 144 180 219 270 328
#     4   8  17  34  55  77 100 133 177 217 255 311
#     4  10  20  36  56  78 108 144 180 220 272 329
#     4  10  21  36  54  80 111 142 180 223 266 318
#     4   9  18  35  56  77 104 139 179 221 266 315
#     4  10  20  34  54  81 110 141 180 226 271 317
#     4  11  22  37  57  81 109 140 182 233 278 323
#
# _framework density 17.60586
#
# number of rings (size 3 to 8) (size 9 to 14) (size 15 to 20)
#    0.000    2.250    0.000    3.750    0.000    4.000 
#    0.000    8.750    0.000    0.000    0.000    0.000 
#    0.000    0.000    0.000    0.000    0.000    0.000 
#
# Total GULP energy -89313.834998 kJ/mol
# GULP energy per Si atom -5582.114687 kJ/mol
# Density = 1.756579 g / cm^3
# Si number density = 17.605860 Si / 1000 Ang^3
#
#
#
# Elastic Constant Matrix: (Units=GPa)
#
#
# Indices 1 2 3 4 5 6 
#
# 1 221.6691 79.9642 133.5691 0.0000 21.4463 0.0000
# 2 79.9642 79.5615 74.8708 0.0000 8.9446 0.0000
# 3 133.5691 74.8708 223.1153 0.0000 27.1827 0.0000
# 4 0.0000 0.0000 0.0000 24.6206 0.0000 1.5379
# 5 21.4463 8.9446 27.1827 0.0000 9.6073 0.0000
# 6 0.0000 0.0000 0.0000 1.5379 0.0000 34.1782
#
#
#
# Elastic Compliance Matrix: (Units=1/GPa)
#
#
# Indices 1 2 3 4 5 6 
#
# 1 0.008728 -0.005658 -0.002433 0.000000 -0.007331 0.000000
# 2 -0.005658 0.022040 -0.004651 0.000000 0.005269 0.000000
# 3 -0.002433 -0.004651 0.009629 0.000000 -0.017484 0.000000
# 4 0.000000 0.000000 0.000000 0.040731 0.000000 -0.001833
# 5 -0.007331 0.005269 -0.017484 0.000000 0.165015 0.000000
# 6 0.000000 0.000000 0.000000 -0.001833 0.000000 0.029341
#
#
# Mechanical properties :
#
#
# Convention : Reuss Voigt Hill
#
# Bulk Modulus (GPa) = 67.05523 122.35045 94.70284
# Shear Modulus (GPa) = 16.34323 29.41067 22.87695
#
# Velocity S-wave (km/s) = 3.05008 4.09161 3.60862
# Velocity P-wave (km/s) = 7.11151 9.58993 8.44217
#
# Compressibility (1/GPa) = 0.01491308
#
# Stress axis : x y z
#
# Youngs Moduli (GPa) = 114.57930 45.37299 103.85067
#
# Poissons Ratio (x) = 0.25672 0.25267
# Poissons Ratio (y) = 0.64829 0.48297
# Poissons Ratio (z) = 0.27877 0.21101
#
# Static dielectric constant tensor:
#      x y z
#    x 1.567410 0.000000 -0.006000 
#    y 0.000000 1.591300 0.000000 
#    z -0.006000 0.000000 1.587700 
# 
# From -- ./inp_files/16789.got.cif
#   From: 2010.05.17/outbox.cif.g08.bks.cpg/sg8_9_cif.got.tgz:16789.got - 2010.06.03 19:46:02.
