data_PCOD9132277
_publ_section_title
;
Structure prediction by ZEFSAII (Michael W. Deem and Ramdas Pophale) SiO2 
 PCOD9132277
Probable space group: C M
;
_chemical_formula_sum "Si O2"
_cell_formula_units_Z 24
_cell_length_a 19.748400
_cell_length_b 7.692397
_cell_length_c 7.784544
_cell_angle_alpha 90.000000
_cell_angle_beta 90.417016
_cell_angle_gamma 90.000000
_cell_volume 1182.538474
_symmetry_space_group_name_H-M "C M"
_symmetry_group_IT_number 8
_symmetry_cell_setting 'monoclinic'
loop_
_space_group_symop_operation_xyz
x,y,z
x,-y,z
1/2+x,1/2+y,z
1/2+x,1/2-y,z
loop_
_atom_site_type_symbol
_atom_site_label
_atom_site_fract_x
_atom_site_fract_y
_atom_site_fract_z
Si Si1 0.571040 0.791735 0.522410
Si Si2 0.420919 0.286996 0.910260
Si Si3 0.574053 0.705619 0.920216
Si Si4 0.669808 0.203881 0.228648
Si Si5 0.822939 0.786216 0.212204
Si Si6 0.415927 0.293153 0.523321
O O1 0.586755 0.737630 0.718455
O O2 0.623987 0.722783 0.382685
O O3 0.494481 0.735141 0.478072
O O4 0.571609 0.000000 0.517890
O O5 0.422225 0.500000 0.908333
O O6 0.497487 0.230498 0.956552
O O7 0.365325 0.231835 0.045974
O O8 0.405995 0.226099 0.716512
O O9 0.574642 0.500000 0.949050
O O10 0.628608 0.782310 0.050691
O O11 0.678187 0.000000 0.268363
O O12 0.745600 0.275164 0.213677
O O13 0.864572 0.726368 0.379824
O O14 0.823043 0.000000 0.210271
O O15 0.405432 0.500000 0.530939
#
# Coordination Sequence:
#
# PCOD9132277 Si02
#       6
#     4   4   4   4   4   4
#     4  10  20  34  53  78 107 136 167 208 258 308
#     4   8  15  28  49  74  94 120 165 214 250 284
#     4  10  20  35  56  78 100 133 176 216 253 298
#     4  10  21  34  51  78 108 137 168 207 258 308
#     4   9  17  30  49  73 100 130 166 208 251 297
#     4   9  17  31  52  75  97 128 172 213 248 293
#
# _framework density 20.295324000000001
#
# number of rings (size 3 to 8) (size 9 to 14) (size 15 to 20)
#    0.000    2.667    0.000    3.000    0.000    4.000 
#    0.000    5.833    0.000    9.000    0.000    0.000 
#    0.000    0.000    0.000    0.000    0.000    0.000 
#
# Total GULP energy -66973.858530 kJ/mol
# GULP energy per Si atom -5581.154878 kJ/mol
# Density = 2.024913 g / cm^3
# Si number density = 20.295324 Si / 1000 Ang^3
#
#
#
# Elastic Constant Matrix: (Units=GPa)
#
#
# Indices 1 2 3 4 5 6 
#
# 1 190.5018 -14.0423 138.8701 0.0000 1.4291 0.0000
# 2 -14.0423 44.6778 4.1577 0.0000 -41.1303 0.0000
# 3 138.8701 4.1577 141.9504 0.0000 -27.8624 0.0000
# 4 0.0000 0.0000 0.0000 14.3572 0.0000 -1.2799
# 5 1.4291 -41.1303 -27.8624 0.0000 97.9653 0.0000
# 6 0.0000 0.0000 0.0000 -1.2799 0.0000 14.9210
#
#
#
# Elastic Compliance Matrix: (Units=1/GPa)
#
#
# Indices 1 2 3 4 5 6 
#
# 1 0.022430 0.004660 -0.023046 0.000000 -0.004925 0.000000
# 2 0.004660 0.038026 -0.002704 0.000000 0.015128 0.000000
# 3 -0.023046 -0.002704 0.031258 0.000000 0.008091 0.000000
# 4 0.000000 0.000000 0.000000 0.070188 0.000000 0.006021
# 5 -0.004925 0.015128 0.008091 0.000000 0.018932 0.000000
# 6 0.000000 0.000000 0.000000 0.006021 0.000000 0.067536
#
#
# Mechanical properties :
#
#
# Convention : Reuss Voigt Hill
#
# Bulk Modulus (GPa) = 20.18791 70.56677 45.37734
# Shear Modulus (GPa) = 16.28338 41.99166 29.13752
#
# Velocity S-wave (km/s) = 2.83560 4.55360 3.79314
# Velocity P-wave (km/s) = 4.54857 7.90521 6.44911
#
# Compressibility (1/GPa) = 0.04953460
#
# Stress axis : x y z
#
# Youngs Moduli (GPa) = 44.58324 26.29802 31.99133
#
# Poissons Ratio (x) = -0.12256 0.73729
# Poissons Ratio (y) = -0.20777 0.08649
# Poissons Ratio (z) = 1.02749 0.07110
#
# Static dielectric constant tensor:
#      x y z
#    x 1.678440 0.000000 -0.020380 
#    y 0.000000 1.763140 0.000000 
#    z -0.020380 0.000000 1.699430 
# 
# From -- ./inp_files/16625.got.cif
#   From: 2010.05.17/outbox.cif.g08.bks.cpg/sg8_9_cif.got.tgz:16625.got - 2010.06.03 19:46:02.
