data_PCOD9132689
_publ_section_title
;
Structure prediction by ZEFSAII (Michael W. Deem and Ramdas Pophale) SiO2 
 PCOD9132689
Probable space group: C M
;
_chemical_formula_sum "Si O2"
_cell_formula_units_Z 32
_cell_length_a 9.027619
_cell_length_b 22.180949
_cell_length_c 9.550633
_cell_angle_alpha 90.000000
_cell_angle_beta 44.915261
_cell_angle_gamma 90.000000
_cell_volume 1350.290595
_symmetry_space_group_name_H-M "C M"
_symmetry_group_IT_number 8
_symmetry_cell_setting 'monoclinic'
loop_
_space_group_symop_operation_xyz
x,y,z
x,-y,z
1/2+x,1/2+y,z
1/2+x,1/2-y,z
loop_
_atom_site_type_symbol
_atom_site_label
_atom_site_fract_x
_atom_site_fract_y
_atom_site_fract_z
Si Si1 0.070140 0.128474 0.108090
Si Si2 0.725900 0.222292 0.319291
Si Si3 0.114726 0.265586 0.787557
Si Si4 0.181347 0.933584 0.586687
Si Si5 0.179836 0.698916 0.042959
Si Si6 0.534518 0.656882 0.451707
Si Si7 0.309548 0.566721 0.058883
Si Si8 0.877559 0.353633 0.662521
O O1 0.084194 0.129638 0.265320
O O2 0.951804 0.191714 0.153566
O O3 0.286223 0.124720 0.873631
O O4 0.907992 0.081482 0.145806
O O5 0.599926 0.178355 0.506586
O O6 0.695853 0.290037 0.387423
O O7 0.617188 0.222148 0.239293
O O8 0.063711 0.296070 0.972550
O O9 0.306404 0.310421 0.612182
O O10 0.223096 0.200142 0.721930
O O11 0.074749 0.894202 0.538480
O O12 0.372421 0.902469 0.541657
O O13 0.012544 0.937289 0.823657
O O14 0.231109 0.000000 0.501747
O O15 0.205238 0.627487 0.064745
O O16 0.389670 0.741983 0.876025
O O17 0.208631 0.500000 0.122728
#
# Coordination Sequence:
#
# PCOD9132689 Si02
#       8
#     4   4   4   4   4   4   4   4
#     4  10  21  39  54  91 118 162 206 250 316 366
#     4  10  23  34  62  87 127 155 208 248 323 375
#     4  11  20  35  59  90 134 154 211 253 320 380
#     4  10  20  39  63  90 119 164 216 258 310 380
#     4  11  21  38  61  97 125 170 205 267 319 379
#     4  11  23  33  59  91 125 163 199 258 323 375
#     4   9  18  37  60  83 118 164 216 249 299 376
#     4  10  20  39  60  85 122 160 207 253 306 373
#
# _framework density 23.698602999999999
#
# number of rings (size 3 to 8) (size 9 to 14) (size 15 to 20)
#    0.000    1.750    5.000    0.750    7.000    0.500 
#    0.000    2.500    0.000    0.000    0.000    2.625 
#    0.000    0.000    0.000    0.000    0.000    0.000 
#
# Total GULP energy -89223.756808 kJ/mol
# GULP energy per Si atom -5576.484801 kJ/mol
# Density = 2.364466 g / cm^3
# Si number density = 23.698603 Si / 1000 Ang^3
#
#
#
# Elastic Constant Matrix: (Units=GPa)
#
#
# Indices 1 2 3 4 5 6 
#
# 1 67.4587 25.9900 33.1142 0.0000 4.4745 0.0000
# 2 25.9900 151.2362 26.8423 0.0000 19.7774 0.0000
# 3 33.1142 26.8423 115.4749 0.0000 2.6902 0.0000
# 4 0.0000 0.0000 0.0000 18.6181 0.0000 1.3575
# 5 4.4745 19.7774 2.6902 0.0000 45.7520 0.0000
# 6 0.0000 0.0000 0.0000 1.3575 0.0000 6.6553
#
#
#
# Elastic Compliance Matrix: (Units=1/GPa)
#
#
# Indices 1 2 3 4 5 6 
#
# 1 0.017980 -0.002198 -0.004633 0.000000 -0.000536 0.000000
# 2 -0.002198 0.007570 -0.001060 0.000000 -0.002995 0.000000
# 3 -0.004633 -0.001060 0.010227 0.000000 0.000310 0.000000
# 4 0.000000 0.000000 0.000000 0.054522 0.000000 -0.011121
# 5 -0.000536 -0.002995 0.000310 0.000000 0.023186 0.000000
# 6 0.000000 0.000000 0.000000 -0.011121 0.000000 0.152525
#
#
# Mechanical properties :
#
#
# Convention : Reuss Voigt Hill
#
# Bulk Modulus (GPa) = 50.00650 56.22920 53.11785
# Shear Modulus (GPa) = 17.33365 30.75330 24.04347
#
# Velocity S-wave (km/s) = 2.70741 3.60625 3.18866
# Velocity P-wave (km/s) = 5.56060 6.41236 6.00161
#
# Compressibility (1/GPa) = 0.01999740
#
# Stress axis : x y z
#
# Youngs Moduli (GPa) = 55.61663 132.10855 97.77563
#
# Poissons Ratio (x) = 0.29031 0.45297
# Poissons Ratio (y) = 0.12222 0.10360
# Poissons Ratio (z) = 0.25766 0.13998
#
# Static dielectric constant tensor:
#      x y z
#    x 2.062390 0.000000 -0.003130 
#    y 0.000000 1.960750 0.000000 
#    z -0.003130 0.000000 2.049460 
# 
# From -- ./inp_files/13461.got.cif
#   From: 2010.05.17/outbox.cif.g08.bks.cpg/sg8_7_cif.got.tgz:13461.got - 2010.06.03 19:46:02.
