data_PCOD9132972
_publ_section_title
;
Structure prediction by ZEFSAII (Michael W. Deem and Ramdas Pophale) SiO2 
 PCOD9132972
Probable space group: C M
;
_chemical_formula_sum "Si O2"
_cell_formula_units_Z 26
_cell_length_a 19.275245
_cell_length_b 7.375946
_cell_length_c 9.427798
_cell_angle_alpha 90.000000
_cell_angle_beta 45.070512
_cell_angle_gamma 90.000000
_cell_volume 948.957409
_symmetry_space_group_name_H-M "C M"
_symmetry_group_IT_number 8
_symmetry_cell_setting 'monoclinic'
loop_
_space_group_symop_operation_xyz
x,y,z
x,-y,z
1/2+x,1/2+y,z
1/2+x,1/2-y,z
loop_
_atom_site_type_symbol
_atom_site_label
_atom_site_fract_x
_atom_site_fract_y
_atom_site_fract_z
Si Si1 0.800760 0.287806 0.859840
Si Si2 0.593474 0.000000 0.116159
Si Si3 0.166176 0.793638 0.283206
Si Si4 0.997000 0.219941 0.737621
Si Si5 0.905962 0.296628 0.432801
Si Si6 0.282282 0.292418 0.373575
Si Si7 0.609978 0.289282 0.841955
O O1 0.775960 0.500000 0.873086
O O2 0.893863 0.281609 0.828700
O O3 0.846114 0.210678 0.648849
O O4 0.712253 0.194706 0.077485
O O5 0.518983 0.160044 0.300136
O O6 0.623912 0.157790 0.952847
O O7 0.256991 0.804717 0.264053
O O8 0.080250 0.717422 0.506026
O O9 0.138266 0.000000 0.285538
O O10 0.024486 0.274090 0.857102
O O11 0.999291 0.000000 0.734621
O O12 0.865706 0.500000 0.473397
O O13 0.884604 0.214280 0.310364
O O14 0.263322 0.500000 0.366654
O O15 0.204175 0.225188 0.602626
O O16 0.596766 0.500000 0.900824
#
# Coordination Sequence:
#
# PCOD9132972 Si02
#       7
#     4   2   4   4   4   4   4
#     4  10  21  39  61  81 119 167 201 257 314 365
#     4  10  22  40  62  90 130 164 208 262 310 388
#     4   9  20  38  61  85 115 160 206 252 316 366
#     4   9  20  36  57  89 122 152 206 260 303 378
#     4   9  22  40  55  83 126 160 208 252 309 372
#     4  11  21  37  62  92 124 161 208 261 312 375
#     4  10  21  39  64  95 126 162 207 263 319 370
#
# _framework density 27.398489999999999
#
# number of rings (size 3 to 8) (size 9 to 14) (size 15 to 20)
#    0.462    1.846    0.769    2.308    3.231    2.462 
#    2.769    0.000    0.000    0.000    0.000    0.000 
#    0.000    0.000    0.000    0.000    0.000    0.000 
#
# Total GULP energy -72411.180080 kJ/mol
# GULP energy per Si atom -5570.090775 kJ/mol
# Density = 2.733613 g / cm^3
# Si number density = 27.398490 Si / 1000 Ang^3
#
#
#
# Elastic Constant Matrix: (Units=GPa)
#
#
# Indices 1 2 3 4 5 6 
#
# 1 87.4754 -53.2324 12.7842 0.0000 8.8147 0.0000
# 2 -53.2324 122.1895 -14.3282 0.0000 7.4122 0.0000
# 3 12.7842 -14.3282 197.7643 0.0000 12.7541 0.0000
# 4 0.0000 0.0000 0.0000 8.5993 0.0000 -40.3075
# 5 8.8147 7.4122 12.7541 0.0000 49.0162 0.0000
# 6 0.0000 0.0000 0.0000 -40.3075 0.0000 -54.3452
#
#
#
# Elastic Compliance Matrix: (Units=1/GPa)
#
#
# Indices 1 2 3 4 5 6 
#
# 1 0.016328 0.007323 -0.000269 0.000000 -0.003974 0.000000
# 2 0.007323 0.011638 0.000578 0.000000 -0.003227 0.000000
# 3 -0.000269 0.000578 0.005206 0.000000 -0.001394 0.000000
# 4 0.000000 0.000000 0.000000 0.025977 0.000000 -0.019267
# 5 -0.003974 -0.003227 -0.001394 0.000000 0.021967 0.000000
# 6 0.000000 0.000000 0.000000 -0.019267 0.000000 -0.004111
#
#
# Mechanical properties :
#
#
# Convention : Reuss Voigt Hill
#
# Bulk Modulus (GPa) = 20.64621 33.09739 26.87180
# Shear Modulus (GPa) = 64.19676 31.46775 47.83225
#
# Velocity S-wave (km/s) = 4.84578 3.39266 4.18281
# Velocity P-wave (km/s) = 6.23384 5.23957 5.75820
#
# Compressibility (1/GPa) = 0.04843504
#
# Stress axis : x y z
#
# Youngs Moduli (GPa) = 61.24572 85.92744 192.09939
#
# Poissons Ratio (x) = -0.62923 0.05161
# Poissons Ratio (y) = -0.44849 -0.11102
# Poissons Ratio (z) = 0.01646 -0.04966
#
# Static dielectric constant tensor:
#      x y z
#    x 2.312230 0.000000 -0.041900 
#    y 0.000000 2.129290 0.000000 
#    z -0.041900 0.000000 2.168210 
# 
# From -- ./inp_files/14409.got.cif
#   From: 2010.05.17/outbox.cif.g08.bks.cpg/sg8_8_cif.got.tgz:14409.got - 2010.06.03 19:46:02.
