data_PCOD9132253
_publ_section_title
;
Structure prediction by ZEFSAII (Michael W. Deem and Ramdas Pophale) SiO2 
 PCOD9132253
Probable space group: C M
;
_chemical_formula_sum "Si O2"
_cell_formula_units_Z 32
_cell_length_a 14.311342
_cell_length_b 16.744680
_cell_length_c 8.067201
_cell_angle_alpha 90.000000
_cell_angle_beta 61.816188
_cell_angle_gamma 90.000000
_cell_volume 1704.006834
_symmetry_space_group_name_H-M "C M"
_symmetry_group_IT_number 8
_symmetry_cell_setting 'monoclinic'
loop_
_space_group_symop_operation_xyz
x,y,z
x,-y,z
1/2+x,1/2+y,z
1/2+x,1/2-y,z
loop_
_atom_site_type_symbol
_atom_site_label
_atom_site_fract_x
_atom_site_fract_y
_atom_site_fract_z
Si Si1 0.608000 0.848146 0.486130
Si Si2 0.166737 0.800975 0.236143
Si Si3 0.295215 0.345643 0.546643
Si Si4 0.476623 0.270096 0.822649
Si Si5 0.494617 0.592633 0.571180
Si Si6 0.389331 0.212940 0.227181
Si Si7 0.264167 0.211650 0.818466
Si Si8 0.903449 0.591096 0.494947
O O1 0.641548 0.791459 0.303902
O O2 0.708916 0.884991 0.496513
O O3 0.559186 0.784087 0.654873
O O4 0.511219 0.903329 0.512476
O O5 0.279401 0.814677 0.232889
O O6 0.078700 0.858597 0.388307
O O7 0.180571 0.812116 0.028281
O O8 0.379608 0.397208 0.578703
O O9 0.362117 0.284952 0.374878
O O10 0.236515 0.285887 0.724276
O O11 0.494189 0.360780 0.748057
O O12 0.364342 0.244784 0.837522
O O13 0.466706 0.246679 0.021723
O O14 0.521206 0.500000 0.563891
O O15 0.426954 0.139486 0.307030
O O16 0.310354 0.139660 0.668201
O O17 0.873977 0.500000 0.490762
#
# Coordination Sequence:
#
# PCOD9132253 Si02
#       8
#     4   4   4   4   4   4   4   4
#     4   9  18  32  52  75 100 138 181 214 246 296
#     4   9  17  32  56  78  98 134 179 215 251 305
#     4   9  18  32  52  75 100 139 183 212 241 297
#     4   8  16  33  54  73  95 132 180 217 250 301
#     4  10  20  33  50  78 113 138 163 210 265 311
#     4   9  17  33  56  75  96 134 180 218 253 303
#     4   8  16  32  54  76  98 132 176 215 251 300
#     4  10  20  33  50  78 112 135 162 215 271 309
#
# _framework density 18.779267000000001
#
# number of rings (size 3 to 8) (size 9 to 14) (size 15 to 20)
#    0.000    3.000    0.000    2.250    0.000    3.500 
#    0.000    5.625    0.000   15.750    0.000    0.000 
#    0.000    0.000    0.000    0.000    0.000    0.000 
#
# Total GULP energy -89123.164817 kJ/mol
# GULP energy per Si atom -5570.197801 kJ/mol
# Density = 1.873652 g / cm^3
# Si number density = 18.779267 Si / 1000 Ang^3
#
#
#
# Elastic Constant Matrix: (Units=GPa)
#
#
# Indices 1 2 3 4 5 6 
#
# 1 65.3732 15.9246 11.9404 0.0000 -1.0833 0.0000
# 2 15.9246 58.6043 35.1423 0.0000 4.5846 0.0000
# 3 11.9404 35.1423 115.7526 0.0000 12.7698 0.0000
# 4 0.0000 0.0000 0.0000 12.6663 0.0000 2.2538
# 5 -1.0833 4.5846 12.7698 0.0000 20.6781 0.0000
# 6 0.0000 0.0000 0.0000 2.2538 0.0000 12.4618
#
#
#
# Elastic Compliance Matrix: (Units=1/GPa)
#
#
# Indices 1 2 3 4 5 6 
#
# 1 0.016491 -0.004264 -0.000650 0.000000 0.002211 0.000000
# 2 -0.004264 0.021975 -0.006084 0.000000 -0.001338 0.000000
# 3 -0.000650 -0.006084 0.011169 0.000000 -0.005583 0.000000
# 4 0.000000 0.000000 0.000000 0.081575 0.000000 -0.014753
# 5 0.002211 -0.001338 -0.005583 0.000000 0.052221 0.000000
# 6 0.000000 0.000000 0.000000 -0.014753 0.000000 0.082913
#
#
# Mechanical properties :
#
#
# Convention : Reuss Voigt Hill
#
# Bulk Modulus (GPa) = 36.18183 40.63830 38.41007
# Shear Modulus (GPa) = 16.80366 20.94276 18.87321
#
# Velocity S-wave (km/s) = 2.99456 3.34309 3.17362
# Velocity P-wave (km/s) = 5.59154 6.04886 5.82469
#
# Compressibility (1/GPa) = 0.02763818
#
# Stress axis : x y z
#
# Youngs Moduli (GPa) = 60.63944 45.50555 89.53154
#
# Poissons Ratio (x) = 0.19404 0.05824
# Poissons Ratio (y) = 0.25857 0.54473
# Poissons Ratio (z) = 0.03945 0.27686
#
# Static dielectric constant tensor:
#      x y z
#    x 1.737950 0.000000 -0.003880 
#    y 0.000000 1.612970 0.000000 
#    z -0.003880 0.000000 1.676490 
# 
# From -- ./inp_files/13280.got.cif
#   From: 2010.05.17/outbox.cif.g08.bks.cpg/sg8_7_cif.got.tgz:13280.got - 2010.06.03 19:46:02.
