data_PCOD9132780
_publ_section_title
;
Structure prediction by ZEFSAII (Michael W. Deem and Ramdas Pophale) SiO2 
 PCOD9132780
Probable space group: C M
;
_chemical_formula_sum "Si O2"
_cell_formula_units_Z 26
_cell_length_a 24.111898
_cell_length_b 7.578452
_cell_length_c 10.374107
_cell_angle_alpha 90.000000
_cell_angle_beta 142.445016
_cell_angle_gamma 90.000000
_cell_volume 1155.453203
_symmetry_space_group_name_H-M "C M"
_symmetry_group_IT_number 8
_symmetry_cell_setting 'monoclinic'
loop_
_space_group_symop_operation_xyz
x,y,z
x,-y,z
1/2+x,1/2+y,z
1/2+x,1/2-y,z
loop_
_atom_site_type_symbol
_atom_site_label
_atom_site_fract_x
_atom_site_fract_y
_atom_site_fract_z
Si Si1 0.799930 0.206967 0.236060
Si Si2 0.242848 0.702857 0.402092
Si Si3 0.861734 0.214733 0.856469
Si Si4 0.041436 0.211527 0.063082
Si Si5 0.510556 0.294833 0.706049
Si Si6 0.613104 0.000000 0.721956
Si Si7 0.226138 0.810127 0.830556
O O1 0.750278 0.278239 0.272141
O O2 0.906962 0.213952 0.462722
O O3 0.770992 0.000000 0.157518
O O4 0.772363 0.303959 0.056615
O O5 0.273249 0.500000 0.439065
O O6 0.308058 0.778227 0.630356
O O7 0.140544 0.709064 0.262324
O O8 0.807323 0.279596 0.879119
O O9 0.859310 0.000000 0.854344
O O10 0.965578 0.269598 0.025090
O O11 0.050172 0.000000 0.089316
O O12 0.010414 0.247432 0.858513
O O13 0.540601 0.500000 0.747041
O O14 0.571333 0.156368 0.741027
O O15 0.654363 0.845959 0.701391
O O16 0.183445 0.000000 0.726488
#
# Coordination Sequence:
#
# PCOD9132780 Si02
#       7
#     4   4   4   4   4   2   4
#     4  10  20  42  68 101 137 178 224 285 342 401
#     4  10  21  38  69  98 130 176 225 278 342 404
#     4  10  21  46  67  91 138 184 223 280 343 408
#     4  10  21  39  65 100 135 175 223 283 341 404
#     4  10  22  41  68 103 139 175 227 286 342 404
#     4  12  24  44  66  98 136 180 224 286 342 400
#     4  12  26  44  68  98 138 185 231 277 342 413
#
# _framework density 22.501992999999999
#
# number of rings (size 3 to 8) (size 9 to 14) (size 15 to 20)
#    0.000    1.538    3.077    1.385    4.308    3.077 
#    2.769    0.000    0.000    0.000    0.000    0.000 
#    0.000    0.000    0.000    0.000    0.000    0.000 
#
# Total GULP energy -72460.761298 kJ/mol
# GULP energy per Si atom -5573.904715 kJ/mol
# Density = 2.245078 g / cm^3
# Si number density = 22.501993 Si / 1000 Ang^3
#
#
#
# Elastic Constant Matrix: (Units=GPa)
#
#
# Indices 1 2 3 4 5 6 
#
# 1 169.5387 48.9432 8.7941 0.0000 -6.3830 0.0000
# 2 48.9432 123.4120 -3.9692 0.0000 12.2781 0.0000
# 3 8.7941 -3.9692 25.9554 0.0000 -0.5001 0.0000
# 4 0.0000 0.0000 0.0000 15.0026 0.0000 9.8458
# 5 -6.3830 12.2781 -0.5001 0.0000 16.6827 0.0000
# 6 0.0000 0.0000 0.0000 9.8458 0.0000 26.9608
#
#
#
# Elastic Compliance Matrix: (Units=1/GPa)
#
#
# Indices 1 2 3 4 5 6 
#
# 1 0.007255 -0.003493 -0.002891 0.000000 0.005260 0.000000
# 2 -0.003493 0.010464 0.002611 0.000000 -0.008959 0.000000
# 3 -0.002891 0.002611 0.039871 0.000000 -0.001833 0.000000
# 4 0.000000 0.000000 0.000000 0.087666 0.000000 -0.032015
# 5 0.005260 -0.008959 -0.001833 0.000000 0.068494 0.000000
# 6 0.000000 0.000000 0.000000 -0.032015 0.000000 0.048782
#
#
# Mechanical properties :
#
#
# Convention : Reuss Voigt Hill
#
# Bulk Modulus (GPa) = 19.98272 47.38249 33.68261
# Shear Modulus (GPa) = 17.43623 29.40508 23.42065
#
# Velocity S-wave (km/s) = 2.78668 3.61886 3.22968
# Velocity P-wave (km/s) = 4.38791 6.21001 5.37671
#
# Compressibility (1/GPa) = 0.05004324
#
# Stress axis : x y z
#
# Youngs Moduli (GPa) = 137.83840 95.56808 25.08078
#
# Poissons Ratio (x) = 0.33387 0.07251
# Poissons Ratio (y) = 0.48154 -0.06549
# Poissons Ratio (z) = 0.39848 -0.24954
#
# Static dielectric constant tensor:
#      x y z
#    x 1.807810 0.000000 0.020790 
#    y 0.000000 1.835510 0.000000 
#    z 0.020790 0.000000 1.880850 
# 
# From -- ./inp_files/15971.got.cif
#   From: 2010.05.17/outbox.cif.g08.bks.cpg/sg8_8_cif.got.tgz:15971.got - 2010.06.03 19:46:02.
