data_PCOD9132362
_publ_section_title
;
Structure prediction by ZEFSAII (Michael W. Deem and Ramdas Pophale) SiO2 
 PCOD9132362
Probable space group: C M
;
_chemical_formula_sum "Si O2"
_cell_formula_units_Z 32
_cell_length_a 12.662384
_cell_length_b 11.684949
_cell_length_c 11.154836
_cell_angle_alpha 90.000000
_cell_angle_beta 107.327741
_cell_angle_gamma 90.000000
_cell_volume 1575.558458
_symmetry_space_group_name_H-M "C M"
_symmetry_group_IT_number 8
_symmetry_cell_setting 'monoclinic'
loop_
_space_group_symop_operation_xyz
x,y,z
x,-y,z
1/2+x,1/2+y,z
1/2+x,1/2-y,z
loop_
_atom_site_type_symbol
_atom_site_label
_atom_site_fract_x
_atom_site_fract_y
_atom_site_fract_z
Si Si1 0.726420 0.632766 0.422520
Si Si2 0.930319 0.630604 0.089770
Si Si3 0.348037 0.130653 0.708600
Si Si4 0.646571 0.868794 0.013703
Si Si5 0.831613 0.214516 0.255930
Si Si6 0.465605 0.630600 0.745315
Si Si7 0.516776 0.369069 0.487329
Si Si8 0.203784 0.170371 0.872210
O O1 0.707983 0.500000 0.382144
O O2 0.818773 0.634798 0.558438
O O3 0.764201 0.700464 0.319188
O O4 0.617917 0.686994 0.448931
O O5 0.954800 0.500000 0.135437
O O6 0.911268 0.713620 0.194780
O O7 0.031312 0.668249 0.038060
O O8 0.811683 0.630087 0.981620
O O9 0.406861 0.250586 0.766075
O O10 0.235580 0.140600 0.747428
O O11 0.393579 0.000000 0.748732
O O12 0.744092 0.851432 0.143765
O O13 0.633563 0.000000 0.978297
O O14 0.683398 0.799661 0.908556
O O15 0.908099 0.141151 0.369380
O O16 0.414745 0.500000 0.732652
O O17 0.489919 0.661978 0.614317
O O18 0.582507 0.620408 0.852811
O O19 0.552579 0.500000 0.509244
#
# Coordination Sequence:
#
# PCOD9132362 Si02
#       8
#     4   4   4   4   4   4   4   4
#     4  10  20  35  57  87 123 163 206 249 294 362
#     4  10  21  38  59  84 115 156 203 255 307 359
#     4  11  22  39  62  90 127 167 203 249 307 366
#     4  10  23  41  61  87 123 161 204 262 317 361
#     4  11  20  36  61  89 118 158 201 249 308 369
#     4  11  22  38  60  90 123 161 207 252 301 365
#     4  10  20  35  56  83 120 160 198 244 299 359
#     4  11  22  38  64  86 114 164 212 250 304 369
#
# _framework density 20.310257
#
# number of rings (size 3 to 8) (size 9 to 14) (size 15 to 20)
#    0.000    1.500    2.500    3.375    0.000    2.000 
#    0.000    0.000    0.000   11.250    0.000    0.000 
#    0.000    0.000    0.000    0.000    0.000    0.000 
#
# Total GULP energy -89106.623096 kJ/mol
# GULP energy per Si atom -5569.163944 kJ/mol
# Density = 2.026403 g / cm^3
# Si number density = 20.310257 Si / 1000 Ang^3
#
#
#
# Elastic Constant Matrix: (Units=GPa)
#
#
# Indices 1 2 3 4 5 6 
#
# 1 63.2175 46.6776 -3.7243 0.0000 3.3593 0.0000
# 2 46.6776 102.4519 15.2801 0.0000 -9.5657 0.0000
# 3 -3.7243 15.2801 53.8408 0.0000 3.1989 0.0000
# 4 0.0000 0.0000 0.0000 11.0975 0.0000 0.7352
# 5 3.3593 -9.5657 3.1989 0.0000 35.7755 0.0000
# 6 0.0000 0.0000 0.0000 0.7352 0.0000 23.4650
#
#
#
# Elastic Compliance Matrix: (Units=1/GPa)
#
#
# Indices 1 2 3 4 5 6 
#
# 1 0.026629 -0.013671 0.006120 0.000000 -0.006703 0.000000
# 2 -0.013671 0.017541 -0.006312 0.000000 0.006538 0.000000
# 3 0.006120 -0.006312 0.021034 0.000000 -0.004143 0.000000
# 4 0.000000 0.000000 0.000000 0.090298 0.000000 -0.002829
# 5 -0.006703 0.006538 -0.004143 0.000000 0.030700 0.000000
# 6 0.000000 0.000000 0.000000 -0.002829 0.000000 0.042705
#
#
# Mechanical properties :
#
#
# Convention : Reuss Voigt Hill
#
# Bulk Modulus (GPa) = 26.68212 37.33078 32.00645
# Shear Modulus (GPa) = 18.57856 24.81941 21.69898
#
# Velocity S-wave (km/s) = 3.02774 3.49952 3.27215
# Velocity P-wave (km/s) = 5.03873 5.89483 5.48351
#
# Compressibility (1/GPa) = 0.03747828
#
# Stress axis : x y z
#
# Youngs Moduli (GPa) = 37.55236 57.00845 47.54151
#
# Poissons Ratio (x) = 0.77937 -0.29096
# Poissons Ratio (y) = 0.51339 0.30010
# Poissons Ratio (z) = -0.22983 0.35986
#
# Static dielectric constant tensor:
#      x y z
#    x 1.764540 0.000000 0.015360 
#    y 0.000000 1.742430 0.000000 
#    z 0.015360 0.000000 1.740940 
# 
# From -- ./inp_files/20212.got.cif
#   From: 2010.05.17/outbox.cif.g08.bks.cpg/sg8_11_cif.got.tgz:20212.got - 2010.06.03 19:46:02.
