data_PCOD9132623
_publ_section_title
;
Structure prediction by ZEFSAII (Michael W. Deem and Ramdas Pophale) SiO2 
 PCOD9132623
Probable space group: C M
;
_chemical_formula_sum "Si O2"
_cell_formula_units_Z 30
_cell_length_a 9.055876
_cell_length_b 11.686076
_cell_length_c 17.137008
_cell_angle_alpha 90.000000
_cell_angle_beta 60.676003
_cell_angle_gamma 90.000000
_cell_volume 1581.186265
_symmetry_space_group_name_H-M "C M"
_symmetry_group_IT_number 8
_symmetry_cell_setting 'monoclinic'
loop_
_space_group_symop_operation_xyz
x,y,z
x,-y,z
1/2+x,1/2+y,z
1/2+x,1/2-y,z
loop_
_atom_site_type_symbol
_atom_site_label
_atom_site_fract_x
_atom_site_fract_y
_atom_site_fract_z
Si Si1 0.263240 0.864525 0.707460
Si Si2 0.809018 0.273656 0.120766
Si Si3 0.394138 0.500000 0.684163
Si Si4 0.372749 0.701124 0.803211
Si Si5 0.483895 0.706932 0.546861
Si Si6 0.938717 0.131938 0.232352
Si Si7 0.306403 0.634181 0.440018
Si Si8 0.183183 0.365080 0.004816
O O1 0.360150 0.819311 0.759055
O O2 0.339347 0.793862 0.615740
O O3 0.066747 0.833288 0.768898
O O4 0.277234 0.000000 0.691912
O O5 0.640100 0.348724 0.173032
O O6 0.845597 0.208455 0.192196
O O7 0.766282 0.185730 0.061909
O O8 0.981845 0.341424 0.058075
O O9 0.310341 0.601087 0.761269
O O10 0.481874 0.601430 0.607402
O O11 0.266507 0.698391 0.909486
O O12 0.440771 0.657978 0.473199
O O13 0.651351 0.782484 0.498948
O O14 0.879394 0.158639 0.335488
O O15 0.898257 0.000000 0.227336
O O16 0.255820 0.500000 0.456604
O O17 0.216911 0.500000 0.989822
#
# Coordination Sequence:
#
# PCOD9132623 Si02
#       8
#     4   4   2   4   4   4   4   4
#     4  11  23  40  59  84 122 160 204 252 300 350
#     4  10  22  38  62  91 118 159 195 247 302 368
#     4  10  20  38  60  82 120 162 194 242 304 342
#     4  11  22  40  60  88 120 163 199 253 298 350
#     4  11  22  39  62  86 121 161 203 246 299 354
#     4  10  21  40  62  87 124 154 195 248 308 352
#     4  11  23  40  62  92 120 159 204 251 297 366
#     4  11  21  38  62  88 121 155 204 243 298 360
#
# _framework density 18.973098
#
# number of rings (size 3 to 8) (size 9 to 14) (size 15 to 20)
#    0.000    1.333    2.000    4.400    0.000    0.000 
#    6.000    3.333    2.933    0.000    0.000    0.000 
#    0.000    0.000    0.000    0.000    0.000    0.000 
#
# Total GULP energy -83507.521695 kJ/mol
# GULP energy per Si atom -5567.168113 kJ/mol
# Density = 1.892991 g / cm^3
# Si number density = 18.973098 Si / 1000 Ang^3
#
#
#
# Elastic Constant Matrix: (Units=GPa)
#
#
# Indices 1 2 3 4 5 6 
#
# 1 37.1960 22.7921 9.8118 0.0000 5.4303 0.0000
# 2 22.7921 78.3739 24.3333 0.0000 -0.0890 0.0000
# 3 9.8118 24.3333 90.4041 0.0000 13.0772 0.0000
# 4 0.0000 0.0000 0.0000 8.7856 0.0000 -8.4772
# 5 5.4303 -0.0890 13.0772 0.0000 23.4219 0.0000
# 6 0.0000 0.0000 0.0000 -8.4772 0.0000 -1.1080
#
#
#
# Elastic Compliance Matrix: (Units=1/GPa)
#
#
# Indices 1 2 3 4 5 6 
#
# 1 0.034135 -0.009981 0.000143 0.000000 -0.008032 0.000000
# 2 -0.009981 0.016959 -0.004162 0.000000 0.004702 0.000000
# 3 0.000143 -0.004162 0.013243 0.000000 -0.007443 0.000000
# 4 0.000000 0.000000 0.000000 0.013579 0.000000 -0.103891
# 5 -0.008032 0.004702 -0.007443 0.000000 0.048731 0.000000
# 6 0.000000 0.000000 0.000000 -0.103891 0.000000 -0.107671
#
#
# Mechanical properties :
#
#
# Convention : Reuss Voigt Hill
#
# Bulk Modulus (GPa) = 27.51833 35.53871 31.52852
# Shear Modulus (GPa) = 84.62119 16.15568 50.38843
#
# Velocity S-wave (km/s) = 6.68561 2.92122 5.15902
# Velocity P-wave (km/s) = 8.60999 5.49088 7.22086
#
# Compressibility (1/GPa) = 0.03633941
#
# Stress axis : x y z
#
# Youngs Moduli (GPa) = 29.29540 58.96480 75.51339
#
# Poissons Ratio (x) = 0.58850 -0.01084
# Poissons Ratio (y) = 0.29238 0.31427
# Poissons Ratio (z) = -0.00420 0.24540
#
# Static dielectric constant tensor:
#      x y z
#    x 1.689090 0.000000 0.019030 
#    y 0.000000 1.632300 0.000000 
#    z 0.019030 0.000000 1.643250 
# 
# From -- ./inp_files/25149.got.cif
#   From: 2010.05.17/outbox.cif.g08.bks.cpg/sg8_13_cif.got.tgz:25149.got - 2010.06.03 19:46:02.
