data_PCOD9132174
_publ_section_title
;
Structure prediction by ZEFSAII (Michael W. Deem and Ramdas Pophale) SiO2 
 PCOD9132174
Probable space group: C M
;
_chemical_formula_sum "Si O2"
_cell_formula_units_Z 28
_cell_length_a 13.464413
_cell_length_b 16.669053
_cell_length_c 7.780983
_cell_angle_alpha 90.000000
_cell_angle_beta 136.493855
_cell_angle_gamma 90.000000
_cell_volume 1202.248102
_symmetry_space_group_name_H-M "C M"
_symmetry_group_IT_number 8
_symmetry_cell_setting 'monoclinic'
loop_
_space_group_symop_operation_xyz
x,y,z
x,-y,z
1/2+x,1/2+y,z
1/2+x,1/2-y,z
loop_
_atom_site_type_symbol
_atom_site_label
_atom_site_fract_x
_atom_site_fract_y
_atom_site_fract_z
Si Si1 0.770720 0.187643 0.566450
Si Si2 0.506713 0.593337 0.683854
Si Si3 0.778887 0.809782 0.955569
Si Si4 0.805425 0.403735 0.196416
Si Si5 0.082305 0.196110 0.500930
Si Si6 0.989957 0.404137 0.108458
Si Si7 0.019969 0.403358 0.763067
O O1 0.692536 0.274875 0.488548
O O2 0.635885 0.128740 0.371992
O O3 0.883670 0.158970 0.567085
O O4 0.835316 0.168699 0.835707
O O5 0.461288 0.500000 0.644870
O O6 0.567295 0.608379 0.566498
O O7 0.635781 0.611030 0.980187
O O8 0.919432 0.784896 0.237342
O O9 0.651880 0.747205 0.745009
O O10 0.683975 0.878014 0.927423
O O11 0.819214 0.500000 0.219093
O O12 0.867331 0.380087 0.087825
O O13 0.907853 0.373846 0.477316
O O14 0.993759 0.500000 0.105182
O O15 0.978111 0.372624 0.899894
O O16 0.013523 0.500000 0.756906
#
# Coordination Sequence:
#
# PCOD9132174 Si02
#       7
#     4   4   4   4   4   4   4
#     4  10  23  42  67 100 141 191 238 293 371 433
#     4  11  24  47  75 103 144 194 249 307 367 435
#     4  10  23  44  66 103 148 192 238 307 365 441
#     4   9  19  38  65 103 146 184 237 310 367 424
#     4  10  25  46  67 105 144 192 241 305 367 437
#     4  10  19  36  66 101 139 188 244 297 360 434
#     4  10  20  37  71 109 143 195 251 301 365 444
#
# _framework density 23.289701000000001
#
# number of rings (size 3 to 8) (size 9 to 14) (size 15 to 20)
#    0.857    1.143    1.429    1.286    4.000    2.286 
#   10.286    0.000    0.000    0.000    0.000    1.000 
#    0.000    0.000    0.000    0.000    0.000    0.000 
#
# Total GULP energy -78018.837895 kJ/mol
# GULP energy per Si atom -5572.774135 kJ/mol
# Density = 2.323669 g / cm^3
# Si number density = 23.289701 Si / 1000 Ang^3
#
#
#
# Elastic Constant Matrix: (Units=GPa)
#
#
# Indices 1 2 3 4 5 6 
#
# 1 93.7942 36.9935 40.3809 0.0000 4.3138 0.0000
# 2 36.9935 51.4470 38.8850 0.0000 1.3947 0.0000
# 3 40.3809 38.8850 137.9715 0.0000 14.7285 0.0000
# 4 0.0000 0.0000 0.0000 28.2670 0.0000 3.9897
# 5 4.3138 1.3947 14.7285 0.0000 40.5352 0.0000
# 6 0.0000 0.0000 0.0000 3.9897 0.0000 33.7998
#
#
#
# Elastic Compliance Matrix: (Units=1/GPa)
#
#
# Indices 1 2 3 4 5 6 
#
# 1 0.015222 -0.009676 -0.001655 0.000000 -0.000686 0.000000
# 2 -0.009676 0.030969 -0.006130 0.000000 0.002192 0.000000
# 3 -0.001655 -0.006130 0.009799 0.000000 -0.003173 0.000000
# 4 0.000000 0.000000 0.000000 0.035976 0.000000 -0.004247
# 5 -0.000686 0.002192 -0.003173 0.000000 0.025821 0.000000
# 6 0.000000 0.000000 0.000000 -0.004247 0.000000 0.030087
#
#
# Mechanical properties :
#
#
# Convention : Reuss Voigt Hill
#
# Bulk Modulus (GPa) = 47.46646 57.30350 52.38498
# Shear Modulus (GPa) = 26.34092 31.65062 28.99577
#
# Velocity S-wave (km/s) = 3.36670 3.69046 3.53229
# Velocity P-wave (km/s) = 5.96138 6.54350 6.25921
#
# Compressibility (1/GPa) = 0.02106751
#
# Stress axis : x y z
#
# Youngs Moduli (GPa) = 65.69426 32.29016 102.05502
#
# Poissons Ratio (x) = 0.31245 0.16888
# Poissons Ratio (y) = 0.63567 0.62561
# Poissons Ratio (z) = 0.10871 0.19794
#
# Static dielectric constant tensor:
#      x y z
#    x 1.890070 0.000000 -0.012500 
#    y 0.000000 1.928700 0.000000 
#    z -0.012500 0.000000 1.868170 
# 
# From -- ./inp_files/13576.got.cif
#   From: 2010.05.17/outbox.cif.g08.bks.cpg/sg8_7_cif.got.tgz:13576.got - 2010.06.03 19:46:02.
