data_PCOD9132624
_publ_section_title
;
Structure prediction by ZEFSAII (Michael W. Deem and Ramdas Pophale) SiO2 
 PCOD9132624
Probable space group: C M
;
_chemical_formula_sum "Si O2"
_cell_formula_units_Z 28
_cell_length_a 9.115539
_cell_length_b 9.700488
_cell_length_c 22.642518
_cell_angle_alpha 90.000000
_cell_angle_beta 140.410040
_cell_angle_gamma 90.000000
_cell_volume 1275.959984
_symmetry_space_group_name_H-M "C M"
_symmetry_group_IT_number 8
_symmetry_cell_setting 'monoclinic'
loop_
_space_group_symop_operation_xyz
x,y,z
x,-y,z
1/2+x,1/2+y,z
1/2+x,1/2-y,z
loop_
_atom_site_type_symbol
_atom_site_label
_atom_site_fract_x
_atom_site_fract_y
_atom_site_fract_z
Si Si1 0.486470 0.340209 0.218700
Si Si2 0.558646 0.339022 0.106256
Si Si3 0.046228 0.652607 0.925278
Si Si4 0.586828 0.148071 0.670738
Si Si5 0.196706 0.658164 0.512108
Si Si6 0.769907 0.840197 0.399770
Si Si7 0.060022 0.723283 0.797245
O O1 0.464659 0.500000 0.230972
O O2 0.600702 0.339988 0.189652
O O3 0.241829 0.264341 0.135795
O O4 0.627404 0.249312 0.308953
O O5 0.578024 0.500000 0.091680
O O6 0.298838 0.287605 0.014727
O O7 0.055681 0.500000 0.954108
O O8 0.014855 0.645915 0.844641
O O9 0.822631 0.724991 0.881595
O O10 0.445554 0.277611 0.602647
O O11 0.553483 0.151846 0.731364
O O12 0.853889 0.165095 0.735465
O O13 0.499548 0.000000 0.621515
O O14 0.177204 0.500000 0.526567
O O15 0.157137 0.659038 0.429430
O O16 0.012471 0.762155 0.482195
O O17 0.795859 0.000000 0.389010
#
# Coordination Sequence:
#
# PCOD9132624 Si02
#       7
#     4   4   4   4   4   4   4
#     4  11  23  39  61  90 122 156 197 243 293 351
#     4  10  22  39  60  88 121 157 199 245 293 349
#     4  10  20  38  60  83 117 158 197 242 295 346
#     4  11  23  39  60  88 120 155 198 245 295 352
#     4  11  25  42  62  89 120 155 197 244 294 352
#     4  11  24  42  64  90 120 155 197 243 293 352
#     4  10  22  37  59  88 118 154 199 246 293 348
#
# _framework density 21.944261999999998
#
# number of rings (size 3 to 8) (size 9 to 14) (size 15 to 20)
#    0.000    1.429    0.000    4.714    0.000   12.571 
#    0.000    3.571    0.000    0.000    0.000    0.000 
#    0.000    0.000    0.000    0.000    0.000    0.000 
#
# Total GULP energy -78196.672786 kJ/mol
# GULP energy per Si atom -5585.476628 kJ/mol
# Density = 2.189432 g / cm^3
# Si number density = 21.944262 Si / 1000 Ang^3
#
#
#
# Elastic Constant Matrix: (Units=GPa)
#
#
# Indices 1 2 3 4 5 6 
#
# 1 86.4174 34.2921 2.7577 0.0000 3.6740 0.0000
# 2 34.2921 140.0945 25.1179 0.0000 13.2547 0.0000
# 3 2.7577 25.1179 71.8902 0.0000 5.6620 0.0000
# 4 0.0000 0.0000 0.0000 24.6001 0.0000 0.3057
# 5 3.6740 13.2547 5.6620 0.0000 38.9683 0.0000
# 6 0.0000 0.0000 0.0000 0.3057 0.0000 10.8502
#
#
#
# Elastic Compliance Matrix: (Units=1/GPa)
#
#
# Indices 1 2 3 4 5 6 
#
# 1 0.012846 -0.003243 0.000656 0.000000 -0.000203 0.000000
# 2 -0.003243 0.008630 -0.002715 0.000000 -0.002235 0.000000
# 3 0.000656 -0.002715 0.014937 0.000000 -0.001309 0.000000
# 4 0.000000 0.000000 0.000000 0.040664 0.000000 -0.001146
# 5 -0.000203 -0.002235 -0.001309 0.000000 0.026632 0.000000
# 6 0.000000 0.000000 0.000000 -0.001146 0.000000 0.092196
#
#
# Mechanical properties :
#
#
# Convention : Reuss Voigt Hill
#
# Bulk Modulus (GPa) = 38.74468 46.97083 42.85776
# Shear Modulus (GPa) = 23.24376 30.63268 26.93822
#
# Velocity S-wave (km/s) = 3.25809 3.74027 3.50748
# Velocity P-wave (km/s) = 5.64339 6.33276 5.99799
#
# Compressibility (1/GPa) = 0.02580999
#
# Stress axis : x y z
#
# Youngs Moduli (GPa) = 77.84342 115.87407 66.94989
#
# Poissons Ratio (x) = 0.37577 -0.04394
# Poissons Ratio (y) = 0.25244 0.18176
# Poissons Ratio (z) = -0.05109 0.31458
#
# Static dielectric constant tensor:
#      x y z
#    x 1.789200 0.000000 0.004190 
#    y 0.000000 1.788260 0.000000 
#    z 0.004190 0.000000 1.841960 
# 
# From -- ./inp_files/32747.got.cif
#   From: 2010.05.17/outbox.cif.g08.bks.cpg/sg8_17_cif.got.tgz:32747.got - 2010.06.03 19:46:02.
