data_PCOD9132318
_publ_section_title
;
Structure prediction by ZEFSAII (Michael W. Deem and Ramdas Pophale) SiO2 
 PCOD9132318
Probable space group: C M
;
_chemical_formula_sum "Si O2"
_cell_formula_units_Z 32
_cell_length_a 15.081048
_cell_length_b 22.471335
_cell_length_c 9.434776
_cell_angle_alpha 90.000000
_cell_angle_beta 152.071623
_cell_angle_gamma 90.000000
_cell_volume 1497.540947
_symmetry_space_group_name_H-M "C M"
_symmetry_group_IT_number 8
_symmetry_cell_setting 'monoclinic'
loop_
_space_group_symop_operation_xyz
x,y,z
x,-y,z
1/2+x,1/2+y,z
1/2+x,1/2-y,z
loop_
_atom_site_type_symbol
_atom_site_label
_atom_site_fract_x
_atom_site_fract_y
_atom_site_fract_z
Si Si1 0.122440 0.374959 0.672920
Si Si2 0.206773 0.667143 0.489691
Si Si3 0.092358 0.232777 0.127719
Si Si4 0.461673 0.429285 0.311382
Si Si5 0.222625 0.932018 0.177005
Si Si6 0.357981 0.572927 0.486579
Si Si7 0.503057 0.822646 0.763160
Si Si8 0.298098 0.930475 0.596360
O O1 0.114833 0.358762 0.500161
O O2 0.923380 0.403167 0.434159
O O3 0.126090 0.322657 0.794239
O O4 0.301159 0.414483 0.969500
O O5 0.091173 0.722701 0.260770
O O6 0.227117 0.615017 0.400458
O O7 0.410001 0.692223 0.835908
O O8 0.288694 0.197832 0.423112
O O9 0.098113 0.276906 0.003270
O O10 0.484111 0.500000 0.351968
O O11 0.388030 0.410785 0.363232
O O12 0.664698 0.408062 0.535845
O O13 0.174997 0.930067 0.276894
O O14 0.251269 0.000000 0.180503
O O15 0.058279 0.911437 0.843357
O O16 0.324046 0.500000 0.449999
O O17 0.467796 0.885992 0.794255
O O18 0.357200 0.000000 0.701001
#
# Coordination Sequence:
#
# PCOD9132318 Si02
#       8
#     4   4   4   4   4   4   4   4
#     4  11  21  34  58  86 114 148 194 240 283 339
#     4  11  23  41  61  86 116 153 195 239 289 341
#     4  10  23  42  60  77 114 156 195 239 284 341
#     4  10  20  34  56  88 122 155 188 229 286 349
#     4   9  18  33  54  83 118 153 187 229 283 343
#     4  10  21  38  60  87 120 153 189 236 290 345
#     4  10  21  39  59  84 113 150 192 237 288 338
#     4   9  18  35  60  85 113 150 191 235 287 342
#
# _framework density 21.368364
#
# number of rings (size 3 to 8) (size 9 to 14) (size 15 to 20)
#    0.000    2.000    0.000    4.125    0.000    4.500 
#    0.000    5.625    0.000    0.000    0.000    0.000 
#    0.000    0.000    0.000    0.000    0.000    0.000 
#
# Total GULP energy -89175.508068 kJ/mol
# GULP energy per Si atom -5573.469254 kJ/mol
# Density = 2.131973 g / cm^3
# Si number density = 21.368364 Si / 1000 Ang^3
#
#
#
# Elastic Constant Matrix: (Units=GPa)
#
#
# Indices 1 2 3 4 5 6 
#
# 1 247.9876 150.5692 37.4810 0.0000 -83.9983 0.0000
# 2 150.5692 189.5008 28.0630 0.0000 -84.3920 0.0000
# 3 37.4810 28.0630 76.7877 0.0000 -29.3541 0.0000
# 4 0.0000 0.0000 0.0000 -8.6685 0.0000 -17.9038
# 5 -83.9983 -84.3920 -29.3541 0.0000 73.7712 0.0000
# 6 0.0000 0.0000 0.0000 -17.9038 0.0000 17.3576
#
#
#
# Elastic Compliance Matrix: (Units=1/GPa)
#
#
# Indices 1 2 3 4 5 6 
#
# 1 0.008361 -0.004956 -0.000941 0.000000 0.003477 0.000000
# 2 -0.004956 0.013749 0.001474 0.000000 0.010672 0.000000
# 3 -0.000941 0.001474 0.015543 0.000000 0.006799 0.000000
# 4 0.000000 0.000000 0.000000 -0.036852 0.000000 -0.038012
# 5 0.003477 0.010672 0.006799 0.000000 0.032428 0.000000
# 6 0.000000 0.000000 0.000000 -0.038012 0.000000 0.018404
#
#
# Mechanical properties :
#
#
# Convention : Reuss Voigt Hill
#
# Bulk Modulus (GPa) = 34.71339 105.16695 69.94017
# Shear Modulus (GPa) = 71.34463 36.36959 53.85711
#
# Velocity S-wave (km/s) = 5.78450 4.13004 5.02582
# Velocity P-wave (km/s) = 7.80349 8.48917 8.15354
#
# Compressibility (1/GPa) = 0.02880733
#
# Stress axis : x y z
#
# Youngs Moduli (GPa) = 119.59772 72.73103 64.33869
#
# Poissons Ratio (x) = 0.36045 0.06055
# Poissons Ratio (y) = 0.59272 -0.09483
# Poissons Ratio (z) = 0.11255 -0.10720
#
# Static dielectric constant tensor:
#      x y z
#    x 1.788400 0.000000 0.019640 
#    y 0.000000 1.839190 0.000000 
#    z 0.019640 0.000000 1.354660 
# 
# From -- ./inp_files/13835.got.cif
#   From: 2010.05.17/outbox.cif.g08.bks.cpg/sg8_7_cif.got.tgz:13835.got - 2010.06.03 19:46:02.
