data_PCOD9132654
_publ_section_title
;
Structure prediction by ZEFSAII (Michael W. Deem and Ramdas Pophale) SiO2 
 PCOD9132654
Probable space group: C M
;
_chemical_formula_sum "Si O2"
_cell_formula_units_Z 32
_cell_length_a 17.243006
_cell_length_b 15.219838
_cell_length_c 10.760372
_cell_angle_alpha 90.000000
_cell_angle_beta 31.407473
_cell_angle_gamma 90.000000
_cell_volume 1471.596790
_symmetry_space_group_name_H-M "C M"
_symmetry_group_IT_number 8
_symmetry_cell_setting 'monoclinic'
loop_
_space_group_symop_operation_xyz
x,y,z
x,-y,z
1/2+x,1/2+y,z
1/2+x,1/2-y,z
loop_
_atom_site_type_symbol
_atom_site_label
_atom_site_fract_x
_atom_site_fract_y
_atom_site_fract_z
Si Si1 0.921400 0.730334 0.515240
Si Si2 0.856277 0.156183 0.278203
Si Si3 0.783934 0.401043 0.038954
Si Si4 0.563559 0.790209 0.578120
Si Si5 0.267422 0.398984 0.670828
Si Si6 0.167539 0.903214 0.930486
Si Si7 0.456556 0.158482 0.196484
Si Si8 0.162939 0.097926 0.485423
O O1 0.873111 0.831350 0.597010
O O2 0.771896 0.672935 0.736932
O O3 0.980500 0.697977 0.301473
O O4 0.031791 0.712410 0.475525
O O5 0.713911 0.152448 0.385592
O O6 0.776682 0.141334 0.520278
O O7 0.922338 0.253191 0.166320
O O8 0.005506 0.099877 0.089567
O O9 0.844613 0.500000 0.942336
O O10 0.670708 0.389806 0.076650
O O11 0.920289 0.335164 0.835725
O O12 0.715142 0.396762 0.269762
O O13 0.580664 0.691893 0.612664
O O14 0.315741 0.500000 0.605390
O O15 0.101434 0.390483 0.950314
O O16 0.232609 0.000000 0.818487
O O17 0.306906 0.103113 0.379094
O O18 0.093124 0.000000 0.598124
#
# Coordination Sequence:
#
# PCOD9132654 Si02
#       8
#     4   4   4   4   4   4   4   4
#     4  10  23  40  62  92 126 163 202 244 307 373
#     4  10  21  38  59  93 120 154 204 259 300 347
#     4   9  20  38  63  91 119 156 206 252 300 356
#     4  10  22  38  62  91 123 158 199 255 302 352
#     4  11  22  37  65  94 120 157 206 259 300 352
#     4  10  20  38  64  90 122 163 205 252 304 362
#     4  10  21  38  59  86 125 163 199 244 303 368
#     4  10  21  37  62  91 121 158 201 249 300 358
#
# _framework density 21.745086000000001
#
# number of rings (size 3 to 8) (size 9 to 14) (size 15 to 20)
#    0.000    2.000    1.250    1.500    3.500    3.500 
#    0.000    0.000    0.000    0.750    0.000    0.000 
#    0.000    0.000    0.000    0.000    0.000    0.000 
#
# Total GULP energy -89249.632783 kJ/mol
# GULP energy per Si atom -5578.102049 kJ/mol
# Density = 2.169559 g / cm^3
# Si number density = 21.745086 Si / 1000 Ang^3
#
#
#
# Elastic Constant Matrix: (Units=GPa)
#
#
# Indices 1 2 3 4 5 6 
#
# 1 83.5305 11.4407 15.6229 0.0000 -27.1981 0.0000
# 2 11.4407 136.3262 34.8517 0.0000 -14.3332 0.0000
# 3 15.6229 34.8517 46.9920 -0.0001 -21.4927 0.0000
# 4 0.0000 0.0000 -0.0001 25.6227 0.0000 -5.8041
# 5 -27.1981 -14.3332 -21.4927 0.0000 25.4963 0.0000
# 6 0.0000 0.0000 0.0000 -5.8041 0.0000 20.8220
#
#
#
# Elastic Compliance Matrix: (Units=1/GPa)
#
#
# Indices 1 2 3 4 5 6 
#
# 1 0.018998 -0.000329 0.005066 0.000000 0.024352 0.000000
# 2 -0.000329 0.009071 -0.007236 0.000000 -0.001352 0.000000
# 3 0.005066 -0.007236 0.041621 0.000000 0.036421 0.000000
# 4 0.000000 0.000000 0.000000 0.041658 0.000000 0.011612
# 5 0.024352 -0.001352 0.036421 0.000000 0.095140 0.000000
# 6 0.000000 0.000000 0.000000 0.011612 0.000000 0.051263
#
#
# Mechanical properties :
#
#
# Convention : Reuss Voigt Hill
#
# Bulk Modulus (GPa) = 15.45827 43.40883 29.43355
# Shear Modulus (GPa) = 17.58618 28.05043 22.81831
#
# Velocity S-wave (km/s) = 2.84693 3.59551 3.24289
# Velocity P-wave (km/s) = 4.23449 6.10269 5.25232
#
# Compressibility (1/GPa) = 0.06469031
#
# Stress axis : x y z
#
# Youngs Moduli (GPa) = 52.63616 110.24411 24.02655
#
# Poissons Ratio (x) = 0.03628 -0.12171
# Poissons Ratio (y) = 0.01732 0.17386
# Poissons Ratio (z) = -0.26663 0.79775
#
# Static dielectric constant tensor:
#      x y z
#    x 1.829020 0.000000 -0.004090 
#    y 0.000000 1.825870 0.000000 
#    z -0.004090 0.000000 1.794750 
# 
# From -- ./inp_files/23309.got.cif
#   From: 2010.05.17/outbox.cif.g08.bks.cpg/sg8_12_cif.got.tgz:23309.got - 2010.06.03 19:46:02.
