data_PCOD9132262
_publ_section_title
;
Structure prediction by ZEFSAII (Michael W. Deem and Ramdas Pophale) SiO2 
 PCOD9132262
Probable space group: C M
;
_chemical_formula_sum "Si O2"
_cell_formula_units_Z 32
_cell_length_a 14.460138
_cell_length_b 8.787658
_cell_length_c 14.410548
_cell_angle_alpha 90.000000
_cell_angle_beta 87.830784
_cell_angle_gamma 90.000000
_cell_volume 1829.846891
_symmetry_space_group_name_H-M "C M"
_symmetry_group_IT_number 8
_symmetry_cell_setting 'monoclinic'
loop_
_space_group_symop_operation_xyz
x,y,z
x,-y,z
1/2+x,1/2+y,z
1/2+x,1/2-y,z
loop_
_atom_site_type_symbol
_atom_site_label
_atom_site_fract_x
_atom_site_fract_y
_atom_site_fract_z
Si Si1 0.021250 0.681289 0.662270
Si Si2 0.508702 0.317823 0.960836
Si Si3 0.159288 0.182806 0.799581
Si Si4 0.162065 0.817014 0.301683
Si Si5 0.366540 0.316830 0.306217
Si Si6 0.870742 0.316197 0.822029
Si Si7 0.018898 0.317999 0.164707
Si Si8 0.009018 0.817978 0.459431
O O1 0.026806 0.500000 0.660644
O O2 0.110976 0.746648 0.711288
O O3 0.010756 0.742014 0.559155
O O4 0.933830 0.724398 0.730633
O O5 0.506182 0.500000 0.972052
O O6 0.595077 0.277982 0.890318
O O7 0.418498 0.260559 0.908837
O O8 0.517736 0.238639 0.059378
O O9 0.264887 0.230312 0.810912
O O10 0.157624 0.000000 0.789967
O O11 0.264033 0.749652 0.306951
O O12 0.107543 0.748223 0.216020
O O13 0.098695 0.778659 0.393634
O O14 0.164936 0.000000 0.293278
O O15 0.365368 0.500000 0.298271
O O16 0.429713 0.248360 0.222030
O O17 0.420217 0.277096 0.399724
O O18 0.873939 0.500000 0.833010
O O19 0.018728 0.500000 0.169522
O O20 0.008655 0.000000 0.471234
#
# Coordination Sequence:
#
# PCOD9132262 Si02
#       8
#     4   4   4   4   4   4   4   4
#     4  10  20  33  53  79 107 137 176 223 266 314
#     4  10  20  35  55  79 106 138 177 223 270 321
#     4   9  19  36  56  75 103 141 177 216 267 321
#     4  10  21  38  58  81 109 143 182 226 273 324
#     4  10  21  38  58  82 110 141 180 227 273 324
#     4   9  19  36  54  76 105 139 178 219 266 322
#     4  11  22  37  57  80 110 147 182 223 270 322
#     4   9  20  37  55  76 108 144 178 217 265 322
#
# _framework density 17.4878
#
# number of rings (size 3 to 8) (size 9 to 14) (size 15 to 20)
#    0.000    2.250    0.000    3.375    0.000    6.500 
#    0.000    7.500    0.000    0.000    0.000    0.000 
#    0.000    0.000    0.000    0.000    0.000    0.000 
#
# Total GULP energy -89321.783266 kJ/mol
# GULP energy per Si atom -5582.611454 kJ/mol
# Density = 1.744800 g / cm^3
# Si number density = 17.487800 Si / 1000 Ang^3
#
#
#
# Elastic Constant Matrix: (Units=GPa)
#
#
# Indices 1 2 3 4 5 6 
#
# 1 178.2048 58.3158 86.1618 0.0000 20.5794 0.0000
# 2 58.3158 66.7738 64.9527 0.0000 8.2148 0.0000
# 3 86.1618 64.9527 169.8886 0.0000 19.8599 0.0000
# 4 0.0000 0.0000 0.0000 31.9493 0.0000 2.6401
# 5 20.5794 8.2148 19.8599 0.0000 9.1168 0.0000
# 6 0.0000 0.0000 0.0000 2.6401 0.0000 29.1332
#
#
#
# Elastic Compliance Matrix: (Units=1/GPa)
#
#
# Indices 1 2 3 4 5 6 
#
# 1 0.009613 -0.005603 -0.001055 0.000000 -0.014351 0.000000
# 2 -0.005603 0.027141 -0.008258 0.000000 0.006180 0.000000
# 3 -0.001055 -0.008258 0.011311 0.000000 -0.014815 0.000000
# 4 0.000000 0.000000 0.000000 0.031536 0.000000 -0.002858
# 5 -0.014351 0.006180 -0.014815 0.000000 0.168787 0.000000
# 6 0.000000 0.000000 0.000000 -0.002858 0.000000 0.034584
#
#
# Mechanical properties :
#
#
# Convention : Reuss Voigt Hill
#
# Bulk Modulus (GPa) = 54.84707 92.63642 73.74175
# Shear Modulus (GPa) = 15.67987 27.73566 21.70776
#
# Velocity S-wave (km/s) = 2.99761 3.98678 3.52704
# Velocity P-wave (km/s) = 6.58878 8.61856 7.67110
#
# Compressibility (1/GPa) = 0.01823251
#
# Stress axis : x y z
#
# Youngs Moduli (GPa) = 104.03071 36.84437 88.41313
#
# Poissons Ratio (x) = 0.20643 0.09332
# Poissons Ratio (y) = 0.58286 0.73008
# Poissons Ratio (z) = 0.10980 0.30425
#
# Static dielectric constant tensor:
#      x y z
#    x 1.578790 0.000000 -0.007720 
#    y 0.000000 1.582620 0.000000 
#    z -0.007720 0.000000 1.566490 
# 
# From -- ./inp_files/21527.got.cif
#   From: 2010.05.17/outbox.cif.g08.bks.cpg/sg8_11_cif.got.tgz:21527.got - 2010.06.03 19:46:02.
