data_PCOD9132274
_publ_section_title
;
Structure prediction by ZEFSAII (Michael W. Deem and Ramdas Pophale) SiO2 
 PCOD9132274
Probable space group: C M
;
_chemical_formula_sum "Si O2"
_cell_formula_units_Z 32
_cell_length_a 14.630157
_cell_length_b 8.569110
_cell_length_c 12.457447
_cell_angle_alpha 90.000000
_cell_angle_beta 90.778933
_cell_angle_gamma 90.000000
_cell_volume 1561.613726
_symmetry_space_group_name_H-M "C M"
_symmetry_group_IT_number 8
_symmetry_cell_setting 'monoclinic'
loop_
_space_group_symop_operation_xyz
x,y,z
x,-y,z
1/2+x,1/2+y,z
1/2+x,1/2-y,z
loop_
_atom_site_type_symbol
_atom_site_label
_atom_site_fract_x
_atom_site_fract_y
_atom_site_fract_z
Si Si1 0.170480 0.184909 0.265430
Si Si2 0.446573 0.188556 0.628405
Si Si3 0.517728 0.188087 0.398020
Si Si4 0.124792 0.680223 0.043274
Si Si5 0.295863 0.688701 0.763676
Si Si6 0.875507 0.687482 0.216695
Si Si7 0.088906 0.690437 0.811425
Si Si8 0.343163 0.679618 0.992895
O O1 0.117737 0.258058 0.364341
O O2 0.118501 0.228647 0.154037
O O3 0.274511 0.242012 0.251653
O O4 0.172382 0.000000 0.277163
O O5 0.482936 0.241350 0.513467
O O6 0.347468 0.249494 0.660700
O O7 0.515374 0.241879 0.723493
O O8 0.445338 0.000000 0.628185
O O9 0.449300 0.244214 0.303349
O O10 0.516261 0.000000 0.398427
O O11 0.097817 0.500000 0.061945
O O12 0.233266 0.680600 0.014709
O O13 0.076518 0.742852 0.934792
O O14 0.298541 0.500000 0.766031
O O15 0.190190 0.735674 0.772858
O O16 0.347989 0.746439 0.872733
O O17 0.875279 0.500000 0.219486
O O18 0.889587 0.736063 0.093606
O O19 0.087847 0.500000 0.816279
O O20 0.372839 0.500000 0.992747
#
# Coordination Sequence:
#
# PCOD9132274 Si02
#       8
#     4   4   4   4   4   4   4   4
#     4  10  20  34  53  77 103 130 165 210 253 293
#     4  10  21  36  53  74  99 131 175 214 242 289
#     4  10  22  38  52  70 100 137 174 208 246 296
#     4   8  14  29  53  77 102 132 163 196 245 307
#     4   9  18  34  54  76 104 133 161 202 255 300
#     4   9  19  35  53  74 103 135 164 203 254 298
#     4   8  16  33  55  76 101 134 166 199 246 303
#     4   8  15  29  51  78 104 130 162 200 245 302
#
# _framework density 20.491624000000002
#
# number of rings (size 3 to 8) (size 9 to 14) (size 15 to 20)
#    0.000    3.000    0.000    1.875    0.000    4.000 
#    0.000    6.875    0.000    0.000    0.000    0.000 
#    0.000    0.000    0.000    0.000    0.000    0.000 
#
# Total GULP energy -89271.490999 kJ/mol
# GULP energy per Si atom -5579.468187 kJ/mol
# Density = 2.044498 g / cm^3
# Si number density = 20.491624 Si / 1000 Ang^3
#
#
#
# Elastic Constant Matrix: (Units=GPa)
#
#
# Indices 1 2 3 4 5 6 
#
# 1 60.1200 3.2793 26.6971 0.0000 -12.5185 0.0000
# 2 3.2793 1.8787 9.4754 0.0000 -1.6038 0.0000
# 3 26.6971 9.4754 75.3878 0.0000 -24.4809 0.0000
# 4 0.0000 0.0000 0.0000 26.8588 0.0000 -8.0402
# 5 -12.5185 -1.6038 -24.4809 0.0000 37.3710 0.0000
# 6 0.0000 0.0000 0.0000 -8.0402 0.0000 16.0102
#
#
#
# Elastic Compliance Matrix: (Units=1/GPa)
#
#
# Indices 1 2 3 4 5 6 
#
# 1 0.019944 -0.003785 -0.005678 0.000000 0.002799 0.000000
# 2 -0.003785 1.629514 -0.230127 0.000000 -0.082086 0.000000
# 3 -0.005678 -0.230127 0.051285 0.000000 0.021817 0.000000
# 4 0.000000 0.000000 0.000000 0.043819 0.000000 0.022006
# 5 0.002799 -0.082086 0.021817 0.000000 0.038465 0.000000
# 6 0.000000 0.000000 0.000000 0.022006 0.000000 0.073511
#
#
# Mechanical properties :
#
#
# Convention : Reuss Voigt Hill
#
# Bulk Modulus (GPa) = 0.81862 24.03222 12.42542
# Shear Modulus (GPa) = 1.82288 22.57698 12.19993
#
# Velocity S-wave (km/s) = 0.94420 3.32289 2.44265
# Velocity P-wave (km/s) = 1.26057 5.14542 3.74596
#
# Compressibility (1/GPa) = 1.22156208
#
# Stress axis : x y z
#
# Youngs Moduli (GPa) = 50.14006 0.61368 19.49898
#
# Poissons Ratio (x) = 0.00232 0.11072
# Poissons Ratio (y) = 0.18976 4.48725
# Poissons Ratio (z) = 0.28471 0.14122
#
# Static dielectric constant tensor:
#      x y z
#    x 1.768040 0.000000 0.006850 
#    y 0.000000 1.702010 0.000000 
#    z 0.006850 0.000000 1.731050 
# 
# From -- ./inp_files/21550.got.cif
#   From: 2010.05.17/outbox.cif.g08.bks.cpg/sg8_11_cif.got.tgz:21550.got - 2010.06.03 19:46:02.
