data_PCOD9132499
_publ_section_title
;
Structure prediction by ZEFSAII (Michael W. Deem and Ramdas Pophale) SiO2 
 PCOD9132499
Probable space group: C M
;
_chemical_formula_sum "Si O2"
_cell_formula_units_Z 26
_cell_length_a 13.400925
_cell_length_b 12.744997
_cell_length_c 10.353150
_cell_angle_alpha 90.000000
_cell_angle_beta 55.817059
_cell_angle_gamma 90.000000
_cell_volume 1462.792377
_symmetry_space_group_name_H-M "C M"
_symmetry_group_IT_number 8
_symmetry_cell_setting 'monoclinic'
loop_
_space_group_symop_operation_xyz
x,y,z
x,-y,z
1/2+x,1/2+y,z
1/2+x,1/2-y,z
loop_
_atom_site_type_symbol
_atom_site_label
_atom_site_fract_x
_atom_site_fract_y
_atom_site_fract_z
Si Si1 0.305760 0.385223 0.189020
Si Si2 0.240898 0.187538 0.396976
Si Si3 0.553250 0.621753 0.879075
Si Si4 0.740750 0.785123 0.680413
Si Si5 0.675740 0.000000 0.075396
Si Si6 0.915633 0.500000 0.183131
Si Si7 0.120841 0.500000 0.828670
Si Si8 0.973777 0.877320 0.643810
O O1 0.291100 0.500000 0.264439
O O2 0.251751 0.291394 0.305403
O O3 0.237993 0.402775 0.101714
O O4 0.446436 0.368050 0.059344
O O5 0.262988 0.225769 0.528397
O O6 0.104890 0.145525 0.488814
O O7 0.334284 0.101087 0.275029
O O8 0.594092 0.500000 0.846940
O O9 0.659525 0.703945 0.821100
O O10 0.493520 0.643260 0.782085
O O11 0.661604 0.893225 0.727333
O O12 0.866202 0.812855 0.657638
O O13 0.532013 0.000000 0.193162
O O14 0.695951 0.000000 0.908875
O O15 0.984120 0.500000 0.991489
O O16 0.949299 0.000000 0.643984
#
# Coordination Sequence:
#
# PCOD9132499 Si02
#       8
#     4   4   4   4   2   2   2   4
#     4   9  19  36  59  84 116 149 192 242 286 352
#     4  11  23  37  58  89 120 155 192 249 300 345
#     4   9  19  38  59  83 111 153 198 240 288 351
#     4  11  22  33  62  86 118 151 197 245 292 354
#     4   8  20  35  63  81 109 154 202 231 293 352
#     4  10  22  39  59  87 116 153 208 238 288 353
#     4  10  20  36  60  90 105 157 200 241 281 351
#     4  10  20  37  58  81 112 152 197 237 296 347
#
# _framework density 17.774222999999999
#
# number of rings (size 3 to 8) (size 9 to 14) (size 15 to 20)
#    0.923    1.231    1.538    1.846    4.308    0.000 
#    0.000    0.769    1.692    0.000    6.000    0.000 
#    0.000    0.000    0.000    0.000    0.000    0.000 
#
# Total GULP energy -72370.296799 kJ/mol
# GULP energy per Si atom -5566.945908 kJ/mol
# Density = 1.773377 g / cm^3
# Si number density = 17.774223 Si / 1000 Ang^3
#
#
#
# Elastic Constant Matrix: (Units=GPa)
#
#
# Indices 1 2 3 4 5 6 
#
# 1 78.4986 31.0806 18.6148 0.0000 -30.3318 0.0000
# 2 31.0806 62.8475 26.5189 0.0000 -18.2535 0.0000
# 3 18.6148 26.5189 59.2852 0.0000 -24.8542 0.0000
# 4 0.0000 0.0000 0.0000 15.8464 0.0000 -7.1248
# 5 -30.3318 -18.2535 -24.8542 0.0000 29.6730 0.0000
# 6 0.0000 0.0000 0.0000 -7.1248 0.0000 29.0810
#
#
#
# Elastic Compliance Matrix: (Units=1/GPa)
#
#
# Indices 1 2 3 4 5 6 
#
# 1 0.023808 -0.007094 0.006274 0.000000 0.025228 0.000000
# 2 -0.007094 0.022801 -0.007909 0.000000 0.000150 0.000000
# 3 0.006274 -0.007909 0.029413 0.000000 0.026185 0.000000
# 4 0.000000 0.000000 0.000000 0.070917 0.000000 0.017375
# 5 0.025228 0.000150 0.026185 0.000000 0.081513 0.000000
# 6 0.000000 0.000000 0.000000 0.017375 0.000000 0.038643
#
#
# Mechanical properties :
#
#
# Convention : Reuss Voigt Hill
#
# Bulk Modulus (GPa) = 17.07531 39.22889 28.15210
# Shear Modulus (GPa) = 16.44333 23.21455 19.82894
#
# Velocity S-wave (km/s) = 3.04488 3.61789 3.34369
# Velocity P-wave (km/s) = 4.68928 6.29053 5.54798
#
# Compressibility (1/GPa) = 0.05856408
#
# Stress axis : x y z
#
# Youngs Moduli (GPa) = 42.00218 43.85849 33.99901
#
# Poissons Ratio (x) = 0.31115 -0.21332
# Poissons Ratio (y) = 0.29798 0.26889
# Poissons Ratio (z) = -0.26354 0.34686
#
# Static dielectric constant tensor:
#      x y z
#    x 1.597950 0.000000 -0.006170 
#    y 0.000000 1.609190 0.000000 
#    z -0.006170 0.000000 1.642070 
# 
# From -- ./inp_files/21812.got.cif
#   From: 2010.05.17/outbox.cif.g08.bks.cpg/sg8_11_cif.got.tgz:21812.got - 2010.06.03 19:46:02.
