data_PCOD9132555
_publ_section_title
;
Structure prediction by ZEFSAII (Michael W. Deem and Ramdas Pophale) SiO2 
 PCOD9132555
Probable space group: C M
;
_chemical_formula_sum "Si O2"
_cell_formula_units_Z 32
_cell_length_a 11.187318
_cell_length_b 16.560921
_cell_length_c 18.567944
_cell_angle_alpha 90.000000
_cell_angle_beta 152.869178
_cell_angle_gamma 90.000000
_cell_volume 1568.778852
_symmetry_space_group_name_H-M "C M"
_symmetry_group_IT_number 8
_symmetry_cell_setting 'monoclinic'
loop_
_space_group_symop_operation_xyz
x,y,z
x,-y,z
1/2+x,1/2+y,z
1/2+x,1/2-y,z
loop_
_atom_site_type_symbol
_atom_site_label
_atom_site_fract_x
_atom_site_fract_y
_atom_site_fract_z
Si Si1 0.349180 0.363108 0.051180
Si Si2 0.989952 0.852899 0.873797
Si Si3 0.251887 0.910221 0.153461
Si Si4 0.964630 0.096089 0.279068
Si Si5 0.806124 0.679205 0.793766
Si Si6 0.245271 0.401686 0.514230
Si Si7 0.461618 0.187130 0.044186
Si Si8 0.524156 0.909253 0.550621
O O1 0.530895 0.413340 0.096129
O O2 0.416292 0.386625 0.168517
O O3 0.422888 0.270499 0.067787
O O4 0.035075 0.372493 0.877908
O O5 0.843875 0.767847 0.780444
O O6 0.755389 0.912746 0.732350
O O7 0.127651 0.856056 0.024778
O O8 0.228913 0.868959 0.948506
O O9 0.519010 0.881959 0.334682
O O10 0.297304 0.000000 0.148085
O O11 0.746842 0.147670 0.204470
O O12 0.263898 0.125797 0.447918
O O13 0.933350 0.000000 0.277821
O O14 0.519876 0.640444 0.641880
O O15 0.897605 0.693190 0.925387
O O16 0.277929 0.500000 0.532833
O O17 0.138388 0.375654 0.536301
O O18 0.439838 0.000000 0.484922
#
# Coordination Sequence:
#
# PCOD9132555 Si02
#       8
#     4   4   4   4   4   4   4   4
#     4  10  20  37  59  86 124 156 202 253 304 368
#     4  11  22  39  60  89 123 156 200 248 311 371
#     4  11  22  38  61  88 124 162 197 251 313 369
#     4  10  21  38  62  90 119 160 214 255 295 367
#     4  10  21  38  61  86 119 157 203 252 298 364
#     4  10  21  39  62  89 119 157 207 251 299 363
#     4  10  21  38  60  87 124 158 199 254 311 367
#     4  10  20  37  59  87 120 156 202 252 297 357
#
# _framework density 20.398032000000001
#
# number of rings (size 3 to 8) (size 9 to 14) (size 15 to 20)
#    0.000    1.750    3.750    0.750    0.000    4.500 
#    0.000    1.250    0.000    1.500    0.000    0.000 
#    0.000    0.000    0.000    0.000    0.000    0.000 
#
# Total GULP energy -89133.407569 kJ/mol
# GULP energy per Si atom -5570.837973 kJ/mol
# Density = 2.035161 g / cm^3
# Si number density = 20.398032 Si / 1000 Ang^3
#
#
#
# Elastic Constant Matrix: (Units=GPa)
#
#
# Indices 1 2 3 4 5 6 
#
# 1 55.4911 11.9938 45.8087 -0.0011 26.5201 0.0009
# 2 11.9938 49.2852 48.9173 0.0036 13.2696 0.0149
# 3 45.8087 48.9173 164.4659 0.0068 35.8087 0.0162
# 4 -0.0011 0.0036 0.0068 26.6074 -0.0008 12.3576
# 5 26.5201 13.2696 35.8087 -0.0008 44.4997 0.0028
# 6 0.0009 0.0149 0.0162 12.3576 0.0028 33.9759
#
#
#
# Elastic Compliance Matrix: (Units=1/GPa)
#
#
# Indices 1 2 3 4 5 6 
#
# 1 0.028536 0.002322 -0.005802 0.000001 -0.013030 0.000002
# 2 0.002322 0.029134 -0.008632 0.000003 -0.003126 -0.000009
# 3 -0.005802 -0.008632 0.010852 -0.000002 -0.002701 0.000000
# 4 0.000001 0.000003 -0.000002 0.045223 0.000002 -0.016448
# 5 -0.013030 -0.003126 -0.002701 0.000002 0.033343 0.000000
# 6 0.000002 -0.000009 0.000000 -0.016448 0.000000 0.035415
#
#
# Mechanical properties :
#
#
# Convention : Reuss Voigt Hill
#
# Bulk Modulus (GPa) = 22.57387 53.63133 38.10260
# Shear Modulus (GPa) = 22.57439 31.85142 27.21290
#
# Velocity S-wave (km/s) = 3.33031 3.95586 3.65649
# Velocity P-wave (km/s) = 5.08711 6.87129 6.04538
#
# Compressibility (1/GPa) = 0.04429900
#
# Stress axis : x y z
#
# Youngs Moduli (GPa) = 35.04380 34.32461 92.15257
#
# Poissons Ratio (x) = -0.07972 0.53465
# Poissons Ratio (y) = -0.08139 0.79542
# Poissons Ratio (z) = 0.20332 0.29627
#
# Static dielectric constant tensor:
#      x y z
#    x 1.737770 0.000000 0.002070 
#    y 0.000000 1.804290 0.000000 
#    z 0.002070 0.000000 1.744540 
# 
# From -- ./inp_files/23396.got.cif
#   From: 2010.05.17/outbox.cif.g08.bks.cpg/sg8_12_cif.got.tgz:23396.got - 2010.06.03 19:46:02.
