data_PCOD9132596
_publ_section_title
;
Structure prediction by ZEFSAII (Michael W. Deem and Ramdas Pophale) SiO2 
 PCOD9132596
Probable space group: C M
;
_chemical_formula_sum "Si O2"
_cell_formula_units_Z 28
_cell_length_a 29.050225
_cell_length_b 10.059031
_cell_length_c 5.281039
_cell_angle_alpha 90.000000
_cell_angle_beta 67.230453
_cell_angle_gamma 90.000000
_cell_volume 1422.946059
_symmetry_space_group_name_H-M "C M"
_symmetry_group_IT_number 8
_symmetry_cell_setting 'monoclinic'
loop_
_space_group_symop_operation_xyz
x,y,z
x,-y,z
1/2+x,1/2+y,z
1/2+x,1/2-y,z
loop_
_atom_site_type_symbol
_atom_site_label
_atom_site_fract_x
_atom_site_fract_y
_atom_site_fract_z
Si Si1 0.614230 0.861282 0.189060
Si Si2 0.469286 0.157399 0.348724
Si Si3 0.810288 0.159972 0.107284
Si Si4 0.872332 0.161464 0.476310
Si Si5 0.032160 0.283506 0.712593
Si Si6 0.614216 0.350038 0.793579
Si Si7 0.696323 0.154625 0.383695
O O1 0.579046 0.867784 0.509547
O O2 0.671127 0.852818 0.159277
O O3 0.605873 0.000000 0.063463
O O4 0.599550 0.729184 0.076653
O O5 0.421976 0.251159 0.395433
O O6 0.495185 0.212278 0.551323
O O7 0.458072 0.000000 0.411430
O O8 0.504207 0.167620 0.024136
O O9 0.844041 0.195351 0.276042
O O10 0.753006 0.203554 0.255998
O O11 0.807452 0.000000 0.110623
O O12 0.836775 0.196628 0.788876
O O13 0.881806 0.000000 0.460624
O O14 0.064360 0.154798 0.726870
O O15 0.629882 0.500000 0.801242
O O16 0.660243 0.259523 0.598078
O O17 0.694865 0.000000 0.481949
#
# Coordination Sequence:
#
# PCOD9132596 Si02
#       7
#     4   4   4   4   4   4   4
#     4  10  20  37  63  93 124 161 210 260 302 364
#     4  12  24  41  66  93 121 160 209 262 311 363
#     4   9  19  38  65  91 120 160 206 254 303 361
#     4  10  22  40  62  90 124 159 202 256 313 369
#     4  11  24  41  63  89 124 166 206 250 306 369
#     4  11  24  40  60  93 134 168 202 253 313 376
#     4   9  20  37  63  93 121 164 215 257 300 362
#
# _framework density 19.677484
#
# number of rings (size 3 to 8) (size 9 to 14) (size 15 to 20)
#    0.000    1.714    1.429    2.571    2.000    5.714 
#    0.000    1.429    0.000    0.000    0.000    0.000 
#    0.000    0.000    0.000    0.000    0.000    0.000 
#
# Total GULP energy -77967.292072 kJ/mol
# GULP energy per Si atom -5569.092291 kJ/mol
# Density = 1.963270 g / cm^3
# Si number density = 19.677484 Si / 1000 Ang^3
#
#
#
# Elastic Constant Matrix: (Units=GPa)
#
#
# Indices 1 2 3 4 5 6 
#
# 1 111.6761 31.6975 25.3305 0.0000 -6.7585 0.0000
# 2 31.6975 117.9119 32.0681 0.0000 -8.4617 0.0000
# 3 25.3305 32.0681 92.7475 0.0000 4.1752 0.0000
# 4 0.0000 0.0000 0.0000 3.8191 0.0000 5.6911
# 5 -6.7585 -8.4617 4.1752 0.0000 29.5163 0.0000
# 6 0.0000 0.0000 0.0000 5.6911 0.0000 11.6916
#
#
#
# Elastic Compliance Matrix: (Units=1/GPa)
#
#
# Indices 1 2 3 4 5 6 
#
# 1 0.010136 -0.001986 -0.002174 0.000000 0.002059 0.000000
# 2 -0.001986 0.010053 -0.003062 0.000000 0.002860 0.000000
# 3 -0.002174 -0.003062 0.012577 0.000000 -0.003155 0.000000
# 4 0.000000 0.000000 0.000000 0.953450 0.000000 -0.464108
# 5 0.002059 0.002860 -0.003155 0.000000 0.035617 0.000000
# 6 0.000000 0.000000 0.000000 -0.464108 0.000000 0.311444
#
#
# Mechanical properties :
#
#
# Convention : Reuss Voigt Hill
#
# Bulk Modulus (GPa) = 54.58305 55.61418 55.09861
# Shear Modulus (GPa) = 3.69323 24.55469 14.12396
#
# Velocity S-wave (km/s) = 1.37148 3.53633 2.68203
# Velocity P-wave (km/s) = 5.50518 6.70809 6.13618
#
# Compressibility (1/GPa) = 0.01832071
#
# Stress axis : x y z
#
# Youngs Moduli (GPa) = 98.65946 99.47472 79.51244
#
# Poissons Ratio (x) = 0.19752 0.17289
# Poissons Ratio (y) = 0.19590 0.24349
# Poissons Ratio (z) = 0.21452 0.30462
#
# Static dielectric constant tensor:
#      x y z
#    x 1.720730 0.000000 0.027280 
#    y 0.000000 1.724590 0.000000 
#    z 0.027280 0.000000 1.757150 
# 
# From -- ./inp_files/6317.got.cif
#   From: 2010.05.17/outbox.cif.g08.bks.cpg/sg8_4_cif.got.tgz:6317.got - 2010.06.03 19:46:02.
