data_PCOD9132612
_publ_section_title
;
Structure prediction by ZEFSAII (Michael W. Deem and Ramdas Pophale) SiO2 
 PCOD9132612
Probable space group: C M
;
_chemical_formula_sum "Si O2"
_cell_formula_units_Z 24
_cell_length_a 14.505238
_cell_length_b 13.774018
_cell_length_c 11.060281
_cell_angle_alpha 90.000000
_cell_angle_beta 29.399257
_cell_angle_gamma 90.000000
_cell_volume 1084.770894
_symmetry_space_group_name_H-M "C M"
_symmetry_group_IT_number 8
_symmetry_cell_setting 'monoclinic'
loop_
_space_group_symop_operation_xyz
x,y,z
x,-y,z
1/2+x,1/2+y,z
1/2+x,1/2-y,z
loop_
_atom_site_type_symbol
_atom_site_label
_atom_site_fract_x
_atom_site_fract_y
_atom_site_fract_z
Si Si1 0.974420 0.325205 0.604790
Si Si2 0.125445 0.173913 0.612547
Si Si3 0.703120 0.892431 0.118463
Si Si4 0.870784 0.610053 0.113707
Si Si5 0.152911 0.823696 0.129206
Si Si6 0.276646 0.300549 0.638331
O O1 0.886353 0.235359 0.630568
O O2 0.084375 0.276562 0.590643
O O3 0.105527 0.382909 0.362426
O O4 0.789478 0.372442 0.875705
O O5 0.260454 0.119596 0.365510
O O6 0.220269 0.203936 0.628914
O O7 0.929044 0.120104 0.860952
O O8 0.638764 0.793530 0.124397
O O9 0.657488 0.000000 0.120992
O O10 0.869209 0.500000 0.074145
O O11 0.759818 0.667832 0.135914
O O12 0.083658 0.645448 0.882699
O O13 0.939167 0.858848 0.381179
#
# Coordination Sequence:
#
# PCOD9132612 Si02
#       6
#     4   4   4   4   4   4
#     4  10  20  41  66  93 128 172 210 265 317 383
#     4  11  20  42  64  94 131 169 213 265 324 372
#     4  10  20  37  65  95 123 169 214 258 316 375
#     4  12  24  41  67  99 131 169 218 267 320 385
#     4  10  22  42  66  93 133 170 209 268 324 380
#     4  11  21  41  69  92 128 175 215 255 332 381
#
# _framework density 22.124487999999999
#
# number of rings (size 3 to 8) (size 9 to 14) (size 15 to 20)
#    0.000    1.333    6.667    1.500    0.000    1.333 
#    0.000   14.167    0.000    0.000    0.000    0.000 
#    0.000    0.000    0.000    0.000    0.000    0.000 
#
# Total GULP energy -66936.010414 kJ/mol
# GULP energy per Si atom -5578.000868 kJ/mol
# Density = 2.207413 g / cm^3
# Si number density = 22.124488 Si / 1000 Ang^3
#
#
#
# Elastic Constant Matrix: (Units=GPa)
#
#
# Indices 1 2 3 4 5 6 
#
# 1 19.9805 -4.8452 20.3280 -0.0009 0.8364 0.0005
# 2 -4.8452 75.5925 19.9765 -0.0008 -1.7141 0.0005
# 3 20.3280 19.9765 228.5145 -0.0007 -1.5260 0.0007
# 4 -0.0009 -0.0008 -0.0007 3.4113 0.0006 2.9826
# 5 0.8364 -1.7141 -1.5260 0.0006 38.7274 -0.0005
# 6 0.0005 0.0005 0.0007 2.9826 -0.0005 3.5620
#
#
#
# Elastic Compliance Matrix: (Units=1/GPa)
#
#
# Indices 1 2 3 4 5 6 
#
# 1 0.056946 0.005081 -0.005518 0.000083 -0.001222 -0.000077
# 2 0.005081 0.014007 -0.001673 0.000023 0.000444 -0.000022
# 3 -0.005518 -0.001673 0.005015 -0.000004 0.000243 0.000003
# 4 0.000083 0.000023 -0.000004 1.094227 -0.000030 -0.916224
# 5 -0.001222 0.000444 0.000243 -0.000030 0.025877 0.000029
# 6 -0.000077 -0.000022 0.000003 -0.916224 0.000029 1.047919
#
#
# Mechanical properties :
#
#
# Convention : Reuss Voigt Hill
#
# Bulk Modulus (GPa) = 13.93813 43.88956 28.91385
# Shear Modulus (GPa) = 2.20058 28.38203 15.29130
#
# Velocity S-wave (km/s) = 0.99840 3.58555 2.63182
# Velocity P-wave (km/s) = 2.76453 6.08459 4.72572
#
# Compressibility (1/GPa) = 0.07174563
#
# Stress axis : x y z
#
# Youngs Moduli (GPa) = 17.56054 71.39406 199.40710
#
# Poissons Ratio (x) = -0.36272 1.10033
# Poissons Ratio (y) = -0.08922 0.33370
# Poissons Ratio (z) = 0.09690 0.11947
#
# Static dielectric constant tensor:
#      x y z
#    x 1.784540 0.000000 0.034910 
#    y 0.000000 1.791610 0.000000 
#    z 0.034910 0.000000 1.904720 
# 
# From -- ./inp_files/22187.got.cif
#   From: 2010.05.17/outbox.cif.g08.bks.cpg/sg8_12_cif.got.tgz:22187.got - 2010.06.03 19:46:02.
