data_PCOD9132317
_publ_section_title
;
Structure prediction by ZEFSAII (Michael W. Deem and Ramdas Pophale) SiO2 
 PCOD9132317
Probable space group: C M
;
_chemical_formula_sum "Si O2"
_cell_formula_units_Z 26
_cell_length_a 18.602351
_cell_length_b 8.262777
_cell_length_c 7.791734
_cell_angle_alpha 90.000000
_cell_angle_beta 82.968173
_cell_angle_gamma 90.000000
_cell_volume 1188.636344
_symmetry_space_group_name_H-M "C M"
_symmetry_group_IT_number 8
_symmetry_cell_setting 'monoclinic'
loop_
_space_group_symop_operation_xyz
x,y,z
x,-y,z
1/2+x,1/2+y,z
1/2+x,1/2-y,z
loop_
_atom_site_type_symbol
_atom_site_label
_atom_site_fract_x
_atom_site_fract_y
_atom_site_fract_z
Si Si1 0.181090 0.181980 0.463010
Si Si2 0.001448 0.500000 0.766997
Si Si3 0.275630 0.688655 0.144196
Si Si4 0.381731 0.000000 0.082932
Si Si5 0.729478 0.182884 0.799012
Si Si6 0.378501 0.326264 0.583454
Si Si7 0.922090 0.500000 0.431184
Si Si8 0.541589 0.677381 0.673626
O O1 0.229399 0.296359 0.332188
O O2 0.199428 0.205132 0.658590
O O3 0.094409 0.203966 0.495139
O O4 0.197552 0.000000 0.402481
O O5 0.981569 0.500000 0.567092
O O6 0.044928 0.335844 0.789834
O O7 0.926669 0.500000 0.893383
O O8 0.301181 0.500000 0.117800
O O9 0.333907 0.835281 0.113695
O O10 0.220918 0.720822 0.000277
O O11 0.438869 0.000000 0.225204
O O12 0.816362 0.184238 0.742914
O O13 0.704839 0.000000 0.770011
O O14 0.368346 0.500000 0.494318
O O15 0.457940 0.329582 0.642012
O O16 0.376088 0.162984 0.475815
O O17 0.559534 0.500000 0.741078
#
# Coordination Sequence:
#
# PCOD9132317 Si02
#       8
#     4   2   4   2   4   4   2   4
#     4  11  23  39  64  93 127 168 214 261 308 381
#     4  10  22  40  64  86 124 165 201 268 309 369
#     4  11  24  40  59  91 131 168 205 259 317 375
#     4  12  24  38  62  98 126 159 213 260 315 381
#     4  10  22  38  62  91 120 163 209 262 319 371
#     4   9  18  36  60  85 118 158 204 255 310 368
#     4  10  20  34  56  88 116 156 198 240 314 360
#     4   9  20  39  62  89 120 167 212 248 312 376
#
# _framework density 21.873805000000001
#
# number of rings (size 3 to 8) (size 9 to 14) (size 15 to 20)
#    0.000    1.846    0.769    3.231    4.308    3.692 
#    0.000    3.077    0.000    5.538    0.000    0.000 
#    0.000    0.000    0.000    0.000    0.000    0.000 
#
# Total GULP energy -72446.838138 kJ/mol
# GULP energy per Si atom -5572.833703 kJ/mol
# Density = 2.182402 g / cm^3
# Si number density = 21.873805 Si / 1000 Ang^3
#
#
#
# Elastic Constant Matrix: (Units=GPa)
#
#
# Indices 1 2 3 4 5 6 
#
# 1 66.4626 16.1574 15.7786 0.0000 -15.4690 0.0000
# 2 16.1574 180.7883 24.1142 0.0000 -19.3238 0.0000
# 3 15.7786 24.1142 59.0518 0.0000 10.0639 0.0000
# 4 0.0000 0.0000 0.0000 23.8160 0.0000 -9.6877
# 5 -15.4690 -19.3238 10.0639 0.0000 24.0878 0.0000
# 6 0.0000 0.0000 0.0000 -9.6877 0.0000 14.4881
#
#
#
# Elastic Compliance Matrix: (Units=1/GPa)
#
#
# Indices 1 2 3 4 5 6 
#
# 1 0.021314 0.001355 -0.009438 0.000000 0.018718 0.000000
# 2 0.001355 0.006917 -0.004609 0.000000 0.008344 0.000000
# 3 -0.009438 -0.004609 0.024764 0.000000 -0.020105 0.000000
# 4 0.000000 0.000000 0.000000 0.057676 0.000000 0.038566
# 5 0.018718 0.008344 -0.020105 0.000000 0.068629 0.000000
# 6 0.000000 0.000000 0.000000 0.038566 0.000000 0.094810
#
#
# Mechanical properties :
#
#
# Convention : Reuss Voigt Hill
#
# Bulk Modulus (GPa) = 36.21740 46.48922 41.35331
# Shear Modulus (GPa) = 16.19703 29.16187 22.67945
#
# Velocity S-wave (km/s) = 2.72412 3.65524 3.22348
# Velocity P-wave (km/s) = 5.14663 6.25411 5.72721
#
# Compressibility (1/GPa) = 0.02761104
#
# Stress axis : x y z
#
# Youngs Moduli (GPa) = 46.91765 144.57419 40.38040
#
# Poissons Ratio (x) = -0.19586 0.38112
# Poissons Ratio (y) = -0.06356 0.18610
# Poissons Ratio (z) = 0.44282 0.66628
#
# Static dielectric constant tensor:
#      x y z
#    x 1.858610 0.000000 0.034910 
#    y 0.000000 1.880880 0.000000 
#    z 0.034910 0.000000 1.785470 
# 
# From -- ./inp_files/14435.got.cif
#   From: 2010.05.17/outbox.cif.g08.bks.cpg/sg8_8_cif.got.tgz:14435.got - 2010.06.03 19:46:02.
