data_PCOD9132180
_publ_section_title
;
Structure prediction by ZEFSAII (Michael W. Deem and Ramdas Pophale) SiO2 
 PCOD9132180
Probable space group: C M
;
_chemical_formula_sum "Si O2"
_cell_formula_units_Z 28
_cell_length_a 5.321340
_cell_length_b 20.849803
_cell_length_c 13.038471
_cell_angle_alpha 90.000000
_cell_angle_beta 61.620152
_cell_angle_gamma 90.000000
_cell_volume 1272.744969
_symmetry_space_group_name_H-M "C M"
_symmetry_group_IT_number 8
_symmetry_cell_setting 'monoclinic'
loop_
_space_group_symop_operation_xyz
x,y,z
x,-y,z
1/2+x,1/2+y,z
1/2+x,1/2-y,z
loop_
_atom_site_type_symbol
_atom_site_label
_atom_site_fract_x
_atom_site_fract_y
_atom_site_fract_z
Si Si1 0.015910 0.578487 0.657530
Si Si2 0.200554 0.257950 0.040527
Si Si3 0.712986 0.426127 0.922818
Si Si4 0.390210 0.289342 0.298610
Si Si5 0.167928 0.076934 0.530273
Si Si6 0.589015 0.572379 0.315094
Si Si7 0.047357 0.601401 0.060655
O O1 0.019717 0.500000 0.654801
O O2 0.341970 0.599960 0.607811
O O3 0.825070 0.597745 0.791652
O O4 0.878588 0.601401 0.577283
O O5 0.535468 0.255680 0.969455
O O6 0.057136 0.214649 0.156344
O O7 0.110748 0.328433 0.091025
O O8 0.804941 0.500000 0.915718
O O9 0.368295 0.425681 0.990808
O O10 0.878909 0.393754 0.985411
O O11 0.089384 0.253634 0.336039
O O12 0.397999 0.364726 0.326970
O O13 0.231087 0.086306 0.398009
O O14 0.162142 0.000000 0.545489
O O15 0.451914 0.500000 0.347349
O O16 0.833057 0.569143 0.181683
#
# Coordination Sequence:
#
# PCOD9132180 Si02
#       7
#     4   4   4   4   4   4   4
#     4   9  18  37  57  76 113 161 213 242 285 370
#     4  10  19  37  58  77 113 157 216 235 273 370
#     4  11  23  37  56  86 124 168 202 248 307 361
#     4  10  21  39  60  80 120 168 216 231 283 381
#     4   9  19  34  56  84 115 158 198 250 305 351
#     4  11  23  38  61  98 136 158 195 261 322 365
#     4  12  23  36  57  91 129 158 193 251 316 370
#
# _framework density 21.999697000000001
#
# number of rings (size 3 to 8) (size 9 to 14) (size 15 to 20)
#    0.000    1.714    2.857    3.000    2.000    4.571 
#    0.000    5.000    0.000    0.000    0.000   20.000 
#    0.000    0.000    0.000    0.000    0.000    0.000 
#
# Total GULP energy -78072.667286 kJ/mol
# GULP energy per Si atom -5576.619092 kJ/mol
# Density = 2.194962 g / cm^3
# Si number density = 21.999697 Si / 1000 Ang^3
#
#
#
# Elastic Constant Matrix: (Units=GPa)
#
#
# Indices 1 2 3 4 5 6 
#
# 1 163.7541 27.9200 41.6937 0.0000 19.9390 0.0000
# 2 27.9200 98.0389 10.7129 0.0000 13.2787 0.0000
# 3 41.6937 10.7129 113.0237 0.0000 9.3398 0.0000
# 4 0.0000 0.0000 0.0000 26.0039 0.0000 11.3108
# 5 19.9390 13.2787 9.3398 0.0000 25.9585 0.0000
# 6 0.0000 0.0000 0.0000 11.3108 0.0000 24.5147
#
#
#
# Elastic Compliance Matrix: (Units=1/GPa)
#
#
# Indices 1 2 3 4 5 6 
#
# 1 0.007418 -0.001293 -0.002265 0.000000 -0.004221 0.000000
# 2 -0.001293 0.011224 -0.000200 0.000000 -0.004676 0.000000
# 3 -0.002265 -0.000200 0.009843 0.000000 -0.001699 0.000000
# 4 0.000000 0.000000 0.000000 0.048111 0.000000 -0.022198
# 5 -0.004221 -0.004676 -0.001699 0.000000 0.044769 0.000000
# 6 0.000000 0.000000 0.000000 -0.022198 0.000000 0.051034
#
#
# Mechanical properties :
#
#
# Convention : Reuss Voigt Hill
#
# Bulk Modulus (GPa) = 47.69438 59.49666 53.59552
# Shear Modulus (GPa) = 26.75174 34.92810 30.83992
#
# Velocity S-wave (km/s) = 3.49091 3.98887 3.74817
# Velocity P-wave (km/s) = 6.16240 6.95110 6.56860
#
# Compressibility (1/GPa) = 0.02096683
#
# Stress axis : x y z
#
# Youngs Moduli (GPa) = 134.80893 89.09853 101.59869
#
# Poissons Ratio (x) = 0.11523 0.23012
# Poissons Ratio (y) = 0.17434 0.02036
# Poissons Ratio (z) = 0.30534 0.01785
#
# Static dielectric constant tensor:
#      x y z
#    x 1.915000 0.000000 0.020040 
#    y 0.000000 1.848950 0.000000 
#    z 0.020040 0.000000 1.784200 
# 
# From -- ./inp_files/18089.got.cif
#   From: 2010.05.17/outbox.cif.g08.bks.cpg/sg8_10_cif.got.tgz:18089.got - 2010.06.03 19:46:02.
