data_PCOD9132291
_publ_section_title
;
Structure prediction by ZEFSAII (Michael W. Deem and Ramdas Pophale) SiO2 
 PCOD9132291
Probable space group: C M
;
_chemical_formula_sum "Si O2"
_cell_formula_units_Z 32
_cell_length_a 8.867810
_cell_length_b 10.586834
_cell_length_c 30.345444
_cell_angle_alpha 90.000000
_cell_angle_beta 146.214076
_cell_angle_gamma 90.000000
_cell_volume 1584.244456
_symmetry_space_group_name_H-M "C M"
_symmetry_group_IT_number 8
_symmetry_cell_setting 'monoclinic'
loop_
_space_group_symop_operation_xyz
x,y,z
x,-y,z
1/2+x,1/2+y,z
1/2+x,1/2-y,z
loop_
_atom_site_type_symbol
_atom_site_label
_atom_site_fract_x
_atom_site_fract_y
_atom_site_fract_z
Si Si1 0.642200 0.144351 0.909400
Si Si2 0.203268 0.648778 0.820818
Si Si3 0.257707 0.299011 0.196473
Si Si4 0.840718 0.359016 0.304807
Si Si5 0.256266 0.225009 0.576594
Si Si6 0.831851 0.857808 0.683855
Si Si7 0.181069 0.137290 0.091904
Si Si8 0.189684 0.356435 0.469349
O O1 0.473453 0.264514 0.885444
O O2 0.612238 0.144517 0.849466
O O3 0.565165 0.000000 0.905754
O O4 0.953101 0.163387 0.000016
O O5 0.228574 0.500000 0.812378
O O6 0.999021 0.738301 0.743609
O O7 0.537179 0.365287 0.250829
O O8 0.332681 0.212789 0.256736
O O9 0.174962 0.229776 0.131401
O O10 0.981951 0.364916 0.144956
O O11 0.945263 0.500000 0.321923
O O12 0.028227 0.300050 0.388512
O O13 0.533742 0.152826 0.633044
O O14 0.313922 0.332551 0.627165
O O15 0.154684 0.282003 0.505906
O O16 0.009708 0.145545 0.536579
O O17 0.940030 0.000000 0.718588
O O18 0.117256 0.000000 0.095215
O O19 0.093912 0.500000 0.451782
#
# Coordination Sequence:
#
# PCOD9132291 Si02
#       8
#     4   4   4   4   4   4   4   4
#     4  10  22  40  60  84 115 151 191 234 282 337
#     4  11  24  40  60  87 116 148 188 233 283 340
#     4  10  20  34  54  82 112 143 185 230 275 328
#     4  10  20  34  54  80 111 147 185 227 276 329
#     4  10  22  37  57  83 111 145 189 234 279 333
#     4  11  23  39  60  85 114 149 189 234 284 339
#     4  10  20  36  57  80 110 147 185 229 278 328
#     4  10  20  36  56  79 111 148 185 229 279 330
#
# _framework density 20.198903000000001
#
# number of rings (size 3 to 8) (size 9 to 14) (size 15 to 20)
#    0.000    1.750    0.000    4.125    0.000    6.000 
#    0.000    3.125    0.000   12.000    0.000    0.000 
#    0.000    0.000    0.000    0.000    0.000    0.000 
#
# Total GULP energy -89181.870005 kJ/mol
# GULP energy per Si atom -5573.866875 kJ/mol
# Density = 2.015293 g / cm^3
# Si number density = 20.198903 Si / 1000 Ang^3
#
#
#
# Elastic Constant Matrix: (Units=GPa)
#
#
# Indices 1 2 3 4 5 6 
#
# 1 69.0586 24.9320 3.6589 0.0009 -9.0226 0.0003
# 2 24.9320 114.6505 25.7057 0.0002 -7.9826 0.0001
# 3 3.6589 25.7057 87.2934 -0.0016 -10.7183 -0.0005
# 4 0.0009 0.0002 -0.0016-5590.1622 0.0020-1909.0916
# 5 -9.0226 -7.9826 -10.7183 0.0020 32.9385 0.0007
# 6 0.0003 0.0001 -0.0005-1909.0916 0.0007 -662.6829
#
#
#
# Elastic Compliance Matrix: (Units=1/GPa)
#
#
# Indices 1 2 3 4 5 6 
#
# 1 0.016181 -0.003431 0.000806 0.000000 0.003863 0.000000
# 2 -0.003431 0.010131 -0.002764 0.000000 0.000616 0.000000
# 3 0.000806 -0.002764 0.012688 0.000000 0.003680 0.000000
# 4 0.000000 0.000000 0.000000 -0.011068 0.000000 0.031885
# 5 0.003863 0.000616 0.003680 0.000000 0.032765 0.000000
# 6 0.000000 0.000000 0.000000 0.031885 0.000000 -0.093365
#
#
# Mechanical properties :
#
#
# Convention : Reuss Voigt Hill
#
# Bulk Modulus (GPa) = 35.43180 42.17731 38.80456
# Shear Modulus (GPa) = -400.48435 -1229.53426 -815.00931
#
# Velocity S-wave (km/s) = -14.09613 -24.69888 -20.10890
# Velocity P-wave (km/s) = 15.72752 28.15055 22.80141
#
# Compressibility (1/GPa) = 0.02822323
#
# Stress axis : x y z
#
# Youngs Moduli (GPa) = 61.80093 98.70952 78.81771
#
# Poissons Ratio (x) = 0.33863 -0.06355
# Poissons Ratio (y) = 0.21201 0.21784
# Poissons Ratio (z) = -0.04983 0.27281
#
# Static dielectric constant tensor:
#      x y z
#    x 1.683450 0.000000 0.017870 
#    y 0.000000 4.566550 0.000000 
#    z 0.017870 0.000000 1.734140 
# 
# From -- ./inp_files/30356.got.cif
#   From: 2010.05.17/outbox.cif.g08.bks.cpg/sg8_16_cif.got.tgz:30356.got - 2010.06.03 19:46:02.
