data_PCOD9132095
_publ_section_title
;
Structure prediction by ZEFSAII (Michael W. Deem and Ramdas Pophale) SiO2 
 PCOD9132095
Probable space group: C M
;
_chemical_formula_sum "Si O2"
_cell_formula_units_Z 32
_cell_length_a 15.047144
_cell_length_b 7.742995
_cell_length_c 23.034573
_cell_angle_alpha 90.000000
_cell_angle_beta 28.465351
_cell_angle_gamma 90.000000
_cell_volume 1279.151726
_symmetry_space_group_name_H-M "C M"
_symmetry_group_IT_number 8
_symmetry_cell_setting 'monoclinic'
loop_
_space_group_symop_operation_xyz
x,y,z
x,-y,z
1/2+x,1/2+y,z
1/2+x,1/2-y,z
loop_
_atom_site_type_symbol
_atom_site_label
_atom_site_fract_x
_atom_site_fract_y
_atom_site_fract_z
Si Si1 0.756560 0.802322 0.031120
Si Si2 0.432241 0.711647 0.515624
Si Si3 0.581544 0.200336 0.922980
Si Si4 0.466402 0.198218 0.674374
Si Si5 0.030761 0.290495 0.771723
Si Si6 0.960358 0.712515 0.115924
Si Si7 0.241514 0.806035 0.417978
Si Si8 0.045057 0.205323 0.328453
O O1 0.876742 0.713734 0.012270
O O2 0.563177 0.730956 0.115768
O O3 0.729029 0.000000 0.064790
O O4 0.893212 0.793676 0.896568
O O5 0.435172 0.500000 0.515772
O O6 0.246153 0.762310 0.655872
O O7 0.622788 0.778618 0.434652
O O8 0.423126 0.762911 0.453724
O O9 0.572291 0.267572 0.994032
O O10 0.633081 0.000000 0.894406
O O11 0.743811 0.291327 0.793681
O O12 0.489779 0.252261 0.728062
O O13 0.590140 0.300649 0.557453
O O14 0.531951 0.000000 0.632067
O O15 0.015614 0.500000 0.787212
O O16 0.962552 0.500000 0.115861
O O17 0.751460 0.772577 0.222771
O O18 0.435371 0.742410 0.332683
O O19 0.278614 0.000000 0.377418
O O20 0.061510 0.000000 0.322054
#
# Coordination Sequence:
#
# PCOD9132095 Si02
#       8
#     4   4   4   4   4   4   4   4
#     4  11  22  38  59  89 117 152 198 240 290 353
#     4   9  19  36  58  82 112 149 188 228 285 347
#     4  11  22  39  59  87 121 156 192 240 298 348
#     4  11  21  36  61  90 116 154 197 238 291 352
#     4  10  19  35  59  87 115 152 191 234 294 352
#     4   9  21  39  61  83 112 154 200 244 293 342
#     4  11  22  36  58  90 121 152 188 240 297 348
#     4  10  20  41  63  80 110 157 202 242 286 346
#
# _framework density 25.016579
#
# number of rings (size 3 to 8) (size 9 to 14) (size 15 to 20)
#    0.000    1.750    2.500    2.250    0.000    2.500 
#    0.000    5.625    0.000    0.000    0.000    0.000 
#    0.000    0.000    0.000    0.000    0.000    0.000 
#
# Total GULP energy -89462.826456 kJ/mol
# GULP energy per Si atom -5591.426653 kJ/mol
# Density = 2.495964 g / cm^3
# Si number density = 25.016579 Si / 1000 Ang^3
#
#
#
# Elastic Constant Matrix: (Units=GPa)
#
#
# Indices 1 2 3 4 5 6 
#
# 1 133.7183 -2.9589 9.5101 0.0001 -29.0884 0.0000
# 2 -2.9589 42.5521 -3.9687 -0.0001 -0.9259 -0.0001
# 3 9.5101 -3.9687 72.1035 -0.0018 -30.0256 0.0000
# 4 0.0001 -0.0001 -0.0018 14.7239 0.0000 -6.9168
# 5 -29.0884 -0.9259 -30.0256 0.0000 49.3102 0.0001
# 6 0.0000 -0.0001 0.0000 -6.9168 0.0001 18.9140
#
#
#
# Elastic Compliance Matrix: (Units=1/GPa)
#
#
# Indices 1 2 3 4 5 6 
#
# 1 0.008704 0.000866 0.001399 0.000000 0.006003 0.000000
# 2 0.000866 0.023809 0.002137 0.000001 0.002259 0.000000
# 3 0.001399 0.002137 0.018973 0.000003 0.012419 0.000001
# 4 0.000000 0.000001 0.000003 0.082004 0.000002 0.029989
# 5 0.006003 0.002259 0.012419 0.000002 0.031425 0.000001
# 6 0.000000 0.000000 0.000001 0.029989 0.000001 0.063838
#
#
# Mechanical properties :
#
#
# Convention : Reuss Voigt Hill
#
# Bulk Modulus (GPa) = 16.58582 28.17100 22.37841
# Shear Modulus (GPa) = 20.82936 32.97572 26.90254
#
# Velocity S-wave (km/s) = 2.88865 3.63458 3.28287
# Velocity P-wave (km/s) = 4.21545 5.37577 4.83058
#
# Compressibility (1/GPa) = 0.06029248
#
# Stress axis : x y z
#
# Youngs Moduli (GPa) = 114.89130 42.00032 52.70510
#
# Poissons Ratio (x) = -0.03639 -0.07376
# Poissons Ratio (y) = -0.09954 -0.11264
# Poissons Ratio (z) = -0.16078 -0.08976
#
# Static dielectric constant tensor:
#      x y z
#    x 2.003500 0.000000 -0.049520 
#    y 0.000000 1.909480 0.000000 
#    z -0.049520 0.000000 2.005790 
# 
# From -- ./inp_files/26517.got.cif
#   From: 2010.05.17/outbox.cif.g08.bks.cpg/sg8_14_cif.got.tgz:26517.got - 2010.06.03 19:46:02.
