data_PCOD9132987
_publ_section_title
;
Structure prediction by ZEFSAII (Michael W. Deem and Ramdas Pophale) SiO2 
 PCOD9132987
Probable space group: C M
;
_chemical_formula_sum "Si O2"
_cell_formula_units_Z 28
_cell_length_a 13.671824
_cell_length_b 11.561785
_cell_length_c 8.997216
_cell_angle_alpha 90.000000
_cell_angle_beta 121.509209
_cell_angle_gamma 90.000000
_cell_volume 1212.502097
_symmetry_space_group_name_H-M "C M"
_symmetry_group_IT_number 8
_symmetry_cell_setting 'monoclinic'
loop_
_space_group_symop_operation_xyz
x,y,z
x,-y,z
1/2+x,1/2+y,z
1/2+x,1/2-y,z
loop_
_atom_site_type_symbol
_atom_site_label
_atom_site_fract_x
_atom_site_fract_y
_atom_site_fract_z
Si Si1 0.565830 0.873165 0.404270
Si Si2 0.440115 0.630594 0.609687
Si Si3 0.150286 0.279117 0.904561
Si Si4 0.007140 0.622315 0.036416
Si Si5 0.815405 0.696301 0.297975
Si Si6 0.691886 0.630147 0.501064
Si Si7 0.327152 0.281630 0.805117
O O1 0.586213 0.877251 0.243637
O O2 0.430209 0.868604 0.334246
O O3 0.614468 0.744053 0.474483
O O4 0.606567 0.000000 0.495161
O O5 0.466623 0.500000 0.595217
O O6 0.555656 0.697365 0.751274
O O7 0.369820 0.690777 0.421742
O O8 0.361406 0.638788 0.695521
O O9 0.231319 0.326459 0.839675
O O10 0.078162 0.370123 0.941796
O O11 0.231744 0.217668 0.091978
O O12 0.943296 0.500000 0.996636
O O13 0.935518 0.740489 0.986526
O O14 0.744858 0.638232 0.377278
O O15 0.646427 0.500000 0.485185
O O16 0.792363 0.660026 0.698089
#
# Coordination Sequence:
#
# PCOD9132987 Si02
#       7
#     4   4   4   4   4   4   4
#     4  11  23  41  65  97 131 171 223 280 334 404
#     4  10  25  44  66 100 142 178 227 292 347 407
#     4  11  22  42  66  98 131 174 231 281 341 407
#     4  10  21  39  62  92 127 165 218 277 329 397
#     4  11  23  43  68  98 135 181 231 279 343 417
#     4  11  24  43  66  99 136 178 225 282 343 412
#     4  10  22  42  65  92 132 173 223 277 341 408
#
# _framework density 23.092745000000001
#
# number of rings (size 3 to 8) (size 9 to 14) (size 15 to 20)
#    0.000    1.429    2.857    1.714    0.000    7.429 
#    0.000    5.000    0.000    0.000    0.000    0.000 
#    0.000    0.000    0.000    0.000    0.000    0.000 
#
# Total GULP energy -78065.213313 kJ/mol
# GULP energy per Si atom -5576.086665 kJ/mol
# Density = 2.304018 g / cm^3
# Si number density = 23.092745 Si / 1000 Ang^3
#
#
#
# Elastic Constant Matrix: (Units=GPa)
#
#
# Indices 1 2 3 4 5 6 
#
# 1 125.0583 25.3355 15.9804 0.0000 -16.6363 0.0000
# 2 25.3355 147.0960 31.8009 0.0000 11.3192 0.0000
# 3 15.9804 31.8009 97.7257 0.0000 -2.0966 0.0000
# 4 0.0000 0.0000 0.0000 15.1235 0.0000 12.0939
# 5 -16.6363 11.3192 -2.0966 0.0000 41.2222 0.0000
# 6 0.0000 0.0000 0.0000 12.0939 0.0000 6.0853
#
#
#
# Elastic Compliance Matrix: (Units=1/GPa)
#
#
# Indices 1 2 3 4 5 6 
#
# 1 0.008981 -0.001677 -0.000836 0.000000 0.004042 0.000000
# 2 -0.001677 0.007818 -0.002333 0.000000 -0.002942 0.000000
# 3 -0.000836 -0.002333 0.011147 0.000000 0.000870 0.000000
# 4 0.000000 0.000000 0.000000 -0.112212 0.000000 0.223009
# 5 0.004042 -0.002942 0.000870 0.000000 0.026742 0.000000
# 6 0.000000 0.000000 0.000000 0.223009 0.000000 -0.278875
#
#
# Mechanical properties :
#
#
# Convention : Reuss Voigt Hill
#
# Bulk Modulus (GPa) = 54.78366 57.34598 56.06482
# Shear Modulus (GPa) = -15.59469 32.27041 8.33786
#
# Velocity S-wave (km/s) = -2.60149 3.74227 1.90222
# Velocity P-wave (km/s) = 3.84073 6.59997 5.39957
#
# Compressibility (1/GPa) = 0.01825362
#
# Stress axis : x y z
#
# Youngs Moduli (GPa) = 111.35086 127.91146 89.70819
#
# Poissons Ratio (x) = 0.21452 0.07500
# Poissons Ratio (y) = 0.18675 0.20928
# Poissons Ratio (z) = 0.09310 0.29840
#
# Static dielectric constant tensor:
#      x y z
#    x 1.956760 0.000000 0.080360 
#    y 0.000000 1.834730 0.000000 
#    z 0.080360 0.000000 1.898130 
# 
# From -- ./inp_files/12714.got.cif
#   From: 2010.05.17/outbox.cif.g08.bks.cpg/sg8_7_cif.got.tgz:12714.got - 2010.06.03 19:46:02.
