data_PCOD9132637
_publ_section_title
;
Structure prediction by ZEFSAII (Michael W. Deem and Ramdas Pophale) SiO2 
 PCOD9132637
Probable space group: C M
;
_chemical_formula_sum "Si O2"
_cell_formula_units_Z 32
_cell_length_a 8.019277
_cell_length_b 29.809412
_cell_length_c 6.142762
_cell_angle_alpha 90.000000
_cell_angle_beta 63.462938
_cell_angle_gamma 90.000000
_cell_volume 1313.721536
_symmetry_space_group_name_H-M "C M"
_symmetry_group_IT_number 8
_symmetry_cell_setting 'monoclinic'
loop_
_space_group_symop_operation_xyz
x,y,z
x,-y,z
1/2+x,1/2+y,z
1/2+x,1/2-y,z
loop_
_atom_site_type_symbol
_atom_site_label
_atom_site_fract_x
_atom_site_fract_y
_atom_site_fract_z
Si Si1 0.781230 0.735045 0.921360
Si Si2 0.525822 0.610743 0.409080
Si Si3 0.541718 0.312562 0.753357
Si Si4 0.755269 0.869362 0.200712
Si Si5 0.246624 0.050420 0.565105
Si Si6 0.486949 0.185083 0.107210
Si Si7 0.109558 0.450615 0.039904
Si Si8 0.381491 0.107306 0.880160
O O1 0.729683 0.698273 0.771849
O O2 0.958612 0.763931 0.742982
O O3 0.625371 0.773026 0.025342
O O4 0.800758 0.711577 0.145990
O O5 0.545204 0.653067 0.556221
O O6 0.334104 0.616107 0.387846
O O7 0.569263 0.566618 0.526683
O O8 0.699575 0.611048 0.141010
O O9 0.404003 0.334853 0.012679
O O10 0.554578 0.845311 0.270748
O O11 0.746672 0.913975 0.060249
O O12 0.429486 0.048371 0.305266
O O13 0.219143 0.000000 0.672697
O O14 0.295425 0.090065 0.705529
O O15 0.499034 0.151173 0.891442
O O16 0.189452 0.500000 0.977385
O O17 0.019320 0.432948 0.870561
#
# Coordination Sequence:
#
# PCOD9132637 Si02
#       8
#     4   4   4   4   4   4   4   4
#     4   9  18  36  61  82 114 154 199 249 291 354
#     4  11  22  37  57  86 121 154 198 243 294 358
#     4  10  21  40  59  85 120 157 197 246 300 346
#     4  10  21  36  58  85 120 159 191 240 297 354
#     4  10  21  38  62  87 115 155 199 247 299 350
#     4   9  18  34  57  82 109 152 192 239 300 342
#     4   9  20  37  58  87 116 149 198 244 290 356
#     4  10  20  38  62  84 115 156 198 248 298 352
#
# _framework density 24.358283
#
# number of rings (size 3 to 8) (size 9 to 14) (size 15 to 20)
#    0.000    2.250    0.000    2.625    0.000    4.000 
#    0.000   16.875    0.000    0.000    0.000    0.000 
#    0.000    0.000    0.000    0.000    0.000    0.000 
#
# Total GULP energy -89251.826853 kJ/mol
# GULP energy per Si atom -5578.239178 kJ/mol
# Density = 2.430284 g / cm^3
# Si number density = 24.358283 Si / 1000 Ang^3
#
#
#
# Elastic Constant Matrix: (Units=GPa)
#
#
# Indices 1 2 3 4 5 6 
#
# 1 98.2125 54.8716 45.5492 0.0000 47.4495 0.0000
# 2 54.8716 139.1159 18.2564 0.0000 23.8044 0.0000
# 3 45.5492 18.2564 55.1198 0.0000 15.3328 0.0000
# 4 0.0000 0.0000 0.0000 26.2812 0.0000 2.9818
# 5 47.4495 23.8044 15.3328 0.0000 52.1278 0.0000
# 6 0.0000 0.0000 0.0000 2.9818 0.0000 39.9547
#
#
#
# Elastic Compliance Matrix: (Units=1/GPa)
#
#
# Indices 1 2 3 4 5 6 
#
# 1 0.033500 -0.006974 -0.019361 0.000000 -0.021614 0.000000
# 2 -0.006974 0.009405 0.002262 0.000000 0.001388 0.000000
# 3 -0.019361 0.002262 0.031342 0.000000 0.007372 0.000000
# 4 0.000000 0.000000 0.000000 0.038375 0.000000 -0.002864
# 5 -0.021614 0.001388 0.007372 0.000000 0.036056 0.000000
# 6 0.000000 0.000000 0.000000 -0.002864 0.000000 0.025242
#
#
# Mechanical properties :
#
#
# Convention : Reuss Voigt Hill
#
# Bulk Modulus (GPa) = 38.31367 58.86696 48.59031
# Shear Modulus (GPa) = 21.66696 35.25749 28.46222
#
# Velocity S-wave (km/s) = 2.98570 3.80867 3.42202
# Velocity P-wave (km/s) = 5.25826 6.60007 5.96700
#
# Compressibility (1/GPa) = 0.02610035
#
# Stress axis : x y z
#
# Youngs Moduli (GPa) = 29.85045 106.32952 31.90622
#
# Poissons Ratio (x) = 0.74158 0.61774
# Poissons Ratio (y) = 0.20819 -0.07218
# Poissons Ratio (z) = 0.57794 -0.24054
#
# Static dielectric constant tensor:
#      x y z
#    x 2.024400 0.000000 -0.018940 
#    y 0.000000 1.936530 0.000000 
#    z -0.018940 0.000000 1.980400 
# 
# From -- ./inp_files/2001.got.cif
#   From: 2010.05.17/outbox.cif.g08.bks.cpg/sg8_2_cif.got.tgz:2001.got - 2010.06.03 19:46:02.
