data_PCOD9132865
_publ_section_title
;
Structure prediction by ZEFSAII (Michael W. Deem and Ramdas Pophale) SiO2 
 PCOD9132865
Probable space group: C M
;
_chemical_formula_sum "Si O2"
_cell_formula_units_Z 32
_cell_length_a 21.603513
_cell_length_b 8.054758
_cell_length_c 16.078095
_cell_angle_alpha 90.000000
_cell_angle_beta 153.589729
_cell_angle_gamma 90.000000
_cell_volume 1244.434621
_symmetry_space_group_name_H-M "C M"
_symmetry_group_IT_number 8
_symmetry_cell_setting 'monoclinic'
loop_
_space_group_symop_operation_xyz
x,y,z
x,-y,z
1/2+x,1/2+y,z
1/2+x,1/2-y,z
loop_
_atom_site_type_symbol
_atom_site_label
_atom_site_fract_x
_atom_site_fract_y
_atom_site_fract_z
Si Si1 0.998450 0.809725 0.408790
Si Si2 0.790144 0.808797 0.771734
Si Si3 0.098438 0.196714 0.127366
Si Si4 0.115057 0.305463 0.334869
Si Si5 0.312241 0.807703 0.981953
Si Si6 0.512302 0.192211 0.613847
Si Si7 0.409002 0.299602 0.660138
Si Si8 0.702171 0.699599 0.080841
O O1 0.843349 0.745834 0.203854
O O2 0.140904 0.722585 0.549847
O O3 0.004256 0.785544 0.516455
O O4 0.009465 0.000000 0.400656
O O5 0.803551 0.697923 0.870314
O O6 0.786015 0.000000 0.796147
O O7 0.936905 0.790266 0.901913
O O8 0.107702 0.290981 0.225146
O O9 0.197311 0.251885 0.171701
O O10 0.121815 0.000000 0.172142
O O11 0.113990 0.500000 0.355830
O O12 0.268813 0.233120 0.534609
O O13 0.966321 0.236118 0.186698
O O14 0.171824 0.714121 0.837165
O O15 0.302265 0.000000 0.996731
O O16 0.414398 0.257163 0.568977
O O17 0.483035 0.000000 0.561551
O O18 0.406243 0.500000 0.665859
O O19 0.556708 0.235769 0.870328
O O20 0.695253 0.500000 0.072282
#
# Coordination Sequence:
#
# PCOD9132865 Si02
#       8
#     4   4   4   4   4   4   4   4
#     4  11  21  34  54  79 106 136 174 215 257 306
#     4   9  16  29  50  77 105 131 166 211 259 306
#     4   9  18  32  53  79 103 131 169 212 257 307
#     4   9  18  32  53  79 103 131 169 212 257 307
#     4   9  16  29  50  77 105 131 166 211 259 306
#     4  11  21  34  54  79 106 136 174 215 257 306
#     4  10  21  37  54  74 104 140 176 214 257 305
#     4  10  21  37  54  74 104 140 176 214 257 305
#
# _framework density 25.714489
#
# number of rings (size 3 to 8) (size 9 to 14) (size 15 to 20)
#    0.000    2.250    0.000    5.250    0.000    4.500 
#    0.000    1.250    0.000    4.500    0.000    0.000 
#    0.000    0.000    0.000    0.000    0.000    0.000 
#
# Total GULP energy -89470.607253 kJ/mol
# GULP energy per Si atom -5591.912953 kJ/mol
# Density = 2.565596 g / cm^3
# Si number density = 25.714489 Si / 1000 Ang^3
#
#
#
# Elastic Constant Matrix: (Units=GPa)
#
#
# Indices 1 2 3 4 5 6 
#
# 1 111.3699 5.1474 28.9079 0.0000 33.2577 0.0000
# 2 5.1474 63.8617 7.2550 0.0000 4.1551 0.0000
# 3 28.9079 7.2550 171.3150 0.0000 28.5273 0.0000
# 4 0.0000 0.0000 0.0000 21.7254 0.0000 2.6332
# 5 33.2577 4.1551 28.5273 0.0000 56.9069 0.0000
# 6 0.0000 0.0000 0.0000 2.6332 0.0000 21.8828
#
#
#
# Elastic Compliance Matrix: (Units=1/GPa)
#
#
# Indices 1 2 3 4 5 6 
#
# 1 0.011002 -0.000402 -0.000844 0.000000 -0.005977 0.000000
# 2 -0.000402 0.015791 -0.000489 0.000000 -0.000673 0.000000
# 3 -0.000844 -0.000489 0.006451 0.000000 -0.002705 0.000000
# 4 0.000000 0.000000 0.000000 0.046710 0.000000 -0.005621
# 5 -0.005977 -0.000673 -0.002705 0.000000 0.022471 0.000000
# 6 0.000000 0.000000 0.000000 -0.005621 0.000000 0.046374
#
#
# Mechanical properties :
#
#
# Convention : Reuss Voigt Hill
#
# Bulk Modulus (GPa) = 33.58725 47.68523 40.63624
# Shear Modulus (GPa) = 30.82757 40.45211 35.63984
#
# Velocity S-wave (km/s) = 3.46618 3.97057 3.72692
# Velocity P-wave (km/s) = 5.39529 6.29324 5.86149
#
# Compressibility (1/GPa) = 0.02977320
#
# Stress axis : x y z
#
# Youngs Moduli (GPa) = 90.89511 63.32903 155.02133
#
# Poissons Ratio (x) = 0.02546 0.13085
# Poissons Ratio (y) = 0.03654 0.07578
# Poissons Ratio (z) = 0.07672 0.03096
#
# Static dielectric constant tensor:
#      x y z
#    x 2.037910 0.000000 -0.052420 
#    y 0.000000 1.871550 0.000000 
#    z -0.052420 0.000000 2.163200 
# 
# From -- ./inp_files/18871.got.cif
#   From: 2010.05.17/outbox.cif.g08.bks.cpg/sg8_10_cif.got.tgz:18871.got - 2010.06.03 19:46:02.
