data_PCOD9132547
_publ_section_title
;
Structure prediction by ZEFSAII (Michael W. Deem and Ramdas Pophale) SiO2 
 PCOD9132547
Probable space group: C M
;
_chemical_formula_sum "Si O2"
_cell_formula_units_Z 32
_cell_length_a 24.740376
_cell_length_b 7.577983
_cell_length_c 16.308263
_cell_angle_alpha 90.000000
_cell_angle_beta 152.113847
_cell_angle_gamma 90.000000
_cell_volume 1430.046160
_symmetry_space_group_name_H-M "C M"
_symmetry_group_IT_number 8
_symmetry_cell_setting 'monoclinic'
loop_
_space_group_symop_operation_xyz
x,y,z
x,-y,z
1/2+x,1/2+y,z
1/2+x,1/2-y,z
loop_
_atom_site_type_symbol
_atom_site_label
_atom_site_fract_x
_atom_site_fract_y
_atom_site_fract_z
Si Si1 0.173600 0.284551 0.320490
Si Si2 0.722678 0.203306 0.842682
Si Si3 0.276655 0.205682 0.096664
Si Si4 0.991613 0.700481 0.461838
Si Si5 0.044219 0.785931 0.851491
Si Si6 0.875624 0.212710 0.474188
Si Si7 0.409169 0.207514 0.963638
Si Si8 0.841874 0.213116 0.693138
O O1 0.174524 0.500000 0.321284
O O2 0.254096 0.230652 0.351519
O O3 0.240368 0.230309 0.494053
O O4 0.041315 0.224841 0.136535
O O5 0.614077 0.283652 0.648222
O O6 0.834978 0.211027 0.937024
O O7 0.693312 0.000000 0.821482
O O8 0.740479 0.289378 0.954147
O O9 0.403268 0.285321 0.279358
O O10 0.286981 0.000000 0.133903
O O11 0.173525 0.282987 0.013519
O O12 0.018369 0.500000 0.470091
O O13 0.916686 0.703225 0.445048
O O14 0.971784 0.746862 0.672145
O O15 0.964119 0.724508 0.818388
O O16 0.050031 0.000000 0.864378
O O17 0.873402 0.000000 0.460420
O O18 0.342614 0.233163 0.788430
O O19 0.416339 0.000000 0.990265
O O20 0.840776 0.000000 0.689382
#
# Coordination Sequence:
#
# PCOD9132547 Si02
#       8
#     4   4   4   4   4   4   4   4
#     4   8  18  36  57  82 114 149 184 224 279 336
#     4  11  24  42  57  79 114 151 191 237 282 327
#     4  10  20  37  59  84 111 148 189 228 277 337
#     4  10  22  36  55  84 116 146 182 230 285 333
#     4   8  15  30  56  84 112 145 181 218 269 335
#     4   9  16  32  58  84 113 148 183 223 273 335
#     4  11  23  39  59  83 111 150 193 234 278 331
#     4   9  18  36  59  84 113 149 185 226 277 334
#
# _framework density 22.376899999999999
#
# number of rings (size 3 to 8) (size 9 to 14) (size 15 to 20)
#    0.000    2.500    1.250    2.250    1.750    2.000 
#    0.000   10.000    0.000    0.000    0.000    0.000 
#    0.000    0.000    0.000    0.000    0.000    0.000 
#
# Total GULP energy -89318.116455 kJ/mol
# GULP energy per Si atom -5582.382278 kJ/mol
# Density = 2.232597 g / cm^3
# Si number density = 22.376900 Si / 1000 Ang^3
#
#
#
# Elastic Constant Matrix: (Units=GPa)
#
#
# Indices 1 2 3 4 5 6 
#
# 1 54.8938 -8.6625 10.5861 0.0000 14.4618 0.0000
# 2 -8.6625 56.0554 3.9995 0.0000 2.3299 0.0000
# 3 10.5861 3.9995 86.8659 0.0000 30.0096 0.0000
# 4 0.0000 0.0000 0.0000 11.7624 0.0000 -5.9593
# 5 14.4618 2.3299 30.0096 0.0000 27.8212 0.0000
# 6 0.0000 0.0000 0.0000 -5.9593 0.0000 20.7004
#
#
#
# Elastic Compliance Matrix: (Units=1/GPa)
#
#
# Indices 1 2 3 4 5 6 
#
# 1 0.022116 0.003858 0.001929 0.000000 -0.013900 0.000000
# 2 0.003858 0.018588 -0.000152 0.000000 -0.003398 0.000000
# 3 0.001929 -0.000152 0.018532 0.000000 -0.020979 0.000000
# 4 0.000000 0.000000 0.000000 0.099534 0.000000 0.028654
# 5 -0.013900 -0.003398 -0.020979 0.000000 0.066083 0.000000
# 6 0.000000 0.000000 0.000000 0.028654 0.000000 0.056557
#
#
# Mechanical properties :
#
#
# Convention : Reuss Voigt Hill
#
# Bulk Modulus (GPa) = 14.18341 23.29569 18.73955
# Shear Modulus (GPa) = 17.02757 24.84961 20.93859
#
# Velocity S-wave (km/s) = 2.76151 3.33604 3.06228
# Velocity P-wave (km/s) = 4.06450 5.02713 4.57122
#
# Compressibility (1/GPa) = 0.07050491
#
# Stress axis : x y z
#
# Youngs Moduli (GPa) = 45.21674 53.79897 53.96172
#
# Poissons Ratio (x) = -0.20754 -0.10411
# Poissons Ratio (y) = -0.17443 0.00821
# Poissons Ratio (z) = -0.08724 0.00818
#
# Static dielectric constant tensor:
#      x y z
#    x 1.778250 0.000000 0.023070 
#    y 0.000000 1.910350 0.000000 
#    z 0.023070 0.000000 1.874210 
# 
# From -- ./inp_files/28189.got.cif
#   From: 2010.05.17/outbox.cif.g08.bks.cpg/sg8_15_cif.got.tgz:28189.got - 2010.06.03 19:46:02.
