data_PCOD9132763
_publ_section_title
;
Structure prediction by ZEFSAII (Michael W. Deem and Ramdas Pophale) SiO2 
 PCOD9132763
Probable space group: C M
;
_chemical_formula_sum "Si O2"
_cell_formula_units_Z 28
_cell_length_a 5.263018
_cell_length_b 31.811101
_cell_length_c 7.235306
_cell_angle_alpha 90.000000
_cell_angle_beta 117.005030
_cell_angle_gamma 90.000000
_cell_volume 1079.274496
_symmetry_space_group_name_H-M "C M"
_symmetry_group_IT_number 8
_symmetry_cell_setting 'monoclinic'
loop_
_space_group_symop_operation_xyz
x,y,z
x,-y,z
1/2+x,1/2+y,z
1/2+x,1/2-y,z
loop_
_atom_site_type_symbol
_atom_site_label
_atom_site_fract_x
_atom_site_fract_y
_atom_site_fract_z
Si Si1 0.701650 0.500000 0.068090
Si Si2 0.173425 0.087898 0.097925
Si Si3 0.242900 0.912461 0.685650
Si Si4 0.232531 0.726951 0.367280
Si Si5 0.036298 0.500000 0.799594
Si Si6 0.539071 0.729656 0.868144
Si Si7 0.244188 0.632622 0.396889
Si Si8 0.229708 0.354186 0.836266
O O1 0.719725 0.542044 0.193131
O O2 0.375434 0.500000 0.885198
O O3 0.941113 0.500000 0.986005
O O4 0.437937 0.116274 0.237307
O O5 0.163960 0.079577 0.872677
O O6 0.879259 0.112310 0.021608
O O7 0.416117 0.954733 0.688864
O O8 0.401850 0.866803 0.753166
O O9 0.989321 0.902428 0.459951
O O10 0.406328 0.759904 0.299952
O O11 0.387929 0.730526 0.617457
O O12 0.282371 0.678918 0.324660
O O13 0.873465 0.733191 0.925656
O O14 0.406565 0.688406 0.919786
O O15 0.249343 0.638816 0.621383
#
# Coordination Sequence:
#
# PCOD9132763 Si02
#       8
#     2   4   4   4   2   4   4   4
#     4  10  20  41  65  90 125 172 206 248 326 377
#     4  10  22  41  62  90 126 164 207 260 312 375
#     4  10  22  39  64  90 124 166 206 256 316 372
#     4   9  19  36  57  86 124 166 203 254 312 370
#     4  10  20  41  65  90 129 168 206 252 318 381
#     4   9  19  32  57  87 119 161 206 252 305 369
#     4  10  23  38  63  95 122 163 215 260 308 372
#     4  10  21  38  63  88 123 164 205 258 313 368
#
# _framework density 25.943351
#
# number of rings (size 3 to 8) (size 9 to 14) (size 15 to 20)
#    0.000    2.286    1.429    0.000   12.000    1.714 
#    0.000    2.857    0.000    0.000    0.000    0.000 
#    0.000    0.000    0.000    0.000    0.000    0.000 
#
# Total GULP energy -78155.100895 kJ/mol
# GULP energy per Si atom -5582.507207 kJ/mol
# Density = 2.588430 g / cm^3
# Si number density = 25.943351 Si / 1000 Ang^3
#
#
#
# Elastic Constant Matrix: (Units=GPa)
#
#
# Indices 1 2 3 4 5 6 
#
# 1 96.6683 12.9194 9.1352 0.0000 20.4831 0.0000
# 2 12.9194 105.6437 10.5390 0.0000 -10.7810 0.0000
# 3 9.1352 10.5390 81.5072 0.0000 -2.9558 0.0000
# 4 0.0000 0.0000 0.0000 26.1204 0.0000 10.1947
# 5 20.4831 -10.7810 -2.9558 0.0000 33.2149 0.0000
# 6 0.0000 0.0000 0.0000 10.1947 0.0000 37.7782
#
#
#
# Elastic Compliance Matrix: (Units=1/GPa)
#
#
# Indices 1 2 3 4 5 6 
#
# 1 0.012618 -0.002283 -0.001433 0.000000 -0.008650 0.000000
# 2 -0.002283 0.010313 -0.000908 0.000000 0.004674 0.000000
# 3 -0.001433 -0.000908 0.012609 0.000000 0.001711 0.000000
# 4 0.000000 0.000000 0.000000 0.042791 0.000000 -0.011548
# 5 -0.008650 0.004674 0.001711 0.000000 0.037111 0.000000
# 6 0.000000 0.000000 0.000000 -0.011548 0.000000 0.029586
#
#
# Mechanical properties :
#
#
# Convention : Reuss Voigt Hill
#
# Bulk Modulus (GPa) = 38.03417 38.77848 38.40633
# Shear Modulus (GPa) = 30.66752 36.17107 33.41930
#
# Velocity S-wave (km/s) = 3.44189 3.73799 3.59299
# Velocity P-wave (km/s) = 5.52157 5.79741 5.66117
#
# Compressibility (1/GPa) = 0.02629215
#
# Stress axis : x y z
#
# Youngs Moduli (GPa) = 79.25221 96.96920 79.30914
#
# Poissons Ratio (x) = 0.22137 0.11363
# Poissons Ratio (y) = 0.18092 0.07202
# Poissons Ratio (z) = 0.11354 0.08805
#
# Static dielectric constant tensor:
#      x y z
#    x 2.030420 0.000000 -0.040230 
#    y 0.000000 2.158180 0.000000 
#    z -0.040230 0.000000 2.047370 
# 
# From -- ./inp_files/7232.got.cif
#   From: 2010.05.17/outbox.cif.g08.bks.cpg/sg8_4_cif.got.tgz:7232.got - 2010.06.03 19:46:02.
