data_PCOD9132777
_publ_section_title
;
Structure prediction by ZEFSAII (Michael W. Deem and Ramdas Pophale) SiO2 
 PCOD9132777
Probable space group: C M
;
_chemical_formula_sum "Si O2"
_cell_formula_units_Z 26
_cell_length_a 13.827840
_cell_length_b 17.283826
_cell_length_c 8.544503
_cell_angle_alpha 90.000000
_cell_angle_beta 32.600084
_cell_angle_gamma 90.000000
_cell_volume 1100.236558
_symmetry_space_group_name_H-M "C M"
_symmetry_group_IT_number 8
_symmetry_cell_setting 'monoclinic'
loop_
_space_group_symop_operation_xyz
x,y,z
x,-y,z
1/2+x,1/2+y,z
1/2+x,1/2-y,z
loop_
_atom_site_type_symbol
_atom_site_label
_atom_site_fract_x
_atom_site_fract_y
_atom_site_fract_z
Si Si1 0.080650 0.858139 0.540480
Si Si2 0.516580 0.500000 0.393682
Si Si3 0.321975 0.761514 0.992061
Si Si4 0.655176 0.150005 0.685655
Si Si5 0.785505 0.298123 0.678701
Si Si6 0.929774 0.588827 0.263731
Si Si7 0.479432 0.417844 0.117142
O O1 0.156120 0.786932 0.328276
O O2 0.251378 0.885334 0.411305
O O3 0.026580 0.930955 0.510415
O O4 0.910575 0.823763 0.866263
O O5 0.518278 0.435160 0.247588
O O6 0.480712 0.815470 0.842686
O O7 0.288138 0.781316 0.857763
O O8 0.770418 0.220832 0.597492
O O9 0.771691 0.103549 0.402943
O O10 0.592007 0.099422 0.920019
O O11 0.940460 0.352430 0.394828
O O12 0.605693 0.348401 0.898625
O O13 0.920620 0.500000 0.325800
O O14 0.514172 0.500000 0.986382
#
# Coordination Sequence:
#
# PCOD9132777 Si02
#       7
#     4   2   4   4   4   4   4
#     4  11  22  43  65  93 126 167 213 259 311 379
#     4  10  20  42  64  92 124 176 208 246 328 380
#     4  11  25  41  67  95 128 167 213 259 319 374
#     4  11  24  42  65  95 128 167 213 262 312 376
#     4  12  23  42  65  96 126 169 211 265 311 375
#     4  11  24  40  64  94 131 163 208 263 317 367
#     4  10  22  41  64  91 126 168 210 251 316 377
#
# _framework density 23.631281000000001
#
# number of rings (size 3 to 8) (size 9 to 14) (size 15 to 20)
#    0.462    0.615    3.846    2.769    4.308    0.000 
#    0.000    0.000    0.000    0.923    0.000    0.000 
#    0.000    0.000    0.000    0.000    0.000    0.000 
#
# Total GULP energy -72438.321962 kJ/mol
# GULP energy per Si atom -5572.178612 kJ/mol
# Density = 2.357750 g / cm^3
# Si number density = 23.631281 Si / 1000 Ang^3
#
#
#
# Elastic Constant Matrix: (Units=GPa)
#
#
# Indices 1 2 3 4 5 6 
#
# 1 43.4796 5.0562 -3.6908 -0.0011 17.7994 -0.0018
# 2 5.0562 118.2188 24.0381 0.0006 -3.8748 -0.0003
# 3 -3.6908 24.0381 94.7641 0.0006 -3.8426 -0.0018
# 4 -0.0011 0.0006 0.0006 15.3773 0.0005 0.7321
# 5 17.7994 -3.8748 -3.8426 0.0005 21.2561 0.0030
# 6 -0.0018 -0.0003 -0.0018 0.7321 0.0030 7.6398
#
#
#
# Elastic Compliance Matrix: (Units=1/GPa)
#
#
# Indices 1 2 3 4 5 6 
#
# 1 0.035793 -0.002697 0.000849 0.000003 -0.030311 0.000020
# 2 -0.002697 0.009154 -0.002285 0.000000 0.003514 -0.000002
# 3 0.000849 -0.002285 0.011201 0.000000 0.000897 0.000002
# 4 0.000003 0.000000 0.000000 0.065329 -0.000003 -0.006260
# 5 -0.030311 0.003514 0.000897 -0.000003 0.073230 -0.000035
# 6 0.000020 -0.000002 0.000002 -0.006260 -0.000035 0.131494
#
#
# Mechanical properties :
#
#
# Convention : Reuss Voigt Hill
#
# Bulk Modulus (GPa) = 20.88381 34.14104 27.51242
# Shear Modulus (GPa) = 14.26828 24.25856 19.26342
#
# Velocity S-wave (km/s) = 2.45987 3.20745 2.85821
# Velocity P-wave (km/s) = 4.11394 5.30997 4.74975
#
# Compressibility (1/GPa) = 0.04788399
#
# Stress axis : x y z
#
# Youngs Moduli (GPa) = 27.93809 109.24240 89.27385
#
# Poissons Ratio (x) = 0.29463 -0.07581
# Poissons Ratio (y) = 0.07535 0.20395
# Poissons Ratio (z) = -0.02372 0.24957
#
# Static dielectric constant tensor:
#      x y z
#    x 1.895730 0.000000 -0.016660 
#    y 0.000000 1.867550 0.000000 
#    z -0.016660 0.000000 1.962610 
# 
# From -- ./inp_files/13344.got.cif
#   From: 2010.05.17/outbox.cif.g08.bks.cpg/sg8_7_cif.got.tgz:13344.got - 2010.06.03 19:46:02.
