data_PCOD9132715
_publ_section_title
;
Structure prediction by ZEFSAII (Michael W. Deem and Ramdas Pophale) SiO2 
 PCOD9132715
Probable space group: C M
;
_chemical_formula_sum "Si O2"
_cell_formula_units_Z 26
_cell_length_a 9.713106
_cell_length_b 16.794449
_cell_length_c 8.116305
_cell_angle_alpha 90.000000
_cell_angle_beta 86.345809
_cell_angle_gamma 90.000000
_cell_volume 1321.290710
_symmetry_space_group_name_H-M "C M"
_symmetry_group_IT_number 8
_symmetry_cell_setting 'monoclinic'
loop_
_space_group_symop_operation_xyz
x,y,z
x,-y,z
1/2+x,1/2+y,z
1/2+x,1/2-y,z
loop_
_atom_site_type_symbol
_atom_site_label
_atom_site_fract_x
_atom_site_fract_y
_atom_site_fract_z
Si Si1 0.505220 0.089154 0.350970
Si Si2 0.921158 0.000000 0.156618
Si Si3 0.839079 0.728467 0.532641
Si Si4 0.508864 0.326042 0.105611
Si Si5 0.563888 0.326972 0.725645
Si Si6 0.219899 0.500000 0.494894
Si Si7 0.933426 0.000000 0.767644
Si Si8 0.710299 0.203198 0.231310
O O1 0.401245 0.156234 0.418095
O O2 0.611376 0.072077 0.492550
O O3 0.608815 0.128409 0.210437
O O4 0.453702 0.000000 0.310181
O O5 0.005554 0.082036 0.161378
O O6 0.811178 0.000000 0.317133
O O7 0.881092 0.000000 0.963013
O O8 0.714373 0.691880 0.645485
O O9 0.775485 0.790914 0.408022
O O10 0.953438 0.773040 0.634177
O O11 0.609000 0.277514 0.216934
O O12 0.348252 0.299952 0.114027
O O13 0.563256 0.309830 0.919611
O O14 0.519704 0.419917 0.723548
O O15 0.310047 0.500000 0.647757
#
# Coordination Sequence:
#
# PCOD9132715 Si02
#       8
#     4   2   4   4   4   2   2   4
#     4  10  22  38  63  88 125 159 212 259 310 375
#     4  10  22  40  63  94 127 160 219 260 306 390
#     4  12  23  42  62  94 125 164 214 260 308 389
#     4  11  23  42  62  92 126 165 204 266 315 375
#     4  11  25  41  64  92 130 165 209 260 325 371
#     4  10  20  39  66  91 122 171 205 262 320 368
#     4  10  24  39  65  97 123 169 216 258 316 384
#     4  12  21  40  64  91 121 161 214 256 313 373
#
# _framework density 19.677727999999998
#
# number of rings (size 3 to 8) (size 9 to 14) (size 15 to 20)
#    0.462    0.615    4.615    1.846    3.231    0.000 
#    1.385    0.000    0.000    0.000    0.000    0.000 
#    0.000    0.000    0.000    0.000    0.000    0.000 
#
# Total GULP energy -72414.138115 kJ/mol
# GULP energy per Si atom -5570.318317 kJ/mol
# Density = 1.963294 g / cm^3
# Si number density = 19.677728 Si / 1000 Ang^3
#
#
#
# Elastic Constant Matrix: (Units=GPa)
#
#
# Indices 1 2 3 4 5 6 
#
# 1 83.4021 18.6230 4.1517 0.0000 -12.6976 0.0000
# 2 18.6230 80.8842 -13.1455 0.0000 9.5230 0.0000
# 3 4.1517 -13.1455 25.0987 0.0000 -6.0397 0.0000
# 4 0.0000 0.0000 0.0000 22.2798 0.0000 0.4855
# 5 -12.6976 9.5230 -6.0397 0.0000 30.4626 0.0000
# 6 0.0000 0.0000 0.0000 0.4855 0.0000 30.4240
#
#
#
# Elastic Compliance Matrix: (Units=1/GPa)
#
#
# Indices 1 2 3 4 5 6 
#
# 1 0.014188 -0.004565 -0.003120 0.000000 0.006723 0.000000
# 2 -0.004565 0.015242 0.007491 0.000000 -0.005183 0.000000
# 3 -0.003120 0.007491 0.045581 0.000000 0.005395 0.000000
# 4 0.000000 0.000000 0.000000 0.044899 0.000000 -0.000716
# 5 0.006723 -0.005183 0.005395 0.000000 0.038319 0.000000
# 6 0.000000 0.000000 0.000000 -0.000716 0.000000 0.032880
#
#
# Mechanical properties :
#
#
# Convention : Reuss Voigt Hill
#
# Bulk Modulus (GPa) = 13.40091 23.18261 18.29176
# Shear Modulus (GPa) = 23.10828 28.61700 25.86264
#
# Velocity S-wave (km/s) = 3.43058 3.81764 3.62927
# Velocity P-wave (km/s) = 4.74519 5.58921 5.18440
#
# Compressibility (1/GPa) = 0.07462178
#
# Stress axis : x y z
#
# Youngs Moduli (GPa) = 70.48041 65.60750 21.93920
#
# Poissons Ratio (x) = 0.29952 0.06846
# Poissons Ratio (y) = 0.32177 -0.16435
# Poissons Ratio (z) = 0.21993 -0.49148
#
# Static dielectric constant tensor:
#      x y z
#    x 1.678970 0.000000 -0.028830 
#    y 0.000000 1.763260 0.000000 
#    z -0.028830 0.000000 1.684770 
# 
# From -- ./inp_files/8180.got.cif
#   From: 2010.05.17/outbox.cif.g08.bks.cpg/sg8_5_cif.got.tgz:8180.got - 2010.06.03 19:46:02.
