data_PCOD9132075
_publ_section_title
;
Structure prediction by ZEFSAII (Michael W. Deem and Ramdas Pophale) SiO2 
 PCOD9132075
Probable space group: C M
;
_chemical_formula_sum "Si O2"
_cell_formula_units_Z 32
_cell_length_a 28.681816
_cell_length_b 8.562616
_cell_length_c 21.767212
_cell_angle_alpha 90.000000
_cell_angle_beta 160.832156
_cell_angle_gamma 90.000000
_cell_volume 1755.234702
_symmetry_space_group_name_H-M "C M"
_symmetry_group_IT_number 8
_symmetry_cell_setting 'monoclinic'
loop_
_space_group_symop_operation_xyz
x,y,z
x,-y,z
1/2+x,1/2+y,z
1/2+x,1/2-y,z
loop_
_atom_site_type_symbol
_atom_site_label
_atom_site_fract_x
_atom_site_fract_y
_atom_site_fract_z
Si Si1 0.448600 0.311883 0.670690
Si Si2 0.143538 0.690449 0.529247
Si Si3 0.605122 0.815428 0.985787
Si Si4 0.374341 0.180705 0.262612
Si Si5 0.131393 0.812853 0.266636
Si Si6 0.211521 0.819161 0.928222
Si Si7 0.470012 0.689021 0.942047
Si Si8 0.985198 0.689746 0.206958
O O1 0.449361 0.500000 0.669959
O O2 0.512430 0.260994 0.815759
O O3 0.291286 0.250071 0.466317
O O4 0.558569 0.251102 0.755266
O O5 0.139415 0.500000 0.525765
O O6 0.082657 0.736337 0.386626
O O7 0.031581 0.742107 0.442310
O O8 0.305385 0.740471 0.738478
O O9 0.588135 0.000000 0.961243
O O10 0.769261 0.771258 0.176779
O O11 0.549021 0.753233 0.980617
O O12 0.382578 0.000000 0.292935
O O13 0.296136 0.180730 0.098597
O O14 0.050436 0.763345 0.104045
O O15 0.049850 0.750931 0.224851
O O16 0.134280 0.000000 0.272129
O O17 0.188536 0.000000 0.882098
O O18 0.324681 0.752055 0.021080
O O19 0.470349 0.500000 0.939035
O O20 0.982661 0.500000 0.203159
#
# Coordination Sequence:
#
# PCOD9132075 Si02
#       8
#     4   4   4   4   4   4   4   4
#     4  10  19  35  58  78 101 137 176 211 256 310
#     4   8  15  31  57  80  95 126 177 217 248 303
#     4  11  21  33  53  82 109 131 167 216 261 307
#     4   8  14  29  53  78 102 129 166 209 255 307
#     4  11  23  35  48  74 109 140 176 219 257 299
#     4   7  13  27  50  78  99 122 165 213 252 303
#     4  10  21  37  53  71 103 145 181 213 254 303
#     4   9  16  31  56  79  98 126 168 214 261 312
#
# _framework density 18.231180999999999
#
# number of rings (size 3 to 8) (size 9 to 14) (size 15 to 20)
#    0.000    2.750    0.000    4.875    0.000    2.000 
#    0.000    8.125    0.000    4.500    0.000    0.000 
#    0.000    0.000    0.000    0.000    0.000    0.000 
#
# Total GULP energy -89175.853520 kJ/mol
# GULP energy per Si atom -5573.490845 kJ/mol
# Density = 1.818969 g / cm^3
# Si number density = 18.231181 Si / 1000 Ang^3
#
#
#
# Elastic Constant Matrix: (Units=GPa)
#
#
# Indices 1 2 3 4 5 6 
#
# 1 118.4178 26.6378 132.2688 0.0000 36.9499 0.0000
# 2 26.6378 28.7657 31.0113 0.0000 5.4678 0.0000
# 3 132.2688 31.0113 117.2099 0.0000 32.0683 0.0000
# 4 0.0000 0.0000 0.0000 12.8050 0.0000 -4.0941
# 5 36.9499 5.4678 32.0683 0.0000 30.4972 0.0000
# 6 0.0000 0.0000 0.0000 -4.0941 0.0000 16.3780
#
#
#
# Elastic Compliance Matrix: (Units=1/GPa)
#
#
# Indices 1 2 3 4 5 6 
#
# 1 -0.029195 -0.011961 0.036285 0.000000 -0.000638 0.000000
# 2 -0.011961 0.044747 -0.000156 0.000000 0.006633 0.000000
# 3 0.036285 -0.000156 -0.028574 0.000000 -0.013888 0.000000
# 4 0.000000 0.000000 0.000000 0.084878 0.000000 0.021217
# 5 -0.000638 0.006633 -0.013888 0.000000 0.046977 0.000000
# 6 0.000000 0.000000 0.000000 0.021217 0.000000 0.066361
#
#
# Mechanical properties :
#
#
# Convention : Reuss Voigt Hill
#
# Bulk Modulus (GPa) = 28.31765 71.58102 49.94934
# Shear Modulus (GPa) = 33.64078 16.90108 25.27093
#
# Velocity S-wave (km/s) = 4.30028 3.04804 3.72713
# Velocity P-wave (km/s) = 6.34214 7.19275 6.78080
#
# Compressibility (1/GPa) = 0.03531366
#
# Stress axis : x y z
#
# Youngs Moduli (GPa) = -34.25214 22.34767 -34.99634
#
# Poissons Ratio (x) = 0.26731 1.26985
# Poissons Ratio (y) = -0.40970 -0.00546
# Poissons Ratio (z) = 1.24285 0.00349
#
# Static dielectric constant tensor:
#      x y z
#    x 1.615410 0.000000 0.034680 
#    y 0.000000 1.616620 0.000000 
#    z 0.034680 0.000000 1.635730 
# 
# From -- ./inp_files/24834.got.cif
#   From: 2010.05.17/outbox.cif.g08.bks.cpg/sg8_13_cif.got.tgz:24834.got - 2010.06.03 19:46:02.
