data_PCOD9132395
_publ_section_title
;
Structure prediction by ZEFSAII (Michael W. Deem and Ramdas Pophale) SiO2 
 PCOD9132395
Probable space group: C M
;
_chemical_formula_sum "Si O2"
_cell_formula_units_Z 32
_cell_length_a 15.548458
_cell_length_b 7.714316
_cell_length_c 22.570270
_cell_angle_alpha 90.000000
_cell_angle_beta 33.104203
_cell_angle_gamma 90.000000
_cell_volume 1478.577546
_symmetry_space_group_name_H-M "C M"
_symmetry_group_IT_number 8
_symmetry_cell_setting 'monoclinic'
loop_
_space_group_symop_operation_xyz
x,y,z
x,-y,z
1/2+x,1/2+y,z
1/2+x,1/2-y,z
loop_
_atom_site_type_symbol
_atom_site_label
_atom_site_fract_x
_atom_site_fract_y
_atom_site_fract_z
Si Si1 0.429270 0.700146 0.205580
Si Si2 0.236344 0.291085 0.830056
Si Si3 0.265821 0.790758 0.479305
Si Si4 0.078811 0.704538 0.243806
Si Si5 0.547360 0.290436 0.711798
Si Si6 0.782445 0.205790 0.670985
Si Si7 0.423173 0.291338 0.078122
Si Si8 0.608232 0.292713 0.442853
O O1 0.476475 0.500000 0.178925
O O2 0.515093 0.779794 0.213239
O O3 0.462458 0.775742 0.121567
O O4 0.240475 0.712018 0.324689
O O5 0.245778 0.500000 0.822083
O O6 0.372806 0.230580 0.795977
O O7 0.275312 0.224656 0.741707
O O8 0.063953 0.246494 0.952206
O O9 0.441385 0.721934 0.365710
O O10 0.168165 0.725581 0.591439
O O11 0.168573 0.760207 0.475136
O O12 0.275235 0.000000 0.479821
O O13 0.086033 0.500000 0.252213
O O14 0.253149 0.775197 0.154270
O O15 0.547579 0.500000 0.710078
O O16 0.618832 0.235077 0.732653
O O17 0.928922 0.273231 0.546966
O O18 0.811967 0.000000 0.658573
O O19 0.411912 0.500000 0.089630
O O20 0.613609 0.500000 0.429074
#
# Coordination Sequence:
#
# PCOD9132395 Si02
#       8
#     4   4   4   4   4   4   4   4
#     4  10  21  36  56  86 117 144 183 236 284 325
#     4  10  22  41  60  79 111 153 193 230 274 334
#     4   8  14  30  57  80 106 144 183 220 267 330
#     4   9  19  37  59  81 110 152 189 224 277 339
#     4  10  20  35  58  85 110 146 190 229 277 338
#     4  10  21  37  57  84 114 147 186 232 283 331
#     4  10  23  40  59  82 112 151 192 232 277 331
#     4   9  17  34  58  81 114 153 184 221 277 342
#
# _framework density 21.642422
#
# number of rings (size 3 to 8) (size 9 to 14) (size 15 to 20)
#    0.000    2.500    1.250    1.125    1.750    4.000 
#    0.000    7.500    0.000    0.000    0.000    0.000 
#    0.000    0.000    0.000    0.000    0.000    0.000 
#
# Total GULP energy -89307.783775 kJ/mol
# GULP energy per Si atom -5581.736486 kJ/mol
# Density = 2.159316 g / cm^3
# Si number density = 21.642422 Si / 1000 Ang^3
#
#
#
# Elastic Constant Matrix: (Units=GPa)
#
#
# Indices 1 2 3 4 5 6 
#
# 1 38.3756 -7.4349 15.0854 0.0000 -17.4682 0.0000
# 2 -7.4349 31.9963 -4.6824 0.0000 -0.5481 0.0000
# 3 15.0854 -4.6824 92.9244 -0.0001 -20.9721 0.0000
# 4 0.0000 0.0000 -0.0001 21.5057 0.0000 -3.5830
# 5 -17.4682 -0.5481 -20.9721 0.0000 34.1906 0.0000
# 6 0.0000 0.0000 0.0000 -3.5830 0.0000 14.5245
#
#
#
# Elastic Compliance Matrix: (Units=1/GPa)
#
#
# Indices 1 2 3 4 5 6 
#
# 1 0.036411 0.008554 -0.001452 0.000000 0.017849 0.000000
# 2 0.008554 0.033582 0.001638 0.000000 0.005913 0.000000
# 3 -0.001452 0.001638 0.012672 0.000000 0.007058 0.000000
# 4 0.000000 0.000000 0.000000 0.048492 0.000000 0.011962
# 5 0.017849 0.005913 0.007058 0.000000 0.042791 0.000000
# 6 0.000000 0.000000 0.000000 0.011962 0.000000 0.071800
#
#
# Mechanical properties :
#
#
# Convention : Reuss Voigt Hill
#
# Bulk Modulus (GPa) = 9.98532 18.80361 14.39447
# Shear Modulus (GPa) = 19.10949 24.73272 21.92110
#
# Velocity S-wave (km/s) = 2.97470 3.38418 3.18602
# Velocity P-wave (km/s) = 4.05243 4.89668 4.49442
#
# Compressibility (1/GPa) = 0.10014698
#
# Stress axis : x y z
#
# Youngs Moduli (GPa) = 27.46428 29.77762 78.91103
#
# Poissons Ratio (x) = -0.25472 0.11454
# Poissons Ratio (y) = -0.23493 -0.12927
# Poissons Ratio (z) = 0.03986 -0.04878
#
# Static dielectric constant tensor:
#      x y z
#    x 1.785860 0.000000 -0.007210 
#    y 0.000000 1.806950 0.000000 
#    z -0.007210 0.000000 1.778400 
# 
# From -- ./inp_files/28210.got.cif
#   From: 2010.05.17/outbox.cif.g08.bks.cpg/sg8_15_cif.got.tgz:28210.got - 2010.06.03 19:46:02.
