data_PCOD9132837
_publ_section_title
;
Structure prediction by ZEFSAII (Michael W. Deem and Ramdas Pophale) SiO2 
 PCOD9132837
Probable space group: C M
;
_chemical_formula_sum "Si O2"
_cell_formula_units_Z 32
_cell_length_a 21.063089
_cell_length_b 8.319795
_cell_length_c 12.666632
_cell_angle_alpha 90.000000
_cell_angle_beta 52.075361
_cell_angle_gamma 90.000000
_cell_volume 1750.949708
_symmetry_space_group_name_H-M "C M"
_symmetry_group_IT_number 8
_symmetry_cell_setting 'monoclinic'
loop_
_space_group_symop_operation_xyz
x,y,z
x,-y,z
1/2+x,1/2+y,z
1/2+x,1/2-y,z
loop_
_atom_site_type_symbol
_atom_site_label
_atom_site_fract_x
_atom_site_fract_y
_atom_site_fract_z
Si Si1 0.299460 0.804650 0.506890
Si Si2 0.040364 0.309848 0.800907
Si Si3 0.639091 0.692547 0.079520
Si Si4 0.184883 0.805002 0.803914
Si Si5 0.214995 0.194941 0.220235
Si Si6 0.651129 0.694113 0.508059
Si Si7 0.895802 0.189148 0.075184
Si Si8 0.959207 0.691029 0.234032
O O1 0.262699 0.753847 0.656720
O O2 0.232782 0.758471 0.487463
O O3 0.387342 0.748165 0.383270
O O4 0.302081 0.000000 0.503392
O O5 0.031400 0.500000 0.817752
O O6 0.106995 0.252110 0.818087
O O7 0.076960 0.263321 0.650017
O O8 0.956566 0.228788 0.917821
O O9 0.648719 0.500000 0.070237
O O10 0.678513 0.753872 0.147086
O O11 0.544767 0.730504 0.169130
O O12 0.679352 0.752706 0.929633
O O13 0.182823 0.000000 0.805613
O O14 0.162163 0.244588 0.375880
O O15 0.306000 0.252350 0.143567
O O16 0.215844 0.000000 0.219302
O O17 0.646062 0.500000 0.518069
O O18 0.930485 0.274891 0.144136
O O19 0.895973 0.000000 0.095280
O O20 0.967667 0.500000 0.238693
#
# Coordination Sequence:
#
# PCOD9132837 Si02
#       8
#     4   4   4   4   4   4   4   4
#     4   8  15  29  52  78 104 140 181 222 271 324
#     4  11  21  33  54  84 112 141 186 237 284 333
#     4  10  21  36  57  83 114 151 188 228 277 338
#     4   9  17  33  54  79 111 148 184 221 277 333
#     4  10  21  39  59  81 114 155 192 228 280 339
#     4   9  17  34  56  78 110 148 186 228 283 335
#     4  12  23  36  56  83 113 146 190 238 285 331
#     4  11  20  34  56  82 112 147 189 234 279 329
#
# _framework density 18.275794999999999
#
# number of rings (size 3 to 8) (size 9 to 14) (size 15 to 20)
#    0.000    2.000    2.500    3.375    0.000    1.000 
#    0.000    1.875    0.000    1.500    0.000    0.000 
#    0.000    0.000    0.000    0.000    0.000    0.000 
#
# Total GULP energy -89290.076586 kJ/mol
# GULP energy per Si atom -5580.629787 kJ/mol
# Density = 1.823420 g / cm^3
# Si number density = 18.275795 Si / 1000 Ang^3
#
#
#
# Elastic Constant Matrix: (Units=GPa)
#
#
# Indices 1 2 3 4 5 6 
#
# 1 72.5265 -5.2142 44.9990 0.0000 12.0292 0.0000
# 2 -5.2142 7.8878 0.7271 0.0000 9.0774 0.0000
# 3 44.9990 0.7271 147.5963 0.0000 10.5742 0.0000
# 4 0.0000 0.0000 0.0000 22.0544 0.0000 -7.2687
# 5 12.0292 9.0774 10.5742 0.0000 25.6280 0.0000
# 6 0.0000 0.0000 0.0000 -7.2687 0.0000 19.6987
#
#
#
# Elastic Compliance Matrix: (Units=1/GPa)
#
#
# Indices 1 2 3 4 5 6 
#
# 1 0.025300 0.047379 -0.006073 0.000000 -0.026151 0.000000
# 2 0.047379 0.305697 -0.006802 0.000000 -0.127710 0.000000
# 3 -0.006073 -0.006802 0.008536 0.000000 0.001738 0.000000
# 4 0.000000 0.000000 0.000000 0.051620 0.000000 0.019048
# 5 -0.026151 -0.127710 0.001738 0.000000 0.095812 0.000000
# 6 0.000000 0.000000 0.000000 0.019048 0.000000 0.057793
#
#
# Mechanical properties :
#
#
# Convention : Reuss Voigt Hill
#
# Bulk Modulus (GPa) = 2.44773 34.33716 18.39244
# Shear Modulus (GPa) = 8.17088 25.97613 17.07350
#
# Velocity S-wave (km/s) = 2.11674 3.77416 3.05981
# Velocity P-wave (km/s) = 2.70487 6.14992 4.75067
#
# Compressibility (1/GPa) = 0.40854200
#
# Stress axis : x y z
#
# Youngs Moduli (GPa) = 39.52587 3.27121 117.15282
#
# Poissons Ratio (x) = -0.15499 0.71150
# Poissons Ratio (y) = -1.87271 0.79682
# Poissons Ratio (z) = 0.24005 0.02225
#
# Static dielectric constant tensor:
#      x y z
#    x 1.589910 0.000000 0.013340 
#    y 0.000000 1.626210 0.000000 
#    z 0.013340 0.000000 1.661690 
# 
# From -- ./inp_files/23755.got.cif
#   From: 2010.05.17/outbox.cif.g08.bks.cpg/sg8_12_cif.got.tgz:23755.got - 2010.06.03 19:46:02.
