data_PCOD9132879
_publ_section_title
;
Structure prediction by ZEFSAII (Michael W. Deem and Ramdas Pophale) SiO2 
 PCOD9132879
Probable space group: C M
;
_chemical_formula_sum "Si O2"
_cell_formula_units_Z 32
_cell_length_a 22.787066
_cell_length_b 8.998112
_cell_length_c 27.978429
_cell_angle_alpha 90.000000
_cell_angle_beta 17.894974
_cell_angle_gamma 90.000000
_cell_volume 1762.737858
_symmetry_space_group_name_H-M "C M"
_symmetry_group_IT_number 8
_symmetry_cell_setting 'monoclinic'
loop_
_space_group_symop_operation_xyz
x,y,z
x,-y,z
1/2+x,1/2+y,z
1/2+x,1/2-y,z
loop_
_atom_site_type_symbol
_atom_site_label
_atom_site_fract_x
_atom_site_fract_y
_atom_site_fract_z
Si Si1 0.045060 0.321699 0.817440
Si Si2 0.824714 0.176809 0.685656
Si Si3 0.045153 0.178434 0.074279
Si Si4 0.645131 0.322716 0.358574
Si Si5 0.109234 0.178516 0.135739
Si Si6 0.358917 0.177531 0.508008
Si Si7 0.794700 0.677603 0.447304
Si Si8 0.889524 0.322292 0.736516
O O1 0.062910 0.500000 0.796097
O O2 0.144570 0.288727 0.791119
O O3 0.170283 0.240847 0.680177
O O4 0.823538 0.281825 0.985985
O O5 0.829443 0.266894 0.730673
O O6 0.011276 0.209077 0.508548
O O7 0.823666 0.000000 0.696615
O O8 0.853839 0.257404 0.204793
O O9 0.083926 0.215816 0.099521
O O10 0.019473 0.000000 0.091075
O O11 0.226038 0.218437 0.901393
O O12 0.650671 0.500000 0.348434
O O13 0.536879 0.250399 0.397593
O O14 0.950910 0.258349 0.290052
O O15 0.088126 0.000000 0.156998
O O16 0.352415 0.213639 0.457075
O O17 0.365812 0.000000 0.508267
O O18 0.783218 0.500000 0.451428
O O19 0.589569 0.747666 0.594940
O O20 0.911185 0.500000 0.720016
#
# Coordination Sequence:
#
# PCOD9132879 Si02
#       8
#     4   4   4   4   4   4   4   4
#     4   9  19  37  60  85 113 146 185 227 271 325
#     4   9  19  36  57  84 116 146 181 226 272 322
#     4  10  22  38  56  82 114 145 183 231 277 325
#     4  10  21  37  59  84 111 147 187 227 272 325
#     4  10  21  38  60  83 110 147 187 228 275 327
#     4  10  21  37  58  84 114 147 182 225 277 329
#     4  11  24  39  56  82 114 145 182 230 279 329
#     4  11  23  38  58  82 110 147 187 228 275 328
#
# _framework density 18.153579000000001
#
# number of rings (size 3 to 8) (size 9 to 14) (size 15 to 20)
#    0.000    2.000    0.000    3.750    0.000   10.500 
#    0.000    2.500    0.000    0.000    0.000    0.000 
#    0.000    0.000    0.000    0.000    0.000    0.000 
#
# Total GULP energy -89395.057724 kJ/mol
# GULP energy per Si atom -5587.191108 kJ/mol
# Density = 1.811226 g / cm^3
# Si number density = 18.153579 Si / 1000 Ang^3
#
#
#
# Elastic Constant Matrix: (Units=GPa)
#
#
# Indices 1 2 3 4 5 6 
#
# 1 166.0460 77.2726 121.3989 -0.0008 10.7421 0.0021
# 2 77.2726 51.3259 74.4189 -0.0023 3.6195 0.0013
# 3 121.3989 74.4189 187.0662 0.0116 -12.2264 0.0100
# 4 -0.0008 -0.0023 0.0116 33.0097 0.0019 0.6080
# 5 10.7421 3.6195 -12.2264 0.0019 23.4601 -0.0019
# 6 0.0021 0.0013 0.0100 0.6080 -0.0019 26.3983
#
#
#
# Elastic Compliance Matrix: (Units=1/GPa)
#
#
# Indices 1 2 3 4 5 6 
#
# 1 0.021832 -0.025883 -0.004414 0.000001 -0.008304 0.000001
# 2 -0.025883 0.084610 -0.017538 0.000012 -0.010342 0.000004
# 3 -0.004414 -0.017538 0.016043 -0.000008 0.013088 -0.000004
# 4 0.000001 0.000012 -0.000008 0.030307 -0.000009 -0.000698
# 5 -0.008304 -0.010342 0.013088 -0.000009 0.054844 0.000000
# 6 0.000001 0.000004 -0.000004 -0.000698 0.000000 0.037897
#
#
# Mechanical properties :
#
#
# Convention : Reuss Voigt Hill
#
# Bulk Modulus (GPa) = 37.29458 105.62434 71.45946
# Shear Modulus (GPa) = 14.27994 25.33014 19.80504
#
# Velocity S-wave (km/s) = 2.80771 3.73946 3.30657
# Velocity P-wave (km/s) = 5.57670 8.77239 7.35032
#
# Compressibility (1/GPa) = 0.02681355
#
# Stress axis : x y z
#
# Youngs Moduli (GPa) = 45.80449 11.81898 62.33331
#
# Poissons Ratio (x) = 0.30591 0.27514
# Poissons Ratio (y) = 1.18556 1.09323
# Poissons Ratio (z) = 0.20218 0.20729
#
# Static dielectric constant tensor:
#      x y z
#    x 1.604310 0.000000 -0.003960 
#    y 0.000000 1.604450 0.000000 
#    z -0.003960 0.000000 1.591020 
# 
# From -- ./inp_files/33045.got.cif
#   From: 2010.05.17/outbox.cif.g08.bks.cpg/sg8_17_cif.got.tgz:33045.got - 2010.06.03 19:46:02.
