data_PCOD9132069
_publ_section_title
;
Structure prediction by ZEFSAII (Michael W. Deem and Ramdas Pophale) SiO2 
 PCOD9132069
Probable space group: C M
;
_chemical_formula_sum "Si O2"
_cell_formula_units_Z 32
_cell_length_a 14.949356
_cell_length_b 8.642384
_cell_length_c 14.671610
_cell_angle_alpha 90.000000
_cell_angle_beta 75.186055
_cell_angle_gamma 90.000000
_cell_volume 1832.538148
_symmetry_space_group_name_H-M "C M"
_symmetry_group_IT_number 8
_symmetry_cell_setting 'monoclinic'
loop_
_space_group_symop_operation_xyz
x,y,z
x,-y,z
1/2+x,1/2+y,z
1/2+x,1/2-y,z
loop_
_atom_site_type_symbol
_atom_site_label
_atom_site_fract_x
_atom_site_fract_y
_atom_site_fract_z
Si Si1 0.591470 0.679401 0.026740
Si Si2 0.277999 0.187496 0.497650
Si Si3 0.164051 0.186284 0.350363
Si Si4 0.552437 0.818381 0.850616
Si Si5 0.911115 0.320583 0.031530
Si Si6 0.089337 0.185658 0.643126
Si Si7 0.485158 0.186507 0.497386
Si Si8 0.220148 0.318672 0.140526
O O1 0.615153 0.500000 0.030852
O O2 0.482023 0.710042 0.066213
O O3 0.641700 0.783507 0.087136
O O4 0.609070 0.738542 0.918667
O O5 0.240126 0.232173 0.407367
O O6 0.193968 0.233726 0.586934
O O7 0.381121 0.239739 0.497920
O O8 0.281180 0.000000 0.498245
O O9 0.190869 0.253474 0.245995
O O10 0.064295 0.247435 0.409779
O O11 0.161266 0.000000 0.347825
O O12 0.567103 0.739279 0.750613
O O13 0.574675 0.000000 0.839402
O O14 0.447344 0.804913 0.917712
O O15 0.926725 0.500000 0.052294
O O16 0.808935 0.270950 0.079316
O O17 0.018283 0.257744 0.588554
O O18 0.084326 0.000000 0.637043
O O19 0.487301 0.000000 0.493633
O O20 0.238913 0.500000 0.141970
#
# Coordination Sequence:
#
# PCOD9132069 Si02
#       8
#     4   4   4   4   4   4   4   4
#     4  10  20  37  58  81 111 149 189 234 283 334
#     4   8  18  36  57  80 108 143 181 223 276 336
#     4  10  21  38  57  80 112 146 184 232 285 340
#     4   9  19  37  58  82 114 150 186 234 285 332
#     4   9  20  38  57  80 113 148 187 235 284 333
#     4  10  19  35  57  82 112 148 186 226 278 338
#     4  10  19  36  58  82 110 143 184 232 283 339
#     4  12  23  37  58  85 114 151 195 234 282 342
#
# _framework density 17.462119000000001
#
# number of rings (size 3 to 8) (size 9 to 14) (size 15 to 20)
#    0.750    1.500    0.000    4.500    0.000    1.000 
#    2.250   11.250    0.000    0.000    0.000    0.000 
#    0.000    0.000    0.000    0.000    0.000    0.000 
#
# Total GULP energy -89114.971405 kJ/mol
# GULP energy per Si atom -5569.685713 kJ/mol
# Density = 1.742237 g / cm^3
# Si number density = 17.462119 Si / 1000 Ang^3
#
#
#
# Elastic Constant Matrix: (Units=GPa)
#
#
# Indices 1 2 3 4 5 6 
#
# 1 108.6817 9.8178 50.7392 0.0000 3.0694 0.0000
# 2 9.8178 72.0000 29.8703 0.0000 -1.4806 0.0000
# 3 50.7392 29.8703 132.8733 0.0000 2.1554 0.0000
# 4 0.0000 0.0000 0.0000 31.5472 0.0000 -0.1658
# 5 3.0694 -1.4806 2.1554 0.0000 13.8912 0.0000
# 6 0.0000 0.0000 0.0000 -0.1658 0.0000 28.5942
#
#
#
# Elastic Compliance Matrix: (Units=1/GPa)
#
#
# Indices 1 2 3 4 5 6 
#
# 1 0.011246 0.000220 -0.004315 0.000000 -0.001792 0.000000
# 2 0.000220 0.015387 -0.003578 0.000000 0.002147 0.000000
# 3 -0.004315 -0.003578 0.009994 0.000000 -0.000979 0.000000
# 4 0.000000 0.000000 0.000000 0.031700 0.000000 0.000184
# 5 -0.001792 0.002147 -0.000979 0.000000 0.072765 0.000000
# 6 0.000000 0.000000 0.000000 0.000184 0.000000 0.034973
#
#
# Mechanical properties :
#
#
# Convention : Reuss Voigt Hill
#
# Bulk Modulus (GPa) = 46.98901 54.93438 50.96170
# Shear Modulus (GPa) = 25.18831 29.68171 27.43501
#
# Velocity S-wave (km/s) = 3.80209 4.12731 3.96803
# Velocity P-wave (km/s) = 6.80015 7.36481 7.08810
#
# Compressibility (1/GPa) = 0.02128157
#
# Stress axis : x y z
#
# Youngs Moduli (GPa) = 88.91738 64.98830 100.06171
#
# Poissons Ratio (x) = -0.01428 0.43175
# Poissons Ratio (y) = -0.01954 0.35800
# Poissons Ratio (z) = 0.38367 0.23252
#
# Static dielectric constant tensor:
#      x y z
#    x 1.579010 0.000000 -0.002040 
#    y 0.000000 1.581910 0.000000 
#    z -0.002040 0.000000 1.574320 
# 
# From -- ./inp_files/26430.got.cif
#   From: 2010.05.17/outbox.cif.g08.bks.cpg/sg8_14_cif.got.tgz:26430.got - 2010.06.03 19:46:02.
