data_PCOD9132608
_publ_section_title
;
Structure prediction by ZEFSAII (Michael W. Deem and Ramdas Pophale) SiO2 
 PCOD9132608
Probable space group: C M
;
_chemical_formula_sum "Si O2"
_cell_formula_units_Z 28
_cell_length_a 19.943244
_cell_length_b 14.703077
_cell_length_c 9.541244
_cell_angle_alpha 90.000000
_cell_angle_beta 28.835651
_cell_angle_gamma 90.000000
_cell_volume 1349.351998
_symmetry_space_group_name_H-M "C M"
_symmetry_group_IT_number 8
_symmetry_cell_setting 'monoclinic'
loop_
_space_group_symop_operation_xyz
x,y,z
x,-y,z
1/2+x,1/2+y,z
1/2+x,1/2-y,z
loop_
_atom_site_type_symbol
_atom_site_label
_atom_site_fract_x
_atom_site_fract_y
_atom_site_fract_z
Si Si1 0.460220 0.900129 0.167400
Si Si2 0.835644 0.599004 0.696866
Si Si3 0.050393 0.774170 0.605015
Si Si4 0.325442 0.745149 0.239073
Si Si5 0.125335 0.401077 0.329278
Si Si6 0.353844 0.696586 0.722631
Si Si7 0.282627 0.393538 0.571757
O O1 0.361223 0.895930 0.483969
O O2 0.421274 0.818566 0.139578
O O3 0.444046 0.000000 0.130916
O O4 0.621298 0.891900 0.915114
O O5 0.765497 0.500000 0.857240
O O6 0.792185 0.700206 0.824740
O O7 0.988028 0.592430 0.486447
O O8 0.194984 0.800989 0.412348
O O9 0.082559 0.666688 0.530696
O O10 0.998474 0.802379 0.545281
O O11 0.919791 0.794455 0.942183
O O12 0.291299 0.667569 0.415809
O O13 0.164712 0.500000 0.310758
O O14 0.246043 0.361353 0.011279
O O15 0.367011 0.653838 0.544052
O O16 0.321258 0.500000 0.480916
#
# Coordination Sequence:
#
# PCOD9132608 Si02
#       7
#     4   4   4   4   4   4   4
#     4  10  20  37  64  94 125 168 224 272 326 398
#     4   9  18  33  59  94 124 161 214 272 327 382
#     4  11  25  41  64  95 136 179 215 269 343 397
#     4  12  23  44  64  97 136 175 220 274 342 399
#     4  10  20  37  65  94 124 167 222 266 314 397
#     4  11  20  38  66  99 133 168 224 280 328 385
#     4  11  23  40  69  99 128 178 232 275 327 404
#
# _framework density 20.750699999999998
#
# number of rings (size 3 to 8) (size 9 to 14) (size 15 to 20)
#    0.000    1.429    5.714    0.429    0.000    1.143 
#    0.000    2.143    0.000   15.429    0.000    0.000 
#    0.000    0.000    0.000    0.000    0.000    0.000 
#
# Total GULP energy -78028.494381 kJ/mol
# GULP energy per Si atom -5573.463884 kJ/mol
# Density = 2.070347 g / cm^3
# Si number density = 20.750700 Si / 1000 Ang^3
#
#
#
# Elastic Constant Matrix: (Units=GPa)
#
#
# Indices 1 2 3 4 5 6 
#
# 1 101.6543 15.5954 9.5951 0.0000 7.5179 0.0000
# 2 15.5954 79.1347 -4.2034 0.0000 6.6955 0.0000
# 3 9.5951 -4.2034 51.7380 0.0000 2.1104 0.0000
# 4 0.0000 0.0000 0.0000 21.1883 0.0000 -8.4256
# 5 7.5179 6.6955 2.1104 0.0000 17.7289 0.0000
# 6 0.0000 0.0000 0.0000 -8.4256 0.0000 8.7828
#
#
#
# Elastic Compliance Matrix: (Units=1/GPa)
#
#
# Indices 1 2 3 4 5 6 
#
# 1 0.010575 -0.001889 -0.001970 0.000000 -0.003536 0.000000
# 2 -0.001889 0.013475 0.001628 0.000000 -0.004481 0.000000
# 3 -0.001970 0.001628 0.019914 0.000000 -0.002150 0.000000
# 4 0.000000 0.000000 0.000000 0.076305 0.000000 0.073202
# 5 -0.003536 -0.004481 -0.002150 0.000000 0.059853 0.000000
# 6 0.000000 0.000000 0.000000 0.073202 0.000000 0.184084
#
#
# Mechanical properties :
#
#
# Convention : Reuss Voigt Hill
#
# Bulk Modulus (GPa) = 25.31708 30.50011 27.90860
# Shear Modulus (GPa) = 13.09467 23.64266 18.36867
#
# Velocity S-wave (km/s) = 2.51479 3.37911 2.97847
# Velocity P-wave (km/s) = 4.54525 5.47310 5.03061
#
# Compressibility (1/GPa) = 0.03949902
#
# Stress axis : x y z
#
# Youngs Moduli (GPa) = 94.56595 74.21330 50.21711
#
# Poissons Ratio (x) = 0.14022 0.09895
# Poissons Ratio (y) = 0.17868 -0.08175
# Poissons Ratio (z) = 0.18633 -0.12082
#
# Static dielectric constant tensor:
#      x y z
#    x 1.809120 0.000000 0.006910 
#    y 0.000000 1.789790 0.000000 
#    z 0.006910 0.000000 1.744490 
# 
# From -- ./inp_files/16464.got.cif
#   From: 2010.05.17/outbox.cif.g08.bks.cpg/sg8_9_cif.got.tgz:16464.got - 2010.06.03 19:46:02.
