data_PCOD9132046
_publ_section_title
;
Structure prediction by ZEFSAII (Michael W. Deem and Ramdas Pophale) SiO2 
 PCOD9132046
Probable space group: C M
;
_chemical_formula_sum "Si O2"
_cell_formula_units_Z 28
_cell_length_a 27.362077
_cell_length_b 9.434948
_cell_length_c 5.075909
_cell_angle_alpha 90.000000
_cell_angle_beta 92.204275
_cell_angle_gamma 90.000000
_cell_volume 1309.425891
_symmetry_space_group_name_H-M "C M"
_symmetry_group_IT_number 8
_symmetry_cell_setting 'monoclinic'
loop_
_space_group_symop_operation_xyz
x,y,z
x,-y,z
1/2+x,1/2+y,z
1/2+x,1/2-y,z
loop_
_atom_site_type_symbol
_atom_site_label
_atom_site_fract_x
_atom_site_fract_y
_atom_site_fract_z
Si Si1 0.067640 0.741363 0.108620
Si Si2 0.967005 0.649649 0.904565
Si Si3 0.169585 0.834735 0.032931
Si Si4 0.234992 0.835336 0.543948
Si Si5 0.522480 0.349354 0.609921
Si Si6 0.830827 0.827602 0.719125
Si Si7 0.874570 0.329080 0.232001
O O1 0.057313 0.776327 0.407466
O O2 0.125051 0.726991 0.075742
O O3 0.052564 0.857548 0.887168
O O4 0.022465 0.639075 0.027068
O O5 0.951494 0.500000 0.782897
O O6 0.929413 0.684796 0.125951
O O7 0.974293 0.765580 0.682847
O O8 0.191169 0.823944 0.745846
O O9 0.153707 0.000000 0.075094
O O10 0.212913 0.811010 0.250792
O O11 0.276679 0.724092 0.625718
O O12 0.253123 0.000000 0.562954
O O13 0.508981 0.500000 0.495085
O O14 0.843003 0.752952 0.001300
O O15 0.835811 0.000000 0.726843
O O16 0.864352 0.750555 0.503786
O O17 0.863859 0.500000 0.244269
#
# Coordination Sequence:
#
# PCOD9132046 Si02
#       7
#     4   4   4   4   4   4   4
#     4  10  21  36  58  90 126 160 203 254 303 354
#     4   9  24  42  61  89 126 167 210 254 303 371
#     4  10  19  34  60  91 120 158 212 257 299 363
#     4  10  21  38  63  90 118 162 213 259 310 379
#     4  10  20  34  57  84 120 162 201 249 303 354
#     4  12  26  45  67  99 133 164 208 277 339 387
#     4  11  24  45  70  95 127 175 223 262 315 392
#
# _framework density 21.383416
#
# number of rings (size 3 to 8) (size 9 to 14) (size 15 to 20)
#    0.857    0.857    0.000    4.714    2.000    4.000 
#    0.000    1.429    0.000    0.000    0.000    0.000 
#    0.000    0.000    0.000    0.000    0.000    0.000 
#
# Total GULP energy -77950.406096 kJ/mol
# GULP energy per Si atom -5567.886150 kJ/mol
# Density = 2.133475 g / cm^3
# Si number density = 21.383416 Si / 1000 Ang^3
#
#
#
# Elastic Constant Matrix: (Units=GPa)
#
#
# Indices 1 2 3 4 5 6 
#
# 1 80.3699 22.8956 -11.1319 0.0000 -6.4011 0.0000
# 2 22.8956 81.5787 -0.9565 0.0000 0.0260 0.0000
# 3 -11.1319 -0.9565 57.4063 0.0000 -0.0362 0.0000
# 4 0.0000 0.0000 0.0000 -2.9572 0.0000 6.0817
# 5 -6.4011 0.0260 -0.0362 0.0000 34.8390 0.0000
# 6 0.0000 0.0000 0.0000 6.0817 0.0000 0.8513
#
#
#
# Elastic Compliance Matrix: (Units=1/GPa)
#
#
# Indices 1 2 3 4 5 6 
#
# 1 0.014143 -0.003939 0.002679 0.000000 0.002604 0.000000
# 2 -0.003939 0.013357 -0.000542 0.000000 -0.000734 0.000000
# 3 0.002679 -0.000542 0.017930 0.000000 0.000511 0.000000
# 4 0.000000 0.000000 0.000000 -0.021551 0.000000 0.153949
# 5 0.002604 -0.000734 0.000511 0.000000 0.029183 0.000000
# 6 0.000000 0.000000 0.000000 0.153949 0.000000 0.074857
#
#
# Mechanical properties :
#
#
# Convention : Reuss Voigt Hill
#
# Bulk Modulus (GPa) = 23.90802 26.77438 25.34120
# Shear Modulus (GPa) = 34.37211 20.44980 27.41096
#
# Velocity S-wave (km/s) = 4.01361 3.09583 3.58422
# Velocity P-wave (km/s) = 5.71697 5.03261 5.38567
#
# Compressibility (1/GPa) = 0.04182696
#
# Stress axis : x y z
#
# Youngs Moduli (GPa) = 70.70667 74.86475 55.77127
#
# Poissons Ratio (x) = 0.29487 -0.14938
# Poissons Ratio (y) = 0.27850 0.03021
# Poissons Ratio (z) = -0.18939 0.04055
#
# Static dielectric constant tensor:
#      x y z
#    x 1.841560 0.000000 0.016900 
#    y 0.000000 1.776570 0.000000 
#    z 0.016900 0.000000 1.747410 
# 
# From -- ./inp_files/6182.got.cif
#   From: 2010.05.17/outbox.cif.g08.bks.cpg/sg8_4_cif.got.tgz:6182.got - 2010.06.03 19:46:02.
