data_PCOD9132216
_publ_section_title
;
Structure prediction by ZEFSAII (Michael W. Deem and Ramdas Pophale) SiO2 
 PCOD9132216
Probable space group: C M
;
_chemical_formula_sum "Si O2"
_cell_formula_units_Z 24
_cell_length_a 10.052296
_cell_length_b 19.295016
_cell_length_c 11.141247
_cell_angle_alpha 90.000000
_cell_angle_beta 148.906407
_cell_angle_gamma 90.000000
_cell_volume 1115.994482
_symmetry_space_group_name_H-M "C M"
_symmetry_group_IT_number 8
_symmetry_cell_setting 'monoclinic'
loop_
_space_group_symop_operation_xyz
x,y,z
x,-y,z
1/2+x,1/2+y,z
1/2+x,1/2-y,z
loop_
_atom_site_type_symbol
_atom_site_label
_atom_site_fract_x
_atom_site_fract_y
_atom_site_fract_z
Si Si1 0.346710 0.751761 0.147370
Si Si2 0.048123 0.500000 0.444752
Si Si3 0.623166 0.654096 0.552497
Si Si4 0.240446 0.365861 0.453445
Si Si5 0.921570 0.000000 0.978615
Si Si6 0.124901 0.630718 0.816063
Si Si7 0.834002 0.797226 0.774883
O O1 0.472534 0.697062 0.334945
O O2 0.542628 0.808680 0.248802
O O3 0.224114 0.701161 0.954648
O O4 0.127467 0.796606 0.046535
O O5 0.114282 0.432845 0.415426
O O6 0.734333 0.500000 0.218176
O O7 0.247118 0.500000 0.716661
O O8 0.440830 0.615171 0.504195
O O9 0.747575 0.718244 0.720820
O O10 0.852539 0.613145 0.664805
O O11 0.357850 0.323549 0.656907
O O12 0.822689 0.067817 0.972374
O O13 0.126414 0.654365 0.678771
#
# Coordination Sequence:
#
# PCOD9132216 Si02
#       7
#     4   2   4   4   2   4   4
#     4  10  21  37  67 101 136 180 236 294 351 415
#     4  12  28  49  73 104 140 195 242 294 355 429
#     4  10  22  37  62 101 134 177 225 298 354 412
#     4  11  23  41  67  97 140 182 239 290 355 421
#     4  12  28  49  75 102 142 191 248 292 351 437
#     4  11  23  41  67  99 137 186 234 296 351 419
#     4  10  19  38  64  95 132 179 233 289 341 415
#
# _framework density 21.505483000000002
#
# number of rings (size 3 to 8) (size 9 to 14) (size 15 to 20)
#    0.000    1.333    1.667    5.000    2.333    4.667 
#    0.000    0.833    0.000    0.000    0.000    0.000 
#    0.000    0.000    0.000    0.000    0.000    0.000 
#
# Total GULP energy -66878.776885 kJ/mol
# GULP energy per Si atom -5573.231407 kJ/mol
# Density = 2.145654 g / cm^3
# Si number density = 21.505483 Si / 1000 Ang^3
#
#
#
# Elastic Constant Matrix: (Units=GPa)
#
#
# Indices 1 2 3 4 5 6 
#
# 1 122.6582 30.4129 49.8585 0.0002 40.2782 0.0002
# 2 30.4129 96.0521 27.3872 0.0000 19.0017 0.0003
# 3 49.8585 27.3872 91.1496 0.0002 25.7561 0.0013
# 4 0.0002 0.0000 0.0002 22.2764 -0.0001 10.5876
# 5 40.2782 19.0017 25.7561 -0.0001 37.4987 0.0003
# 6 0.0002 0.0003 0.0013 10.5876 0.0003 31.0913
#
#
#
# Elastic Compliance Matrix: (Units=1/GPa)
#
#
# Indices 1 2 3 4 5 6 
#
# 1 0.013830 -0.000938 -0.003995 0.000000 -0.011636 0.000000
# 2 -0.000938 0.012022 -0.002063 0.000000 -0.003667 0.000000
# 3 -0.003995 -0.002063 0.015223 0.000000 -0.005119 -0.000001
# 4 0.000000 0.000000 0.000000 0.053559 0.000000 -0.018239
# 5 -0.011636 -0.003667 -0.005119 0.000000 0.044540 0.000000
# 6 0.000000 0.000000 -0.000001 -0.018239 0.000000 0.038374
#
#
# Mechanical properties :
#
#
# Convention : Reuss Voigt Hill
#
# Bulk Modulus (GPa) = 36.92410 58.35300 47.63855
# Shear Modulus (GPa) = 24.92922 31.65336 28.29129
#
# Velocity S-wave (km/s) = 3.40840 3.84066 3.63097
# Velocity P-wave (km/s) = 5.71808 6.84547 6.30702
#
# Compressibility (1/GPa) = 0.02708258
#
# Stress axis : x y z
#
# Youngs Moduli (GPa) = 72.30483 83.18311 65.69161
#
# Poissons Ratio (x) = 0.07803 0.26246
# Poissons Ratio (y) = 0.06782 0.13550
# Poissons Ratio (z) = 0.28888 0.17158
#
# Static dielectric constant tensor:
#      x y z
#    x 1.872770 0.000000 -0.000050 
#    y 0.000000 1.764890 0.000000 
#    z -0.000050 0.000000 1.891700 
# 
# From -- ./inp_files/19394.got.cif
#   From: 2010.05.17/outbox.cif.g08.bks.cpg/sg8_10_cif.got.tgz:19394.got - 2010.06.03 19:46:02.
