data_PCOD9132489
_publ_section_title
;
Structure prediction by ZEFSAII (Michael W. Deem and Ramdas Pophale) SiO2 
 PCOD9132489
Probable space group: C M
;
_chemical_formula_sum "Si O2"
_cell_formula_units_Z 32
_cell_length_a 25.452652
_cell_length_b 8.892135
_cell_length_c 24.523423
_cell_angle_alpha 90.000000
_cell_angle_beta 17.552606
_cell_angle_gamma 90.000000
_cell_volume 1673.881165
_symmetry_space_group_name_H-M "C M"
_symmetry_group_IT_number 8
_symmetry_cell_setting 'monoclinic'
loop_
_space_group_symop_operation_xyz
x,y,z
x,-y,z
1/2+x,1/2+y,z
1/2+x,1/2-y,z
loop_
_atom_site_type_symbol
_atom_site_label
_atom_site_fract_x
_atom_site_fract_y
_atom_site_fract_z
Si Si1 0.360780 0.324985 0.706840
Si Si2 0.473968 0.177806 0.706515
Si Si3 0.364869 0.322198 0.299948
Si Si4 0.377836 0.316800 0.567996
Si Si5 0.660045 0.317894 0.198588
Si Si6 0.939505 0.325502 0.114873
Si Si7 0.479793 0.183131 0.953842
Si Si8 0.163648 0.321571 0.077141
O O1 0.411923 0.500000 0.664268
O O2 0.424788 0.228314 0.693993
O O3 0.422496 0.272421 0.585954
O O4 0.149837 0.321800 0.913429
O O5 0.678284 0.208846 0.511792
O O6 0.348923 0.264713 0.871320
O O7 0.444402 0.000000 0.741844
O O8 0.398700 0.500000 0.268840
O O9 0.358665 0.269482 0.243386
O O10 0.518433 0.236024 0.178521
O O11 0.375877 0.500000 0.571166
O O12 0.515172 0.271805 0.386373
O O13 0.180102 0.267198 0.750445
O O14 0.655922 0.500000 0.198431
O O15 0.628999 0.248008 0.170572
O O16 0.848162 0.272528 0.036693
O O17 0.884040 0.500000 0.174625
O O18 0.906955 0.271943 0.085425
O O19 0.483113 0.000000 0.951928
O O20 0.160756 0.500000 0.082058
#
# Coordination Sequence:
#
# PCOD9132489 Si02
#       8
#     4   4   4   4   4   4   4   4
#     4   9  17  32  57  89 123 156 192 238 290 347
#     4  11  24  40  60  88 120 157 199 246 303 362
#     4  11  24  40  60  88 120 157 199 246 303 362
#     4   8  16  31  53  85 119 150 191 236 282 343
#     4  10  20  36  60  84 112 158 203 242 287 348
#     4   9  17  32  57  89 123 156 192 238 290 347
#     4   8  16  31  53  85 119 150 191 236 282 343
#     4  12  26  44  62  84 118 160 205 256 303 354
#
# _framework density 19.117248
#
# number of rings (size 3 to 8) (size 9 to 14) (size 15 to 20)
#    0.000    2.250    1.250    3.375    1.750    3.000 
#    0.000    3.750    0.000    1.500    0.000    0.000 
#    0.000    0.000    0.000    0.000    0.000    0.000 
#
# Total GULP energy -89341.103133 kJ/mol
# GULP energy per Si atom -5583.818946 kJ/mol
# Density = 1.907374 g / cm^3
# Si number density = 19.117248 Si / 1000 Ang^3
#
#
#
# Elastic Constant Matrix: (Units=GPa)
#
#
# Indices 1 2 3 4 5 6 
#
# 1 51.6190 9.8417 11.7156 -0.0014 21.2895 0.0005
# 2 9.8417 43.8707 28.1427 -0.0024 7.5800 -0.0002
# 3 11.7156 28.1427 65.0337 0.0045 24.0203 -0.0039
# 4 -0.0014 -0.0024 0.0045 12.9395 -0.0004 9.1069
# 5 21.2895 7.5800 24.0203 -0.0004 28.1149 0.0012
# 6 0.0005 -0.0002 -0.0039 9.1069 0.0012 24.7838
#
#
#
# Elastic Compliance Matrix: (Units=1/GPa)
#
#
# Indices 1 2 3 4 5 6 
#
# 1 0.030418 -0.007053 0.007857 -0.000004 -0.027845 0.000003
# 2 -0.007053 0.033604 -0.017383 0.000019 0.011132 -0.000010
# 3 0.007857 -0.017383 0.032070 -0.000025 -0.028662 0.000015
# 4 -0.000004 0.000019 -0.000025 0.104241 0.000022 -0.038304
# 5 -0.027845 0.011132 -0.028662 0.000022 0.078140 -0.000016
# 6 0.000003 -0.000010 0.000015 -0.038304 -0.000016 0.054424
#
#
# Mechanical properties :
#
#
# Convention : Reuss Voigt Hill
#
# Bulk Modulus (GPa) = 15.88960 28.88040 22.38500
# Shear Modulus (GPa) = 12.91879 20.55586 16.73733
#
# Velocity S-wave (km/s) = 2.60237 3.28266 2.96211
# Velocity P-wave (km/s) = 4.16647 5.43209 4.84082
#
# Compressibility (1/GPa) = 0.06293424
#
# Stress axis : x y z
#
# Youngs Moduli (GPa) = 32.87491 29.75835 31.18189
#
# Poissons Ratio (x) = 0.20988 -0.24499
# Poissons Ratio (y) = 0.23186 0.54203
# Poissons Ratio (z) = -0.25829 0.51729
#
# Static dielectric constant tensor:
#      x y z
#    x 1.643400 0.000000 -0.005630 
#    y 0.000000 1.639150 0.000000 
#    z -0.005630 0.000000 1.681520 
# 
# From -- ./inp_files/32371.got.cif
#   From: 2010.05.17/outbox.cif.g08.bks.cpg/sg8_17_cif.got.tgz:32371.got - 2010.06.03 19:46:02.
