data_PCOD9132600
_publ_section_title
;
Structure prediction by ZEFSAII (Michael W. Deem and Ramdas Pophale) SiO2 
 PCOD9132600
Probable space group: C M
;
_chemical_formula_sum "Si O2"
_cell_formula_units_Z 26
_cell_length_a 23.867622
_cell_length_b 7.537600
_cell_length_c 16.534857
_cell_angle_alpha 90.000000
_cell_angle_beta 27.758640
_cell_angle_gamma 90.000000
_cell_volume 1385.458911
_symmetry_space_group_name_H-M "C M"
_symmetry_group_IT_number 8
_symmetry_cell_setting 'monoclinic'
loop_
_space_group_symop_operation_xyz
x,y,z
x,-y,z
1/2+x,1/2+y,z
1/2+x,1/2-y,z
loop_
_atom_site_type_symbol
_atom_site_label
_atom_site_fract_x
_atom_site_fract_y
_atom_site_fract_z
Si Si1 0.019008 0.000000 0.428058
Si Si2 0.825211 0.784162 0.234813
Si Si3 0.391466 0.790012 0.850882
Si Si4 0.146151 0.714094 0.596146
Si Si5 0.703983 0.207966 0.225334
Si Si6 0.835226 0.000000 0.797492
Si Si7 0.596975 0.704879 0.844826
Si Si8 0.754672 0.000000 0.726503
O O1 0.101150 0.827190 0.316869
O O2 0.963693 0.000000 0.588659
O O3 0.898912 0.000000 0.527379
O O4 0.765573 0.727106 0.395543
O O5 0.738046 0.732373 0.272197
O O6 0.825777 0.000000 0.233635
O O7 0.961621 0.731019 0.039931
O O8 0.530881 0.744471 0.687386
O O9 0.331775 0.672974 0.857400
O O10 0.381206 0.000000 0.849076
O O11 0.322947 0.739336 0.020507
O O12 0.150323 0.500000 0.598617
O O13 0.121940 0.784690 0.716788
O O14 0.672878 0.000000 0.265779
O O15 0.745235 0.000000 0.836432
O O16 0.607334 0.500000 0.856797
O O17 0.691586 0.829585 0.768956
#
# Coordination Sequence:
#
# PCOD9132600 Si02
#       8
#     2   4   4   4   4   2   4   2
#     4  10  24  41  61  90 117 175 222 258 318 368
#     4   9  20  36  62 100 131 163 206 263 332 391
#     4  11  21  36  64  99 132 167 207 264 336 390
#     4  10  20  37  63  99 134 164 202 267 330 387
#     4  11  20  37  64  96 133 166 207 266 333 393
#     4  10  24  42  62  87 126 171 217 273 318 375
#     4  11  22  42  68  91 126 177 215 262 325 381
#     4  10  26  47  63  85 131 174 225 269 304 377
#
# _framework density 18.766345000000001
#
# number of rings (size 3 to 8) (size 9 to 14) (size 15 to 20)
#    0.462    1.231    3.846    0.923    1.077    3.692 
#    2.769    1.538    0.000    0.000    0.000    0.000 
#    0.000    0.000    0.000    0.000    0.000    0.000 
#
# Total GULP energy -72518.696792 kJ/mol
# GULP energy per Si atom -5578.361292 kJ/mol
# Density = 1.872363 g / cm^3
# Si number density = 18.766345 Si / 1000 Ang^3
#
#
#
# Elastic Constant Matrix: (Units=GPa)
#
#
# Indices 1 2 3 4 5 6 
#
# 1 104.0748 48.6109 39.0823 0.0000 -8.1518 0.0000
# 2 48.6109 103.3294 23.2466 -0.0005 -17.4968 -0.0018
# 3 39.0823 23.2466 123.2761 0.0005 -1.1386 -0.0019
# 4 0.0000 -0.0005 0.0005 18.7554 -0.0002 -14.1788
# 5 -8.1518 -17.4968 -1.1386 -0.0002 38.0249 0.0007
# 6 0.0000 -0.0018 -0.0019 -14.1788 0.0007 55.6909
#
#
#
# Elastic Compliance Matrix: (Units=1/GPa)
#
#
# Indices 1 2 3 4 5 6 
#
# 1 0.013425 -0.005556 -0.003206 0.000000 0.000225 0.000000
# 2 -0.005556 0.013278 -0.000697 0.000001 0.004898 0.000001
# 3 -0.003206 -0.000697 0.009253 0.000000 -0.000731 0.000000
# 4 0.000000 0.000001 0.000000 0.066026 0.000000 0.016810
# 5 0.000225 0.004898 -0.000731 0.000000 0.028579 0.000000
# 6 0.000000 0.000001 0.000000 0.016810 0.000000 0.022236
#
#
# Mechanical properties :
#
#
# Convention : Reuss Voigt Hill
#
# Bulk Modulus (GPa) = 58.69685 61.39555 60.04620
# Shear Modulus (GPa) = 28.18551 37.14362 32.66457
#
# Velocity S-wave (km/s) = 3.87966 4.45372 4.17657
# Velocity P-wave (km/s) = 7.17040 7.69638 7.43804
#
# Compressibility (1/GPa) = 0.01703669
#
# Stress axis : x y z
#
# Youngs Moduli (GPa) = 74.48529 75.31295 108.07189
#
# Poissons Ratio (x) = 0.41847 0.34652
# Poissons Ratio (y) = 0.41387 0.07533
# Poissons Ratio (z) = 0.23883 0.05250
#
# Static dielectric constant tensor:
#      x y z
#    x 1.610730 0.000000 0.017110 
#    y 0.000000 1.649470 0.000000 
#    z 0.017110 0.000000 1.665020 
# 
# From -- ./inp_files/24338.got.cif
#   From: 2010.05.17/outbox.cif.g08.bks.cpg/sg8_13_cif.got.tgz:24338.got - 2010.06.03 19:46:02.
