data_PCOD9132993
_publ_section_title
;
Structure prediction by ZEFSAII (Michael W. Deem and Ramdas Pophale) SiO2 
 PCOD9132993
Probable space group: C M
;
_chemical_formula_sum "Si O2"
_cell_formula_units_Z 32
_cell_length_a 9.268098
_cell_length_b 26.451348
_cell_length_c 13.344893
_cell_angle_alpha 90.000000
_cell_angle_beta 29.621113
_cell_angle_gamma 90.000000
_cell_volume 1617.003465
_symmetry_space_group_name_H-M "C M"
_symmetry_group_IT_number 8
_symmetry_cell_setting 'monoclinic'
loop_
_space_group_symop_operation_xyz
x,y,z
x,-y,z
1/2+x,1/2+y,z
1/2+x,1/2-y,z
loop_
_atom_site_type_symbol
_atom_site_label
_atom_site_fract_x
_atom_site_fract_y
_atom_site_fract_z
Si Si1 0.813520 0.201581 0.183380
Si Si2 0.990679 0.097322 0.999051
Si Si3 0.109300 0.279866 0.854061
Si Si4 0.511843 0.396886 0.767204
Si Si5 0.712272 0.631344 0.065972
Si Si6 0.643615 0.715894 0.643549
Si Si7 0.863445 0.557459 0.376415
Si Si8 0.355879 0.060880 0.153602
O O1 0.483726 0.212655 0.413870
O O2 0.843733 0.153551 0.090041
O O3 0.983344 0.177142 0.177665
O O4 0.953120 0.248703 0.038616
O O5 0.199212 0.099550 0.969944
O O6 0.713110 0.061087 0.176754
O O7 0.125780 0.087726 0.808945
O O8 0.454406 0.273890 0.659931
O O9 0.053513 0.256891 0.779475
O O10 0.003777 0.337415 0.913561
O O11 0.517502 0.336558 0.761883
O O12 0.720371 0.411607 0.551005
O O13 0.197169 0.422709 0.941197
O O14 0.675709 0.593198 0.180767
O O15 0.767237 0.500000 0.445487
O O16 0.777516 0.574029 0.316074
O O17 0.330738 0.000000 0.155473
#
# Coordination Sequence:
#
# PCOD9132993 Si02
#       8
#     4   4   4   4   4   4   4   4
#     4  10  23  41  61  93 131 167 218 262 320 391
#     4   9  20  38  62  88 126 164 208 268 320 389
#     4  12  24  41  61  95 135 167 222 267 318 394
#     4  11  19  39  64  90 129 168 214 263 326 392
#     4  10  21  43  62  94 133 169 207 283 322 384
#     4  12  23  39  65  91 127 178 212 264 326 385
#     4  10  21  39  63  93 123 166 225 271 319 399
#     4  10  22  40  65  94 127 171 217 270 337 388
#
# _framework density 19.789691000000001
#
# number of rings (size 3 to 8) (size 9 to 14) (size 15 to 20)
#    0.750    0.750    5.000    0.375    1.750    1.000 
#    2.250    3.750    0.000    0.000    0.000    0.000 
#    0.000    0.000    0.000    0.000    0.000    0.000 
#
# Total GULP energy -89084.754537 kJ/mol
# GULP energy per Si atom -5567.797159 kJ/mol
# Density = 1.974465 g / cm^3
# Si number density = 19.789691 Si / 1000 Ang^3
#
#
#
# Elastic Constant Matrix: (Units=GPa)
#
#
# Indices 1 2 3 4 5 6 
#
# 1 116.6511 21.9675 29.9048 0.0000 14.2007 0.0000
# 2 21.9675 40.7579 13.1906 0.0000 23.1909 0.0000
# 3 29.9048 13.1906 64.0711 0.0000 13.2550 0.0000
# 4 0.0000 0.0000 0.0000 14.4115 0.0000 1.5806
# 5 14.2007 23.1909 13.2550 0.0000 29.0652 0.0000
# 6 0.0000 0.0000 0.0000 1.5806 0.0000 32.4224
#
#
#
# Elastic Compliance Matrix: (Units=1/GPa)
#
#
# Indices 1 2 3 4 5 6 
#
# 1 0.010405 -0.004504 -0.003998 0.000000 0.000333 0.000000
# 2 -0.004504 0.047124 -0.000305 0.000000 -0.035260 0.000000
# 3 -0.003998 -0.000305 0.018862 0.000000 -0.006405 0.000000
# 4 0.000000 0.000000 0.000000 0.069762 0.000000 -0.003401
# 5 0.000333 -0.035260 -0.006405 0.000000 0.065298 0.000000
# 6 0.000000 0.000000 0.000000 -0.003401 0.000000 0.031009
#
#
# Mechanical properties :
#
#
# Convention : Reuss Voigt Hill
#
# Bulk Modulus (GPa) = 17.01340 39.06732 28.04036
# Shear Modulus (GPa) = 17.87851 25.60763 21.74307
#
# Velocity S-wave (km/s) = 3.00896 3.60111 3.31827
# Velocity P-wave (km/s) = 4.54836 6.08890 5.37412
#
# Compressibility (1/GPa) = 0.05877719
#
# Stress axis : x y z
#
# Youngs Moduli (GPa) = 96.10642 21.22059 53.01759
#
# Poissons Ratio (x) = 0.09557 0.21198
# Poissons Ratio (y) = 0.43283 0.01617
# Poissons Ratio (z) = 0.38426 0.00647
#
# Static dielectric constant tensor:
#      x y z
#    x 1.755500 0.000000 -0.003520 
#    y 0.000000 1.720160 0.000000 
#    z -0.003520 0.000000 1.670310 
# 
# From -- ./inp_files/19468.got.cif
#   From: 2010.05.17/outbox.cif.g08.bks.cpg/sg8_10_cif.got.tgz:19468.got - 2010.06.03 19:46:02.
