data_PCOD9132089
_publ_section_title
;
Structure prediction by ZEFSAII (Michael W. Deem and Ramdas Pophale) SiO2 
 PCOD9132089
Probable space group: C M
;
_chemical_formula_sum "Si O2"
_cell_formula_units_Z 32
_cell_length_a 16.540468
_cell_length_b 9.337458
_cell_length_c 20.488679
_cell_angle_alpha 90.000000
_cell_angle_beta 31.513802
_cell_angle_gamma 90.000000
_cell_volume 1654.040689
_symmetry_space_group_name_H-M "C M"
_symmetry_group_IT_number 8
_symmetry_cell_setting 'monoclinic'
loop_
_space_group_symop_operation_xyz
x,y,z
x,-y,z
1/2+x,1/2+y,z
1/2+x,1/2-y,z
loop_
_atom_site_type_symbol
_atom_site_label
_atom_site_fract_x
_atom_site_fract_y
_atom_site_fract_z
Si Si1 0.160780 0.834939 0.529410
Si Si2 0.556679 0.325826 0.461689
Si Si3 0.270998 0.839837 0.129671
Si Si4 0.643554 0.158625 0.037497
Si Si5 0.915517 0.338233 0.885904
Si Si6 0.016798 0.653732 0.269360
Si Si7 0.238306 0.330185 0.608928
Si Si8 0.349721 0.668663 0.194134
O O1 0.401234 0.716268 0.529042
O O2 0.336169 0.833320 0.380751
O O3 0.181613 0.745461 0.581339
O O4 0.121640 0.000000 0.572611
O O5 0.573422 0.500000 0.446846
O O6 0.555584 0.288837 0.540220
O O7 0.705786 0.249624 0.327442
O O8 0.341598 0.715417 0.124544
O O9 0.090675 0.793524 0.250781
O O10 0.286930 0.000000 0.146338
O O11 0.350740 0.839116 0.004152
O O12 0.606061 0.143670 0.139977
O O13 0.512309 0.267155 0.105146
O O14 0.631354 0.000000 0.016019
O O15 0.812601 0.227029 0.916137
O O16 0.891424 0.500000 0.876758
O O17 0.096863 0.307525 0.756588
O O18 0.039658 0.500000 0.289402
O O19 0.252509 0.500000 0.586789
O O20 0.340147 0.500000 0.211510
#
# Coordination Sequence:
#
# PCOD9132089 Si02
#       8
#     4   4   4   4   4   4   4   4
#     4  10  20  36  58  86 120 154 197 247 297 351
#     4  10  21  40  62  87 120 161 201 244 295 359
#     4  10  20  34  55  81 112 151 193 237 292 356
#     4  10  19  35  59  83 111 148 187 233 288 348
#     4   9  20  40  59  81 114 153 197 243 288 344
#     4   9  17  32  54  80 111 143 181 235 292 348
#     4  10  22  40  62  85 118 160 204 247 294 350
#     4  12  23  35  55  87 122 150 186 242 302 356
#
# _framework density 19.346561999999999
#
# number of rings (size 3 to 8) (size 9 to 14) (size 15 to 20)
#    0.000    2.000    1.250    2.625    0.000    5.000 
#    2.250    0.000    0.000    0.000    0.000    0.000 
#    0.000    0.000    0.000    0.000    0.000    0.000 
#
# Total GULP energy -89135.326821 kJ/mol
# GULP energy per Si atom -5570.957926 kJ/mol
# Density = 1.930253 g / cm^3
# Si number density = 19.346562 Si / 1000 Ang^3
#
#
#
# Elastic Constant Matrix: (Units=GPa)
#
#
# Indices 1 2 3 4 5 6 
#
# 1 86.4923 41.0617 25.7459 -0.0001 -9.5131 0.0000
# 2 41.0617 83.3041 27.9985 -0.0003 -11.6540 0.0000
# 3 25.7459 27.9985 54.8514 -0.0007 -16.4923 0.0001
# 4 -0.0001 -0.0003 -0.0007 -1.8573 0.0001 0.0725
# 5 -9.5131 -11.6540 -16.4923 0.0001 20.6985 0.0000
# 6 0.0000 0.0000 0.0001 0.0725 0.0000 30.0508
#
#
#
# Elastic Compliance Matrix: (Units=1/GPa)
#
#
# Indices 1 2 3 4 5 6 
#
# 1 0.015848 -0.006390 -0.004036 0.000001 0.000471 0.000000
# 2 -0.006390 0.017207 -0.004937 0.000000 0.002818 0.000000
# 3 -0.004036 -0.004937 0.027947 -0.000008 0.017634 0.000000
# 4 0.000001 0.000000 -0.000008 -0.538358 -0.000003 0.001299
# 5 0.000471 0.002818 0.017634 -0.000003 0.064166 0.000000
# 6 0.000000 0.000000 0.000000 0.001299 0.000000 0.033274
#
#
# Mechanical properties :
#
#
# Convention : Reuss Voigt Hill
#
# Bulk Modulus (GPa) = 33.02692 46.02888 39.52790
# Shear Modulus (GPa) = -14.74497 18.43451 1.84477
#
# Velocity S-wave (km/s) = -2.76370 3.09019 0.97755
# Velocity P-wave (km/s) = 2.63139 6.04779 4.66369
#
# Compressibility (1/GPa) = 0.03027833
#
# Stress axis : x y z
#
# Youngs Moduli (GPa) = 63.09873 58.11516 35.78161
#
# Poissons Ratio (x) = 0.37133 0.14440
# Poissons Ratio (y) = 0.40317 0.17665
# Poissons Ratio (z) = 0.25465 0.28691
#
# Static dielectric constant tensor:
#      x y z
#    x 1.763560 0.000000 -0.006340 
#    y 0.000000 1.716060 0.000000 
#    z -0.006340 0.000000 1.677940 
# 
# From -- ./inp_files/32125.got.cif
#   From: 2010.05.17/outbox.cif.g08.bks.cpg/sg8_17_cif.got.tgz:32125.got - 2010.06.03 19:46:02.
