data_PCOD9132536
_publ_section_title
;
Structure prediction by ZEFSAII (Michael W. Deem and Ramdas Pophale) SiO2 
 PCOD9132536
Probable space group: C M
;
_chemical_formula_sum "Si O2"
_cell_formula_units_Z 28
_cell_length_a 18.044648
_cell_length_b 13.331076
_cell_length_c 8.953689
_cell_angle_alpha 90.000000
_cell_angle_beta 40.612498
_cell_angle_gamma 90.000000
_cell_volume 1402.027285
_symmetry_space_group_name_H-M "C M"
_symmetry_group_IT_number 8
_symmetry_cell_setting 'monoclinic'
loop_
_space_group_symop_operation_xyz
x,y,z
x,-y,z
1/2+x,1/2+y,z
1/2+x,1/2-y,z
loop_
_atom_site_type_symbol
_atom_site_label
_atom_site_fract_x
_atom_site_fract_y
_atom_site_fract_z
Si Si1 0.108750 0.208172 0.533940
Si Si2 0.810437 0.331403 0.391914
Si Si3 0.386146 0.615011 0.362825
Si Si4 0.108539 0.187651 0.873662
Si Si5 0.060652 0.389989 0.090381
Si Si6 0.892291 0.880771 0.706295
Si Si7 0.669833 0.883826 0.230521
O O1 0.229516 0.149886 0.372897
O O2 0.136872 0.314440 0.417868
O O3 0.011809 0.159291 0.582865
O O4 0.063962 0.210023 0.773342
O O5 0.825421 0.209821 0.377012
O O6 0.932799 0.379431 0.224115
O O7 0.730078 0.361510 0.654404
O O8 0.347898 0.500000 0.392816
O O9 0.516629 0.625641 0.106107
O O10 0.381053 0.637603 0.547040
O O11 0.124472 0.295264 0.925123
O O12 0.108327 0.500000 0.979105
O O13 0.072788 0.380429 0.250155
O O14 0.892272 0.000000 0.723584
O O15 0.784750 0.846115 0.970565
O O16 0.685481 0.000000 0.249715
#
# Coordination Sequence:
#
# PCOD9132536 Si02
#       7
#     4   4   4   4   4   4   4
#     4  10  22  36  58  84 117 147 187 228 287 338
#     4   9  21  35  55  86 111 148 181 227 286 332
#     4  10  20  37  60  84 111 148 196 236 272 329
#     4   9  21  35  55  86 111 149 183 229 286 327
#     4  10  20  37  58  80 110 147 191 231 274 332
#     4  10  22  39  60  83 112 152 193 233 276 332
#     4  10  22  39  60  83 112 153 191 232 279 332
#
# _framework density 19.971080000000001
#
# number of rings (size 3 to 8) (size 9 to 14) (size 15 to 20)
#    0.857    1.429    0.000    2.571    4.000    4.571 
#    0.000    0.000    0.000    1.714    0.000    0.000 
#    0.000    0.000    0.000    0.000    0.000    0.000 
#
# Total GULP energy -77960.603261 kJ/mol
# GULP energy per Si atom -5568.614519 kJ/mol
# Density = 1.992563 g / cm^3
# Si number density = 19.971080 Si / 1000 Ang^3
#
#
#
# Elastic Constant Matrix: (Units=GPa)
#
#
# Indices 1 2 3 4 5 6 
#
# 1 81.3860 24.4672 6.9463 0.0000 -15.2011 0.0000
# 2 24.4672 41.2872 11.9374 0.0000 8.7018 0.0000
# 3 6.9463 11.9374 65.5780 0.0000 -5.0872 0.0000
# 4 0.0000 0.0000 0.0000 3.2876 0.0000 -22.9110
# 5 -15.2011 8.7018 -5.0872 0.0000 30.7081 0.0000
# 6 0.0000 0.0000 0.0000 -22.9110 0.0000 -35.9767
#
#
#
# Elastic Compliance Matrix: (Units=1/GPa)
#
#
# Indices 1 2 3 4 5 6 
#
# 1 0.019219 -0.014850 0.001754 0.000000 0.014012 0.000000
# 2 -0.014850 0.039208 -0.007088 0.000000 -0.019636 0.000000
# 3 0.001754 -0.007088 0.016792 0.000000 0.005659 0.000000
# 4 0.000000 0.000000 0.000000 0.055935 0.000000 -0.035621
# 5 0.014012 -0.019636 0.005659 0.000000 0.046003 0.000000
# 6 0.000000 0.000000 0.000000 -0.035621 0.000000 -0.005111
#
#
# Mechanical properties :
#
#
# Convention : Reuss Voigt Hill
#
# Bulk Modulus (GPa) = 28.69129 30.55032 29.62081
# Shear Modulus (GPa) = 22.31845 9.26382 15.79113
#
# Velocity S-wave (km/s) = 3.34659 2.15608 2.81499
# Velocity P-wave (km/s) = 5.41576 4.63991 5.04278
#
# Compressibility (1/GPa) = 0.03485378
#
# Stress axis : x y z
#
# Youngs Moduli (GPa) = 52.03195 25.50468 59.55101
#
# Poissons Ratio (x) = 0.37874 -0.10448
# Poissons Ratio (y) = 0.77267 0.42207
# Poissons Ratio (z) = -0.09129 0.18077
#
# Static dielectric constant tensor:
#      x y z
#    x 1.725820 0.000000 -0.018850 
#    y 0.000000 1.705570 0.000000 
#    z -0.018850 0.000000 1.732110 
# 
# From -- ./inp_files/15164.got.cif
#   From: 2010.05.17/outbox.cif.g08.bks.cpg/sg8_8_cif.got.tgz:15164.got - 2010.06.03 19:46:02.
