data_PCOD9132527
_publ_section_title
;
Structure prediction by ZEFSAII (Michael W. Deem and Ramdas Pophale) SiO2 
 PCOD9132527
Probable space group: C M
;
_chemical_formula_sum "Si O2"
_cell_formula_units_Z 28
_cell_length_a 9.179608
_cell_length_b 19.605831
_cell_length_c 16.392803
_cell_angle_alpha 90.000000
_cell_angle_beta 153.236410
_cell_angle_gamma 90.000000
_cell_volume 1328.539366
_symmetry_space_group_name_H-M "C M"
_symmetry_group_IT_number 8
_symmetry_cell_setting 'monoclinic'
loop_
_space_group_symop_operation_xyz
x,y,z
x,-y,z
1/2+x,1/2+y,z
1/2+x,1/2-y,z
loop_
_atom_site_type_symbol
_atom_site_label
_atom_site_fract_x
_atom_site_fract_y
_atom_site_fract_z
Si Si1 0.282900 0.172524 0.032940
Si Si2 0.687221 0.180481 0.069910
Si Si3 0.362345 0.080686 0.775193
Si Si4 0.700448 0.923753 0.771098
Si Si5 0.892020 0.339500 0.503621
Si Si6 0.239443 0.345412 0.390682
Si Si7 0.134948 0.268191 0.487538
O O1 0.460083 0.183398 0.035956
O O2 0.216315 0.246657 0.039305
O O3 0.505400 0.126214 0.204998
O O4 0.956769 0.130503 0.868863
O O5 0.049252 0.163423 0.284233
O O6 0.529195 0.125674 0.929035
O O7 0.579894 0.087678 0.802418
O O8 0.011285 0.110542 0.572189
O O9 0.339003 0.000000 0.783577
O O10 0.409961 0.908855 0.562857
O O11 0.821649 0.000000 0.824273
O O12 0.900924 0.278868 0.576639
O O13 0.168558 0.323906 0.574951
O O14 0.019935 0.310505 0.351256
O O15 0.418994 0.287300 0.426323
#
# Coordination Sequence:
#
# PCOD9132527 Si02
#       7
#     4   4   4   4   4   4   4
#     4  12  24  40  69 100 128 163 212 267 317 375
#     4  12  24  40  69 100 128 163 212 267 317 375
#     4  11  27  45  63  91 131 175 214 257 316 380
#     4  11  27  45  63  91 131 175 214 257 316 380
#     4  11  21  42  66  95 129 165 205 266 320 378
#     4  11  21  42  66  95 129 165 205 266 320 378
#     4  10  20  36  68 100 126 152 216 260 324 372
#
# _framework density 21.075779000000001
#
# number of rings (size 3 to 8) (size 9 to 14) (size 15 to 20)
#    0.000    0.857    5.714    0.857    8.000    1.714 
#    0.000    0.000    0.000    0.000    0.000    0.000 
#    0.000    0.000    0.000    0.000    0.000    0.000 
#
# Total GULP energy -78035.717957 kJ/mol
# GULP energy per Si atom -5573.979854 kJ/mol
# Density = 2.102781 g / cm^3
# Si number density = 21.075779 Si / 1000 Ang^3
#
#
#
# Elastic Constant Matrix: (Units=GPa)
#
#
# Indices 1 2 3 4 5 6 
#
# 1 144.7454 56.8762 42.8822 0.0011 -28.8742 0.0041
# 2 56.8762 102.9162 67.8948 0.0148 -16.8679 -0.0006
# 3 42.8822 67.8948 117.5445 0.0505 -15.6699 0.0232
# 4 0.0011 0.0148 0.0505 20.8272 0.0027 -1.4267
# 5 -28.8742 -16.8679 -15.6699 0.0027 28.6718 0.0022
# 6 0.0041 -0.0006 0.0232 -1.4267 0.0022 26.0986
#
#
#
# Elastic Compliance Matrix: (Units=1/GPa)
#
#
# Indices 1 2 3 4 5 6 
#
# 1 0.010152 -0.004183 -0.000273 0.000002 0.007614 -0.000002
# 2 -0.004183 0.018010 -0.008656 0.000009 0.001652 0.000009
# 3 -0.000273 -0.008656 0.013904 -0.000029 0.002232 -0.000014
# 4 0.000002 0.000009 -0.000029 0.048195 -0.000013 0.002635
# 5 0.007614 0.001652 0.002232 -0.000013 0.044737 -0.000008
# 6 -0.000002 0.000009 -0.000014 0.002635 -0.000008 0.038460
#
#
# Mechanical properties :
#
#
# Convention : Reuss Voigt Hill
#
# Bulk Modulus (GPa) = 63.12095 77.83471 70.47783
# Shear Modulus (GPa) = 24.39480 28.28971 26.34226
#
# Velocity S-wave (km/s) = 3.40587 3.66770 3.53920
# Velocity P-wave (km/s) = 6.74397 7.41263 7.08619
#
# Compressibility (1/GPa) = 0.01584260
#
# Stress axis : x y z
#
# Youngs Moduli (GPa) = 98.50502 55.52584 71.91935
#
# Poissons Ratio (x) = 0.23224 0.01961
# Poissons Ratio (y) = 0.41200 0.62256
# Poissons Ratio (z) = 0.02686 0.48065
#
# Static dielectric constant tensor:
#      x y z
#    x 1.750560 0.000000 0.005840 
#    y 0.000000 1.775960 -0.000010 
#    z 0.005840 -0.000010 1.877200 
# 
# From -- ./inp_files/25629.got.cif
#   From: 2010.05.17/outbox.cif.g08.bks.cpg/sg8_13_cif.got.tgz:25629.got - 2010.06.03 19:46:02.
