data_PCOD9132844
_publ_section_title
;
Structure prediction by ZEFSAII (Michael W. Deem and Ramdas Pophale) SiO2 
 PCOD9132844
Probable space group: C M
;
_chemical_formula_sum "Si O2"
_cell_formula_units_Z 28
_cell_length_a 23.811843
_cell_length_b 10.158612
_cell_length_c 5.400645
_cell_angle_alpha 90.000000
_cell_angle_beta 73.884996
_cell_angle_gamma 90.000000
_cell_volume 1255.057848
_symmetry_space_group_name_H-M "C M"
_symmetry_group_IT_number 8
_symmetry_cell_setting 'monoclinic'
loop_
_space_group_symop_operation_xyz
x,y,z
x,-y,z
1/2+x,1/2+y,z
1/2+x,1/2-y,z
loop_
_atom_site_type_symbol
_atom_site_label
_atom_site_fract_x
_atom_site_fract_y
_atom_site_fract_z
Si Si1 0.568340 0.146777 0.850150
Si Si2 0.279099 0.649157 0.526662
Si Si3 0.498989 0.353438 0.197304
Si Si4 0.395311 0.353112 0.702174
Si Si5 0.335579 0.148782 0.070833
Si Si6 0.111727 0.245547 0.290407
Si Si7 0.719998 0.642975 0.890727
O O1 0.605040 0.191957 0.567161
O O2 0.546950 0.000000 0.834259
O O3 0.515960 0.248998 0.967133
O O4 0.603565 0.154863 0.067276
O O5 0.265008 0.500000 0.456476
O O6 0.330568 0.635324 0.665313
O O7 0.225508 0.731331 0.705913
O O8 0.307454 0.748262 0.295604
O O9 0.496021 0.500000 0.099830
O O10 0.441326 0.326878 0.427083
O O11 0.554653 0.344795 0.314907
O O12 0.408025 0.500000 0.792056
O O13 0.389818 0.228634 0.889114
O O14 0.283938 0.132929 0.932891
O O15 0.348741 0.000000 0.147095
O O16 0.171598 0.170796 0.158773
O O17 0.706576 0.500000 0.787913
#
# Coordination Sequence:
#
# PCOD9132844 Si02
#       7
#     4   4   4   4   4   4   4
#     4  10  23  42  63  90 127 165 207 253 307 368
#     4  10  21  37  59  87 118 157 200 250 307 364
#     4   9  21  39  63  90 121 162 209 257 312 369
#     4   9  19  39  60  85 118 155 200 251 301 361
#     4  10  21  36  58  87 120 157 200 250 304 363
#     4  10  23  41  65  92 125 165 206 253 312 366
#     4  10  22  40  60  85 117 157 204 254 303 365
#
# _framework density 22.309729000000001
#
# number of rings (size 3 to 8) (size 9 to 14) (size 15 to 20)
#    0.857    1.429    0.000    1.714    2.000    5.143 
#    0.000    4.286    0.000    0.000    0.000    0.000 
#    0.000    0.000    0.000    0.000    0.000    0.000 
#
# Total GULP energy -78007.640768 kJ/mol
# GULP energy per Si atom -5571.974341 kJ/mol
# Density = 2.225895 g / cm^3
# Si number density = 22.309729 Si / 1000 Ang^3
#
#
#
# Elastic Constant Matrix: (Units=GPa)
#
#
# Indices 1 2 3 4 5 6 
#
# 1 59.5470 19.9536 32.3712 0.0000 -14.5008 0.0000
# 2 19.9536 222.6067 108.2217 0.0000 -28.3421 0.0000
# 3 32.3712 108.2217 112.1204 0.0000 -22.9621 0.0000
# 4 0.0000 0.0000 0.0000 13.5429 0.0000 0.1193
# 5 -14.5008 -28.3421 -22.9621 0.0000 38.7741 0.0000
# 6 0.0000 0.0000 0.0000 0.1193 0.0000 5.1822
#
#
#
# Elastic Compliance Matrix: (Units=1/GPa)
#
#
# Indices 1 2 3 4 5 6 
#
# 1 0.021277 0.002312 -0.007282 0.000000 0.005335 0.000000
# 2 0.002312 0.008796 -0.008722 0.000000 0.002129 0.000000
# 3 -0.007282 -0.008722 0.020003 0.000000 0.002747 0.000000
# 4 0.000000 0.000000 0.000000 0.073855 0.000000 -0.001700
# 5 0.005335 0.002129 0.002747 0.000000 0.030969 0.000000
# 6 0.000000 0.000000 0.000000 -0.001700 0.000000 0.193008
#
#
# Mechanical properties :
#
#
# Convention : Reuss Voigt Hill
#
# Bulk Modulus (GPa) = 44.06897 79.48522 61.77710
# Shear Modulus (GPa) = 13.05978 27.08168 20.07073
#
# Velocity S-wave (km/s) = 2.42210 3.48788 3.00265
# Velocity P-wave (km/s) = 5.25530 7.20596 6.30651
#
# Compressibility (1/GPa) = 0.02269170
#
# Stress axis : x y z
#
# Youngs Moduli (GPa) = 47.00002 113.68395 49.99291
#
# Poissons Ratio (x) = -0.26289 0.36407
# Poissons Ratio (y) = -0.10869 0.43604
# Poissons Ratio (z) = 0.34228 0.99155
#
# Static dielectric constant tensor:
#      x y z
#    x 1.832510 0.000000 0.038890 
#    y 0.000000 1.867070 0.000000 
#    z 0.038890 0.000000 1.838670 
# 
# From -- ./inp_files/6347.got.cif
#   From: 2010.05.17/outbox.cif.g08.bks.cpg/sg8_4_cif.got.tgz:6347.got - 2010.06.03 19:46:02.
