data_PCOD9132999
_publ_section_title
;
Structure prediction by ZEFSAII (Michael W. Deem and Ramdas Pophale) SiO2 
 PCOD9132999
Probable space group: C M
;
_chemical_formula_sum "Si O2"
_cell_formula_units_Z 32
_cell_length_a 12.554517
_cell_length_b 17.743415
_cell_length_c 9.852323
_cell_angle_alpha 90.000000
_cell_angle_beta 140.681900
_cell_angle_gamma 90.000000
_cell_volume 1390.619680
_symmetry_space_group_name_H-M "C M"
_symmetry_group_IT_number 8
_symmetry_cell_setting 'monoclinic'
loop_
_space_group_symop_operation_xyz
x,y,z
x,-y,z
1/2+x,1/2+y,z
1/2+x,1/2-y,z
loop_
_atom_site_type_symbol
_atom_site_label
_atom_site_fract_x
_atom_site_fract_y
_atom_site_fract_z
Si Si1 0.481720 0.771860 0.698660
Si Si2 0.660348 0.085386 0.765637
Si Si3 0.124007 0.089972 0.545973
Si Si4 0.597892 0.089694 0.388968
Si Si5 0.301298 0.173873 0.966695
Si Si6 0.011801 0.767097 0.990208
Si Si7 0.795260 0.165465 0.336141
Si Si8 0.058357 0.086489 0.179003
O O1 0.550376 0.854108 0.736706
O O2 0.634717 0.711198 0.860872
O O3 0.386157 0.748824 0.741846
O O4 0.379045 0.742596 0.470199
O O5 0.653923 0.104819 0.598626
O O6 0.596288 0.000000 0.720224
O O7 0.855818 0.085697 0.001077
O O8 0.936487 0.117412 0.401320
O O9 0.146882 0.108113 0.408608
O O10 0.246481 0.126556 0.778993
O O11 0.134345 0.000000 0.567225
O O12 0.720898 0.122116 0.393500
O O13 0.592355 0.000000 0.367736
O O14 0.415232 0.124670 0.177830
O O15 0.415403 0.243896 0.031768
O O16 0.082439 0.849993 0.088183
O O17 0.142105 0.697846 0.098673
O O18 0.105553 0.000000 0.188611
#
# Coordination Sequence:
#
# PCOD9132999 Si02
#       8
#     4   4   4   4   4   4   4   4
#     4  11  23  39  60  92 123 163 206 255 309 365
#     4  10  21  39  64  89 120 162 206 256 308 365
#     4  10  21  40  63  92 127 164 206 256 311 369
#     4  10  21  40  63  92 127 164 206 256 311 369
#     4  10  23  38  63  90 124 166 206 256 307 372
#     4  11  23  39  60  92 123 163 206 255 309 365
#     4  10  23  34  61  90 122 164 206 252 301 372
#     4  10  21  39  64  89 120 162 206 256 308 365
#
# _framework density 23.011322
#
# number of rings (size 3 to 8) (size 9 to 14) (size 15 to 20)
#    0.000    1.750    1.250    2.250    3.500    2.000 
#    0.000    6.875    0.000    0.000    0.000    0.000 
#    0.000    0.000    0.000    0.000    0.000    0.000 
#
# Total GULP energy -89364.159864 kJ/mol
# GULP energy per Si atom -5585.259992 kJ/mol
# Density = 2.295895 g / cm^3
# Si number density = 23.011322 Si / 1000 Ang^3
#
#
#
# Elastic Constant Matrix: (Units=GPa)
#
#
# Indices 1 2 3 4 5 6 
#
# 1 35.1414 34.5344 6.2902 0.0000 -12.5083 0.0000
# 2 34.5344 134.1510 24.2066 0.0000 -23.0744 0.0000
# 3 6.2902 24.2066 76.7974 0.0000 -16.5036 0.0000
# 4 0.0000 0.0000 0.0000 32.6273 0.0000 -6.7193
# 5 -12.5083 -23.0744 -16.5036 0.0000 37.9392 0.0000
# 6 0.0000 0.0000 0.0000 -6.7193 0.0000 38.0602
#
#
#
# Elastic Compliance Matrix: (Units=1/GPa)
#
#
# Indices 1 2 3 4 5 6 
#
# 1 0.040158 -0.009165 0.001375 0.000000 0.008264 0.000000
# 2 -0.009165 0.010621 -0.002050 0.000000 0.002547 0.000000
# 3 0.001375 -0.002050 0.014764 0.000000 0.005629 0.000000
# 4 0.000000 0.000000 0.000000 0.031806 0.000000 0.005615
# 5 0.008264 0.002547 0.005629 0.000000 0.033080 0.000000
# 6 0.000000 0.000000 0.000000 0.005615 0.000000 0.027265
#
#
# Mechanical properties :
#
#
# Convention : Reuss Voigt Hill
#
# Bulk Modulus (GPa) = 21.80266 41.79470 31.79868
# Shear Modulus (GPa) = 25.95214 33.79592 29.87403
#
# Velocity S-wave (km/s) = 3.36191 3.83647 3.60701
# Velocity P-wave (km/s) = 4.95634 6.15035 5.58534
#
# Compressibility (1/GPa) = 0.04586595
#
# Stress axis : x y z
#
# Youngs Moduli (GPa) = 24.90148 94.14892 67.73008
#
# Poissons Ratio (x) = 0.86284 -0.09316
# Poissons Ratio (y) = 0.22821 0.13885
# Poissons Ratio (z) = -0.03425 0.19300
#
# Static dielectric constant tensor:
#      x y z
#    x 1.926810 0.000000 -0.070950 
#    y 0.000000 1.842600 0.000000 
#    z -0.070950 0.000000 1.949490 
# 
# From -- ./inp_files/23409.got.cif
#   From: 2010.05.17/outbox.cif.g08.bks.cpg/sg8_12_cif.got.tgz:23409.got - 2010.06.03 19:46:02.
