data_PCOD9133640
_publ_section_title
;
Structure prediction by ZEFSAII (Michael W. Deem and Ramdas Pophale) SiO2 
 PCOD9133640
Probable space group: C M
;
_chemical_formula_sum "Si O2"
_cell_formula_units_Z 32
_cell_length_a 24.296271
_cell_length_b 7.332698
_cell_length_c 11.828440
_cell_angle_alpha 90.000000
_cell_angle_beta 35.812519
_cell_angle_gamma 90.000000
_cell_volume 1233.067576
_symmetry_space_group_name_H-M "C M"
_symmetry_group_IT_number 8
_symmetry_cell_setting 'monoclinic'
loop_
_space_group_symop_operation_xyz
x,y,z
x,-y,z
1/2+x,1/2+y,z
1/2+x,1/2-y,z
loop_
_atom_site_type_symbol
_atom_site_label
_atom_site_fract_x
_atom_site_fract_y
_atom_site_fract_z
Si Si1 0.584010 0.788542 0.335690
Si Si2 0.619420 0.723300 0.769683
Si Si3 0.415726 0.796616 0.185737
Si Si4 0.331979 0.221572 0.091984
Si Si5 0.620504 0.283192 0.511384
Si Si6 0.720520 0.287751 0.808799
Si Si7 0.294333 0.792411 0.915320
Si Si8 0.505100 0.220311 0.247128
O O1 0.557385 0.774570 0.511130
O O2 0.684610 0.696251 0.141416
O O3 0.505230 0.725842 0.378465
O O4 0.602347 0.000000 0.280898
O O5 0.615046 0.500000 0.780699
O O6 0.613909 0.784073 0.649495
O O7 0.707564 0.779166 0.701249
O O8 0.526772 0.806080 0.978099
O O9 0.382384 0.711754 0.122554
O O10 0.423579 0.712002 0.298193
O O11 0.371197 0.000000 0.266573
O O12 0.224694 0.265359 0.298535
O O13 0.347358 0.287423 0.937521
O O14 0.344984 0.000000 0.067052
O O15 0.612549 0.500000 0.531099
O O16 0.747775 0.500000 0.755088
O O17 0.782123 0.210269 0.809798
O O18 0.611280 0.277373 0.033953
O O19 0.329218 0.000000 0.843100
O O20 0.497851 0.000000 0.252429
#
# Coordination Sequence:
#
# PCOD9133640 Si02
#       8
#     4   4   4   4   4   4   4   4
#     4   9  15  23  37  58  81 102 131 169 201 231
#     4   9  17  28  42  61  83 106 134 167 199 234
#     4   9  16  27  43  61  83 109 133 160 198 241
#     4   8  14  25  42  61  80 106 136 162 193 237
#     4   9  17  29  43  59  81 108 136 165 199 238
#     4   8  13  22  38  58  78 100 129 165 198 228
#     4   8  13  23  39  58  80 104 131 163 198 235
#     4   8  14  23  36  56  80 103 128 161 198 234
#
# _framework density 25.951536999999998
#
# number of rings (size 3 to 8) (size 9 to 14) (size 15 to 20)
#    0.000    3.500    0.000    1.125    0.000    1.000 
#    0.000    2.500    0.000    1.500    0.000    7.000 
#    0.000    0.000    0.000    0.000    0.000    0.000 
#
# Total GULP energy -89077.869674 kJ/mol
# GULP energy per Si atom -5567.366855 kJ/mol
# Density = 2.589247 g / cm^3
# Si number density = 25.951537 Si / 1000 Ang^3
#
#
#
# Elastic Constant Matrix: (Units=GPa)
#
#
# Indices 1 2 3 4 5 6 
#
# 1 248.9825 3.8316 36.1447 0.0000 76.9278 0.0000
# 2 3.8316 100.0253 0.1657 0.0001 0.5225 -0.0001
# 3 36.1447 0.1657 32.8284 0.0000 6.8545 0.0000
# 4 0.0000 0.0001 0.0000 0.2090 0.0000 5.6601
# 5 76.9278 0.5225 6.8545 0.0000 55.2983 0.0000
# 6 0.0000 -0.0001 0.0000 5.6601 0.0000 -5.4402
#
#
#
# Elastic Compliance Matrix: (Units=1/GPa)
#
#
# Indices 1 2 3 4 5 6 
#
# 1 0.008352 -0.000252 -0.006949 0.000000 -0.010755 0.000000
# 2 -0.000252 0.010006 0.000178 0.000000 0.000234 0.000000
# 3 -0.006949 0.000178 0.037052 0.000000 0.005072 0.000000
# 4 0.000000 0.000000 0.000000 0.163992 0.000000 0.170620
# 5 -0.010755 0.000234 0.005072 0.000000 0.032415 0.000000
# 6 0.000000 0.000000 0.000000 0.170620 0.000000 -0.006300
#
#
# Mechanical properties :
#
#
# Convention : Reuss Voigt Hill
#
# Bulk Modulus (GPa) = 24.17539 51.34670 37.76104
# Shear Modulus (GPa) = 18.29159 32.79302 25.54230
#
# Velocity S-wave (km/s) = 2.65776 3.55861 3.14065
# Velocity P-wave (km/s) = 4.33059 6.05916 5.26628
#
# Compressibility (1/GPa) = 0.04136438
#
# Stress axis : x y z
#
# Youngs Moduli (GPa) = 119.73271 99.94390 26.98895
#
# Poissons Ratio (x) = 0.02521 0.18754
# Poissons Ratio (y) = 0.03020 -0.00481
# Poissons Ratio (z) = 0.83199 -0.01782
#
# Static dielectric constant tensor:
#      x y z
#    x 2.203840 0.000000 0.117500 
#    y 0.000000 2.642530 0.000000 
#    z 0.117500 0.000000 2.092000 
# 
# From -- ./inp_files/23712.got.cif
#   From: 2010.05.17/outbox.cif.g08.bks.cpg/sg8_12_cif.got.tgz:23712.got - 2010.06.03 19:46:02.
