data_PCOD9133252
_publ_section_title
;
Structure prediction by ZEFSAII (Michael W. Deem and Ramdas Pophale) SiO2 
 PCOD9133252
Probable space group: C M
;
_chemical_formula_sum "Si O2"
_cell_formula_units_Z 16
_cell_length_a 5.646426
_cell_length_b 25.430140
_cell_length_c 6.733551
_cell_angle_alpha 90.000000
_cell_angle_beta 44.920468
_cell_angle_gamma 90.000000
_cell_volume 682.728242
_symmetry_space_group_name_H-M "C M"
_symmetry_group_IT_number 8
_symmetry_cell_setting 'monoclinic'
loop_
_space_group_symop_operation_xyz
x,y,z
x,-y,z
1/2+x,1/2+y,z
1/2+x,1/2-y,z
loop_
_atom_site_type_symbol
_atom_site_label
_atom_site_fract_x
_atom_site_fract_y
_atom_site_fract_z
Si Si1 0.655620 0.090377 0.580430
Si Si2 0.100930 0.500000 0.289603
Si Si3 0.110164 0.161433 0.085569
Si Si4 0.863438 0.000000 0.724446
Si Si5 0.091733 0.740384 0.331183
O O1 0.984441 0.124279 0.338195
O O2 0.620961 0.051191 0.415135
O O3 0.685934 0.052256 0.751147
O O4 0.351334 0.130239 0.797761
O O5 0.733496 0.500000 0.411054
O O6 0.376071 0.500000 0.954307
O O7 0.259525 0.213876 0.096455
O O8 0.770433 0.184667 0.187782
O O9 0.210158 0.755584 0.483457
#
# Coordination Sequence:
#
# PCOD9133252 Si02
#       5
#     4   2   4   2   4
#     4  11  24  42  68 100 134 178 232 281 348 418
#     4  11  24  43  66 100 134 175 227 288 345 422
#     4  10  22  41  66  98 136 185 228 282 348 408
#     4  11  24  43  66 100 134 175 227 288 345 422
#     4   8  20  42  62  98 138 182 228 282 332 412
#
# _framework density 23.435386000000001
#
# number of rings (size 3 to 8) (size 9 to 14) (size 15 to 20)
#    1.500    0.500    0.000    3.000    0.000   12.000 
#    0.000    0.000    0.000    0.000    0.000    0.000 
#    0.000    0.000    0.000    0.000    0.000    0.000 
#
# Total GULP energy -44616.339959 kJ/mol
# GULP energy per Si atom -5577.042495 kJ/mol
# Density = 2.338205 g / cm^3
# Si number density = 23.435386 Si / 1000 Ang^3
#
#
#
# Elastic Constant Matrix: (Units=GPa)
#
#
# Indices 1 2 3 4 5 6 
#
# 1 71.7594 -9.9067 0.3989 0.0000 13.6207 0.0000
# 2 -9.9067 112.0933 47.9342 0.0000 7.8736 0.0000
# 3 0.3989 47.9342 120.6759 0.0000 3.1412 0.0000
# 4 0.0000 0.0000 0.0000 8.3157 0.0000 -11.0826
# 5 13.6207 7.8736 3.1412 0.0000 22.0554 0.0000
# 6 0.0000 0.0000 0.0000 -11.0826 0.0000 14.8063
#
#
#
# Elastic Compliance Matrix: (Units=1/GPa)
#
#
# Indices 1 2 3 4 5 6 
#
# 1 0.016360 0.002546 -0.000782 0.000000 -0.010901 0.000000
# 2 0.002546 0.011379 -0.004398 0.000000 -0.005008 0.000000
# 3 -0.000782 -0.004398 0.010020 0.000000 0.000626 0.000000
# 4 0.000000 0.000000 0.000000 49.049815 0.000000 36.713988
# 5 -0.010901 -0.005008 0.000626 0.000000 0.053771 0.000000
# 6 0.000000 0.000000 0.000000 36.713988 0.000000 27.548110
#
#
# Mechanical properties :
#
#
# Convention : Reuss Voigt Hill
#
# Bulk Modulus (GPa) = 30.77700 42.37571 36.57636
# Shear Modulus (GPa) = 0.06518 26.77563 13.42041
#
# Velocity S-wave (km/s) = 0.16696 3.38380 2.39562
# Velocity P-wave (km/s) = 3.63296 5.77823 4.82630
#
# Compressibility (1/GPa) = 0.03249180
#
# Stress axis : x y z
#
# Youngs Moduli (GPa) = 61.12306 87.88498 99.80221
#
# Poissons Ratio (x) = -0.22374 0.07800
# Poissons Ratio (y) = -0.15561 0.43891
# Poissons Ratio (z) = 0.04777 0.38650
#
# Static dielectric constant tensor:
#      x y z
#    x 1.925680 0.000000 0.010840 
#    y 0.000000 1.873350 0.000000 
#    z 0.010840 0.000000 1.826190 
# 
# From -- ./inp_files/384.got.cif
#   From: 2010.05.17/outbox.cif.g08.bks.cpg/sg8_1_cif.got.tgz:384.got - 2010.06.03 19:46:02.
