data_PCOD9133291
_publ_section_title
;
Structure prediction by ZEFSAII (Michael W. Deem and Ramdas Pophale) SiO2 
 PCOD9133291
Probable space group: C M
;
_chemical_formula_sum "Si O2"
_cell_formula_units_Z 26
_cell_length_a 21.060541
_cell_length_b 7.757890
_cell_length_c 9.754470
_cell_angle_alpha 90.000000
_cell_angle_beta 47.141926
_cell_angle_gamma 90.000000
_cell_volume 1168.274711
_symmetry_space_group_name_H-M "C M"
_symmetry_group_IT_number 8
_symmetry_cell_setting 'monoclinic'
loop_
_space_group_symop_operation_xyz
x,y,z
x,-y,z
1/2+x,1/2+y,z
1/2+x,1/2-y,z
loop_
_atom_site_type_symbol
_atom_site_label
_atom_site_fract_x
_atom_site_fract_y
_atom_site_fract_z
Si Si1 0.338690 0.797394 0.214100
Si Si2 0.543812 0.199868 0.948072
Si Si3 0.597952 0.316129 0.587766
Si Si4 0.946383 0.702970 0.628467
Si Si5 0.582150 0.706656 0.201961
Si Si6 0.719867 0.000000 0.424835
Si Si7 0.272789 0.207392 0.003101
O O1 0.441046 0.776618 0.083928
O O2 0.286765 0.655493 0.375660
O O3 0.320365 0.000000 0.268470
O O4 0.311726 0.753446 0.096204
O O5 0.572259 0.241607 0.058894
O O6 0.565135 0.000000 0.883715
O O7 0.589626 0.309123 0.763469
O O8 0.633474 0.500000 0.487025
O O9 0.503791 0.294707 0.659784
O O10 0.653486 0.151786 0.467694
O O11 0.945519 0.500000 0.662458
O O12 0.846882 0.763378 0.785902
O O13 0.000496 0.728107 0.410091
O O14 0.580980 0.500000 0.214857
O O15 0.675607 0.772059 0.119170
O O16 0.266609 0.000000 0.003540
#
# Coordination Sequence:
#
# PCOD9133291 Si02
#       7
#     4   4   4   4   4   2   4
#     4  10  22  42  70 100 138 180 234 292 348 412
#     4  11  23  46  69  98 139 189 231 286 358 423
#     4  12  24  42  70 103 141 181 233 289 351 418
#     4  11  21  42  69 100 137 185 236 291 347 419
#     4  11  24  42  66 100 142 187 233 290 354 418
#     4  12  24  40  66 106 132 176 230 294 346 412
#     4   9  20  41  68  97 136 183 233 288 347 413
#
# _framework density 22.255040000000001
#
# number of rings (size 3 to 8) (size 9 to 14) (size 15 to 20)
#    0.000    1.231    3.077    2.769    2.154    1.231 
#    5.538    0.000    0.000    0.000    0.000    0.000 
#    0.000    0.000    0.000    0.000    0.000    0.000 
#
# Total GULP energy -72402.672923 kJ/mol
# GULP energy per Si atom -5569.436379 kJ/mol
# Density = 2.220439 g / cm^3
# Si number density = 22.255040 Si / 1000 Ang^3
#
#
#
# Elastic Constant Matrix: (Units=GPa)
#
#
# Indices 1 2 3 4 5 6 
#
# 1 89.4228 23.6029 32.2186 0.0000 3.9298 0.0000
# 2 23.6029 137.8895 18.4106 0.0000 -16.2911 0.0000
# 3 32.2186 18.4106 78.1750 0.0000 3.6203 0.0000
# 4 0.0000 0.0000 0.0000 -2.2455 0.0000 -15.1724
# 5 3.9298 -16.2911 3.6203 0.0000 39.8141 0.0000
# 6 0.0000 0.0000 0.0000 -15.1724 0.0000 19.2663
#
#
#
# Elastic Compliance Matrix: (Units=1/GPa)
#
#
# Indices 1 2 3 4 5 6 
#
# 1 0.013571 -0.001836 -0.005085 0.000000 -0.001629 0.000000
# 2 -0.001836 0.008176 -0.001338 0.000000 0.003648 0.000000
# 3 -0.005085 -0.001338 0.015269 0.000000 -0.001434 0.000000
# 4 0.000000 0.000000 0.000000 -0.070453 0.000000 -0.055482
# 5 -0.001629 0.003648 -0.001434 0.000000 0.026901 0.000000
# 6 0.000000 0.000000 0.000000 -0.055482 0.000000 0.008211
#
#
# Mechanical properties :
#
#
# Convention : Reuss Voigt Hill
#
# Bulk Modulus (GPa) = 48.78572 50.43904 49.61238
# Shear Modulus (GPa) = 199.78238 26.78399 113.28319
#
# Velocity S-wave (km/s) = 9.48496 3.47292 7.14232
# Velocity P-wave (km/s) = 11.91307 6.22855 9.50569
#
# Compressibility (1/GPa) = 0.02049780
#
# Stress axis : x y z
#
# Youngs Moduli (GPa) = 73.68469 122.30653 65.49200
#
# Poissons Ratio (x) = 0.22461 0.33305
# Poissons Ratio (y) = 0.13532 0.08760
# Poissons Ratio (z) = 0.37471 0.16360
#
# Static dielectric constant tensor:
#      x y z
#    x 1.808300 0.000000 -0.043340 
#    y 0.000000 1.841020 0.000000 
#    z -0.043340 0.000000 1.911060 
# 
# From -- ./inp_files/15930.got.cif
#   From: 2010.05.17/outbox.cif.g08.bks.cpg/sg8_8_cif.got.tgz:15930.got - 2010.06.03 19:46:02.
