data_PCOD9133371
_publ_section_title
;
Structure prediction by ZEFSAII (Michael W. Deem and Ramdas Pophale) SiO2 
 PCOD9133371
Probable space group: C M
;
_chemical_formula_sum "Si O2"
_cell_formula_units_Z 30
_cell_length_a 8.707403
_cell_length_b 33.990245
_cell_length_c 5.034144
_cell_angle_alpha 90.000000
_cell_angle_beta 115.017526
_cell_angle_gamma 90.000000
_cell_volume 1350.150913
_symmetry_space_group_name_H-M "C M"
_symmetry_group_IT_number 8
_symmetry_cell_setting 'monoclinic'
loop_
_space_group_symop_operation_xyz
x,y,z
x,-y,z
1/2+x,1/2+y,z
1/2+x,1/2-y,z
loop_
_atom_site_type_symbol
_atom_site_label
_atom_site_fract_x
_atom_site_fract_y
_atom_site_fract_z
Si Si1 0.834620 0.284566 0.750000
Si Si2 0.844964 0.435745 0.932521
Si Si3 0.914773 0.854935 0.204391
Si Si4 0.481696 0.405509 0.742284
Si Si5 0.529220 0.136792 0.819748
Si Si6 0.108042 0.780020 0.103738
Si Si7 0.999804 0.500000 0.733921
Si Si8 0.129431 0.566329 0.535617
O O1 0.728367 0.266397 0.431185
O O2 0.916975 0.324770 0.700074
O O3 0.718478 0.291315 0.925452
O O4 0.981963 0.254630 0.934168
O O5 0.981481 0.452288 0.244680
O O6 0.653122 0.430015 0.874068
O O7 0.860662 0.465300 0.701217
O O8 0.922461 0.393201 0.921293
O O9 0.991740 0.869810 0.537734
O O10 0.001548 0.816080 0.150911
O O11 0.949520 0.888340 0.010419
O O12 0.711052 0.851158 0.074396
O O13 0.311495 0.428764 0.536381
O O14 0.571578 0.109369 0.596094
O O15 0.139364 0.535257 0.779893
#
# Coordination Sequence:
#
# PCOD9133371 Si02
#       8
#     4   4   4   4   4   4   2   4
#     4  12  27  45  69 103 139 190 235 298 358 427
#     4  11  22  43  68  98 135 185 225 289 344 423
#     4  11  23  44  66 103 133 180 230 298 338 422
#     4  11  25  41  72 100 139 179 241 278 351 411
#     4  10  23  41  70  96 137 177 234 287 355 405
#     4  12  26  45  68  99 142 184 240 291 366 418
#     4  10  24  42  68 102 142 178 236 280 360 410
#     4  10  23  45  66 103 137 186 225 297 340 428
#
# _framework density 22.219740999999999
#
# number of rings (size 3 to 8) (size 9 to 14) (size 15 to 20)
#    0.000    1.067    1.333    4.400    7.467    1.600 
#    0.000    1.333    0.000    0.000    0.000    0.000 
#    0.000    0.000    0.000    0.000    0.000    0.000 
#
# Total GULP energy -83599.204173 kJ/mol
# GULP energy per Si atom -5573.280278 kJ/mol
# Density = 2.216917 g / cm^3
# Si number density = 22.219741 Si / 1000 Ang^3
#
#
#
# Elastic Constant Matrix: (Units=GPa)
#
#
# Indices 1 2 3 4 5 6 
#
# 1 142.5324 58.4164 37.7086 0.0000 7.7487 0.0000
# 2 58.4164 103.4367 6.9141 0.0000 19.4328 0.0000
# 3 37.7086 6.9141 87.8146 0.0000 15.8235 0.0000
# 4 0.0000 0.0000 0.0000 42.5845 0.0000 -16.9058
# 5 7.7487 19.4328 15.8235 0.0000 28.4202 0.0000
# 6 0.0000 0.0000 0.0000 -16.9058 0.0000 14.4089
#
#
#
# Elastic Compliance Matrix: (Units=1/GPa)
#
#
# Indices 1 2 3 4 5 6 
#
# 1 0.010757 -0.006550 -0.004871 0.000000 0.004257 0.000000
# 2 -0.006550 0.015104 0.003515 0.000000 -0.010499 0.000000
# 3 -0.004871 0.003515 0.014890 0.000000 -0.009366 0.000000
# 4 0.000000 0.000000 0.000000 0.043958 0.000000 0.051576
# 5 0.004257 -0.010499 -0.009366 0.000000 0.046419 0.000000
# 6 0.000000 0.000000 0.000000 0.051576 0.000000 0.129915
#
#
# Mechanical properties :
#
#
# Convention : Reuss Voigt Hill
#
# Bulk Modulus (GPa) = 40.09448 59.98467 50.03957
# Shear Modulus (GPa) = 17.53353 32.46569 24.99961
#
# Velocity S-wave (km/s) = 2.81213 3.82661 3.35790
# Velocity P-wave (km/s) = 5.35050 6.82485 6.13215
#
# Compressibility (1/GPa) = 0.02494109
#
# Stress axis : x y z
#
# Youngs Moduli (GPa) = 92.95881 66.20688 67.15877
#
# Poissons Ratio (x) = 0.43363 0.32712
# Poissons Ratio (y) = 0.60884 -0.23607
# Poissons Ratio (z) = 0.45279 -0.23272
#
# Static dielectric constant tensor:
#      x y z
#    x 1.860620 0.000000 -0.037910 
#    y 0.000000 1.770280 0.000000 
#    z -0.037910 0.000000 1.969440 
# 
# From -- ./inp_files/1982.got.cif
#   From: 2010.05.17/outbox.cif.g08.bks.cpg/sg8_1_cif.got.tgz:1982.got - 2010.06.03 19:46:02.
