data_PCOD9133985
_publ_section_title
;
Structure prediction by ZEFSAII (Michael W. Deem and Ramdas Pophale) SiO2 
 PCOD9133985
Probable space group: C C
;
_chemical_formula_sum "Si O2"
_cell_formula_units_Z 32
_cell_length_a 38.626210
_cell_length_b 6.860316
_cell_length_c 5.261446
_cell_angle_alpha 90.000000
_cell_angle_beta 82.266852
_cell_angle_gamma 90.000000
_cell_volume 1381.540376
_symmetry_space_group_name_H-M "C C"
_symmetry_group_IT_number 9
_symmetry_cell_setting 'monoclinic'
loop_
_space_group_symop_operation_xyz
x,y,z
x,-y,1/2+z
1/2+x,1/2+y,z
1/2+x,1/2-y,1/2+z
loop_
_atom_site_type_symbol
_atom_site_label
_atom_site_fract_x
_atom_site_fract_y
_atom_site_fract_z
Si Si1 0.628980 0.281916 0.298340
Si Si2 0.923411 0.706840 0.272514
Si Si3 0.028014 0.632614 0.755850
Si Si4 0.451555 0.765819 0.243635
Si Si5 0.100729 0.782084 0.826189
Si Si6 0.775955 0.129827 0.101110
Si Si7 0.352296 0.635563 0.978821
Si Si8 0.201474 0.632016 0.076562
O O1 0.625420 0.193758 0.582903
O O2 0.614925 0.500082 0.354109
O O3 0.668122 0.266996 0.157820
O O4 0.604098 0.194346 0.104372
O O5 0.939703 0.492736 0.217388
O O6 0.946931 0.809836 0.463470
O O7 0.884115 0.714949 0.414821
O O8 0.925947 0.801237 0.992293
O O9 0.028869 0.522157 0.485524
O O10 0.061586 0.768070 0.762734
O O11 0.991085 0.742760 0.798718
O O12 0.813448 0.771306 0.519463
O O13 0.775497 0.043318 0.387659
O O14 0.739141 0.233774 0.082655
O O15 0.354838 0.487984 0.736555
O O16 0.200036 0.466154 0.299756
#
# Coordination Sequence:
#
# PCOD9133985 Si02
#       8
#     4   4   4   4   4   4   4   4
#     4  10  21  40  54  79 113 148 180 217 285 341
#     4  10  18  33  56  76 104 137 176 220 272 311
#     4  12  21  37  60  83 100 134 188 244 281 322
#     4  10  19  35  55  76  99 133 179 231 270 311
#     4  10  23  37  58  75 111 146 179 218 294 342
#     4   8  16  30  48  79 110 142 180 222 264 301
#     4  10  19  32  53  79 115 147 176 217 268 324
#     4  10  19  32  58  85 110 141 188 235 264 314
#
# _framework density 23.162552999999999
#
# number of rings (size 3 to 8) (size 9 to 14) (size 15 to 20)
#    0.000    2.000    2.500    2.250    0.000    3.000 
#    0.000    0.000   16.500    6.000    0.000    0.000 
#    0.000    0.000    0.000    0.000    0.000    0.000 
#
# Total GULP energy -89269.347576 kJ/mol
# GULP energy per Si atom -5579.334223 kJ/mol
# Density = 2.310983 g / cm^3
# Si number density = 23.162553 Si / 1000 Ang^3
#
#
#
# Elastic Constant Matrix: (Units=GPa)
#
#
# Indices 1 2 3 4 5 6 
#
# 1 161.1556 -5.3252 -15.5159 0.0000 -7.2165 0.0000
# 2 -5.3252 51.1956 -19.2981 0.0000 -1.0822 0.0000
# 3 -15.5159 -19.2981 162.0051 0.0000 7.8566 0.0000
# 4 0.0000 0.0000 0.0000 26.3874 0.0000 -23.7502
# 5 -7.2165 -1.0822 7.8566 0.0000 37.9876 0.0000
# 6 0.0000 0.0000 0.0000 -23.7502 0.0000 40.9935
#
#
#
# Elastic Compliance Matrix: (Units=1/GPa)
#
#
# Indices 1 2 3 4 5 6 
#
# 1 0.006349 0.000935 0.000666 0.000000 0.001095 0.000000
# 2 0.000935 0.020589 0.002530 0.000000 0.000241 0.000000
# 3 0.000666 0.002530 0.006594 0.000000 -0.001165 0.000000
# 4 0.000000 0.000000 0.000000 0.079193 0.000000 0.045882
# 5 0.001095 0.000241 -0.001165 0.000000 0.026780 0.000000
# 6 0.000000 0.000000 0.000000 0.045882 0.000000 0.050977
#
#
# Mechanical properties :
#
#
# Convention : Reuss Voigt Hill
#
# Bulk Modulus (GPa) = 23.92587 32.67532 28.30059
# Shear Modulus (GPa) = 25.49049 48.70674 37.09862
#
# Velocity S-wave (km/s) = 3.32098 4.59063 4.00642
# Velocity P-wave (km/s) = 5.00572 6.49893 5.80057
#
# Compressibility (1/GPa) = 0.04179577
#
# Stress axis : x y z
#
# Youngs Moduli (GPa) = 157.49872 48.56943 151.64390
#
# Poissons Ratio (x) = -0.04540 -0.10105
# Poissons Ratio (y) = -0.14722 -0.38372
# Poissons Ratio (z) = -0.10495 -0.12290
#
# Static dielectric constant tensor:
#      x y z
#    x 1.894750 0.000000 0.008870 
#    y 0.000000 0.120860 0.000000 
#    z 0.008870 0.000000 1.956730 
# 
# From -- ./inp_files/3461.got.cif
#   From: 2010.05.17/outbox.cif.g08.bks.cpg/sg9_2_cif.got.tgz:3461.got - 2010.06.03 20:04:27.
