data_PCOD9133295
_publ_section_title
;
Structure prediction by ZEFSAII (Michael W. Deem and Ramdas Pophale) SiO2 
 PCOD9133295
Probable space group: C M
;
_chemical_formula_sum "Si O2"
_cell_formula_units_Z 20
_cell_length_a 5.201331
_cell_length_b 13.717961
_cell_length_c 10.222712
_cell_angle_alpha 90.000000
_cell_angle_beta 88.755101
_cell_angle_gamma 90.000000
_cell_volume 729.235263
_symmetry_space_group_name_H-M "C M"
_symmetry_group_IT_number 8
_symmetry_cell_setting 'monoclinic'
loop_
_space_group_symop_operation_xyz
x,y,z
x,-y,z
1/2+x,1/2+y,z
1/2+x,1/2-y,z
loop_
_atom_site_type_symbol
_atom_site_label
_atom_site_fract_x
_atom_site_fract_y
_atom_site_fract_z
Si Si1 0.706041 0.500000 0.537081
Si Si2 0.886731 0.000000 0.272246
Si Si3 0.045994 0.321205 0.904338
Si Si4 0.831558 0.000000 0.788192
Si Si5 0.761057 0.500000 0.021136
Si Si6 0.337448 0.210033 0.551462
Si Si7 0.754694 0.210123 0.256518
O O1 0.545735 0.500000 0.404853
O O2 0.502098 0.500000 0.656396
O O3 0.875484 0.596268 0.541589
O O4 0.717552 0.903673 0.267087
O O5 0.091809 0.000000 0.153368
O O6 0.295797 0.249887 0.904205
O O7 0.149322 0.404478 0.800039
O O8 0.943162 0.404469 0.008806
O O9 0.045826 0.000000 0.904898
O O10 0.563435 0.267609 0.617223
O O11 0.296106 0.249700 0.403868
O O12 0.528510 0.267457 0.190550
#
# Coordination Sequence:
#
# PCOD9133295 Si02
#       7
#     2   2   4   2   2   4   4
#     4  12  25  47  77 111 159 204 248 324 388 460
#     4  12  25  47  77 111 159 204 248 324 388 460
#     4  11  24  53  84 112 154 213 266 329 394 468
#     4  11  27  51  78 122 155 204 273 325 393 480
#     4  11  27  51  78 122 155 204 273 325 393 480
#     4  10  22  43  65 100 146 191 249 293 373 447
#     4  10  22  43  65 100 146 191 249 293 373 447
#
# _framework density 27.425989000000001
#
# number of rings (size 3 to 8) (size 9 to 14) (size 15 to 20)
#    0.000    1.200    6.000    0.000    0.000    8.000 
#   14.400    0.000    0.000    0.000    0.000    0.000 
#    0.000    0.000    0.000    0.000    0.000    0.000 
#
# Total GULP energy -55988.338616 kJ/mol
# GULP energy per Si atom -5598.833862 kJ/mol
# Density = 2.736357 g / cm^3
# Si number density = 27.425989 Si / 1000 Ang^3
#
#
#
# Elastic Constant Matrix: (Units=GPa)
#
#
# Indices 1 2 3 4 5 6 
#
# 1 173.5839 49.4117 31.1028 0.0000 -6.8017 0.0000
# 2 49.4117 280.8799 15.4567 0.0000 -4.1295 0.0000
# 3 31.1028 15.4567 179.8040 0.0000 -6.3581 0.0000
# 4 0.0000 0.0000 0.0000 29.1713 0.0000 -20.3552
# 5 -6.8017 -4.1295 -6.3581 0.0000 55.7361 0.0000
# 6 0.0000 0.0000 0.0000 -20.3552 0.0000 63.6871
#
#
#
# Elastic Compliance Matrix: (Units=1/GPa)
#
#
# Indices 1 2 3 4 5 6 
#
# 1 0.006253 -0.001038 -0.000972 0.000000 0.000575 0.000000
# 2 -0.001038 0.003752 -0.000138 0.000000 0.000136 0.000000
# 3 -0.000972 -0.000138 0.005760 0.000000 0.000528 0.000000
# 4 0.000000 0.000000 0.000000 0.044120 0.000000 0.014101
# 5 0.000575 0.000136 0.000528 0.000000 0.018082 0.000000
# 6 0.000000 0.000000 0.000000 0.014101 0.000000 0.020209
#
#
# Mechanical properties :
#
#
# Convention : Reuss Voigt Hill
#
# Bulk Modulus (GPa) = 87.19062 91.80113 89.49588
# Shear Modulus (GPa) = 47.03821 65.60535 56.32178
#
# Velocity S-wave (km/s) = 4.14587 4.89620 4.53657
# Velocity P-wave (km/s) = 7.40121 8.09375 7.75521
#
# Compressibility (1/GPa) = 0.01146912
#
# Stress axis : x y z
#
# Youngs Moduli (GPa) = 159.92017 266.49209 173.60129
#
# Poissons Ratio (x) = 0.27664 0.16876
# Poissons Ratio (y) = 0.16601 0.02399
# Poissons Ratio (z) = 0.15546 0.03683
#
# Static dielectric constant tensor:
#      x y z
#    x 3.504260 0.000000 -1.099860 
#    y 0.000000 2.076660 0.000000 
#    z -1.099860 0.000000 3.118210 
# 
# From -- ./inp_files/17968.got.cif
#   From: 2010.05.17/outbox.cif.g08.bks.cpg/sg8_9_cif.got.tgz:17968.got - 2010.06.03 19:46:02.
