data_PCOD9133744
_publ_section_title
;
Structure prediction by ZEFSAII (Michael W. Deem and Ramdas Pophale) SiO2 
 PCOD9133744
Probable space group: C C
;
_chemical_formula_sum "Si O2"
_cell_formula_units_Z 32
_cell_length_a 11.871460
_cell_length_b 20.007283
_cell_length_c 8.030197
_cell_angle_alpha 90.000000
_cell_angle_beta 54.898032
_cell_angle_gamma 90.000000
_cell_volume 1560.417272
_symmetry_space_group_name_H-M "C C"
_symmetry_group_IT_number 9
_symmetry_cell_setting 'monoclinic'
loop_
_space_group_symop_operation_xyz
x,y,z
x,-y,1/2+z
1/2+x,1/2+y,z
1/2+x,1/2-y,1/2+z
loop_
_atom_site_type_symbol
_atom_site_label
_atom_site_fract_x
_atom_site_fract_y
_atom_site_fract_z
Si Si1 0.432600 0.168613 0.875000
Si Si2 0.507518 0.636476 0.943838
Si Si3 0.916195 0.386820 0.018326
Si Si4 0.682448 0.706060 0.536012
Si Si5 0.698288 0.163074 0.189718
Si Si6 0.189657 0.977025 0.127025
Si Si7 0.652608 0.257857 0.550491
Si Si8 0.232378 0.899871 0.749967
O O1 0.430382 0.130404 0.700144
O O2 0.568423 0.213237 0.753299
O O3 0.302376 0.218163 0.975411
O O4 0.387534 0.119613 0.062749
O O5 0.548637 0.685902 0.756146
O O6 0.583693 0.568071 0.824374
O O7 0.344425 0.627927 0.087874
O O8 0.566427 0.678198 0.052041
O O9 0.062916 0.382272 0.804741
O O10 0.811246 0.332228 0.021471
O O11 0.840202 0.457247 0.068224
O O12 0.702873 0.784674 0.532688
O O13 0.670176 0.669323 0.370189
O O14 0.676166 0.210989 0.368777
O O15 0.169002 0.055979 0.155921
O O16 0.200855 0.948683 0.931543
#
# Coordination Sequence:
#
# PCOD9133744 Si02
#       8
#     4   4   4   4   4   4   4   4
#     4  11  18  33  50  81 108 142 173 219 270 318
#     4   9  16  29  54  81 105 141 173 213 264 323
#     4   9  17  29  56  77 104 144 172 211 261 318
#     4   9  17  32  49  81 102 138 175 215 266 310
#     4  10  15  29  54  82 113 135 168 208 273 336
#     4  10  20  38  55  77 101 143 190 222 252 313
#     4  10  17  29  52  80 112 137 171 216 270 326
#     4  10  22  35  56  77 101 142 190 226 256 308
#
# _framework density 20.507335999999999
#
# number of rings (size 3 to 8) (size 9 to 14) (size 15 to 20)
#    0.000    2.500    5.000    2.250    0.000    0.000 
#    9.000    0.000    0.000   13.500    0.000    0.000 
#    0.000    0.000    0.000    0.000    0.000    0.000 
#
# Total GULP energy -89086.996667 kJ/mol
# GULP energy per Si atom -5567.937292 kJ/mol
# Density = 2.046066 g / cm^3
# Si number density = 20.507336 Si / 1000 Ang^3
#
#
#
# Elastic Constant Matrix: (Units=GPa)
#
#
# Indices 1 2 3 4 5 6 
#
# 1 37.3503 18.7087 26.6225 0.0000 -22.3828 0.0000
# 2 18.7087 74.1692 40.8040 0.0000 0.1130 0.0000
# 3 26.6225 40.8040 98.1716 0.0000 -19.2319 0.0000
# 4 0.0000 0.0000 0.0000 24.7110 0.0000 8.2305
# 5 -22.3828 0.1130 -19.2319 0.0000 39.1600 0.0000
# 6 0.0000 0.0000 0.0000 8.2305 0.0000 25.9482
#
#
#
# Elastic Compliance Matrix: (Units=1/GPa)
#
#
# Indices 1 2 3 4 5 6 
#
# 1 0.051592 -0.010789 -0.004120 0.000000 0.027496 0.000000
# 2 -0.010789 0.020322 -0.007458 0.000000 -0.009888 0.000000
# 3 -0.004120 -0.007458 0.015431 0.000000 0.005245 0.000000
# 4 0.000000 0.000000 0.000000 0.045248 0.000000 -0.014352
# 5 0.027496 -0.009888 0.005245 0.000000 0.043857 0.000000
# 6 0.000000 0.000000 0.000000 -0.014352 0.000000 0.043091
#
#
# Mechanical properties :
#
#
# Convention : Reuss Voigt Hill
#
# Bulk Modulus (GPa) = 23.46815 42.44017 32.95416
# Shear Modulus (GPa) = 17.95475 26.20090 22.07783
#
# Velocity S-wave (km/s) = 2.96214 3.57828 3.28469
# Velocity P-wave (km/s) = 4.81328 6.14916 5.52177
#
# Compressibility (1/GPa) = 0.04261095
#
# Stress axis : x y z
#
# Youngs Moduli (GPa) = 19.38290 49.20733 64.80530
#
# Poissons Ratio (x) = 0.53090 0.26700
# Poissons Ratio (y) = 0.20912 0.48332
# Poissons Ratio (z) = 0.07986 0.36699
#
# Static dielectric constant tensor:
#      x y z
#    x 1.778060 0.000000 0.062750 
#    y 0.000000 1.797180 0.000000 
#    z 0.062750 0.000000 1.765500 
# 
# From -- ./inp_files/8296.got.cif
#   From: 2010.05.17/outbox.cif.g08.bks.cpg/sg9_5_cif.got.tgz:8296.got - 2010.06.03 20:04:27.
