data_PCOD9133844
_publ_section_title
;
Structure prediction by ZEFSAII (Michael W. Deem and Ramdas Pophale) SiO2 
 PCOD9133844
Probable space group: C C
;
_chemical_formula_sum "Si O2"
_cell_formula_units_Z 32
_cell_length_a 14.603869
_cell_length_b 21.182295
_cell_length_c 8.442706
_cell_angle_alpha 90.000000
_cell_angle_beta 136.992124
_cell_angle_gamma 90.000000
_cell_volume 1781.434865
_symmetry_space_group_name_H-M "C C"
_symmetry_group_IT_number 9
_symmetry_cell_setting 'monoclinic'
loop_
_space_group_symop_operation_xyz
x,y,z
x,-y,1/2+z
1/2+x,1/2+y,z
1/2+x,1/2-y,1/2+z
loop_
_atom_site_type_symbol
_atom_site_label
_atom_site_fract_x
_atom_site_fract_y
_atom_site_fract_z
Si Si1 0.810840 0.922749 0.376050
Si Si2 0.304770 0.698111 0.068587
Si Si3 0.752966 0.049985 0.439347
Si Si4 0.603327 0.449630 0.872030
Si Si5 0.088990 0.203636 0.619127
Si Si6 0.290381 0.835223 0.102955
Si Si7 0.546882 0.424919 0.172610
Si Si8 0.095959 0.658581 0.078406
O O1 0.791319 0.851929 0.411522
O O2 0.968533 0.935645 0.603415
O O3 0.734158 0.975393 0.384904
O O4 0.772576 0.935671 0.147977
O O5 0.454212 0.697202 0.337912
O O6 0.277528 0.770689 0.986157
O O7 0.199772 0.674698 0.068724
O O8 0.642905 0.096530 0.228439
O O9 0.892316 0.066279 0.525700
O O10 0.631879 0.523154 0.875618
O O11 0.713268 0.398747 0.958928
O O12 0.569108 0.439308 0.014091
O O13 0.217798 0.186770 0.674577
O O14 0.080535 0.148587 0.737441
O O15 0.095720 0.276204 0.679716
O O16 0.446102 0.849017 0.324471
#
# Coordination Sequence:
#
# PCOD9133844 Si02
#       8
#     4   4   4   4   4   4   4   4
#     4  11  20  34  57  80 110 141 189 232 261 323
#     4  10  17  35  58  81 105 143 191 222 261 327
#     4  11  21  33  54  85 109 144 186 228 271 315
#     4  10  18  33  54  84 107 140 187 225 271 317
#     4   9  17  33  58  79 107 143 187 218 262 329
#     4   9  19  32  58  82 109 144 178 221 274 331
#     4  10  17  32  54  81 107 139 185 224 261 319
#     4  10  19  34  57  82 108 144 183 222 271 331
#
# _framework density 17.963048000000001
#
# number of rings (size 3 to 8) (size 9 to 14) (size 15 to 20)
#    0.000    2.000    3.750    3.750    0.000    0.000 
#    0.000    7.500    0.000    3.000    0.000    0.000 
#    0.000    0.000    0.000    0.000    0.000    0.000 
#
# Total GULP energy -89130.867688 kJ/mol
# GULP energy per Si atom -5570.679231 kJ/mol
# Density = 1.792216 g / cm^3
# Si number density = 17.963048 Si / 1000 Ang^3
#
#
#
# Elastic Constant Matrix: (Units=GPa)
#
#
# Indices 1 2 3 4 5 6 
#
# 1 51.6316 19.8921 31.6516 0.0000 2.2667 0.0000
# 2 19.8921 152.5085 37.3587 0.0000 -2.9015 0.0000
# 3 31.6516 37.3587 62.6682 0.0000 3.7835 0.0000
# 4 0.0000 0.0000 0.0000 33.7561 0.0000 1.0586
# 5 2.2667 -2.9015 3.7835 0.0000 20.4226 0.0000
# 6 0.0000 0.0000 0.0000 1.0586 0.0000 31.5535
#
#
#
# Elastic Compliance Matrix: (Units=1/GPa)
#
#
# Indices 1 2 3 4 5 6 
#
# 1 0.028067 -0.000243 -0.013997 0.000000 -0.000556 0.000000
# 2 -0.000243 0.007759 -0.004623 0.000000 0.001986 0.000000
# 3 -0.013997 -0.004623 0.026019 0.000000 -0.003924 0.000000
# 4 0.000000 0.000000 0.000000 0.029655 0.000000 -0.000995
# 5 -0.000556 0.001986 -0.003924 0.000000 0.050036 0.000000
# 6 0.000000 0.000000 0.000000 -0.000995 0.000000 0.031726
#
#
# Mechanical properties :
#
#
# Convention : Reuss Voigt Hill
#
# Bulk Modulus (GPa) = 41.46011 49.40144 45.43077
# Shear Modulus (GPa) = 22.82830 29.00686 25.91758
#
# Velocity S-wave (km/s) = 3.56876 4.02283 3.80258
# Velocity P-wave (km/s) = 6.33343 7.00991 6.68024
#
# Compressibility (1/GPa) = 0.02411957
#
# Stress axis : x y z
#
# Youngs Moduli (GPa) = 35.62956 128.88592 38.43319
#
# Poissons Ratio (x) = 0.03127 0.53796
# Poissons Ratio (y) = 0.00864 0.17766
# Poissons Ratio (z) = 0.49872 0.59579
#
# Static dielectric constant tensor:
#      x y z
#    x 1.619520 0.000000 0.004850 
#    y 0.000000 1.707500 0.000000 
#    z 0.004850 0.000000 1.587620 
# 
# From -- ./inp_files/10030.got.cif
#   From: 2010.05.17/outbox.cif.g08.bks.cpg/sg9_6_cif.got.tgz:10030.got - 2010.06.03 20:04:27.
