data_PCOD9133330
_publ_section_title
;
Structure prediction by ZEFSAII (Michael W. Deem and Ramdas Pophale) SiO2 
 PCOD9133330
Probable space group: C M
;
_chemical_formula_sum "Si O2"
_cell_formula_units_Z 16
_cell_length_a 5.361521
_cell_length_b 24.966435
_cell_length_c 7.121528
_cell_angle_alpha 90.000000
_cell_angle_beta 42.577251
_cell_angle_gamma 90.000000
_cell_volume 644.969579
_symmetry_space_group_name_H-M "C M"
_symmetry_group_IT_number 8
_symmetry_cell_setting 'monoclinic'
loop_
_space_group_symop_operation_xyz
x,y,z
x,-y,z
1/2+x,1/2+y,z
1/2+x,1/2-y,z
loop_
_atom_site_type_symbol
_atom_site_label
_atom_site_fract_x
_atom_site_fract_y
_atom_site_fract_z
Si Si1 0.377870 0.162862 0.650820
Si Si2 0.817437 0.000000 0.481538
Si Si3 0.445369 0.500000 0.853773
Si Si4 0.773336 0.236169 0.932023
Si Si5 0.935903 0.090799 0.136117
O O1 0.481909 0.218784 0.690139
O O2 0.647863 0.136532 0.354214
O O3 0.975246 0.179860 0.792618
O O4 0.297075 0.119938 0.858391
O O5 0.872162 0.000000 0.673782
O O6 0.988080 0.051845 0.284193
O O7 0.384851 0.000000 0.660027
O O8 0.299093 0.552212 0.044145
O O9 0.360611 0.243062 0.091972
#
# Coordination Sequence:
#
# PCOD9133330 Si02
#       5
#     4   2   2   4   4
#     4  10  22  45  68 108 140 189 232 288 348 418
#     4  11  26  52  69 109 141 182 236 302 351 429
#     4  11  26  52  69 109 141 182 236 302 351 429
#     4   8  20  44  62 100 142 182 230 284 336 412
#     4  11  24  46  76 106 138 190 236 289 358 424
#
# _framework density 24.807372000000001
#
# number of rings (size 3 to 8) (size 9 to 14) (size 15 to 20)
#    1.500    0.500    2.500    0.000    0.000    8.000 
#    9.000    0.000    0.000    0.000    0.000    0.000 
#    0.000    0.000    0.000    0.000    0.000    0.000 
#
# Total GULP energy -44658.404512 kJ/mol
# GULP energy per Si atom -5582.300564 kJ/mol
# Density = 2.475091 g / cm^3
# Si number density = 24.807372 Si / 1000 Ang^3
#
#
#
# Elastic Constant Matrix: (Units=GPa)
#
#
# Indices 1 2 3 4 5 6 
#
# 1 122.3576 -2.2989 41.6783 0.0000 33.1537 0.0000
# 2 -2.2989 119.7879 56.4857 0.0000 11.4771 0.0000
# 3 41.6783 56.4857 158.4884 0.0000 20.5966 0.0000
# 4 0.0000 0.0000 0.0000 20.4438 0.0000 0.1718
# 5 33.1537 11.4771 20.5966 0.0000 44.0242 0.0000
# 6 0.0000 0.0000 0.0000 0.1718 0.0000 2.3198
#
#
#
# Elastic Compliance Matrix: (Units=1/GPa)
#
#
# Indices 1 2 3 4 5 6 
#
# 1 0.011263 0.002262 -0.002757 0.000000 -0.007782 0.000000
# 2 0.002262 0.010530 -0.004014 0.000000 -0.002571 0.000000
# 3 -0.002757 -0.004014 0.008581 0.000000 -0.000892 0.000000
# 4 0.000000 0.000000 0.000000 0.048945 0.000000 -0.003624
# 5 -0.007782 -0.002571 -0.000892 0.000000 0.029663 0.000000
# 6 0.000000 0.000000 0.000000 -0.003624 0.000000 0.431345
#
#
# Mechanical properties :
#
#
# Convention : Reuss Voigt Hill
#
# Bulk Modulus (GPa) = 46.82376 65.81823 56.32099
# Shear Modulus (GPa) = 8.98533 33.67547 21.33040
#
# Velocity S-wave (km/s) = 1.90523 3.68839 2.93549
# Velocity P-wave (km/s) = 4.87399 6.68792 5.85167
#
# Compressibility (1/GPa) = 0.02135668
#
# Stress axis : x y z
#
# Youngs Moduli (GPa) = 88.78859 94.96255 116.53677
#
# Poissons Ratio (x) = -0.21476 0.32124
# Poissons Ratio (y) = -0.20080 0.46775
# Poissons Ratio (z) = 0.24475 0.38116
#
# Static dielectric constant tensor:
#      x y z
#    x 2.079470 0.000000 0.021030 
#    y 0.000000 1.974920 0.000000 
#    z 0.021030 0.000000 1.933160 
# 
# From -- ./inp_files/436.got.cif
#   From: 2010.05.17/outbox.cif.g08.bks.cpg/sg8_1_cif.got.tgz:436.got - 2010.06.03 19:46:02.
