data_PCOD9133424
_publ_section_title
;
Structure prediction by ZEFSAII (Michael W. Deem and Ramdas Pophale) SiO2 
 PCOD9133424
Probable space group: C M
;
_chemical_formula_sum "Si O2"
_cell_formula_units_Z 18
_cell_length_a 14.334223
_cell_length_b 7.585888
_cell_length_c 18.844271
_cell_angle_alpha 90.000000
_cell_angle_beta 19.368672
_cell_angle_gamma 90.000000
_cell_volume 679.569434
_symmetry_space_group_name_H-M "C M"
_symmetry_group_IT_number 8
_symmetry_cell_setting 'monoclinic'
loop_
_space_group_symop_operation_xyz
x,y,z
x,-y,z
1/2+x,1/2+y,z
1/2+x,1/2-y,z
loop_
_atom_site_type_symbol
_atom_site_label
_atom_site_fract_x
_atom_site_fract_y
_atom_site_fract_z
Si Si1 0.133640 0.791221 0.581270
Si Si2 0.025450 0.303847 0.886810
Si Si3 0.634152 0.195539 0.051691
Si Si4 0.178911 0.707473 0.274199
Si Si5 0.944148 0.500000 0.603102
O O1 0.386008 0.729991 0.452038
O O2 0.852060 0.784758 0.830449
O O3 0.092506 0.656751 0.546400
O O4 0.184987 0.000000 0.526608
O O5 0.146385 0.500000 0.806729
O O6 0.762793 0.310907 0.021483
O O7 0.248197 0.155864 0.705590
O O8 0.897533 0.241161 0.053373
O O9 0.650495 0.000000 0.069257
O O10 0.329432 0.221367 0.236257
O O11 0.157872 0.500000 0.304151
#
# Coordination Sequence:
#
# PCOD9133424 Si02
#       5
#     4   4   4   4   2
#     4  10  24  42  70  96 127 168 216 263 325 379
#     4  12  24  41  68  95 129 173 216 261 321 377
#     4  11  22  43  65  95 132 169 211 266 320 379
#     4  11  22  44  67  97 131 168 212 266 321 383
#     4  12  22  44  66  94 126 180 204 276 306 398
#
# _framework density 26.487358
#
# number of rings (size 3 to 8) (size 9 to 14) (size 15 to 20)
#    0.000    0.889    4.444    2.000    4.667    0.000 
#    4.000    0.000    0.000    0.000    0.000    0.000 
#    0.000    0.000    0.000    0.000    0.000    0.000 
#
# Total GULP energy -50193.445856 kJ/mol
# GULP energy per Si atom -5577.049540 kJ/mol
# Density = 2.642707 g / cm^3
# Si number density = 26.487358 Si / 1000 Ang^3
#
#
#
# Elastic Constant Matrix: (Units=GPa)
#
#
# Indices 1 2 3 4 5 6 
#
# 1 -62.4932 -156.6783 91.9763 -0.0107 -74.8315 0.0045
# 2 -156.6783 8.5873 75.7614 -0.0043 -51.1759 0.0047
# 3 91.9763 75.7614 92.9653 -0.0734 -8.3591 0.0220
# 4 -0.0107 -0.0043 -0.0734 13.0087 0.0093 -35.5320
# 5 -74.8315 -51.1759 -8.3591 0.0093 57.2226 -0.0080
# 6 0.0045 0.0047 0.0220 -35.5320 -0.0080 26.4485
#
#
#
# Elastic Compliance Matrix: (Units=1/GPa)
#
#
# Indices 1 2 3 4 5 6 
#
# 1 0.001462 -0.004716 0.002219 -0.000003 -0.001982 -0.000006
# 2 -0.004716 0.003853 0.001299 -0.000001 -0.002532 -0.000003
# 3 0.002219 0.001299 0.007973 -0.000010 0.005228 -0.000020
# 4 -0.000003 -0.000001 -0.000010 -0.028797 -0.000007 -0.038686
# 5 -0.001982 -0.002532 0.005228 -0.000007 0.013383 -0.000009
# 6 -0.000006 -0.000003 -0.000020 -0.038686 -0.000009 -0.014164
#
#
# Mechanical properties :
#
#
# Convention : Reuss Voigt Hill
#
# Bulk Modulus (GPa) = 91.82422 6.79757 49.31090
# Shear Modulus (GPa) = -487.24150 21.20264 -233.01943
#
# Velocity S-wave (km/s) = -13.57762 2.83235 -9.38961
# Velocity P-wave (km/s) = 14.52790 3.64255 9.94464
#
# Compressibility (1/GPa) = 0.01089037
#
# Stress axis : x y z
#
# Youngs Moduli (GPa) = 684.04810 259.54550 125.42117
#
# Poissons Ratio (x) = 1.22410 -0.27831
# Poissons Ratio (y) = 3.22619 -0.16287
# Poissons Ratio (z) = -1.51789 -0.33704
#
# Static dielectric constant tensor:
#      x y z
#    x 2.133800 0.000010 0.070350 
#    y 0.000010 2.025930 0.000010 
#    z 0.070350 0.000010 2.154180 
# 
# From -- ./inp_files/22658.got.cif
#   From: 2010.05.17/outbox.cif.g08.bks.cpg/sg8_12_cif.got.tgz:22658.got - 2010.06.03 19:46:02.
