data_PCOD9133927
_publ_section_title
;
Structure prediction by ZEFSAII (Michael W. Deem and Ramdas Pophale) SiO2 
 PCOD9133927
Probable space group: C C
;
_chemical_formula_sum "Si O2"
_cell_formula_units_Z 32
_cell_length_a 8.903016
_cell_length_b 30.313547
_cell_length_c 5.489669
_cell_angle_alpha 90.000000
_cell_angle_beta 79.216293
_cell_angle_gamma 90.000000
_cell_volume 1455.399151
_symmetry_space_group_name_H-M "C C"
_symmetry_group_IT_number 9
_symmetry_cell_setting 'monoclinic'
loop_
_space_group_symop_operation_xyz
x,y,z
x,-y,1/2+z
1/2+x,1/2+y,z
1/2+x,1/2-y,1/2+z
loop_
_atom_site_type_symbol
_atom_site_label
_atom_site_fract_x
_atom_site_fract_y
_atom_site_fract_z
Si Si1 0.026960 0.977977 0.718750
Si Si2 0.968531 0.108999 0.997925
Si Si3 0.754825 0.392859 0.116866
Si Si4 0.826836 0.268796 0.827747
Si Si5 0.788322 0.831967 0.252329
Si Si6 0.577009 0.330784 0.827419
Si Si7 0.437280 0.184548 0.789230
Si Si8 0.877162 0.488025 0.066838
O O1 0.972234 0.927552 0.705203
O O2 0.971962 0.002527 0.490734
O O3 0.213090 0.985531 0.649491
O O4 0.047063 0.154540 0.063674
O O5 0.092820 0.090363 0.772001
O O6 0.814829 0.126684 0.924757
O O7 0.704289 0.363255 0.904218
O O8 0.847319 0.436510 0.033318
O O9 0.844321 0.361042 0.275031
O O10 0.832074 0.216332 0.839968
O O11 0.897947 0.290864 0.558174
O O12 0.648884 0.283431 0.854587
O O13 0.893652 0.287036 0.061846
O O14 0.614948 0.827681 0.224681
O O15 0.914821 0.837919 0.004539
O O16 0.955924 0.493334 0.303384
#
# Coordination Sequence:
#
# PCOD9133927 Si02
#       8
#     4   4   4   4   4   4   4   4
#     4  10  19  32  56  90 121 153 202 265 305 360
#     4  11  21  37  62  93 126 163 211 264 318 369
#     4  10  20  37  61  92 125 161 213 260 319 368
#     4  11  25  44  66  88 124 171 224 261 311 374
#     4  11  27  39  63  93 131 170 209 265 323 383
#     4  10  22  40  63  92 124 167 213 273 306 377
#     4  11  26  44  65  93 129 171 209 268 322 381
#     4  10  18  29  56  91 118 154 201 266 300 360
#
# _framework density 21.987096999999999
#
# number of rings (size 3 to 8) (size 9 to 14) (size 15 to 20)
#    0.000    1.500    3.750    2.250    7.000    0.000 
#    0.000    0.000    0.000    1.500    0.000    0.000 
#    0.000    0.000    0.000    0.000    0.000    0.000 
#
# Total GULP energy -89243.208968 kJ/mol
# GULP energy per Si atom -5577.700561 kJ/mol
# Density = 2.193705 g / cm^3
# Si number density = 21.987097 Si / 1000 Ang^3
#
#
#
# Elastic Constant Matrix: (Units=GPa)
#
#
# Indices 1 2 3 4 5 6 
#
# 1 84.9431 19.4612 25.6466 0.0000 3.7294 0.0000
# 2 19.4612 99.5988 20.5164 0.0000 2.4963 0.0000
# 3 25.6466 20.5164 110.3796 0.0000 7.5370 0.0000
# 4 0.0000 0.0000 0.0000 29.5522 0.0000 8.2168
# 5 3.7294 2.4963 7.5370 0.0000 10.0051 0.0000
# 6 0.0000 0.0000 0.0000 8.2168 0.0000 18.1629
#
#
#
# Elastic Compliance Matrix: (Units=1/GPa)
#
#
# Indices 1 2 3 4 5 6 
#
# 1 0.013092 -0.001980 -0.002503 0.000000 -0.002500 0.000000
# 2 -0.001980 0.010753 -0.001482 0.000000 -0.000828 0.000000
# 3 -0.002503 -0.001482 0.010361 0.000000 -0.006502 0.000000
# 4 0.000000 0.000000 0.000000 0.038707 0.000000 -0.017511
# 5 -0.002500 -0.000828 -0.006502 0.000000 0.105986 0.000000
# 6 0.000000 0.000000 0.000000 -0.017511 0.000000 0.062979
#
#
# Mechanical properties :
#
#
# Convention : Reuss Voigt Hill
#
# Bulk Modulus (GPa) = 44.89235 47.35220 46.12228
# Shear Modulus (GPa) = 19.13998 26.83051 22.98524
#
# Velocity S-wave (km/s) = 2.95364 3.49705 3.23677
# Velocity P-wave (km/s) = 5.66515 6.15540 5.91535
#
# Compressibility (1/GPa) = 0.02227551
#
# Stress axis : x y z
#
# Youngs Moduli (GPa) = 76.38419 92.99561 96.51841
#
# Poissons Ratio (x) = 0.18411 0.24160
# Poissons Ratio (y) = 0.15122 0.14305
# Poissons Ratio (z) = 0.19120 0.13783
#
# Static dielectric constant tensor:
#      x y z
#    x 1.790550 0.000000 -0.007510 
#    y 0.000000 1.855100 0.000000 
#    z -0.007510 0.000000 1.886170 
# 
# From -- ./inp_files/1252.got.cif
#   From: 2010.05.17/outbox.cif.g08.bks.cpg/sg9_1_cif.got.tgz:1252.got - 2010.06.03 20:04:27.
