data_PCOD9133992
_publ_section_title
;
Structure prediction by ZEFSAII (Michael W. Deem and Ramdas Pophale) SiO2 
 PCOD9133992
Probable space group: C C
;
_chemical_formula_sum "Si O2"
_cell_formula_units_Z 32
_cell_length_a 10.510583
_cell_length_b 10.419748
_cell_length_c 12.494220
_cell_angle_alpha 90.000000
_cell_angle_beta 68.029427
_cell_angle_gamma 90.000000
_cell_volume 1268.963364
_symmetry_space_group_name_H-M "C C"
_symmetry_group_IT_number 9
_symmetry_cell_setting 'monoclinic'
loop_
_space_group_symop_operation_xyz
x,y,z
x,-y,1/2+z
1/2+x,1/2+y,z
1/2+x,1/2-y,1/2+z
loop_
_atom_site_type_symbol
_atom_site_label
_atom_site_fract_x
_atom_site_fract_y
_atom_site_fract_z
Si Si1 0.154730 0.679040 0.848000
Si Si2 0.908751 0.345638 0.601738
Si Si3 0.103334 0.960050 0.878548
Si Si4 0.305104 0.617274 0.519691
Si Si5 0.760824 0.562763 0.527461
Si Si6 0.525885 0.053542 0.285598
Si Si7 0.315330 0.340734 0.501314
Si Si8 0.631172 0.268884 0.396415
O O1 0.031882 0.663819 0.975223
O O2 0.168954 0.828676 0.816066
O O3 0.095500 0.586211 0.775568
O O4 0.285705 0.649843 0.882203
O O5 0.975322 0.393139 0.689357
O O6 0.844218 0.204064 0.609052
O O7 0.802398 0.454129 0.596203
O O8 0.127091 0.964730 0.999754
O O9 0.943218 0.928118 0.912429
O O10 0.172234 0.096024 0.827621
O O11 0.256577 0.473968 0.564297
O O12 0.214650 0.708808 0.470345
O O13 0.747344 0.710150 0.565114
O O14 0.887507 0.555735 0.402809
O O15 0.623750 0.153789 0.315312
O O16 0.474896 0.310791 0.474984
#
# Coordination Sequence:
#
# PCOD9133992 Si02
#       8
#     4   4   4   4   4   4   4   4
#     4   9  18  36  57  80 113 149 198 250 297 351
#     4  10  20  35  58  82 112 160 204 241 304 363
#     4   9  18  33  59  80 109 148 194 239 297 359
#     4  10  18  33  59  84 110 152 191 242 306 354
#     4   9  18  36  57  80 113 149 198 250 297 351
#     4  10  20  35  58  82 112 160 204 241 304 363
#     4   9  18  33  59  80 109 148 194 239 297 359
#     4  10  18  33  59  84 110 152 191 242 306 354
#
# _framework density 25.217435999999999
#
# number of rings (size 3 to 8) (size 9 to 14) (size 15 to 20)
#    0.000    2.500    2.500    0.000    0.000    0.000 
#    0.000    8.750    0.000    0.000    0.000    0.000 
#    0.000    0.000    0.000    0.000    0.000    0.000 
#
# Total GULP energy -89294.347741 kJ/mol
# GULP energy per Si atom -5580.896734 kJ/mol
# Density = 2.516004 g / cm^3
# Si number density = 25.217436 Si / 1000 Ang^3
#
#
#
# Elastic Constant Matrix: (Units=GPa)
#
#
# Indices 1 2 3 4 5 6 
#
# 1 95.4574 54.7121 26.9561 0.0000 31.5678 0.0000
# 2 54.7121 213.8658 51.8933 0.0000 37.0890 0.0000
# 3 26.9561 51.8933 88.0926 0.0000 19.8217 0.0000
# 4 0.0000 0.0000 0.0000 43.8451 0.0000 13.9654
# 5 31.5678 37.0890 19.8217 0.0000 38.4573 0.0000
# 6 0.0000 0.0000 0.0000 13.9654 0.0000 57.6828
#
#
#
# Elastic Compliance Matrix: (Units=1/GPa)
#
#
# Indices 1 2 3 4 5 6 
#
# 1 0.015221 -0.001831 -0.001318 0.000000 -0.010049 0.000000
# 2 -0.001831 0.006307 -0.002403 0.000000 -0.003340 0.000000
# 3 -0.001318 -0.002403 0.014033 0.000000 -0.003834 0.000000
# 4 0.000000 0.000000 0.000000 0.024713 0.000000 -0.005983
# 5 -0.010049 -0.003340 -0.003834 0.000000 0.039449 0.000000
# 6 0.000000 0.000000 0.000000 -0.005983 0.000000 0.018785
#
#
# Mechanical properties :
#
#
# Convention : Reuss Voigt Hill
#
# Bulk Modulus (GPa) = 40.88939 73.83764 57.36351
# Shear Modulus (GPa) = 36.29394 45.58733 40.94063
#
# Velocity S-wave (km/s) = 3.79785 4.25640 4.03365
# Velocity P-wave (km/s) = 5.95663 7.31436 6.67013
#
# Compressibility (1/GPa) = 0.02445622
#
# Stress axis : x y z
#
# Youngs Moduli (GPa) = 65.69981 158.55981 71.25993
#
# Poissons Ratio (x) = 0.29040 0.09389
# Poissons Ratio (y) = 0.12033 0.17125
# Poissons Ratio (z) = 0.08657 0.38104
#
# Static dielectric constant tensor:
#      x y z
#    x 2.165940 0.000000 -0.096870 
#    y 0.000000 2.109790 0.000000 
#    z -0.096870 0.000000 2.009620 
# 
# From -- ./inp_files/24654.got.cif
#   From: 2010.05.17/outbox.cif.g08.bks.cpg/sg9_13_cif.got.tgz:24654.got - 2010.06.03 20:04:27.
