data_PCOD9133950
_publ_section_title
;
Structure prediction by ZEFSAII (Michael W. Deem and Ramdas Pophale) SiO2 
 PCOD9133950
Probable space group: C C
;
_chemical_formula_sum "Si O2"
_cell_formula_units_Z 32
_cell_length_a 7.377041
_cell_length_b 30.063616
_cell_length_c 9.650456
_cell_angle_alpha 90.000000
_cell_angle_beta 143.280286
_cell_angle_gamma 90.000000
_cell_volume 1279.677442
_symmetry_space_group_name_H-M "C C"
_symmetry_group_IT_number 9
_symmetry_cell_setting 'monoclinic'
loop_
_space_group_symop_operation_xyz
x,y,z
x,-y,1/2+z
1/2+x,1/2+y,z
1/2+x,1/2-y,1/2+z
loop_
_atom_site_type_symbol
_atom_site_label
_atom_site_fract_x
_atom_site_fract_y
_atom_site_fract_z
Si Si1 0.170160 0.355471 0.245680
Si Si2 0.233627 0.916638 0.602211
Si Si3 0.014643 0.740025 0.745546
Si Si4 0.332413 0.057404 0.566430
Si Si5 0.707743 0.573670 0.777567
Si Si6 0.374674 0.490525 0.264772
Si Si7 0.735001 0.141704 0.477266
Si Si8 0.936993 0.729554 0.249927
O O1 0.458908 0.383788 0.471218
O O2 0.085781 0.312230 0.277301
O O3 0.906801 0.392109 0.074395
O O4 0.266653 0.339324 0.151622
O O5 0.336785 0.911374 0.504453
O O6 0.515791 0.900817 0.859423
O O7 0.090592 0.965337 0.511655
O O8 0.204489 0.766551 0.740296
O O9 0.664793 0.745408 0.483100
O O10 0.405991 0.055020 0.775482
O O11 0.541744 0.023022 0.608922
O O12 0.989975 0.040627 0.335763
O O13 0.472614 0.535494 0.685629
O O14 0.540646 0.618023 0.617534
O O15 0.557213 0.180024 0.289590
O O16 0.238017 0.753600 0.497603
#
# Coordination Sequence:
#
# PCOD9133950 Si02
#       8
#     4   4   4   4   4   4   4   4
#     4  10  20  35  59  96 124 169 223 272 336 401
#     4   8  19  37  56  88 122 163 211 273 330 391
#     4  10  18  31  58  94 132 173 228 281 337 415
#     4  11  22  43  66  93 132 174 224 279 341 411
#     4   9  23  40  61  93 127 164 221 280 332 409
#     4   9  23  40  64  91 128 172 224 271 342 410
#     4  11  18  35  63  87 133 167 220 280 333 406
#     4  10  19  29  57  98 130 178 229 280 339 417
#
# _framework density 25.0063
#
# number of rings (size 3 to 8) (size 9 to 14) (size 15 to 20)
#    0.750    1.500    3.750    1.500    3.500    2.000 
#    0.000    3.750    0.000    1.500    0.000    0.000 
#    0.000    0.000    0.000    0.000    0.000    0.000 
#
# Total GULP energy -89187.449069 kJ/mol
# GULP energy per Si atom -5574.215567 kJ/mol
# Density = 2.494938 g / cm^3
# Si number density = 25.006300 Si / 1000 Ang^3
#
#
#
# Elastic Constant Matrix: (Units=GPa)
#
#
# Indices 1 2 3 4 5 6 
#
# 1 102.4625 9.4240 13.5206 0.0000 -5.2427 0.0000
# 2 9.4240 107.1495 38.7962 0.0000 15.5241 0.0000
# 3 13.5206 38.7962 103.1877 0.0000 -7.3354 0.0000
# 4 0.0000 0.0000 0.0000 47.6914 0.0000 7.2363
# 5 -5.2427 15.5241 -7.3354 0.0000 12.5434 0.0000
# 6 0.0000 0.0000 0.0000 7.2363 0.0000 10.1753
#
#
#
# Elastic Compliance Matrix: (Units=1/GPa)
#
#
# Indices 1 2 3 4 5 6 
#
# 1 0.010272 -0.001721 -0.000253 0.000000 0.006276 0.000000
# 2 -0.001721 0.015730 -0.007433 0.000000 -0.024534 0.000000
# 3 -0.000253 -0.007433 0.013736 0.000000 0.017126 0.000000
# 4 0.000000 0.000000 0.000000 0.023504 0.000000 -0.016716
# 5 0.006276 -0.024534 0.017126 0.000000 0.122725 0.000000
# 6 0.000000 0.000000 0.000000 -0.016716 0.000000 0.110165
#
#
# Mechanical properties :
#
#
# Convention : Reuss Voigt Hill
#
# Bulk Modulus (GPa) = 47.78899 48.47572 48.13235
# Shear Modulus (GPa) = 15.53175 30.81926 23.17550
#
# Velocity S-wave (km/s) = 2.49492 3.51445 3.04762
# Velocity P-wave (km/s) = 5.23944 5.99132 5.62795
#
# Compressibility (1/GPa) = 0.02092532
#
# Stress axis : x y z
#
# Youngs Moduli (GPa) = 97.34764 63.57372 72.80090
#
# Poissons Ratio (x) = 0.10943 0.01839
# Poissons Ratio (y) = 0.16756 0.54110
# Poissons Ratio (z) = 0.02460 0.47251
#
# Static dielectric constant tensor:
#      x y z
#    x 2.008990 0.000000 -0.006190 
#    y 0.000000 2.002870 0.000000 
#    z -0.006190 0.000000 2.021050 
# 
# From -- ./inp_files/15739.got.cif
#   From: 2010.05.17/outbox.cif.g08.bks.cpg/sg9_8_cif.got.tgz:15739.got - 2010.06.03 20:04:27.
