data_PCOD9133636
_publ_section_title
;
Structure prediction by ZEFSAII (Michael W. Deem and Ramdas Pophale) SiO2 
 PCOD9133636
Probable space group: C M
;
_chemical_formula_sum "Si O2"
_cell_formula_units_Z 18
_cell_length_a 5.123162
_cell_length_b 29.737014
_cell_length_c 4.939074
_cell_angle_alpha 90.000000
_cell_angle_beta 91.522359
_cell_angle_gamma 90.000000
_cell_volume 752.190183
_symmetry_space_group_name_H-M "C M"
_symmetry_group_IT_number 8
_symmetry_cell_setting 'monoclinic'
loop_
_space_group_symop_operation_xyz
x,y,z
x,-y,z
1/2+x,1/2+y,z
1/2+x,1/2-y,z
loop_
_atom_site_type_symbol
_atom_site_label
_atom_site_fract_x
_atom_site_fract_y
_atom_site_fract_z
Si Si1 0.071200 0.414286 0.418550
Si Si2 0.273693 0.159261 0.675190
Si Si3 0.050000 0.914495 0.036925
Si Si4 0.804494 0.000000 0.731326
Si Si5 0.803544 0.721036 0.182774
O O1 0.313816 0.404616 0.232378
O O2 0.131039 0.460227 0.576551
O O3 0.018181 0.373192 0.619979
O O4 0.813535 0.419144 0.222798
O O5 0.220986 0.181609 0.385118
O O6 0.300656 0.200318 0.883059
O O7 0.083593 0.124398 0.817006
O O8 0.980119 0.960652 0.885530
O O9 0.595218 0.760423 0.227670
#
# Coordination Sequence:
#
# PCOD9133636 Si02
#       5
#     4   4   4   2   4
#     4  12  28  50  79 117 167 217 274 329 395 484
#     4  12  28  55  83 118 164 208 269 325 420 468
#     4  12  28  50  79 117 167 217 274 329 395 484
#     4  12  28  46  82 118 168 216 280 320 404 454
#     4  12  30  52  86 117 158 203 266 338 408 490
#
# _framework density 23.930119999999999
#
# number of rings (size 3 to 8) (size 9 to 14) (size 15 to 20)
#    0.000    0.000    2.222    5.333    3.111    9.778 
#    0.000    0.000    0.000    0.000    0.000    0.000 
#    0.000    0.000    0.000    0.000    0.000    0.000 
#
# Total GULP energy -50170.037903 kJ/mol
# GULP energy per Si atom -5574.448656 kJ/mol
# Density = 2.387565 g / cm^3
# Si number density = 23.930120 Si / 1000 Ang^3
#
#
#
# Elastic Constant Matrix: (Units=GPa)
#
#
# Indices 1 2 3 4 5 6 
#
# 1 163.4986 21.1392 57.4245 0.0000 3.4553 0.0000
# 2 21.1392 97.7123 16.3297 0.0000 -8.6981 0.0000
# 3 57.4245 16.3297 100.8118 0.0000 10.8942 0.0000
# 4 0.0000 0.0000 0.0000 82.5576 0.0000 98.9084
# 5 3.4553 -8.6981 10.8942 0.0000 46.4252 0.0000
# 6 0.0000 0.0000 0.0000 98.9084 0.0000 66.5437
#
#
#
# Elastic Compliance Matrix: (Units=1/GPa)
#
#
# Indices 1 2 3 4 5 6 
#
# 1 0.007736 -0.000935 -0.004282 0.000000 0.000254 0.000000
# 2 -0.000935 0.010907 -0.001500 0.000000 0.002465 0.000000
# 3 -0.004282 -0.001500 0.012926 0.000000 -0.002995 0.000000
# 4 0.000000 0.000000 0.000000 -0.015514 0.000000 0.023060
# 5 0.000254 0.002465 -0.002995 0.000000 0.022686 0.000000
# 6 0.000000 0.000000 0.000000 0.023060 0.000000 -0.019248
#
#
# Mechanical properties :
#
#
# Convention : Reuss Voigt Hill
#
# Bulk Modulus (GPa) = 55.15114 61.31213 58.23164
# Shear Modulus (GPa) = 128.29704 56.91392 92.60548
#
# Velocity S-wave (km/s) = 7.33005 4.88211 6.22754
# Velocity P-wave (km/s) = 9.73325 7.58004 8.72334
#
# Compressibility (1/GPa) = 0.01813199
#
# Stress axis : x y z
#
# Youngs Moduli (GPa) = 129.26691 91.68727 77.36586
#
# Poissons Ratio (x) = 0.08576 0.33132
# Poissons Ratio (y) = 0.12090 0.11607
# Poissons Ratio (z) = 0.55358 0.13756
#
# Static dielectric constant tensor:
#      x y z
#    x 1.901290 0.000000 0.015910 
#    y 0.000000 1.879920 0.000000 
#    z 0.015910 0.000000 1.948080 
# 
# From -- ./inp_files/476.got.cif
#   From: 2010.05.17/outbox.cif.g08.bks.cpg/sg8_1_cif.got.tgz:476.got - 2010.06.03 19:46:02.
