data_PCOD9133120
_publ_section_title
;
Structure prediction by ZEFSAII (Michael W. Deem and Ramdas Pophale) SiO2 
 PCOD9133120
Probable space group: C M
;
_chemical_formula_sum "Si O2"
_cell_formula_units_Z 24
_cell_length_a 9.164300
_cell_length_b 18.745970
_cell_length_c 7.149376
_cell_angle_alpha 90.000000
_cell_angle_beta 49.254025
_cell_angle_gamma 90.000000
_cell_volume 930.511045
_symmetry_space_group_name_H-M "C M"
_symmetry_group_IT_number 8
_symmetry_cell_setting 'monoclinic'
loop_
_space_group_symop_operation_xyz
x,y,z
x,-y,z
1/2+x,1/2+y,z
1/2+x,1/2-y,z
loop_
_atom_site_type_symbol
_atom_site_label
_atom_site_fract_x
_atom_site_fract_y
_atom_site_fract_z
Si Si1 0.375000 0.161244 0.394910
Si Si2 0.201587 0.243419 0.211390
Si Si3 0.424196 0.656859 0.850760
Si Si4 0.390299 0.500000 0.864180
Si Si5 0.482981 0.618570 0.215889
Si Si6 0.330782 0.000000 0.359615
Si Si7 0.792248 0.500000 0.942009
Si Si8 0.713481 0.000000 0.434157
O O1 0.360143 0.207850 0.216192
O O2 0.534908 0.197238 0.392190
O O3 0.150585 0.165717 0.637376
O O4 0.420217 0.077088 0.333404
O O5 0.063919 0.175306 0.289107
O O6 0.298393 0.272130 0.936001
O O7 0.348500 0.581551 0.832956
O O8 0.401143 0.651799 0.095846
O O9 0.621964 0.500000 0.635846
O O10 0.296223 0.500000 0.151463
O O11 0.317014 0.568530 0.435690
O O12 0.661656 0.568380 0.008335
O O13 0.316839 0.000000 0.145855
O O14 0.989532 0.500000 0.663703
#
# Coordination Sequence:
#
# PCOD9133120 Si02
#       8
#     4   4   4   2   4   2   2   2
#     4  11  26  44  72  98 144 187 242 293 362 429
#     4  12  24  43  66 102 139 184 229 298 362 425
#     4  10  23  43  68  98 135 189 231 292 354 432
#     4   8  19  43  67  91 141 180 231 284 357 415
#     4  10  22  42  64  98 143 177 236 294 357 419
#     4  10  21  47  68 103 139 189 235 303 351 419
#     4  11  21  40  75 101 140 188 246 296 357 430
#     4   9  21  40  66 101 130 189 240 291 349 438
#
# _framework density 25.792279000000001
#
# number of rings (size 3 to 8) (size 9 to 14) (size 15 to 20)
#    0.000    1.667    3.333    0.500    2.333    4.667 
#    3.000    0.000    0.000    0.000    0.000    0.000 
#    0.000    0.000    0.000    0.000    0.000    0.000 
#
# Total GULP energy -66953.833386 kJ/mol
# GULP energy per Si atom -5579.486116 kJ/mol
# Density = 2.573357 g / cm^3
# Si number density = 25.792279 Si / 1000 Ang^3
#
#
#
# Elastic Constant Matrix: (Units=GPa)
#
#
# Indices 1 2 3 4 5 6 
#
# 1 86.1444 19.9702 51.0012 0.0000 -17.5054 0.0000
# 2 19.9702 152.2414 40.6153 0.0000 -19.2241 0.0000
# 3 51.0012 40.6153 127.6620 0.0000 -36.0603 0.0000
# 4 0.0000 0.0000 0.0000 14.0511 0.0000 0.7160
# 5 -17.5054 -19.2241 -36.0603 0.0000 56.6217 0.0000
# 6 0.0000 0.0000 0.0000 0.7160 0.0000 7.4552
#
#
#
# Elastic Compliance Matrix: (Units=1/GPa)
#
#
# Indices 1 2 3 4 5 6 
#
# 1 0.015270 -0.000357 -0.005716 0.000000 0.000960 0.000000
# 2 -0.000357 0.007253 -0.001830 0.000000 0.001187 0.000000
# 3 -0.005716 -0.001830 0.012223 0.000000 0.005396 0.000000
# 4 0.000000 0.000000 0.000000 0.071519 0.000000 -0.006869
# 5 0.000960 0.001187 0.005396 0.000000 0.021797 0.000000
# 6 0.000000 0.000000 0.000000 -0.006869 0.000000 0.134795
#
#
# Mechanical properties :
#
#
# Convention : Reuss Voigt Hill
#
# Bulk Modulus (GPa) = 52.79436 65.46901 59.13169
# Shear Modulus (GPa) = 17.54532 32.58966 25.06749
#
# Velocity S-wave (km/s) = 2.61100 3.55849 3.12091
# Velocity P-wave (km/s) = 5.44089 6.50554 5.99689
#
# Compressibility (1/GPa) = 0.01894142
#
# Stress axis : x y z
#
# Youngs Moduli (GPa) = 65.48703 137.86695 81.81303
#
# Poissons Ratio (x) = 0.04922 0.46763
# Poissons Ratio (y) = 0.02338 0.14970
# Poissons Ratio (z) = 0.37431 0.25226
#
# Static dielectric constant tensor:
#      x y z
#    x 2.076720 0.000000 0.026560 
#    y 0.000000 2.236080 0.000000 
#    z 0.026560 0.000000 2.020510 
# 
# From -- ./inp_files/11307.got.cif
#   From: 2010.05.17/outbox.cif.g08.bks.cpg/sg8_6_cif.got.tgz:11307.got - 2010.06.03 19:46:02.
