data_PCOD9133960
_publ_section_title
;
Structure prediction by ZEFSAII (Michael W. Deem and Ramdas Pophale) SiO2 
 PCOD9133960
Probable space group: C C
;
_chemical_formula_sum "Si O2"
_cell_formula_units_Z 28
_cell_length_a 6.956613
_cell_length_b 12.149930
_cell_length_c 13.664177
_cell_angle_alpha 90.000000
_cell_angle_beta 120.476534
_cell_angle_gamma 90.000000
_cell_volume 995.360063
_symmetry_space_group_name_H-M "C C"
_symmetry_group_IT_number 9
_symmetry_cell_setting 'monoclinic'
loop_
_space_group_symop_operation_xyz
x,y,z
x,-y,1/2+z
1/2+x,1/2+y,z
1/2+x,1/2-y,1/2+z
loop_
_atom_site_type_symbol
_atom_site_label
_atom_site_fract_x
_atom_site_fract_y
_atom_site_fract_z
Si Si1 0.005680 0.721100 0.211950
Si Si2 0.257552 0.329361 0.587086
Si Si3 0.026663 0.370509 0.341054
Si Si4 0.327049 0.989496 0.118876
Si Si5 0.761168 0.657774 0.433911
Si Si6 0.322526 0.442651 0.162199
Si Si7 0.177650 0.588551 0.416882
O O1 0.138582 0.727067 0.145823
O O2 0.832184 0.619646 0.146172
O O3 0.188571 0.676414 0.335847
O O4 0.925794 0.835765 0.237815
O O5 0.044675 0.370531 0.464530
O O6 0.371832 0.244816 0.541337
O O7 0.400263 0.432219 0.663737
O O8 0.833413 0.423231 0.224252
O O9 0.103293 0.246693 0.337778
O O10 0.208462 0.469022 0.376932
O O11 0.182545 0.936555 0.991875
O O12 0.576457 0.964787 0.140771
O O13 0.927871 0.606200 0.398495
O O14 0.317354 0.398763 0.049426
#
# Coordination Sequence:
#
# PCOD9133960 Si02
#       7
#     4   4   4   4   4   4   4
#     4  10  18  32  54  78 105 135 174 214 251 310
#     4   8  18  33  49  74 106 132 171 210 256 300
#     4   8  16  31  52  77 101 137 171 205 256 304
#     4   9  17  31  55  78 101 139 173 206 259 300
#     4   9  17  32  55  76 103 134 175 213 249 312
#     4   9  17  32  53  76 103 138 169 211 255 303
#     4   9  17  31  54  79  99 139 177 203 260 305
#
# _framework density 28.130521999999999
#
# number of rings (size 3 to 8) (size 9 to 14) (size 15 to 20)
#    0.857    2.286    0.000    1.714    0.000    0.000 
#    2.571    2.857    3.143    0.000    0.000    0.000 
#    0.000    0.000    0.000    0.000    0.000    0.000 
#
# Total GULP energy -77945.682762 kJ/mol
# GULP energy per Si atom -5567.548769 kJ/mol
# Density = 2.806650 g / cm^3
# Si number density = 28.130522 Si / 1000 Ang^3
#
#
#
# Elastic Constant Matrix: (Units=GPa)
#
#
# Indices 1 2 3 4 5 6 
#
# 1 76.8181 58.3456 23.8149 0.0000 -9.2361 0.0000
# 2 58.3456 210.8211 31.1218 0.0000 9.8790 0.0000
# 3 23.8149 31.1218 83.6268 0.0000 -24.4933 0.0000
# 4 0.0000 0.0000 0.0000 42.5769 0.0000 17.3254
# 5 -9.2361 9.8790 -24.4933 0.0000 32.7989 0.0000
# 6 0.0000 0.0000 0.0000 17.3254 0.0000 35.9742
#
#
#
# Elastic Compliance Matrix: (Units=1/GPa)
#
#
# Indices 1 2 3 4 5 6 
#
# 1 0.017953 -0.004960 -0.001726 0.000000 0.005261 0.000000
# 2 -0.004960 0.006771 -0.002706 0.000000 -0.005457 0.000000
# 3 -0.001726 -0.002706 0.017347 0.000000 0.013283 0.000000
# 4 0.000000 0.000000 0.000000 0.029212 0.000000 -0.014069
# 5 0.005261 -0.005457 0.013283 0.000000 0.043533 0.000000
# 6 0.000000 0.000000 0.000000 -0.014069 0.000000 0.034573
#
#
# Mechanical properties :
#
#
# Convention : Reuss Voigt Hill
#
# Bulk Modulus (GPa) = 42.94149 66.42564 54.68356
# Shear Modulus (GPa) = 28.41969 39.46890 33.94429
#
# Velocity S-wave (km/s) = 3.18194 3.74981 3.47749
# Velocity P-wave (km/s) = 5.36636 6.51251 5.96702
#
# Compressibility (1/GPa) = 0.02328750
#
# Stress axis : x y z
#
# Youngs Moduli (GPa) = 55.70179 147.68350 57.64797
#
# Poissons Ratio (x) = 0.73255 0.09948
# Poissons Ratio (y) = 0.27630 0.15597
# Poissons Ratio (z) = 0.09613 0.39957
#
# Static dielectric constant tensor:
#      x y z
#    x 2.246130 0.000000 0.121390 
#    y 0.000000 2.296050 0.000000 
#    z 0.121390 0.000000 2.317510 
# 
# From -- ./inp_files/24459.got.cif
#   From: 2010.05.17/outbox.cif.g08.bks.cpg/sg9_13_cif.got.tgz:24459.got - 2010.06.03 20:04:27.
