data_PCOD9133928
_publ_section_title
;
Structure prediction by ZEFSAII (Michael W. Deem and Ramdas Pophale) SiO2 
 PCOD9133928
Probable space group: C C
;
_chemical_formula_sum "Si O2"
_cell_formula_units_Z 32
_cell_length_a 12.093596
_cell_length_b 23.556039
_cell_length_c 5.078489
_cell_angle_alpha 90.000000
_cell_angle_beta 102.731655
_cell_angle_gamma 90.000000
_cell_volume 1411.174588
_symmetry_space_group_name_H-M "C C"
_symmetry_group_IT_number 9
_symmetry_cell_setting 'monoclinic'
loop_
_space_group_symop_operation_xyz
x,y,z
x,-y,1/2+z
1/2+x,1/2+y,z
1/2+x,1/2-y,1/2+z
loop_
_atom_site_type_symbol
_atom_site_label
_atom_site_fract_x
_atom_site_fract_y
_atom_site_fract_z
Si Si1 0.867670 0.659052 0.413330
Si Si2 0.009759 0.036389 0.028318
Si Si3 0.792636 0.191759 0.355027
Si Si4 0.781550 0.076329 0.131349
Si Si5 0.698452 0.758033 0.297791
Si Si6 0.968930 0.284499 0.478318
Si Si7 0.269331 0.961023 0.736729
Si Si8 0.625715 0.978773 0.234856
O O1 0.752267 0.695544 0.306827
O O2 0.906181 0.676185 0.726753
O O3 0.841790 0.593612 0.350974
O O4 0.958107 0.680979 0.244173
O O5 0.135734 0.057993 0.160164
O O6 0.902477 0.073757 0.055731
O O7 0.000755 0.981634 0.219123
O O8 0.786532 0.124601 0.350512
O O9 0.699938 0.216753 0.506154
O O10 0.903496 0.225502 0.500896
O O11 0.780596 0.207472 0.040118
O O12 0.674553 0.080100 0.869421
O O13 0.739352 0.017714 0.243574
O O14 0.582685 0.765554 0.393347
O O15 0.286495 0.989977 0.462986
O O16 0.563057 0.013653 0.429859
#
# Coordination Sequence:
#
# PCOD9133928 Si02
#       8
#     4   4   4   4   4   4   4   4
#     4  10  21  39  64  89 120 156 191 246 302 346
#     4  10  18  30  46  75 117 144 179 214 283 356
#     4  10  23  33  59  86 110 147 198 235 278 362
#     4  10  18  30  48  75 108 146 181 213 283 330
#     4  10  22  40  56  88 117 144 200 241 289 352
#     4  10  21  41  61  84 116 159 192 238 303 339
#     4  10  21  35  56  91 114 150 193 243 290 361
#     4   8  16  26  44  66 100 140 172 206 264 334
#
# _framework density 22.676144000000001
#
# number of rings (size 3 to 8) (size 9 to 14) (size 15 to 20)
#    0.750    1.500    1.250    1.500    3.500    0.000 
#    0.000    0.000    0.000    0.000   32.500    0.000 
#    0.000    0.000    0.000    0.000    0.000    0.000 
#
# Total GULP energy -89139.700042 kJ/mol
# GULP energy per Si atom -5571.231253 kJ/mol
# Density = 2.262453 g / cm^3
# Si number density = 22.676144 Si / 1000 Ang^3
#
#
#
# Elastic Constant Matrix: (Units=GPa)
#
#
# Indices 1 2 3 4 5 6 
#
# 1 66.2830 13.7989 -14.8962 0.0000 -18.8582 0.0000
# 2 13.7989 46.7516 -13.4839 0.0000 -7.1287 0.0000
# 3 -14.8962 -13.4839 90.7631 0.0000 -18.6501 0.0000
# 4 0.0000 0.0000 0.0000 18.5475 0.0000 -6.0407
# 5 -18.8582 -7.1287 -18.6501 0.0000 23.6889 0.0000
# 6 0.0000 0.0000 0.0000 -6.0407 0.0000 3.7897
#
#
#
# Elastic Compliance Matrix: (Units=1/GPa)
#
#
# Indices 1 2 3 4 5 6 
#
# 1 0.025232 -0.000417 0.009760 0.000000 0.027645 0.000000
# 2 -0.000417 0.025124 0.006143 0.000000 0.012065 0.000000
# 3 0.009760 0.006143 0.018502 0.000000 0.024184 0.000000
# 4 0.000000 0.000000 0.000000 0.112124 0.000000 0.178722
# 5 0.027645 0.012065 0.024184 0.000000 0.086893 0.000000
# 6 0.000000 0.000000 0.000000 0.178722 0.000000 0.548748
#
#
# Mechanical properties :
#
#
# Convention : Reuss Voigt Hill
#
# Bulk Modulus (GPa) = 10.01703 19.40392 14.71047
# Shear Modulus (GPa) = 6.10554 23.76381 14.93468
#
# Velocity S-wave (km/s) = 1.64266 3.24074 2.56912
# Velocity P-wave (km/s) = 2.83281 4.75171 3.91175
#
# Compressibility (1/GPa) = 0.09983002
#
# Stress axis : x y z
#
# Youngs Moduli (GPa) = 39.63148 39.80221 54.04940
#
# Poissons Ratio (x) = 0.01660 -0.52751
# Poissons Ratio (y) = 0.01653 -0.33203
# Poissons Ratio (z) = -0.38680 -0.24451
#
# Static dielectric constant tensor:
#      x y z
#    x 1.903160 0.000000 0.049730 
#    y 0.000000 1.851560 0.000000 
#    z 0.049730 0.000000 1.926920 
# 
# From -- ./inp_files/1864.got.cif
#   From: 2010.05.17/outbox.cif.g08.bks.cpg/sg9_1_cif.got.tgz:1864.got - 2010.06.03 20:04:27.
