data_PCOD9133613
_publ_section_title
;
Structure prediction by ZEFSAII (Michael W. Deem and Ramdas Pophale) SiO2 
 PCOD9133613
Probable space group: C M
;
_chemical_formula_sum "Si O2"
_cell_formula_units_Z 32
_cell_length_a 14.899593
_cell_length_b 22.529187
_cell_length_c 10.138582
_cell_angle_alpha 90.000000
_cell_angle_beta 151.958121
_cell_angle_gamma 90.000000
_cell_volume 1599.937144
_symmetry_space_group_name_H-M "C M"
_symmetry_group_IT_number 8
_symmetry_cell_setting 'monoclinic'
loop_
_space_group_symop_operation_xyz
x,y,z
x,-y,z
1/2+x,1/2+y,z
1/2+x,1/2-y,z
loop_
_atom_site_type_symbol
_atom_site_label
_atom_site_fract_x
_atom_site_fract_y
_atom_site_fract_z
Si Si1 0.171340 0.101192 0.404800
Si Si2 0.198871 0.360176 0.427010
Si Si3 0.618356 0.761117 0.699357
Si Si4 0.597601 0.363926 0.812319
Si Si5 0.558571 0.267901 0.317812
Si Si6 0.819621 0.432367 0.877329
Si Si7 0.759207 0.932786 0.767771
Si Si8 0.400433 0.117638 0.441972
O O1 0.167576 0.171707 0.428555
O O2 0.247534 0.070430 0.634580
O O3 0.299255 0.093089 0.440933
O O4 0.957096 0.079470 0.098151
O O5 0.382268 0.375354 0.578017
O O6 0.154614 0.290171 0.378511
O O7 0.239816 0.385206 0.625843
O O8 0.009570 0.393137 0.133717
O O9 0.604334 0.704541 0.776182
O O10 0.553152 0.743125 0.467874
O O11 0.495107 0.817354 0.585478
O O12 0.843197 0.775709 0.986570
O O13 0.667950 0.403064 0.780573
O O14 0.743555 0.375759 0.122096
O O15 0.857296 0.500000 0.966343
O O16 0.574556 0.923026 0.619168
O O17 0.760726 0.000000 0.717351
#
# Coordination Sequence:
#
# PCOD9133613 Si02
#       8
#     4   4   4   4   4   4   4   4
#     4  12  26  46  71 104 141 179 226 286 354 411
#     4  12  24  46  72 103 137 179 234 283 344 412
#     4  12  21  42  72  98 142 176 220 285 352 409
#     4  12  25  45  72 105 135 184 235 282 348 410
#     4  12  21  42  73 100 138 180 214 287 358 401
#     4  12  27  48  69 101 144 184 230 288 339 403
#     4  12  25  44  70  99 138 184 230 283 333 406
#     4  12  25  45  71 106 137 180 235 286 344 412
#
# _framework density 20.000785
#
# number of rings (size 3 to 8) (size 9 to 14) (size 15 to 20)
#    0.000    0.000    8.750    1.500    0.000    4.000 
#    4.500    0.000    0.000    0.000    0.000    0.000 
#    0.000    0.000    0.000    0.000    0.000    0.000 
#
# Total GULP energy -89545.161763 kJ/mol
# GULP energy per Si atom -5596.572610 kJ/mol
# Density = 1.995526 g / cm^3
# Si number density = 20.000785 Si / 1000 Ang^3
#
#
#
# Elastic Constant Matrix: (Units=GPa)
#
#
# Indices 1 2 3 4 5 6 
#
# 1 135.8686 16.8451 41.5533 0.0000 17.2922 0.0000
# 2 16.8451 85.0655 -1.6339 0.0000 8.1861 0.0000
# 3 41.5533 -1.6339 98.3039 0.0000 -1.0992 0.0000
# 4 0.0000 0.0000 0.0000 12.8678 0.0000 -1.6322
# 5 17.2922 8.1861 -1.0992 0.0000 33.4332 0.0000
# 6 0.0000 0.0000 0.0000 -1.6322 0.0000 -5.6930
#
#
#
# Elastic Compliance Matrix: (Units=1/GPa)
#
#
# Indices 1 2 3 4 5 6 
#
# 1 0.009366 -0.001488 -0.004035 0.000000 -0.004612 0.000000
# 2 -0.001488 0.012279 0.000808 0.000000 -0.002210 0.000000
# 3 -0.004035 0.000808 0.011917 0.000000 0.002281 0.000000
# 4 0.000000 0.000000 0.000000 0.074986 0.000000 -0.021498
# 5 -0.004612 -0.002210 0.002281 0.000000 0.032912 0.000000
# 6 0.000000 0.000000 0.000000 -0.021498 0.000000 -0.169490
#
#
# Mechanical properties :
#
#
# Convention : Reuss Voigt Hill
#
# Bulk Modulus (GPa) = 41.43979 48.08521 44.76250
# Shear Modulus (GPa) = -473.63313 25.61983 -224.00665
#
# Velocity S-wave (km/s) = -15.40524 3.58291 -10.59444
# Velocity P-wave (km/s) = 17.19490 6.41951 11.27950
#
# Compressibility (1/GPa) = 0.02413139
#
# Stress axis : x y z
#
# Youngs Moduli (GPa) = 106.77260 81.44267 83.91249
#
# Poissons Ratio (x) = 0.12121 0.33860
# Poissons Ratio (y) = 0.15891 -0.06784
# Poissons Ratio (z) = 0.43085 -0.06584
#
# Static dielectric constant tensor:
#      x y z
#    x 1.686530 0.000000 -0.003460 
#    y 0.000000 1.686970 0.000000 
#    z -0.003460 0.000000 1.689260 
# 
# From -- ./inp_files/13847.got.cif
#   From: 2010.05.17/outbox.cif.g08.bks.cpg/sg8_7_cif.got.tgz:13847.got - 2010.06.03 19:46:02.
