data_PCOD9133760
_publ_section_title
;
Structure prediction by ZEFSAII (Michael W. Deem and Ramdas Pophale) SiO2 
 PCOD9133760
Probable space group: C C
;
_chemical_formula_sum "Si O2"
_cell_formula_units_Z 32
_cell_length_a 8.460795
_cell_length_b 13.218465
_cell_length_c 14.492968
_cell_angle_alpha 90.000000
_cell_angle_beta 55.038582
_cell_angle_gamma 90.000000
_cell_volume 1328.368832
_symmetry_space_group_name_H-M "C C"
_symmetry_group_IT_number 9
_symmetry_cell_setting 'monoclinic'
loop_
_space_group_symop_operation_xyz
x,y,z
x,-y,1/2+z
1/2+x,1/2+y,z
1/2+x,1/2-y,1/2+z
loop_
_atom_site_type_symbol
_atom_site_label
_atom_site_fract_x
_atom_site_fract_y
_atom_site_fract_z
Si Si1 0.365860 0.144538 0.910840
Si Si2 0.802464 0.139388 0.423343
Si Si3 0.067029 0.559770 0.025616
Si Si4 0.159428 0.648697 0.265469
Si Si5 0.921982 0.160229 0.826402
Si Si6 0.706969 0.917385 0.216961
Si Si7 0.994312 0.059203 0.073698
Si Si8 0.161286 0.969857 0.727675
O O1 0.311950 0.253922 0.970398
O O2 0.468739 0.086487 0.960745
O O3 0.517134 0.150589 0.775556
O O4 0.171693 0.086332 0.951365
O O5 0.731267 0.168748 0.344307
O O6 0.016196 0.094428 0.339121
O O7 0.651850 0.053208 0.502160
O O8 0.259765 0.629600 0.956867
O O9 0.884947 0.562859 0.155715
O O10 0.119971 0.528634 0.271263
O O11 0.342182 0.651065 0.135060
O O12 0.989355 0.725197 0.303978
O O13 0.823602 0.132570 0.761827
O O14 0.107436 0.086127 0.767748
O O15 0.373776 0.456875 0.092165
O O16 0.080993 0.045556 0.148800
#
# Coordination Sequence:
#
# PCOD9133760 Si02
#       8
#     4   4   4   4   4   4   4   4
#     4  10  16  29  54  74  99 133 167 207 243 298
#     4  10  18  30  52  77  98 134 168 201 254 294
#     4   9  17  32  51  73 100 131 168 203 246 297
#     4   9  16  31  48  72 102 124 165 201 242 296
#     4   9  15  28  54  69  95 134 158 199 254 282
#     4   8  16  32  46  74  98 126 164 205 242 289
#     4   7  15  28  47  74  96 125 169 196 239 299
#     4   8  15  30  48  73 102 125 167 210 238 295
#
# _framework density 24.089697000000001
#
# number of rings (size 3 to 8) (size 9 to 14) (size 15 to 20)
#    0.750    2.500    3.750    0.000    1.750    0.000 
#    0.000    1.250   16.500    1.500    0.000    0.000 
#    0.000    0.000    0.000    0.000    0.000    0.000 
#
# Total GULP energy -89089.127695 kJ/mol
# GULP energy per Si atom -5568.070481 kJ/mol
# Density = 2.403487 g / cm^3
# Si number density = 24.089697 Si / 1000 Ang^3
#
#
#
# Elastic Constant Matrix: (Units=GPa)
#
#
# Indices 1 2 3 4 5 6 
#
# 1 69.8862 44.9396 46.1123 0.0000 -4.3174 0.0000
# 2 44.9396 84.3924 3.9672 0.0000 -17.4151 0.0000
# 3 46.1123 3.9672 90.2158 0.0001 -28.5290 0.0000
# 4 0.0000 0.0000 0.0001 10.1356 0.0000 -15.1545
# 5 -4.3174 -17.4151 -28.5290 0.0000 33.7420 0.0000
# 6 0.0000 0.0000 0.0000 -15.1545 0.0000 30.8697
#
#
#
# Elastic Compliance Matrix: (Units=1/GPa)
#
#
# Indices 1 2 3 4 5 6 
#
# 1 0.115976 -0.078137 -0.087226 0.000001 -0.099238 0.000000
# 2 -0.078137 0.066220 0.060976 -0.000001 0.075736 0.000000
# 3 -0.087226 0.060976 0.081092 -0.000001 0.088874 0.000000
# 4 0.000001 -0.000001 -0.000001 0.370919 0.000000 0.182091
# 5 -0.099238 0.075736 0.088874 0.000000 0.131171 0.000000
# 6 0.000000 0.000000 0.000000 0.182091 0.000000 0.121786
#
#
# Mechanical properties :
#
#
# Convention : Reuss Voigt Hill
#
# Bulk Modulus (GPa) = 18.34321 48.28140 33.31230
# Shear Modulus (GPa) = 4.48789 24.91448 14.70119
#
# Velocity S-wave (km/s) = 1.36640 3.21945 2.47304
# Velocity P-wave (km/s) = 3.18127 5.82285 4.69181
#
# Compressibility (1/GPa) = 0.05451609
#
# Stress axis : x y z
#
# Youngs Moduli (GPa) = 8.62245 15.10116 12.33172
#
# Poissons Ratio (x) = 1.17995 1.07564
# Poissons Ratio (y) = 0.67373 -0.75194
# Poissons Ratio (z) = 0.75210 -0.92081
#
# Static dielectric constant tensor:
#      x y z
#    x 1.958900 0.000000 0.006540 
#    y 0.000000 1.927930 0.000000 
#    z 0.006540 0.000000 2.047450 
# 
# From -- ./inp_files/35371.got.cif
#   From: 2010.05.17/outbox.cif.g08.bks.cpg/sg9_18_cif.got.tgz:35371.got - 2010.06.03 20:04:27.
