data_PCOD9133410
_publ_section_title
;
Structure prediction by ZEFSAII (Michael W. Deem and Ramdas Pophale) SiO2 
 PCOD9133410
Probable space group: C M
;
_chemical_formula_sum "Si O2"
_cell_formula_units_Z 24
_cell_length_a 10.031182
_cell_length_b 18.982560
_cell_length_c 9.492901
_cell_angle_alpha 90.000000
_cell_angle_beta 30.929270
_cell_angle_gamma 90.000000
_cell_volume 929.076916
_symmetry_space_group_name_H-M "C M"
_symmetry_group_IT_number 8
_symmetry_cell_setting 'monoclinic'
loop_
_space_group_symop_operation_xyz
x,y,z
x,-y,z
1/2+x,1/2+y,z
1/2+x,1/2-y,z
loop_
_atom_site_type_symbol
_atom_site_label
_atom_site_fract_x
_atom_site_fract_y
_atom_site_fract_z
Si Si1 0.652630 0.582022 0.918790
Si Si2 0.218446 0.274165 0.563623
Si Si3 0.603514 0.917038 0.337204
Si Si4 0.677916 0.226192 0.925288
Si Si5 0.929844 0.580930 0.182282
Si Si6 0.958740 0.920170 0.403118
O O1 0.664408 0.500000 0.863211
O O2 0.918468 0.613033 0.623285
O O3 0.391832 0.613515 0.085858
O O4 0.633231 0.582510 0.103455
O O5 0.950081 0.246057 0.746503
O O6 0.449695 0.251702 0.242862
O O7 0.443687 0.087896 0.338265
O O8 0.263025 0.357492 0.548772
O O9 0.705154 0.748289 0.738806
O O10 0.648751 0.000000 0.323041
O O11 0.622065 0.142488 0.963029
O O12 0.653222 0.408449 0.357877
O O13 0.009118 0.500000 0.079244
O O14 0.850519 0.000000 0.507525
#
# Coordination Sequence:
#
# PCOD9133410 Si02
#       6
#     4   4   4   4   4   4
#     4   9  19  36  60  98 147 193 237 293 371 457
#     4  12  28  52  79 111 156 211 265 318 386 470
#     4   9  19  36  60  98 147 193 237 293 371 457
#     4  12  28  52  79 111 156 211 265 318 386 470
#     4  10  23  46  78 116 155 196 253 326 396 459
#     4  10  23  46  78 116 155 196 253 326 396 459
#
# _framework density 25.832091999999999
#
# number of rings (size 3 to 8) (size 9 to 14) (size 15 to 20)
#    0.000    1.667    0.000    3.000    0.000   10.000 
#    0.000   11.667    0.000    1.000    0.000    0.000 
#    0.000    0.000    0.000    0.000    0.000    0.000 
#
# Total GULP energy -67075.841126 kJ/mol
# GULP energy per Si atom -5589.653427 kJ/mol
# Density = 2.577330 g / cm^3
# Si number density = 25.832092 Si / 1000 Ang^3
#
#
#
# Elastic Constant Matrix: (Units=GPa)
#
#
# Indices 1 2 3 4 5 6 
#
# 1 203.3013 51.6024 92.1898 0.0015 -8.0741 0.0021
# 2 51.6024 166.4916 41.8506 0.0004 -19.1797 -0.0009
# 3 92.1898 41.8506 181.9673 0.0016 8.3086 0.0028
# 4 0.0015 0.0004 0.0016 1.2347 -0.0006 -23.8201
# 5 -8.0741 -19.1797 8.3086 -0.0006 47.6874 -0.0012
# 6 0.0021 -0.0009 0.0028 -23.8201 -0.0012 17.2879
#
#
#
# Elastic Compliance Matrix: (Units=1/GPa)
#
#
# Indices 1 2 3 4 5 6 
#
# 1 0.006703 -0.001133 -0.003192 0.000000 0.001235 0.000000
# 2 -0.001133 0.006973 -0.001158 -0.000001 0.002814 0.000000
# 3 -0.003192 -0.001158 0.007484 0.000001 -0.002310 0.000000
# 4 0.000000 -0.000001 0.000001 -0.031660 -0.000002 -0.043622
# 5 0.001235 0.002814 -0.002310 -0.000002 0.022714 -0.000001
# 6 0.000000 0.000000 0.000000 -0.043622 -0.000001 -0.002261
#
#
# Mechanical properties :
#
#
# Convention : Reuss Voigt Hill
#
# Bulk Modulus (GPa) = 98.09342 102.56064 100.32703
# Shear Modulus (GPa) = 205.62547 37.64983 121.63765
#
# Velocity S-wave (km/s) = 8.93161 3.82184 6.86950
# Velocity P-wave (km/s) = 12.01752 7.69833 10.09170
#
# Compressibility (1/GPa) = 0.01019436
#
# Stress axis : x y z
#
# Youngs Moduli (GPa) = 149.19345 143.41458 133.61235
#
# Poissons Ratio (x) = 0.16247 0.42644
# Poissons Ratio (y) = 0.16901 0.15476
# Poissons Ratio (z) = 0.47617 0.16611
#
# Static dielectric constant tensor:
#      x y z
#    x 2.028060 0.000000 0.090790 
#    y 0.000000 2.081040 0.000000 
#    z 0.090790 0.000000 2.098880 
# 
# From -- ./inp_files/26786.got.cif
#   From: 2010.05.17/outbox.cif.g08.bks.cpg/sg8_14_cif.got.tgz:26786.got - 2010.06.03 19:46:02.
