data_PCOD9133622
_publ_section_title
;
Structure prediction by ZEFSAII (Michael W. Deem and Ramdas Pophale) SiO2 
 PCOD9133622
Probable space group: C M
;
_chemical_formula_sum "Si O2"
_cell_formula_units_Z 24
_cell_length_a 7.388877
_cell_length_b 28.241642
_cell_length_c 5.424683
_cell_angle_alpha 90.000000
_cell_angle_beta 89.999774
_cell_angle_gamma 90.000000
_cell_volume 1131.990403
_symmetry_space_group_name_H-M "C M"
_symmetry_group_IT_number 8
_symmetry_cell_setting 'monoclinic'
loop_
_space_group_symop_operation_xyz
x,y,z
x,-y,z
1/2+x,1/2+y,z
1/2+x,1/2-y,z
loop_
_atom_site_type_symbol
_atom_site_label
_atom_site_fract_x
_atom_site_fract_y
_atom_site_fract_z
Si Si1 0.386650 0.627022 0.519530
Si Si2 0.949525 0.500000 0.269560
Si Si3 0.912125 0.291864 0.019528
Si Si4 0.449525 0.000000 0.769493
Si Si5 0.491451 0.317518 0.019530
Si Si6 0.730994 0.575399 0.519527
Si Si7 0.500932 0.841846 0.519527
O O1 0.434164 0.655594 0.269004
O O2 0.517196 0.581573 0.519527
O O3 0.670479 0.877603 0.519529
O O4 0.434164 0.655593 0.770060
O O5 0.063081 0.500000 0.519527
O O6 0.816791 0.545140 0.296322
O O7 0.054509 0.500000 0.019527
O O8 0.707803 0.311167 0.019529
O O9 0.910401 0.235258 0.019527
O O10 0.003985 0.310754 0.270886
O O11 0.003984 0.310754 0.768169
O O12 0.316791 0.045140 0.742732
O O13 0.819698 0.626996 0.519527
#
# Coordination Sequence:
#
# PCOD9133622 Si02
#       7
#     4   2   4   2   4   4   4
#     4  12  24  40  64  92 123 167 212 252 309 373
#     4   8  20  36  64  90 124 152 200 254 316 376
#     4  12  24  42  60  89 128 166 212 264 305 357
#     4   8  20  36  64  90 124 152 200 254 316 376
#     4  12  24  42  60  89 128 166 212 264 305 357
#     4   9  22  40  66  90 124 162 206 252 318 367
#     4  12  24  40  64  92 123 167 212 252 309 373
#
# _framework density 21.201594
#
# number of rings (size 3 to 8) (size 9 to 14) (size 15 to 20)
#    1.000    0.000    3.333    4.000    4.667    0.000 
#    0.000    3.333    0.000    2.000    0.000    0.000 
#    0.000    0.000    0.000    0.000    0.000    0.000 
#
# Total GULP energy -66914.622613 kJ/mol
# GULP energy per Si atom -5576.218551 kJ/mol
# Density = 2.115334 g / cm^3
# Si number density = 21.201594 Si / 1000 Ang^3
#
#
#
# Elastic Constant Matrix: (Units=GPa)
#
#
# Indices 1 2 3 4 5 6 
#
# 1 73.9001 -28.7913 0.9194 0.0000 0.0012 0.0000
# 2 -28.7913 50.7301 19.9351 0.0000 0.0000 0.0000
# 3 0.9194 19.9351 188.1961 0.0000 0.0011 0.0000
# 4 0.0000 0.0000 0.0000 60.8431 0.0000 -0.0005
# 5 0.0012 0.0000 0.0011 0.0000 4.2320 0.0000
# 6 0.0000 0.0000 0.0000 -0.0005 0.0000 2.0031
#
#
#
# Elastic Compliance Matrix: (Units=1/GPa)
#
#
# Indices 1 2 3 4 5 6 
#
# 1 0.017627 0.010474 -0.001196 0.000000 -0.000005 0.000000
# 2 0.010474 0.026792 -0.002889 0.000000 -0.000002 0.000000
# 3 -0.001196 -0.002889 0.005625 0.000000 -0.000001 0.000000
# 4 0.000000 0.000000 0.000000 0.016436 0.000000 0.000004
# 5 -0.000005 -0.000002 -0.000001 0.000000 0.236295 0.000000
# 6 0.000000 0.000000 0.000000 0.000004 0.000000 0.499216
#
#
# Mechanical properties :
#
#
# Convention : Reuss Voigt Hill
#
# Bulk Modulus (GPa) = 15.91769 32.99473 24.45621
# Shear Modulus (GPa) = 6.17166 34.79985 20.48576
#
# Velocity S-wave (km/s) = 1.70800 4.05579 3.11181
# Velocity P-wave (km/s) = 3.37843 6.12607 4.94684
#
# Compressibility (1/GPa) = 0.06282319
#
# Stress axis : x y z
#
# Youngs Moduli (GPa) = 56.73020 37.32470 177.76234
#
# Poissons Ratio (x) = -0.39094 0.21253
# Poissons Ratio (y) = -0.59419 0.51358
# Poissons Ratio (z) = 0.06783 0.10784
#
# Static dielectric constant tensor:
#      x y z
#    x 1.738920 0.000000 0.000000 
#    y 0.000000 1.750290 0.000000 
#    z 0.000000 0.000000 1.795340 
# 
# From -- ./inp_files/1689.got.cif
#   From: 2010.05.17/outbox.cif.g08.bks.cpg/sg8_1_cif.got.tgz:1689.got - 2010.06.03 19:46:02.
