data_PCOD9133532
_publ_section_title
;
Structure prediction by ZEFSAII (Michael W. Deem and Ramdas Pophale) SiO2 
 PCOD9133532
Probable space group: C M
;
_chemical_formula_sum "Si O2"
_cell_formula_units_Z 32
_cell_length_a 9.397813
_cell_length_b 22.796750
_cell_length_c 14.936071
_cell_angle_alpha 90.000000
_cell_angle_beta 28.796137
_cell_angle_gamma 90.000000
_cell_volume 1541.373451
_symmetry_space_group_name_H-M "C M"
_symmetry_group_IT_number 8
_symmetry_cell_setting 'monoclinic'
loop_
_space_group_symop_operation_xyz
x,y,z
x,-y,z
1/2+x,1/2+y,z
1/2+x,1/2-y,z
loop_
_atom_site_type_symbol
_atom_site_label
_atom_site_fract_x
_atom_site_fract_y
_atom_site_fract_z
Si Si1 0.761510 0.155485 0.851360
Si Si2 0.290956 0.238497 0.067258
Si Si3 0.156642 0.567835 0.542646
Si Si4 0.876763 0.869309 0.591298
Si Si5 0.223419 0.761801 0.664633
Si Si6 0.562051 0.137086 0.258789
Si Si7 0.261122 0.657829 0.341746
Si Si8 0.955021 0.069437 0.901985
O O1 0.728874 0.128187 0.771068
O O2 0.841621 0.107165 0.880062
O O3 0.032631 0.201883 0.698124
O O4 0.478643 0.195937 0.029177
O O5 0.146681 0.295143 0.191486
O O6 0.043802 0.196597 0.161305
O O7 0.519774 0.259886 0.865321
O O8 0.215757 0.500000 0.492325
O O9 0.251479 0.584785 0.590196
O O10 0.327550 0.609298 0.379127
O O11 0.806188 0.578473 0.721199
O O12 0.799076 0.804396 0.597154
O O13 0.226974 0.874504 0.413704
O O14 0.521562 0.797463 0.514473
O O15 0.618165 0.128762 0.333044
O O16 0.779954 0.095645 0.082715
O O17 0.902616 0.000000 0.920107
#
# Coordination Sequence:
#
# PCOD9133532 Si02
#       8
#     4   4   4   4   4   4   4   4
#     4  11  23  45  66 103 135 184 223 284 346 411
#     4  11  25  38  68 106 145 173 223 285 348 416
#     4  11  27  49  69  95 137 189 238 286 339 407
#     4  11  26  39  70 101 136 178 227 283 344 407
#     4  11  22  42  66 102 145 174 218 280 353 414
#     4  12  24  42  66 106 135 180 228 279 346 414
#     4  12  25  43  70 101 139 188 223 282 353 411
#     4  11  26  48  71  96 138 188 234 283 343 410
#
# _framework density 20.760705000000002
#
# number of rings (size 3 to 8) (size 9 to 14) (size 15 to 20)
#    0.000    0.750    5.000    0.750   12.250    1.500 
#    0.000    0.000    0.000    0.000    0.000    0.000 
#    0.000    0.000    0.000    0.000    0.000    0.000 
#
# Total GULP energy -89519.762280 kJ/mol
# GULP energy per Si atom -5594.985142 kJ/mol
# Density = 2.071345 g / cm^3
# Si number density = 20.760705 Si / 1000 Ang^3
#
#
#
# Elastic Constant Matrix: (Units=GPa)
#
#
# Indices 1 2 3 4 5 6 
#
# 1 102.0434 30.0611 18.4629 -0.0010 2.4861 0.0010
# 2 30.0611 80.3072 28.4002 -0.0106 -2.5633 0.0008
# 3 18.4629 28.4002 56.1806 0.0097 4.8139 -0.0058
# 4 -0.0010 -0.0106 0.0097 23.5531 -0.0032 -3.0541
# 5 2.4861 -2.5633 4.8139 -0.0032 30.9027 0.0011
# 6 0.0010 0.0008 -0.0058 -3.0541 0.0011 34.0946
#
#
#
# Elastic Compliance Matrix: (Units=1/GPa)
#
#
# Indices 1 2 3 4 5 6 
#
# 1 0.011203 -0.003591 -0.001788 -0.000001 -0.000921 -0.000001
# 2 -0.003591 0.016504 -0.007404 0.000011 0.002811 -0.000001
# 3 -0.001788 -0.007404 0.022470 -0.000013 -0.003971 0.000003
# 4 -0.000001 0.000011 -0.000013 0.042956 0.000007 0.003848
# 5 -0.000921 0.002811 -0.003971 0.000007 0.033285 -0.000001
# 6 -0.000001 -0.000001 0.000003 0.003848 -0.000001 0.029675
#
#
# Mechanical properties :
#
#
# Convention : Reuss Voigt Hill
#
# Bulk Modulus (GPa) = 40.62901 43.59771 42.11336
# Shear Modulus (GPa) = 26.33457 28.48389 27.40923
#
# Velocity S-wave (km/s) = 3.56544 3.70808 3.63746
# Velocity P-wave (km/s) = 6.04669 6.27526 6.16203
#
# Compressibility (1/GPa) = 0.02461296
#
# Stress axis : x y z
#
# Youngs Moduli (GPa) = 89.25790 60.58955 44.50312
#
# Poissons Ratio (x) = 0.21757 0.07956
# Poissons Ratio (y) = 0.32052 0.32950
# Poissons Ratio (z) = 0.15956 0.44861
#
# Static dielectric constant tensor:
#      x y z
#    x 1.764760 0.000000 -0.009070 
#    y 0.000000 1.712340 0.000000 
#    z -0.009070 0.000000 1.748040 
# 
# From -- ./inp_files/25663.got.cif
#   From: 2010.05.17/outbox.cif.g08.bks.cpg/sg8_13_cif.got.tgz:25663.got - 2010.06.03 19:46:02.
