data_PCOD9133279
_publ_section_title
;
Structure prediction by ZEFSAII (Michael W. Deem and Ramdas Pophale) SiO2 
 PCOD9133279
Probable space group: C M
;
_chemical_formula_sum "Si O2"
_cell_formula_units_Z 26
_cell_length_a 19.095134
_cell_length_b 7.590704
_cell_length_c 11.550475
_cell_angle_alpha 90.000000
_cell_angle_beta 41.520553
_cell_angle_gamma 90.000000
_cell_volume 1109.801243
_symmetry_space_group_name_H-M "C M"
_symmetry_group_IT_number 8
_symmetry_cell_setting 'monoclinic'
loop_
_space_group_symop_operation_xyz
x,y,z
x,-y,z
1/2+x,1/2+y,z
1/2+x,1/2-y,z
loop_
_atom_site_type_symbol
_atom_site_label
_atom_site_fract_x
_atom_site_fract_y
_atom_site_fract_z
Si Si1 0.059800 0.288236 0.610200
Si Si2 0.685096 0.714437 0.073513
Si Si3 0.743748 0.301618 0.748381
Si Si4 0.775041 0.800587 0.460834
Si Si5 0.980349 0.797271 0.458367
Si Si6 0.876994 0.500000 0.213967
Si Si7 0.375517 0.699836 0.013956
O O1 0.050460 0.500000 0.615461
O O2 0.180058 0.245727 0.492822
O O3 0.029648 0.208499 0.524971
O O4 0.979746 0.221305 0.806320
O O5 0.688737 0.500000 0.067777
O O6 0.703971 0.776296 0.918781
O O7 0.776473 0.771983 0.049211
O O8 0.571382 0.770118 0.261372
O O9 0.701928 0.500000 0.790168
O O10 0.723598 0.206839 0.652501
O O11 0.870624 0.302713 0.599940
O O12 0.863266 0.655533 0.331114
O O13 0.808840 0.000000 0.398588
O O14 0.955481 0.000000 0.457575
O O15 0.879125 0.344501 0.109973
O O16 0.369399 0.500000 0.066071
#
# Coordination Sequence:
#
# PCOD9133279 Si02
#       7
#     4   4   4   4   4   2   4
#     4  11  23  43  67 103 139 182 234 291 348 412
#     4  10  22  42  67 101 141 182 227 287 351 416
#     4  11  23  45  69  96 141 189 229 289 350 413
#     4  11  26  46  72  99 139 189 234 285 353 418
#     4  11  23  39  69 103 136 181 234 287 347 415
#     4  12  24  46  66 100 136 180 232 292 342 412
#     4  12  24  40  70 104 139 182 231 291 351 411
#
# _framework density 23.427619
#
# number of rings (size 3 to 8) (size 9 to 14) (size 15 to 20)
#    0.000    0.923    3.846    2.769    4.308    3.077 
#    2.769    0.000    0.000    0.000    0.000    0.000 
#    0.000    0.000    0.000    0.000    0.000    0.000 
#
# Total GULP energy -72524.372304 kJ/mol
# GULP energy per Si atom -5578.797870 kJ/mol
# Density = 2.337430 g / cm^3
# Si number density = 23.427619 Si / 1000 Ang^3
#
#
#
# Elastic Constant Matrix: (Units=GPa)
#
#
# Indices 1 2 3 4 5 6 
#
# 1 45.9604 -7.3928 10.0211 0.0000 9.3355 -0.0001
# 2 -7.3928 105.4855 27.1495 0.0001 3.9744 -0.0004
# 3 10.0211 27.1495 140.7623 0.0001 32.6027 -0.0001
# 4 0.0000 0.0001 0.0001 9.1727 -0.0001 6.7976
# 5 9.3355 3.9744 32.6027 -0.0001 34.8419 0.0001
# 6 -0.0001 -0.0004 -0.0001 6.7976 0.0001 19.2852
#
#
#
# Elastic Compliance Matrix: (Units=1/GPa)
#
#
# Indices 1 2 3 4 5 6 
#
# 1 0.023429 0.002044 -0.000708 0.000000 -0.005849 0.000000
# 2 0.002044 0.010173 -0.002186 0.000000 0.000337 0.000000
# 3 -0.000708 -0.002186 0.009543 0.000000 -0.008490 0.000000
# 4 0.000000 0.000000 0.000000 0.147563 0.000001 -0.052012
# 5 -0.005849 0.000337 -0.008490 0.000001 0.038174 0.000000
# 6 0.000000 0.000000 0.000000 -0.052012 0.000000 0.070186
#
#
# Mechanical properties :
#
#
# Convention : Reuss Voigt Hill
#
# Bulk Modulus (GPa) = 24.12727 39.08486 31.60606
# Shear Modulus (GPa) = 15.89410 30.15533 23.02472
#
# Velocity S-wave (km/s) = 2.60750 3.59161 3.13837
# Velocity P-wave (km/s) = 4.40300 5.82400 5.16263
#
# Compressibility (1/GPa) = 0.04144688
#
# Stress axis : x y z
#
# Youngs Moduli (GPa) = 42.68217 98.29826 104.79273
#
# Poissons Ratio (x) = -0.20097 0.07416
# Poissons Ratio (y) = -0.08726 0.22905
# Poissons Ratio (z) = 0.03020 0.21486
#
# Static dielectric constant tensor:
#      x y z
#    x 1.889260 0.000000 -0.002610 
#    y 0.000000 1.851500 0.000000 
#    z -0.002610 0.000000 1.869850 
# 
# From -- ./inp_files/23799.got.cif
#   From: 2010.05.17/outbox.cif.g08.bks.cpg/sg8_12_cif.got.tgz:23799.got - 2010.06.03 19:46:02.
