data_PCOD9133520
_publ_section_title
;
Structure prediction by ZEFSAII (Michael W. Deem and Ramdas Pophale) SiO2 
 PCOD9133520
Probable space group: C M
;
_chemical_formula_sum "Si O2"
_cell_formula_units_Z 28
_cell_length_a 20.299483
_cell_length_b 7.676623
_cell_length_c 15.287331
_cell_angle_alpha 90.000000
_cell_angle_beta 151.798780
_cell_angle_gamma 90.000000
_cell_volume 1125.777528
_symmetry_space_group_name_H-M "C M"
_symmetry_group_IT_number 8
_symmetry_cell_setting 'monoclinic'
loop_
_space_group_symop_operation_xyz
x,y,z
x,-y,z
1/2+x,1/2+y,z
1/2+x,1/2-y,z
loop_
_atom_site_type_symbol
_atom_site_label
_atom_site_fract_x
_atom_site_fract_y
_atom_site_fract_z
Si Si1 0.793120 0.752177 0.133850
Si Si2 0.986344 0.186912 0.837931
Si Si3 0.252561 0.196891 0.443918
Si Si4 0.710749 0.711426 0.853890
Si Si5 0.892624 0.712577 0.432351
Si Si6 0.580799 0.286566 0.402157
Si Si7 0.845970 0.707457 0.836784
O O1 0.847307 0.811978 0.291997
O O2 0.943720 0.689951 0.274189
O O3 0.644590 0.680808 0.993276
O O4 0.739881 0.814113 0.976791
O O5 0.890832 0.311192 0.667719
O O6 0.969939 0.221734 0.921737
O O7 0.920986 0.000000 0.742511
O O8 0.301975 0.271772 0.409792
O O9 0.133765 0.270482 0.368453
O O10 0.208113 0.000000 0.372757
O O11 0.722377 0.500000 0.883449
O O12 0.553593 0.748270 0.640096
O O13 0.815667 0.765901 0.899428
O O14 0.877094 0.500000 0.401181
O O15 0.556853 0.500000 0.374862
O O16 0.706929 0.254182 0.617143
O O17 0.861156 0.500000 0.857490
#
# Coordination Sequence:
#
# PCOD9133520 Si02
#       7
#     4   4   4   4   4   4   4
#     4  12  24  38  63  99 131 164 211 267 322 370
#     4  11  22  38  63  95 128 164 206 264 321 375
#     4   9  20  41  65  89 125 171 213 257 312 378
#     4  11  23  43  65  90 130 173 209 260 321 378
#     4  11  23  40  64  95 129 169 212 262 317 374
#     4   9  19  38  64  92 122 166 218 261 310 378
#     4   9  20  42  66  88 122 171 214 257 312 379
#
# _framework density 24.871699
#
# number of rings (size 3 to 8) (size 9 to 14) (size 15 to 20)
#    0.000    1.714    2.857    2.571    0.000    3.429 
#    0.000    2.857    0.000    0.000    0.000    0.000 
#    0.000    0.000    0.000    0.000    0.000    0.000 
#
# Total GULP energy -78003.009264 kJ/mol
# GULP energy per Si atom -5571.643519 kJ/mol
# Density = 2.481509 g / cm^3
# Si number density = 24.871699 Si / 1000 Ang^3
#
#
#
# Elastic Constant Matrix: (Units=GPa)
#
#
# Indices 1 2 3 4 5 6 
#
# 1 297.8520 38.1228 66.3431 0.0000 -7.0305 0.0000
# 2 38.1228 91.5477 17.2929 0.0000 -1.4008 0.0000
# 3 66.3431 17.2929 90.7722 0.0000 -18.0888 0.0000
# 4 0.0000 0.0000 0.0000 -11.9460 0.0000 -8.9004
# 5 -7.0305 -1.4008 -18.0888 0.0000 60.6645 0.0000
# 6 0.0000 0.0000 0.0000 -8.9004 0.0000 89.1733
#
#
#
# Elastic Compliance Matrix: (Units=1/GPa)
#
#
# Indices 1 2 3 4 5 6 
#
# 1 0.004142 -0.001186 -0.002882 0.000000 -0.000407 0.000000
# 2 -0.001186 0.011680 -0.001416 0.000000 -0.000290 0.000000
# 3 -0.002882 -0.001416 0.014161 0.000000 0.003856 0.000000
# 4 0.000000 0.000000 0.000000 -0.077916 0.000000 -0.007777
# 5 -0.000407 -0.000290 0.003856 0.000000 0.017580 0.000000
# 6 0.000000 0.000000 0.000000 -0.007777 0.000000 0.010438
#
#
# Mechanical properties :
#
#
# Convention : Reuss Voigt Hill
#
# Bulk Modulus (GPa) = 52.59171 80.40994 66.50082
# Shear Modulus (GPa) = -1916.79370 51.47258 -932.66056
#
# Velocity S-wave (km/s) = -27.79111 4.55414 -19.38563
# Velocity P-wave (km/s) = 31.75851 7.74943 21.77785
#
# Compressibility (1/GPa) = 0.01901440
#
# Stress axis : x y z
#
# Youngs Moduli (GPa) = 241.45488 85.61379 70.61615
#
# Poissons Ratio (x) = 0.10158 0.20351
# Poissons Ratio (y) = 0.28648 0.09998
# Poissons Ratio (z) = 0.69587 0.12121
#
# Static dielectric constant tensor:
#      x y z
#    x 1.949300 0.000000 -0.013160 
#    y 0.000000 2.021330 0.000000 
#    z -0.013160 0.000000 1.908180 
# 
# From -- ./inp_files/27842.got.cif
#   From: 2010.05.17/outbox.cif.g08.bks.cpg/sg8_14_cif.got.tgz:27842.got - 2010.06.03 19:46:02.
