data_PCOD9133021
_publ_section_title
;
Structure prediction by ZEFSAII (Michael W. Deem and Ramdas Pophale) SiO2 
 PCOD9133021
Probable space group: C M
;
_chemical_formula_sum "Si O2"
_cell_formula_units_Z 20
_cell_length_a 5.411895
_cell_length_b 14.427922
_cell_length_c 9.893015
_cell_angle_alpha 90.000000
_cell_angle_beta 111.098163
_cell_angle_gamma 90.000000
_cell_volume 720.687853
_symmetry_space_group_name_H-M "C M"
_symmetry_group_IT_number 8
_symmetry_cell_setting 'monoclinic'
loop_
_space_group_symop_operation_xyz
x,y,z
x,-y,z
1/2+x,1/2+y,z
1/2+x,1/2-y,z
loop_
_atom_site_type_symbol
_atom_site_label
_atom_site_fract_x
_atom_site_fract_y
_atom_site_fract_z
Si Si1 0.000000 0.340855 0.532360
Si Si2 0.615234 0.500000 0.468055
Si Si3 0.606418 0.000000 0.205769
Si Si4 0.239942 0.500000 0.942421
Si Si5 0.452367 0.799424 0.225215
Si Si6 0.502260 0.800222 0.832840
Si Si7 0.911782 0.000000 0.697758
O O1 0.759503 0.409671 0.443828
O O2 0.065207 0.294158 0.402324
O O3 0.911673 0.294925 0.656579
O O4 0.238160 0.409310 0.627420
O O5 0.309534 0.500000 0.370669
O O6 0.645632 0.500000 0.636415
O O7 0.442844 0.906112 0.179967
O O8 0.796292 0.000000 0.111880
O O9 0.079058 0.404826 0.885550
O O10 0.460240 0.500000 0.867132
O O11 0.170364 0.750830 0.176632
O O12 0.266910 0.761788 0.878477
#
# Coordination Sequence:
#
# PCOD9133021 Si02
#       7
#     4   2   2   2   4   4   2
#     4  10  21  39  69 112 150 188 245 323 379 440
#     4  11  20  40  78 108 156 198 259 305 383 460
#     4  12  26  50  74 109 156 209 251 317 379 449
#     4  10  27  49  75 109 155 206 255 313 383 447
#     4  12  26  44  73 109 146 193 249 307 373 450
#     4  11  26  47  77 112 149 195 253 313 378 455
#     4   9  19  39  71 106 139 193 255 307 369 456
#
# _framework density 27.751266000000001
#
# number of rings (size 3 to 8) (size 9 to 14) (size 15 to 20)
#    0.000    1.200    2.000    3.600    5.600    3.200 
#    0.000    6.000    0.000    0.000    0.000    0.000 
#    0.000    0.000    0.000    0.000    0.000    0.000 
#
# Total GULP energy -56128.587472 kJ/mol
# GULP energy per Si atom -5612.858747 kJ/mol
# Density = 2.768810 g / cm^3
# Si number density = 27.751266 Si / 1000 Ang^3
#
#
#
# Elastic Constant Matrix: (Units=GPa)
#
#
# Indices 1 2 3 4 5 6 
#
# 1 144.5400 71.4415 18.4524 0.0000 -35.5985 0.0000
# 2 71.4415 186.3302 9.9506 0.0000 -5.6586 0.0000
# 3 18.4524 9.9506 126.5723 0.0000 -26.5505 0.0000
# 4 0.0000 0.0000 0.0000 25.0121 0.0000 -12.9865
# 5 -35.5985 -5.6586 -26.5505 0.0000 49.4228 0.0000
# 6 0.0000 0.0000 0.0000 -12.9865 0.0000 42.7865
#
#
#
# Elastic Compliance Matrix: (Units=1/GPa)
#
#
# Indices 1 2 3 4 5 6 
#
# 1 0.010597 -0.003856 0.000301 0.000000 0.007353 0.000000
# 2 -0.003856 0.006801 -0.000442 0.000000 -0.002236 0.000000
# 3 0.000301 -0.000442 0.008933 0.000000 0.004965 0.000000
# 4 0.000000 0.000000 0.000000 0.047460 0.000000 0.014405
# 5 0.007353 -0.002236 0.004965 0.000000 0.027941 0.000000
# 6 0.000000 0.000000 0.000000 0.014405 0.000000 0.027744
#
#
# Mechanical properties :
#
#
# Convention : Reuss Voigt Hill
#
# Bulk Modulus (GPa) = 54.53362 73.01461 63.77412
# Shear Modulus (GPa) = 34.82358 47.28416 41.05387
#
# Velocity S-wave (km/s) = 3.54622 4.13226 3.85041
# Velocity P-wave (km/s) = 6.03831 7.00963 6.54202
#
# Compressibility (1/GPa) = 0.01833731
#
# Stress axis : x y z
#
# Youngs Moduli (GPa) = 94.36845 147.04095 111.94498
#
# Poissons Ratio (x) = 0.56695 -0.03365
# Poissons Ratio (y) = 0.36386 0.04943
# Poissons Ratio (z) = -0.02837 0.06492
#
# Static dielectric constant tensor:
#      x y z
#    x 2.086710 0.000000 -0.021860 
#    y 0.000000 2.128930 0.000000 
#    z -0.021860 0.000000 2.153790 
# 
# From -- ./inp_files/17963.got.cif
#   From: 2010.05.17/outbox.cif.g08.bks.cpg/sg8_9_cif.got.tgz:17963.got - 2010.06.03 19:46:02.
