data_PCOD9133035
_publ_section_title
;
Structure prediction by ZEFSAII (Michael W. Deem and Ramdas Pophale) SiO2 
 PCOD9133035
Probable space group: C M
;
_chemical_formula_sum "Si O2"
_cell_formula_units_Z 20
_cell_length_a 9.882123
_cell_length_b 16.595326
_cell_length_c 5.242763
_cell_angle_alpha 90.000000
_cell_angle_beta 71.030061
_cell_angle_gamma 90.000000
_cell_volume 813.101431
_symmetry_space_group_name_H-M "C M"
_symmetry_group_IT_number 8
_symmetry_cell_setting 'monoclinic'
loop_
_space_group_symop_operation_xyz
x,y,z
x,-y,z
1/2+x,1/2+y,z
1/2+x,1/2-y,z
loop_
_atom_site_type_symbol
_atom_site_label
_atom_site_fract_x
_atom_site_fract_y
_atom_site_fract_z
Si Si1 0.461180 0.181430 0.298540
Si Si2 0.292085 0.689356 0.298918
Si Si3 0.029920 0.904554 0.872457
Si Si4 0.122989 0.818570 0.299296
Si Si5 0.054250 0.404554 0.725379
O O1 0.637964 0.214529 0.232949
O O2 0.446206 0.285471 0.364886
O O3 0.451376 0.130270 0.565149
O O4 0.500531 0.126605 0.028371
O O5 0.292085 0.795911 0.298917
O O6 0.206811 0.636530 0.562316
O O7 0.377359 0.636530 0.035520
O O8 0.083639 0.873395 0.569466
O O9 0.020111 0.000000 0.889763
O O10 0.132793 0.869730 0.032688
O O11 0.064059 0.500000 0.708071
#
# Coordination Sequence:
#
# PCOD9133035 Si02
#       5
#     4   4   4   4   4
#     4  10  22  39  60  88 121 156 195 240 293 355
#     4  10  21  40  65  86 114 164 202 232 289 362
#     4  11  23  40  61  91 121 150 196 253 293 336
#     4  10  22  39  60  88 121 156 195 240 293 355
#     4  11  23  40  61  91 121 150 196 253 293 336
#
# _framework density 24.597173999999999
#
# number of rings (size 3 to 8) (size 9 to 14) (size 15 to 20)
#    0.000    1.600    0.000    6.600    0.000   14.400 
#    0.000   16.000    0.000    0.000    0.000    0.000 
#    0.000    0.000    0.000    0.000    0.000    0.000 
#
# Total GULP energy -55791.446943 kJ/mol
# GULP energy per Si atom -5579.144694 kJ/mol
# Density = 2.454119 g / cm^3
# Si number density = 24.597174 Si / 1000 Ang^3
#
#
#
# Elastic Constant Matrix: (Units=GPa)
#
#
# Indices 1 2 3 4 5 6 
#
# 1 223.2382 97.9021 36.8146 0.0000 1.5221 0.0000
# 2 97.9021 231.7288 80.5279 0.0000 5.5758 0.0000
# 3 36.8146 80.5279 100.4584 0.0000 29.6005 0.0000
# 4 0.0000 0.0000 0.0000 1.8627 0.0000 -6.4463
# 5 1.5221 5.5758 29.6005 0.0000 58.6484 0.0000
# 6 0.0000 0.0000 0.0000 -6.4463 0.0000 17.5702
#
#
#
# Elastic Compliance Matrix: (Units=1/GPa)
#
#
# Indices 1 2 3 4 5 6 
#
# 1 0.005504 -0.002228 -0.000295 0.000000 0.000218 0.000000
# 2 -0.002228 0.007129 -0.005540 0.000000 0.002176 0.000000
# 3 -0.000295 -0.005540 0.016852 0.000000 -0.007971 0.000000
# 4 0.000000 0.000000 0.000000 -1.990820 0.000000 -0.730405
# 5 0.000218 0.002176 -0.007971 0.000000 0.020861 0.000000
# 6 0.000000 0.000000 0.000000 -0.730405 0.000000 -0.211061
#
#
# Mechanical properties :
#
#
# Convention : Reuss Voigt Hill
#
# Bulk Modulus (GPa) = 74.85382 109.54607 92.19995
# Shear Modulus (GPa) = -2.34636 38.29500 17.97432
#
# Velocity S-wave (km/s) = -0.97775 3.95002 2.70617
# Velocity P-wave (km/s) = 5.40586 8.08927 6.87966
#
# Compressibility (1/GPa) = 0.01335937
#
# Stress axis : x y z
#
# Youngs Moduli (GPa) = 181.69314 140.26510 59.34063
#
# Poissons Ratio (x) = 0.31250 0.01752
# Poissons Ratio (y) = 0.40479 0.32872
# Poissons Ratio (z) = 0.05365 0.77702
#
# Static dielectric constant tensor:
#      x y z
#    x 2.107630 0.000000 -0.044800 
#    y 0.000000 1.850740 0.000000 
#    z -0.044800 0.000000 1.774070 
# 
# From -- ./inp_files/2660.got.cif
#   From: 2010.05.17/outbox.cif.g08.bks.cpg/sg8_2_cif.got.tgz:2660.got - 2010.06.03 19:46:02.
