data_PCOD9133192
_publ_section_title
;
Structure prediction by ZEFSAII (Michael W. Deem and Ramdas Pophale) SiO2 
 PCOD9133192
Probable space group: C M
;
_chemical_formula_sum "Si O2"
_cell_formula_units_Z 32
_cell_length_a 14.855955
_cell_length_b 8.698709
_cell_length_c 11.300048
_cell_angle_alpha 90.000000
_cell_angle_beta 79.004148
_cell_angle_gamma 90.000000
_cell_volume 1433.469157
_symmetry_space_group_name_H-M "C M"
_symmetry_group_IT_number 8
_symmetry_cell_setting 'monoclinic'
loop_
_space_group_symop_operation_xyz
x,y,z
x,-y,z
1/2+x,1/2+y,z
1/2+x,1/2-y,z
loop_
_atom_site_type_symbol
_atom_site_label
_atom_site_fract_x
_atom_site_fract_y
_atom_site_fract_z
Si Si1 0.926180 0.819356 0.133610
Si Si2 0.665436 0.182290 0.557632
Si Si3 0.434528 0.180987 0.376856
Si Si4 0.491578 0.183683 0.752817
Si Si5 0.345652 0.682198 0.636004
Si Si6 0.633900 0.678867 0.327146
Si Si7 0.593247 0.816850 0.964365
Si Si8 0.754899 0.680467 0.060661
O O1 0.895699 0.770024 0.272512
O O2 0.848602 0.770990 0.059589
O O3 0.944543 0.000000 0.124431
O O4 0.018984 0.727086 0.082652
O O5 0.563975 0.216380 0.629904
O O6 0.737976 0.212303 0.644040
O O7 0.685437 0.278881 0.435598
O O8 0.671178 0.000000 0.528860
O O9 0.392190 0.241656 0.509256
O O10 0.543072 0.217542 0.349995
O O11 0.418445 0.000000 0.368515
O O12 0.395060 0.254246 0.739865
O O13 0.542441 0.238328 0.858146
O O14 0.481122 0.000000 0.765019
O O15 0.360033 0.500000 0.628209
O O16 0.605677 0.500000 0.335902
O O17 0.695792 0.701857 0.196235
O O18 0.605991 0.000000 0.954337
O O19 0.689358 0.739938 0.973094
O O20 0.775181 0.500000 0.041740
#
# Coordination Sequence:
#
# PCOD9133192 Si02
#       8
#     4   4   4   4   4   4   4   4
#     4  12  25  42  65  94 128 166 213 263 316 379
#     4  10  22  40  62  90 126 164 202 250 308 371
#     4  12  23  38  63  92 128 167 205 254 317 379
#     4  10  23  43  64  89 123 166 212 259 312 370
#     4  11  23  39  63  95 128 164 208 254 309 374
#     4  11  22  37  62  95 127 160 202 252 311 381
#     4  11  24  43  66  92 126 168 214 265 318 374
#     4  11  24  42  65  95 130 165 208 261 317 380
#
# _framework density 22.323467000000001
#
# number of rings (size 3 to 8) (size 9 to 14) (size 15 to 20)
#    0.000    1.000    2.500    4.500    0.000    6.500 
#    0.000    1.250    0.000    0.000    0.000    0.000 
#    0.000    0.000    0.000    0.000    0.000    0.000 
#
# Total GULP energy -89563.200604 kJ/mol
# GULP energy per Si atom -5597.700038 kJ/mol
# Density = 2.227266 g / cm^3
# Si number density = 22.323467 Si / 1000 Ang^3
#
#
#
# Elastic Constant Matrix: (Units=GPa)
#
#
# Indices 1 2 3 4 5 6 
#
# 1 79.9741 4.7672 3.9256 0.0000 32.1224 0.0000
# 2 4.7672 34.8028 7.3288 0.0000 11.8753 0.0000
# 3 3.9256 7.3288 70.3314 0.0000 32.0550 0.0000
# 4 0.0000 0.0000 0.0000 26.3285 0.0000 13.0621
# 5 32.1224 11.8753 32.0550 0.0000 41.1383 0.0000
# 6 0.0000 0.0000 0.0000 13.0621 0.0000 30.5357
#
#
#
# Elastic Compliance Matrix: (Units=1/GPa)
#
#
# Indices 1 2 3 4 5 6 
#
# 1 0.022656 0.003910 0.010708 0.000000 -0.027163 0.000000
# 2 0.003910 0.032631 0.003204 0.000000 -0.014969 0.000000
# 3 0.010708 0.003204 0.027167 0.000000 -0.030455 0.000000
# 4 0.000000 0.000000 0.000000 0.048214 0.000000 -0.020624
# 5 -0.027163 -0.014969 -0.030455 0.000000 0.073570 0.000000
# 6 0.000000 0.000000 0.000000 -0.020624 0.000000 0.041571
#
#
# Mechanical properties :
#
#
# Convention : Reuss Voigt Hill
#
# Bulk Modulus (GPa) = 8.46753 24.12795 16.29774
# Shear Modulus (GPa) = 20.03772 30.87294 25.45533
#
# Velocity S-wave (km/s) = 2.99926 3.72288 3.38049
# Velocity P-wave (km/s) = 3.97435 5.41402 4.74905
#
# Compressibility (1/GPa) = 0.11809825
#
# Stress axis : x y z
#
# Youngs Moduli (GPa) = 44.13924 30.64596 36.80883
#
# Poissons Ratio (x) = -0.11983 -0.39415
# Poissons Ratio (y) = -0.17259 -0.11794
# Poissons Ratio (z) = -0.47264 -0.09819
#
# Static dielectric constant tensor:
#      x y z
#    x 1.832610 0.000000 0.019240 
#    y 0.000000 1.744700 0.000000 
#    z 0.019240 0.000000 1.860690 
# 
# From -- ./inp_files/21377.got.cif
#   From: 2010.05.17/outbox.cif.g08.bks.cpg/sg8_11_cif.got.tgz:21377.got - 2010.06.03 19:46:02.
