data_PCOD9133000
_publ_section_title
;
Structure prediction by ZEFSAII (Michael W. Deem and Ramdas Pophale) SiO2 
 PCOD9133000
Probable space group: C M
;
_chemical_formula_sum "Si O2"
_cell_formula_units_Z 28
_cell_length_a 8.741668
_cell_length_b 20.009050
_cell_length_c 11.933884
_cell_angle_alpha 90.000000
_cell_angle_beta 36.557027
_cell_angle_gamma 90.000000
_cell_volume 1243.293725
_symmetry_space_group_name_H-M "C M"
_symmetry_group_IT_number 8
_symmetry_cell_setting 'monoclinic'
loop_
_space_group_symop_operation_xyz
x,y,z
x,-y,z
1/2+x,1/2+y,z
1/2+x,1/2-y,z
loop_
_atom_site_type_symbol
_atom_site_label
_atom_site_fract_x
_atom_site_fract_y
_atom_site_fract_z
Si Si1 0.497540 0.110625 0.604660
Si Si2 0.876718 0.768176 0.662398
Si Si3 0.363486 0.284205 0.919031
Si Si4 0.948464 0.428697 0.377218
Si Si5 0.807663 0.674161 0.273068
Si Si6 0.575290 0.420178 0.233864
Si Si7 0.015186 0.106190 0.016322
O O1 0.461386 0.190867 0.631907
O O2 0.430732 0.088102 0.517988
O O3 0.789104 0.088604 0.454013
O O4 0.282460 0.079551 0.811236
O O5 0.573083 0.773511 0.815009
O O6 0.916729 0.804825 0.758407
O O7 0.044459 0.788506 0.456461
O O8 0.441272 0.334449 0.973323
O O9 0.055198 0.278494 0.109428
O O10 0.822031 0.500000 0.426541
O O11 0.850269 0.369271 0.359204
O O12 0.250774 0.433736 0.172096
O O13 0.771108 0.621207 0.195239
O O14 0.628053 0.500000 0.192078
O O15 0.562772 0.384391 0.120220
#
# Coordination Sequence:
#
# PCOD9133000 Si02
#       7
#     4   4   4   4   4   4   4
#     4  10  21  39  64  92 124 166 213 264 319 377
#     4  11  23  42  65  97 131 165 215 263 318 391
#     4  10  24  40  63  93 126 170 214 258 314 383
#     4  10  21  39  64  93 124 166 219 262 312 380
#     4  11  24  42  64  93 133 173 208 267 328 370
#     4  11  24  40  63  95 129 170 216 260 317 383
#     4   9  20  40  60  87 124 164 212 258 306 366
#
# _framework density 22.520824000000001
#
# number of rings (size 3 to 8) (size 9 to 14) (size 15 to 20)
#    0.000    1.714    0.000    4.714    0.000   13.714 
#    0.000    0.000    0.000    5.143    0.000    0.000 
#    0.000    0.000    0.000    0.000    0.000    0.000 
#
# Total GULP energy -78076.406531 kJ/mol
# GULP energy per Si atom -5576.886181 kJ/mol
# Density = 2.246957 g / cm^3
# Si number density = 22.520824 Si / 1000 Ang^3
#
#
#
# Elastic Constant Matrix: (Units=GPa)
#
#
# Indices 1 2 3 4 5 6 
#
# 1 79.6654 11.4074 35.6388 0.0000 -9.1207 -0.0001
# 2 11.4074 76.1038 29.0116 0.0000 -2.4586 0.0000
# 3 35.6388 29.0116 147.7903 0.0000 -7.8526 -0.0001
# 4 0.0000 0.0000 0.0000 36.3194 0.0000 22.8956
# 5 -9.1207 -2.4586 -7.8526 0.0000 29.0808 0.0001
# 6 -0.0001 0.0000 -0.0001 22.8956 0.0001 27.3428
#
#
#
# Elastic Compliance Matrix: (Units=1/GPa)
#
#
# Indices 1 2 3 4 5 6 
#
# 1 0.014493 -0.000861 -0.003133 0.000000 0.003627 0.000000
# 2 -0.000861 0.014260 -0.002579 0.000000 0.000239 0.000000
# 3 -0.003133 -0.002579 0.008080 0.000000 0.000981 0.000000
# 4 0.000000 0.000000 0.000000 0.058317 0.000000 -0.048832
# 5 0.003627 0.000239 0.000981 0.000000 0.035810 0.000000
# 6 0.000000 0.000000 0.000000 -0.048832 0.000000 0.077462
#
#
# Mechanical properties :
#
#
# Convention : Reuss Voigt Hill
#
# Bulk Modulus (GPa) = 42.21740 50.63057 46.42398
# Shear Modulus (GPa) = 21.78999 33.71538 27.75268
#
# Velocity S-wave (km/s) = 3.11392 3.87340 3.51424
# Velocity P-wave (km/s) = 5.63163 6.52187 6.09303
#
# Compressibility (1/GPa) = 0.02368692
#
# Stress axis : x y z
#
# Youngs Moduli (GPa) = 69.00085 70.12713 123.75819
#
# Poissons Ratio (x) = 0.06036 0.38775
# Poissons Ratio (y) = 0.05939 0.31917
# Poissons Ratio (z) = 0.21619 0.18085
#
# Static dielectric constant tensor:
#      x y z
#    x 1.842520 0.000000 -0.023220 
#    y 0.000000 1.873270 0.000000 
#    z -0.023220 0.000000 1.831530 
# 
# From -- ./inp_files/19332.got.cif
#   From: 2010.05.17/outbox.cif.g08.bks.cpg/sg8_10_cif.got.tgz:19332.got - 2010.06.03 19:46:02.
