data_PCOD9133951
_publ_section_title
;
Structure prediction by ZEFSAII (Michael W. Deem and Ramdas Pophale) SiO2 
 PCOD9133951
Probable space group: C C
;
_chemical_formula_sum "Si O2"
_cell_formula_units_Z 24
_cell_length_a 10.725383
_cell_length_b 9.747393
_cell_length_c 20.961756
_cell_angle_alpha 90.000000
_cell_angle_beta 24.431808
_cell_angle_gamma 90.000000
_cell_volume 906.400029
_symmetry_space_group_name_H-M "C C"
_symmetry_group_IT_number 9
_symmetry_cell_setting 'monoclinic'
loop_
_space_group_symop_operation_xyz
x,y,z
x,-y,1/2+z
1/2+x,1/2+y,z
1/2+x,1/2-y,1/2+z
loop_
_atom_site_type_symbol
_atom_site_label
_atom_site_fract_x
_atom_site_fract_y
_atom_site_fract_z
Si Si1 0.009030 0.047514 0.820750
Si Si2 0.753703 0.672798 0.398117
Si Si3 0.788369 0.511265 0.995483
Si Si4 0.682420 0.136793 0.095419
Si Si5 0.037754 0.370840 0.000341
Si Si6 0.768283 0.847538 0.209125
O O1 0.355818 0.084676 0.648781
O O2 0.850634 0.169280 0.852592
O O3 0.887454 0.905214 0.848008
O O4 0.885992 0.058319 0.949654
O O5 0.873770 0.615456 0.409322
O O6 0.393635 0.658410 0.577830
O O7 0.937048 0.585226 0.261251
O O8 0.910159 0.479372 0.007783
O O9 0.931708 0.639954 0.892578
O O10 0.430410 0.488272 0.160359
O O11 0.447266 0.227740 0.162497
O O12 0.917110 0.227974 0.028424
#
# Coordination Sequence:
#
# PCOD9133951 Si02
#       6
#     4   4   4   4   4   4
#     4  10  19  34  54  80 109 146 185 229 281 329
#     4   8  17  30  52  70 108 141 177 225 274 321
#     4   9  15  29  48  81  96 138 187 212 272 325
#     4   9  17  35  52  78 106 147 180 225 282 332
#     4  10  18  31  59  78 106 148 186 226 277 337
#     4   8  16  27  51  75  97 136 183 215 270 326
#
# _framework density 26.478373999999999
#
# number of rings (size 3 to 8) (size 9 to 14) (size 15 to 20)
#    1.000    2.000    1.667    3.000    0.000    0.000 
#    3.000    0.000   14.667    4.000    0.000    0.000 
#    0.000    0.000    0.000    0.000    0.000    0.000 
#
# Total GULP energy -66810.356708 kJ/mol
# GULP energy per Si atom -5567.529726 kJ/mol
# Density = 2.641811 g / cm^3
# Si number density = 26.478374 Si / 1000 Ang^3
#
#
#
# Elastic Constant Matrix: (Units=GPa)
#
#
# Indices 1 2 3 4 5 6 
#
# 1 44.5939 6.8511 27.6474 -0.0031 8.9440 0.0029
# 2 6.8511 37.0494 -13.5245 -0.0051 -10.3897 0.0013
# 3 27.6474 -13.5245 98.2697 -0.1046 33.4756 0.0117
# 4 -0.0031 -0.0051 -0.1046 34.1810 0.0084 -2.4223
# 5 8.9440 -10.3897 33.4756 0.0084 52.2737 0.0020
# 6 0.0029 0.0013 0.0117 -2.4223 0.0020 26.4811
#
#
#
# Elastic Compliance Matrix: (Units=1/GPa)
#
#
# Indices 1 2 3 4 5 6 
#
# 1 0.029808 -0.009184 -0.009325 -0.000027 -0.000954 -0.000001
# 2 -0.009184 0.031925 0.005475 0.000019 0.004410 -0.000002
# 3 -0.009325 0.005475 0.016166 0.000051 -0.007668 -0.000001
# 4 -0.000027 0.000019 0.000051 0.029447 -0.000029 0.002694
# 5 -0.000954 0.004410 -0.007668 -0.000029 0.025081 -0.000001
# 6 -0.000001 -0.000002 -0.000001 0.002694 -0.000001 0.038009
#
#
# Mechanical properties :
#
#
# Convention : Reuss Voigt Hill
#
# Bulk Modulus (GPa) = 19.29369 24.65121 21.97245
# Shear Modulus (GPa) = 23.38850 33.18309 28.28579
#
# Velocity S-wave (km/s) = 2.97527 3.54392 3.27197
# Velocity P-wave (km/s) = 4.37097 5.10646 4.75296
#
# Compressibility (1/GPa) = 0.05183042
#
# Stress axis : x y z
#
# Youngs Moduli (GPa) = 33.54768 31.32377 61.86000
#
# Poissons Ratio (x) = 0.28767 0.57687
# Poissons Ratio (y) = 0.30809 -0.33869
# Poissons Ratio (z) = 0.31285 -0.17150
#
# Static dielectric constant tensor:
#      x y z
#    x 2.085020 0.000030 -0.005490 
#    y 0.000030 2.165720 0.000040 
#    z -0.005490 0.000040 2.194120 
# 
# From -- ./inp_files/36731.got.cif
#   From: 2010.05.17/outbox.cif.g08.bks.cpg/sg9_19_cif.got.tgz:36731.got - 2010.06.03 20:04:27.
