data_PCOD9133480
_publ_section_title
;
Structure prediction by ZEFSAII (Michael W. Deem and Ramdas Pophale) SiO2 
 PCOD9133480
Probable space group: C M
;
_chemical_formula_sum "Si O2"
_cell_formula_units_Z 32
_cell_length_a 20.706291
_cell_length_b 8.638737
_cell_length_c 25.739815
_cell_angle_alpha 90.000000
_cell_angle_beta 156.776231
_cell_angle_gamma 90.000000
_cell_volume 1815.558681
_symmetry_space_group_name_H-M "C M"
_symmetry_group_IT_number 8
_symmetry_cell_setting 'monoclinic'
loop_
_space_group_symop_operation_xyz
x,y,z
x,-y,z
1/2+x,1/2+y,z
1/2+x,1/2-y,z
loop_
_atom_site_type_symbol
_atom_site_label
_atom_site_fract_x
_atom_site_fract_y
_atom_site_fract_z
Si Si1 0.365810 0.686727 0.397940
Si Si2 0.698324 0.683768 0.932910
Si Si3 0.089872 0.811797 0.471467
Si Si4 0.397773 0.813186 0.770702
Si Si5 0.690150 0.688656 0.434178
Si Si6 0.673706 0.686230 0.699259
Si Si7 0.053480 0.185502 0.222020
Si Si8 0.068484 0.685186 0.728124
O O1 0.350184 0.500000 0.386233
O O2 0.440119 0.737216 0.397377
O O3 0.506369 0.725992 0.544329
O O4 0.195561 0.761261 0.287889
O O5 0.701702 0.500000 0.934645
O O6 0.568245 0.741419 0.879659
O O7 0.636508 0.744935 0.831471
O O8 0.877956 0.748118 0.077507
O O9 0.258423 0.768829 0.625433
O O10 0.096690 0.759473 0.417156
O O11 0.087294 0.000000 0.469498
O O12 0.322992 0.769785 0.771432
O O13 0.411184 0.000000 0.779213
O O14 0.689081 0.500000 0.433008
O O15 0.610092 0.740253 0.321255
O O16 0.879996 0.735899 0.579434
O O17 0.676485 0.500000 0.706881
O O18 0.669346 0.763348 0.752085
O O19 0.045105 0.000000 0.216283
O O20 0.069164 0.500000 0.733313
#
# Coordination Sequence:
#
# PCOD9133480 Si02
#       8
#     4   4   4   4   4   4   4   4
#     4   9  17  31  54  82 112 145 179 225 275 325
#     4  12  25  39  55  80 113 151 192 238 285 333
#     4   8  14  29  55  83 109 138 178 224 272 325
#     4   9  17  34  58  82 112 150 186 224 275 337
#     4   9  17  31  56  85 108 136 183 230 270 323
#     4   9  18  32  55  87 118 146 183 229 277 330
#     4  11  22  37  56  80 111 150 187 226 279 342
#     4  11  20  35  59  85 113 146 188 236 279 333
#
# _framework density 17.625427999999999
#
# number of rings (size 3 to 8) (size 9 to 14) (size 15 to 20)
#    0.000    2.250    2.500    3.375    0.000    0.500 
#    0.000    3.125    0.000    6.000    0.000    0.000 
#    0.000    0.000    0.000    0.000    0.000    0.000 
#
# Total GULP energy -89267.183303 kJ/mol
# GULP energy per Si atom -5579.198956 kJ/mol
# Density = 1.758531 g / cm^3
# Si number density = 17.625428 Si / 1000 Ang^3
#
#
#
# Elastic Constant Matrix: (Units=GPa)
#
#
# Indices 1 2 3 4 5 6 
#
# 1 152.9003 38.5693 82.9677 0.0002 20.0075 -0.0001
# 2 38.5693 42.9799 41.3217 -0.0014 8.6414 0.0000
# 3 82.9677 41.3217 128.5819 -0.0022 15.4495 0.0000
# 4 0.0002 -0.0014 -0.0022 20.0939 -0.0001 5.6112
# 5 20.0075 8.6414 15.4495 -0.0001 28.1840 0.0000
# 6 -0.0001 0.0000 0.0000 5.6112 0.0000 27.8832
#
#
#
# Elastic Compliance Matrix: (Units=1/GPa)
#
#
# Indices 1 2 3 4 5 6 
#
# 1 0.010898 -0.003922 -0.005338 -0.000001 -0.003608 0.000000
# 2 -0.003922 0.035673 -0.008514 0.000002 -0.003486 0.000000
# 3 -0.005338 -0.008514 0.014119 0.000001 -0.001339 0.000000
# 4 -0.000001 0.000002 0.000001 0.052729 0.000000 -0.010611
# 5 -0.003608 -0.003486 -0.001339 0.000000 0.039845 0.000000
# 6 0.000000 0.000000 0.000000 -0.010611 0.000000 0.037999
#
#
# Mechanical properties :
#
#
# Convention : Reuss Voigt Hill
#
# Bulk Modulus (GPa) = 39.77638 72.24215 56.00926
# Shear Modulus (GPa) = 21.25901 26.00580 23.63241
#
# Velocity S-wave (km/s) = 3.47674 3.84535 3.66568
# Velocity P-wave (km/s) = 6.22363 7.79693 7.05428
#
# Compressibility (1/GPa) = 0.02514055
#
# Stress axis : x y z
#
# Youngs Moduli (GPa) = 91.75692 28.03216 70.82776
#
# Poissons Ratio (x) = 0.10995 0.37809
# Poissons Ratio (y) = 0.35991 0.60305
# Poissons Ratio (z) = 0.48982 0.23868
#
# Static dielectric constant tensor:
#      x y z
#    x 1.613020 0.000000 0.004980 
#    y 0.000000 1.596860 0.000000 
#    z 0.004980 0.000000 1.570640 
# 
# From -- ./inp_files/24317.got.cif
#   From: 2010.05.17/outbox.cif.g08.bks.cpg/sg8_13_cif.got.tgz:24317.got - 2010.06.03 19:46:02.
