data_PCOD9133729
_publ_section_title
;
Structure prediction by ZEFSAII (Michael W. Deem and Ramdas Pophale) SiO2 
 PCOD9133729
Probable space group: C C
;
_chemical_formula_sum "Si O2"
_cell_formula_units_Z 28
_cell_length_a 9.309504
_cell_length_b 11.137305
_cell_length_c 11.167123
_cell_angle_alpha 90.000000
_cell_angle_beta 77.112726
_cell_angle_gamma 90.000000
_cell_volume 1128.673344
_symmetry_space_group_name_H-M "C C"
_symmetry_group_IT_number 9
_symmetry_cell_setting 'monoclinic'
loop_
_space_group_symop_operation_xyz
x,y,z
x,-y,1/2+z
1/2+x,1/2+y,z
1/2+x,1/2-y,1/2+z
loop_
_atom_site_type_symbol
_atom_site_label
_atom_site_fract_x
_atom_site_fract_y
_atom_site_fract_z
Si Si1 0.589390 0.143815 0.122980
Si Si2 0.508372 0.534856 0.851834
Si Si3 0.240818 0.595961 0.307450
Si Si4 0.853900 0.708925 0.368928
Si Si5 0.689025 0.156212 0.723257
Si Si6 0.029330 0.901028 0.084011
Si Si7 0.020309 0.616353 0.536318
O O1 0.738614 0.145815 0.173922
O O2 0.467386 0.153379 0.250469
O O3 0.581430 0.265254 0.051140
O O4 0.559310 0.021778 0.059532
O O5 0.396448 0.429936 0.834908
O O6 0.412792 0.656564 0.889088
O O7 0.585301 0.562026 0.708222
O O8 0.569256 0.491290 0.968802
O O9 0.162093 0.465900 0.301544
O O10 0.144440 0.666094 0.421448
O O11 0.717860 0.733961 0.305813
O O12 0.872846 0.633243 0.486872
O O13 0.558164 0.178226 0.654801
O O14 0.848942 0.118914 0.632126
#
# Coordination Sequence:
#
# PCOD9133729 Si02
#       7
#     4   4   4   4   4   4   4
#     4   8  16  26  42  69  95 116 149 198 236 273
#     4   9  16  29  47  69  96 122 155 191 235 277
#     4   8  14  24  43  69  89 110 156 196 227 263
#     4   8  17  28  42  70  94 121 151 193 235 281
#     4   8  15  26  43  68  92 117 149 195 231 271
#     4   9  16  29  45  69  96 124 152 190 236 278
#     4  10  14  26  48  70  88 118 152 195 234 271
#
# _framework density 24.807887000000001
#
# number of rings (size 3 to 8) (size 9 to 14) (size 15 to 20)
#    0.000    4.000    1.429    0.000    0.000    0.000 
#    0.000    4.286    0.000    1.714   14.857    0.000 
#    0.000    0.000    0.000    0.000    0.000    0.000 
#
# Total GULP energy -77956.782749 kJ/mol
# GULP energy per Si atom -5568.341625 kJ/mol
# Density = 2.475142 g / cm^3
# Si number density = 24.807887 Si / 1000 Ang^3
#
#
#
# Elastic Constant Matrix: (Units=GPa)
#
#
# Indices 1 2 3 4 5 6 
#
# 1 39.1467 16.7892 32.4672 0.0000 17.9014 0.0000
# 2 16.7892 61.0967 44.0872 0.0000 19.3334 0.0000
# 3 32.4672 44.0872 188.7546 0.0000 31.6311 0.0000
# 4 0.0000 0.0000 0.0000 36.5759 0.0000 11.3247
# 5 17.9014 19.3334 31.6311 0.0000 39.9484 0.0000
# 6 0.0000 0.0000 0.0000 11.3247 0.0000 28.0930
#
#
#
# Elastic Compliance Matrix: (Units=1/GPa)
#
#
# Indices 1 2 3 4 5 6 
#
# 1 0.035009 -0.003682 -0.003265 0.000000 -0.011321 0.000000
# 2 -0.003682 0.021809 -0.003422 0.000000 -0.006195 0.000000
# 3 -0.003265 -0.003422 0.007075 0.000000 -0.002483 0.000000
# 4 0.000000 0.000000 0.000000 0.031239 0.000000 -0.012593
# 5 -0.011321 -0.006195 -0.002483 0.000000 0.035069 0.000000
# 6 0.000000 0.000000 0.000000 -0.012593 0.000000 0.040673
#
#
# Mechanical properties :
#
#
# Convention : Reuss Voigt Hill
#
# Bulk Modulus (GPa) = 23.17268 52.85390 38.01329
# Shear Modulus (GPa) = 24.27220 33.96711 29.11965
#
# Velocity S-wave (km/s) = 3.13134 3.70429 3.42980
# Velocity P-wave (km/s) = 4.73655 6.29661 5.57145
#
# Compressibility (1/GPa) = 0.04315426
#
# Stress axis : x y z
#
# Youngs Moduli (GPa) = 28.56444 45.85201 141.34616
#
# Poissons Ratio (x) = 0.16883 0.46143
# Poissons Ratio (y) = 0.10518 0.48376
# Poissons Ratio (z) = 0.09325 0.15693
#
# Static dielectric constant tensor:
#      x y z
#    x 2.089840 0.000000 -0.022880 
#    y 0.000000 1.972500 0.000000 
#    z -0.022880 0.000000 2.049240 
# 
# From -- ./inp_files/16031.got.cif
#   From: 2010.05.17/outbox.cif.g08.bks.cpg/sg9_9_cif.got.tgz:16031.got - 2010.06.03 20:04:27.
