data_PCOD9133772
_publ_section_title
;
Structure prediction by ZEFSAII (Michael W. Deem and Ramdas Pophale) SiO2 
 PCOD9133772
Probable space group: C C
;
_chemical_formula_sum "Si O2"
_cell_formula_units_Z 24
_cell_length_a 7.655100
_cell_length_b 14.542278
_cell_length_c 10.549437
_cell_angle_alpha 90.000000
_cell_angle_beta 136.026366
_cell_angle_gamma 90.000000
_cell_volume 815.411478
_symmetry_space_group_name_H-M "C C"
_symmetry_group_IT_number 9
_symmetry_cell_setting 'monoclinic'
loop_
_space_group_symop_operation_xyz
x,y,z
x,-y,1/2+z
1/2+x,1/2+y,z
1/2+x,1/2-y,1/2+z
loop_
_atom_site_type_symbol
_atom_site_label
_atom_site_fract_x
_atom_site_fract_y
_atom_site_fract_z
Si Si1 0.708100 0.955002 0.650160
Si Si2 0.803444 0.806887 0.057582
Si Si3 0.166630 0.955003 0.226467
Si Si4 0.086731 0.370607 0.206543
Si Si5 0.571291 0.693114 0.319051
Si Si6 0.288004 0.129394 0.170089
O O1 0.437365 0.956063 0.438314
O O2 0.816060 0.853609 0.732358
O O3 0.666170 0.023228 0.747752
O O4 0.937365 1.000000 0.688313
O O5 0.760442 0.832007 0.183211
O O6 0.772602 0.696598 0.041922
O O7 0.058673 0.853609 0.144272
O O8 0.569676 0.854144 0.866453
O O9 0.208562 0.023229 0.128876
O O10 0.102135 0.303403 0.334711
O O11 0.805059 0.354144 0.010180
O O12 0.614294 0.667993 0.193423
#
# Coordination Sequence:
#
# PCOD9133772 Si02
#       6
#     4   4   4   4   4   4
#     4  10  16  30  52  78 103 142 180 216 270 327
#     4   9  17  29  52  77 103 141 179 218 269 323
#     4  10  16  30  52  78 103 142 180 216 270 327
#     4   9  16  30  51  78 103 139 182 217 267 325
#     4   9  17  29  52  77 103 141 179 218 269 323
#     4   9  16  30  51  78 103 139 182 217 267 325
#
# _framework density 29.43299
#
# number of rings (size 3 to 8) (size 9 to 14) (size 15 to 20)
#    0.000    2.667    6.667    0.000    0.000    0.000 
#    0.000    1.667    0.000    6.000    0.000    2.333 
#    0.000    0.000    0.000    0.000    0.000    0.000 
#
# Total GULP energy -67199.071538 kJ/mol
# GULP energy per Si atom -5599.922628 kJ/mol
# Density = 2.936600 g / cm^3
# Si number density = 29.432990 Si / 1000 Ang^3
#
#
#
# Elastic Constant Matrix: (Units=GPa)
#
#
# Indices 1 2 3 4 5 6 
#
# 1 123.9376 89.5359 34.8476 0.0002 48.2508 0.0000
# 2 89.5359 221.9331 91.1715 -0.0002 7.0101 0.0000
# 3 34.8476 91.1715 264.0289 0.0019 35.9151 0.0007
# 4 0.0002 -0.0002 0.0019 44.2971 0.0005 20.0136
# 5 48.2508 7.0101 35.9151 0.0005 37.6598 0.0001
# 6 0.0000 0.0000 0.0007 20.0136 0.0001 55.1060
#
#
#
# Elastic Compliance Matrix: (Units=1/GPa)
#
#
# Indices 1 2 3 4 5 6 
#
# 1 0.042080 -0.018793 0.008955 0.000000 -0.058956 0.000000
# 2 -0.018793 0.013669 -0.005939 0.000000 0.027198 0.000000
# 3 0.008955 -0.005939 0.006971 0.000000 -0.017016 0.000000
# 4 0.000000 0.000000 0.000000 0.027006 0.000000 -0.009808
# 5 -0.058956 0.027198 -0.017016 0.000000 0.113256 0.000000
# 6 0.000000 0.000000 0.000000 -0.009808 0.000000 0.021709
#
#
# Mechanical properties :
#
#
# Convention : Reuss Voigt Hill
#
# Bulk Modulus (GPa) = 32.08698 115.66773 73.87736
# Shear Modulus (GPa) = 18.75235 53.70222 36.22728
#
# Velocity S-wave (km/s) = 2.52686 4.27612 3.51214
# Velocity P-wave (km/s) = 4.40894 7.98525 6.44992
#
# Compressibility (1/GPa) = 0.03116529
#
# Stress axis : x y z
#
# Youngs Moduli (GPa) = 23.76419 73.16080 143.45078
#
# Poissons Ratio (x) = 1.37493 -1.28464
# Poissons Ratio (y) = 0.44661 0.85198
# Poissons Ratio (z) = -0.21281 0.43451
#
# Static dielectric constant tensor:
#      x y z
#    x 2.231430 0.000000 -0.033810 
#    y 0.000000 2.469240 0.000000 
#    z -0.033810 0.000000 2.211510 
# 
# From -- ./inp_files/29406.got.cif
#   From: 2010.05.17/outbox.cif.g08.bks.cpg/sg9_15_cif.got.tgz:29406.got - 2010.06.03 20:04:27.
