data_PCOD9133663
_publ_section_title
;
Structure prediction by ZEFSAII (Michael W. Deem and Ramdas Pophale) SiO2 
 PCOD9133663
Probable space group: C M
;
_chemical_formula_sum "Si O2"
_cell_formula_units_Z 16
_cell_length_a 12.000000
_cell_length_b 15.000000
_cell_length_c 18.000000
_cell_angle_alpha 90.000000
_cell_angle_beta 30.000000
_cell_angle_gamma 90.000000
_cell_volume 1620.000000
_symmetry_space_group_name_H-M "C M"
_symmetry_group_IT_number 8
_symmetry_cell_setting 'monoclinic'
loop_
_space_group_symop_operation_xyz
x,y,z
x,-y,z
1/2+x,1/2+y,z
1/2+x,1/2-y,z
loop_
_atom_site_type_symbol
_atom_site_label
_atom_site_fract_x
_atom_site_fract_y
_atom_site_fract_z
Si Si1 0.945760 0.218362 0.807930
Si Si2 0.847231 0.599387 0.050558
Si Si3 0.175131 0.606341 0.510404
Si Si4 0.736708 0.106010 0.635945
Si Si5 0.393512 0.396134 0.233227
Si Si6 0.954098 0.228699 0.069666
Si Si7 0.649595 0.607775 0.824200
Si Si8 0.876425 0.101151 0.710239
O O1 0.973362 0.173514 0.710508
O O2 0.055793 0.315698 0.752045
O O3 0.049181 0.149991 0.807325
O O4 0.682003 0.229848 0.971427
O O5 0.817423 0.500000 0.102405
O O6 0.660083 0.603949 0.094994
O O7 0.819357 0.686638 0.116994
O O8 0.104928 0.603710 0.875378
O O9 0.182613 0.500000 0.496763
O O10 0.307566 0.623476 0.510164
O O11 0.279187 0.640279 0.374273
O O12 0.914668 0.628036 0.671984
O O13 0.910739 0.116403 0.602732
O O14 0.661636 0.000000 0.682618
O O15 0.331801 0.500000 0.255241
O O16 0.337905 0.332434 0.197503
O O17 0.034469 0.162636 0.957242
O O18 0.620708 0.500000 0.846123
O O19 0.946053 0.000000 0.689559
#
# Coordination Sequence:
#
# PCOD9133663 Si02
#       8
#     4   4   4   4   4   4   4   4
#     4  11  20  33  54  80 114 140 176 219 279 321
#     4   9  19  34  54  80 110 141 177 226 274 316
#     4   9  20  37  55  79 111 144 181 227 275 320
#     4  10  19  33  52  76 107 140 179 224 264 316
#     4  10  20  37  57  78 107 144 182 225 275 321
#     4  11  20  34  56  86 108 140 187 226 263 326
#     4  11  22  36  55  83 115 145 179 224 274 325
#     4   9  18  32  52  80 108 138 176 221 267 319
#
# _framework density 9.8765429999999999
#
# number of rings (size 3 to 8) (size 9 to 14) (size 15 to 20)
#    0.000    2.000    1.250    3.750    0.000    2.000 
#    2.250    0.000    0.000    0.000    0.000    0.875 
#    0.000    0.000    0.000    0.000    0.000    0.000 
#
# Total GULP energy -89217.957721 kJ/mol
# GULP energy per Si atom -5576.122358 kJ/mol
# Density = 0.985406 g / cm^3
# Si number density = 9.876543 Si / 1000 Ang^3
#
#
#
# Elastic Constant Matrix: (Units=GPa)
#
#
# Indices 1 2 3 4 5 6 
#
# 1 101.7469 54.5594 25.0034 -0.0034 33.2531 0.0010
# 2 54.5594 127.2266 20.7594 -0.0155 19.7498 0.0050
# 3 25.0034 20.7594 37.0311 -0.0283 27.9081 0.0116
# 4 -0.0034 -0.0155 -0.0283 10.2950 0.0085 6.1139
# 5 33.2531 19.7498 27.9081 0.0085 30.4319 -0.0025
# 6 0.0010 0.0050 0.0116 6.1139 -0.0025 44.1603
#
#
#
# Elastic Compliance Matrix: (Units=1/GPa)
#
#
# Indices 1 2 3 4 5 6 
#
# 1 0.019060 -0.005737 0.010480 0.000056 -0.026716 -0.000012
# 2 -0.005737 0.010514 -0.005188 -0.000005 0.004203 0.000001
# 3 0.010480 -0.005188 0.093668 0.000380 -0.093985 -0.000082
# 4 0.000056 -0.000005 0.000380 0.105838 -0.000437 -0.014653
# 5 -0.026716 0.004203 -0.093985 -0.000437 0.145515 0.000093
# 6 -0.000012 0.000001 -0.000082 -0.014653 0.000093 0.024674
#
#
# Mechanical properties :
#
#
# Convention : Reuss Voigt Hill
#
# Bulk Modulus (GPa) = 8.17309 51.84986 30.01148
# Shear Modulus (GPa) = 11.33936 28.02293 19.68115
#
# Velocity S-wave (km/s) = 2.39854 3.77060 3.15994
# Velocity P-wave (km/s) = 3.43763 6.72774 5.34228
#
# Compressibility (1/GPa) = 0.12235271
#
# Stress axis : x y z
#
# Youngs Moduli (GPa) = 52.46541 95.10941 10.67606
#
# Poissons Ratio (x) = 0.54561 -0.11189
# Poissons Ratio (y) = 0.30097 0.05539
# Poissons Ratio (z) = -0.54986 0.49347
#
# Static dielectric constant tensor:
#      x y z
#    x 1.715850 0.000000 0.041240 
#    y 0.000000 1.704870 0.000000 
#    z 0.041240 0.000000 1.720390 
# 
# From -- ./inp_files/10763.got.cif
#   From: 2010.05.17/outbox.ucp.g08.bks.cvg/sg8_6_cif.got.tgz:10763.got - 2010.06.11 13:00:03.
