data_PCOD9133217
_publ_section_title
;
Structure prediction by ZEFSAII (Michael W. Deem and Ramdas Pophale) SiO2 
 PCOD9133217
Probable space group: C M
;
_chemical_formula_sum "Si O2"
_cell_formula_units_Z 28
_cell_length_a 18.855056
_cell_length_b 8.341872
_cell_length_c 13.939270
_cell_angle_alpha 90.000000
_cell_angle_beta 33.382573
_cell_angle_gamma 90.000000
_cell_volume 1206.349391
_symmetry_space_group_name_H-M "C M"
_symmetry_group_IT_number 8
_symmetry_cell_setting 'monoclinic'
loop_
_space_group_symop_operation_xyz
x,y,z
x,-y,z
1/2+x,1/2+y,z
1/2+x,1/2-y,z
loop_
_atom_site_type_symbol
_atom_site_label
_atom_site_fract_x
_atom_site_fract_y
_atom_site_fract_z
Si Si1 0.301850 0.683810 0.572780
Si Si2 0.928509 0.821209 0.737179
Si Si3 0.039401 0.809306 0.804040
Si Si4 0.150127 0.177236 0.068439
Si Si5 0.908064 0.317292 0.265839
Si Si6 0.793371 0.309451 0.186591
Si Si7 0.038066 0.246383 0.406964
O O1 0.320309 0.500000 0.585652
O O2 0.154198 0.733314 0.735635
O O3 0.346255 0.699504 0.412768
O O4 0.399582 0.799905 0.520137
O O5 0.040181 0.779992 0.688101
O O6 0.983993 0.826010 0.567705
O O7 0.884391 0.000000 0.814144
O O8 0.801029 0.714576 0.890299
O O9 0.040667 0.000000 0.818729
O O10 0.906527 0.729643 0.985709
O O11 0.098809 0.180943 0.237039
O O12 0.061363 0.297003 0.107342
O O13 0.125859 0.000000 0.057823
O O14 0.871163 0.500000 0.332728
O O15 0.854907 0.285093 0.221024
O O16 0.754331 0.500000 0.223248
O O17 0.673488 0.194079 0.297872
#
# Coordination Sequence:
#
# PCOD9133217 Si02
#       7
#     4   4   4   4   4   4   4
#     4  11  23  41  66  97 131 172 221 276 330 398
#     4  11  23  42  68  96 130 176 225 274 329 398
#     4  11  25  42  63  96 137 174 222 282 331 389
#     4  11  23  42  66  98 136 174 218 278 333 398
#     4  10  22  40  66  94 128 173 220 273 332 396
#     4  11  22  42  69  94 128 177 225 273 333 402
#     4  11  23  43  71  97 129 174 226 270 329 401
#
# _framework density 23.210521
#
# number of rings (size 3 to 8) (size 9 to 14) (size 15 to 20)
#    0.000    1.143    1.429    6.000    2.000    4.000 
#    0.000    5.000    0.000    0.000    0.000    0.000 
#    0.000    0.000    0.000    0.000    0.000    0.000 
#
# Total GULP energy -77986.798526 kJ/mol
# GULP energy per Si atom -5570.485609 kJ/mol
# Density = 2.315769 g / cm^3
# Si number density = 23.210521 Si / 1000 Ang^3
#
#
#
# Elastic Constant Matrix: (Units=GPa)
#
#
# Indices 1 2 3 4 5 6 
#
# 1 165.4898 25.1151 38.2680 0.0000 -13.3185 0.0000
# 2 25.1151 57.5529 16.1807 -0.0001 -0.1813 0.0000
# 3 38.2680 16.1807 93.0657 0.0000 -19.5113 0.0000
# 4 0.0000 -0.0001 0.0000 -0.8290 0.0000 4.8984
# 5 -13.3185 -0.1813 -19.5113 0.0000 45.1212 0.0000
# 6 0.0000 0.0000 0.0000 4.8984 0.0000 5.1476
#
#
#
# Elastic Compliance Matrix: (Units=1/GPa)
#
#
# Indices 1 2 3 4 5 6 
#
# 1 0.007016 -0.002431 -0.002233 0.000000 0.001096 0.000000
# 2 -0.002431 0.019195 -0.002718 0.000000 -0.001816 0.000000
# 3 -0.002233 -0.002718 0.013191 0.000000 0.005034 0.000000
# 4 0.000000 0.000000 0.000000 -0.182140 0.000000 0.173323
# 5 0.001096 -0.001816 0.005034 0.000000 0.024656 0.000000
# 6 0.000000 0.000000 0.000000 0.173323 0.000000 0.029333
#
#
# Mechanical properties :
#
#
# Convention : Reuss Voigt Hill
#
# Bulk Modulus (GPa) = 40.58698 52.80400 46.69549
# Shear Modulus (GPa) = -76.01845 25.65760 -25.18043
#
# Velocity S-wave (km/s) = -5.72912 3.32841 -3.29731
# Velocity P-wave (km/s) = 5.12244 6.12948 2.38024
#
# Compressibility (1/GPa) = 0.02463844
#
# Stress axis : x y z
#
# Youngs Moduli (GPa) = 142.53164 52.09818 75.80809
#
# Poissons Ratio (x) = 0.12663 0.16925
# Poissons Ratio (y) = 0.34643 0.20608
# Poissons Ratio (z) = 0.31822 0.14163
#
# Static dielectric constant tensor:
#      x y z
#    x 1.875290 0.000000 -0.018340 
#    y 0.000000 1.854500 0.000000 
#    z -0.018340 0.000000 1.869350 
# 
# From -- ./inp_files/27826.got.cif
#   From: 2010.05.17/outbox.cif.g08.bks.cpg/sg8_14_cif.got.tgz:27826.got - 2010.06.03 19:46:02.
