data_PCOD9133892
_publ_section_title
;
Structure prediction by ZEFSAII (Michael W. Deem and Ramdas Pophale) SiO2 
 PCOD9133892
Probable space group: C C
;
_chemical_formula_sum "Si O2"
_cell_formula_units_Z 32
_cell_length_a 30.731214
_cell_length_b 6.089917
_cell_length_c 18.820189
_cell_angle_alpha 90.000000
_cell_angle_beta 153.240313
_cell_angle_gamma 90.000000
_cell_volume 1585.872338
_symmetry_space_group_name_H-M "C C"
_symmetry_group_IT_number 9
_symmetry_cell_setting 'monoclinic'
loop_
_space_group_symop_operation_xyz
x,y,z
x,-y,1/2+z
1/2+x,1/2+y,z
1/2+x,1/2-y,1/2+z
loop_
_atom_site_type_symbol
_atom_site_label
_atom_site_fract_x
_atom_site_fract_y
_atom_site_fract_z
Si Si1 0.621760 0.889133 0.682390
Si Si2 0.826402 0.156590 0.310294
Si Si3 0.681693 0.219929 0.579699
Si Si4 0.211362 0.772366 0.881579
Si Si5 0.802663 0.495002 0.149025
Si Si6 0.514207 0.499441 0.552228
Si Si7 0.504483 0.211571 0.407645
Si Si8 0.760569 0.472405 0.321089
O O1 0.540073 0.752973 0.603694
O O2 0.677847 0.697291 0.724145
O O3 0.696188 0.017867 0.841056
O O4 0.570456 0.049937 0.552395
O O5 0.835454 0.323738 0.257648
O O6 0.834593 0.307208 0.391992
O O7 0.726018 0.023780 0.154156
O O8 0.908150 0.969348 0.428942
O O9 0.727689 0.333850 0.576828
O O10 0.565743 0.227307 0.424103
O O11 0.722581 0.365635 0.704761
O O12 0.276189 0.882304 0.913770
O O13 0.101500 0.862788 0.712679
O O14 0.252005 0.850011 0.014931
O O15 0.895960 0.617946 0.251661
O O16 0.504343 0.433705 0.454707
#
# Coordination Sequence:
#
# PCOD9133892 Si02
#       8
#     4   4   4   4   4   4   4   4
#     4  10  17  36  63  85 110 171 211 251 312 380
#     4  11  21  35  63  92 121 165 218 260 312 393
#     4  11  21  38  65  96 127 160 222 274 307 387
#     4  10  22  39  58  88 130 163 205 268 328 383
#     4  11  25  38  61  97 133 166 209 268 334 380
#     4  10  20  37  64  87 114 170 216 255 311 386
#     4  11  19  38  65  90 126 167 216 261 316 388
#     4  10  19  35  63  87 119 160 217 257 318 369
#
# _framework density 20.178170000000001
#
# number of rings (size 3 to 8) (size 9 to 14) (size 15 to 20)
#    0.000    1.500    7.500    0.000    0.000    2.000 
#    2.250    0.000    5.500    0.000    0.000    0.000 
#    0.000    0.000    0.000    0.000    0.000    0.000 
#
# Total GULP energy -89105.600069 kJ/mol
# GULP energy per Si atom -5569.100004 kJ/mol
# Density = 2.013224 g / cm^3
# Si number density = 20.178170 Si / 1000 Ang^3
#
#
#
# Elastic Constant Matrix: (Units=GPa)
#
#
# Indices 1 2 3 4 5 6 
#
# 1 87.3813 15.4523 31.9935 0.0000 23.9186 0.0000
# 2 15.4523 74.4890 7.2591 0.0001 5.7022 0.0000
# 3 31.9935 7.2591 53.5380 0.0000 10.2913 0.0000
# 4 0.0000 0.0001 0.0000 18.9854 0.0000 3.4781
# 5 23.9186 5.7022 10.2913 0.0000 31.2925 0.0000
# 6 0.0000 0.0000 0.0000 3.4781 0.0000 29.7407
#
#
#
# Elastic Compliance Matrix: (Units=1/GPa)
#
#
# Indices 1 2 3 4 5 6 
#
# 1 0.017699 -0.002065 -0.008293 0.000000 -0.010425 0.000000
# 2 -0.002065 0.013964 -0.000505 0.000000 -0.000800 0.000000
# 3 -0.008293 -0.000505 0.023982 0.000000 -0.001456 0.000000
# 4 0.000000 0.000000 0.000000 0.053825 0.000000 -0.006295
# 5 -0.010425 -0.000800 -0.001456 0.000000 0.040550 0.000000
# 6 0.000000 0.000000 0.000000 -0.006295 0.000000 0.034360
#
#
# Mechanical properties :
#
#
# Convention : Reuss Voigt Hill
#
# Bulk Modulus (GPa) = 29.48269 36.09091 32.78680
# Shear Modulus (GPa) = 22.99763 26.71727 24.85745
#
# Velocity S-wave (km/s) = 3.37965 3.64272 3.51365
# Velocity P-wave (km/s) = 5.46555 5.96804 5.72231
#
# Compressibility (1/GPa) = 0.03391821
#
# Stress axis : x y z
#
# Youngs Moduli (GPa) = 56.49969 71.61422 41.69707
#
# Poissons Ratio (x) = 0.14791 0.34579
# Poissons Ratio (y) = 0.11669 0.02107
# Poissons Ratio (z) = 0.46854 0.03619
#
# Static dielectric constant tensor:
#      x y z
#    x 1.805240 0.000000 0.076180 
#    y 0.000000 1.775430 0.000000 
#    z 0.076180 0.000000 1.717990 
# 
# From -- ./inp_files/26467.got.cif
#   From: 2010.05.17/outbox.cif.g08.bks.cpg/sg9_14_cif.got.tgz:26467.got - 2010.06.03 20:04:27.
