data_PCOD9133860
_publ_section_title
;
Structure prediction by ZEFSAII (Michael W. Deem and Ramdas Pophale) SiO2 
 PCOD9133860
Probable space group: C C
;
_chemical_formula_sum "Si O2"
_cell_formula_units_Z 32
_cell_length_a 24.219318
_cell_length_b 7.148819
_cell_length_c 11.097176
_cell_angle_alpha 90.000000
_cell_angle_beta 43.108795
_cell_angle_gamma 90.000000
_cell_volume 1313.030049
_symmetry_space_group_name_H-M "C C"
_symmetry_group_IT_number 9
_symmetry_cell_setting 'monoclinic'
loop_
_space_group_symop_operation_xyz
x,y,z
x,-y,1/2+z
1/2+x,1/2+y,z
1/2+x,1/2-y,1/2+z
loop_
_atom_site_type_symbol
_atom_site_label
_atom_site_fract_x
_atom_site_fract_y
_atom_site_fract_z
Si Si1 0.854520 0.324620 0.592530
Si Si2 0.539134 0.220622 0.817801
Si Si3 0.818727 0.707504 0.720145
Si Si4 0.785591 0.076944 0.878117
Si Si5 0.889818 0.348968 0.875071
Si Si6 0.137001 0.730756 0.425001
Si Si7 0.072983 0.315150 0.519039
Si Si8 0.106073 0.687256 0.218774
O O1 0.837651 0.492109 0.717165
O O2 0.794061 0.162505 0.728818
O O3 0.851442 0.449429 0.475489
O O4 0.944245 0.242791 0.459753
O O5 0.585935 0.282575 0.624297
O O6 0.547148 0.992520 0.811809
O O7 0.578372 0.282749 0.881522
O O8 0.887123 0.750822 0.511582
O O9 0.814518 0.864117 0.827514
O O10 0.729941 0.715855 0.799030
O O11 0.841745 0.203991 0.870709
O O12 0.695636 0.099165 0.068631
O O13 0.979033 0.373514 0.682119
O O14 0.125286 0.505030 0.435653
O O15 0.102992 0.794209 0.349702
O O16 0.093938 0.211050 0.610172
#
# Coordination Sequence:
#
# PCOD9133860 Si02
#       8
#     4   4   4   4   4   4   4   4
#     4  10  22  40  62  95 129 165 216 270 319 383
#     4  10  18  34  64  92 121 174 216 250 325 389
#     4  10  21  39  61  96 130 162 214 272 313 389
#     4  12  21  40  66  93 131 174 212 266 337 374
#     4  10  21  40  60  92 134 163 218 273 306 398
#     4  10  17  33  62  93 117 170 216 252 320 386
#     4  10  18  34  64  90 123 172 215 257 320 387
#     4  10  18  32  63  89 125 166 211 262 318 378
#
# _framework density 24.371112
#
# number of rings (size 3 to 8) (size 9 to 14) (size 15 to 20)
#    0.750    1.000    7.500    0.000    0.000    0.000 
#    2.250    0.000    5.500    3.000    0.000    0.000 
#    0.000    0.000    0.000    0.000    0.000    0.000 
#
# Total GULP energy -89254.499550 kJ/mol
# GULP energy per Si atom -5578.406222 kJ/mol
# Density = 2.431564 g / cm^3
# Si number density = 24.371112 Si / 1000 Ang^3
#
#
#
# Elastic Constant Matrix: (Units=GPa)
#
#
# Indices 1 2 3 4 5 6 
#
# 1 90.5315 17.5567 35.6200 0.0000 30.2315 0.0000
# 2 17.5567 88.1871 19.9719 0.0001 4.0656 0.0000
# 3 35.6200 19.9719 135.6607 0.0000 12.5567 0.0000
# 4 0.0000 0.0001 0.0000 11.9906 0.0000 -2.3576
# 5 30.2315 4.0656 12.5567 0.0000 54.2360 0.0000
# 6 0.0000 0.0000 0.0000 -2.3576 0.0000 -2.4842
#
#
#
# Elastic Compliance Matrix: (Units=1/GPa)
#
#
# Indices 1 2 3 4 5 6 
#
# 1 0.015142 -0.001989 -0.002979 0.000000 -0.007602 0.000000
# 2 -0.001989 0.012005 -0.001292 0.000000 0.000508 0.000000
# 3 -0.002979 -0.001292 0.008360 0.000000 -0.000178 0.000000
# 4 0.000000 0.000000 0.000000 0.070284 0.000000 -0.066701
# 5 -0.007602 0.000508 -0.000178 0.000000 0.022678 0.000000
# 6 0.000000 0.000000 0.000000 -0.066701 0.000000 -0.339242
#
#
# Mechanical properties :
#
#
# Convention : Reuss Voigt Hill
#
# Bulk Modulus (GPa) = 43.50521 51.18627 47.34574
# Shear Modulus (GPa) = -26.23447 28.83054 1.29803
#
# Velocity S-wave (km/s) = -3.28450 3.44318 0.73059
# Velocity P-wave (km/s) = 1.87242 6.07089 4.49231
#
# Compressibility (1/GPa) = 0.02298575
#
# Stress axis : x y z
#
# Youngs Moduli (GPa) = 66.03997 83.30027 119.61288
#
# Poissons Ratio (x) = 0.16572 0.35637
# Poissons Ratio (y) = 0.13138 0.15454
# Poissons Ratio (z) = 0.19676 0.10762
#
# Static dielectric constant tensor:
#      x y z
#    x 2.030030 0.000000 0.113230 
#    y 0.000000 1.922230 0.000000 
#    z 0.113230 0.000000 1.945860 
# 
# From -- ./inp_files/21163.got.cif
#   From: 2010.05.17/outbox.cif.g08.bks.cpg/sg9_11_cif.got.tgz:21163.got - 2010.06.03 20:04:27.
