data_PCOD9133522
_publ_section_title
;
Structure prediction by ZEFSAII (Michael W. Deem and Ramdas Pophale) SiO2 
 PCOD9133522
Probable space group: C M
;
_chemical_formula_sum "Si O2"
_cell_formula_units_Z 32
_cell_length_a 9.659793
_cell_length_b 22.529160
_cell_length_c 11.356563
_cell_angle_alpha 90.000000
_cell_angle_beta 136.132845
_cell_angle_gamma 90.000000
_cell_volume 1712.717989
_symmetry_space_group_name_H-M "C M"
_symmetry_group_IT_number 8
_symmetry_cell_setting 'monoclinic'
loop_
_space_group_symop_operation_xyz
x,y,z
x,-y,z
1/2+x,1/2+y,z
1/2+x,1/2-y,z
loop_
_atom_site_type_symbol
_atom_site_label
_atom_site_fract_x
_atom_site_fract_y
_atom_site_fract_z
Si Si1 0.959370 0.212913 0.900410
Si Si2 0.915260 0.069950 0.645215
Si Si3 0.538117 0.251211 0.687707
Si Si4 0.951029 0.429545 0.377410
Si Si5 0.565373 0.784850 0.159689
Si Si6 0.737041 0.618868 0.026358
Si Si7 0.472051 0.649121 0.466366
Si Si8 0.702081 0.667452 0.373869
O O1 0.744813 0.217241 0.827676
O O2 0.957567 0.219808 0.758419
O O3 0.077603 0.267647 0.030353
O O4 0.068064 0.152208 0.998506
O O5 0.685500 0.089997 0.534865
O O6 0.957085 0.092050 0.539071
O O7 0.905556 0.000000 0.645223
O O8 0.101886 0.089505 0.841937
O O9 0.578878 0.301869 0.615099
O O10 0.379436 0.205646 0.540477
O O11 0.933892 0.500000 0.397147
O O12 0.874417 0.420959 0.195122
O O13 0.809476 0.384597 0.364684
O O14 0.374428 0.826344 0.065781
O O15 0.753990 0.822941 0.314459
O O16 0.578206 0.720613 0.232500
O O17 0.574355 0.641695 0.403566
#
# Coordination Sequence:
#
# PCOD9133522 Si02
#       8
#     4   4   4   4   4   4   4   4
#     4  12  20  36  57  92 126 164 203 256 325 388
#     4  11  24  43  68  91 120 173 229 267 310 379
#     4  11  23  35  59  91 131 163 206 257 326 390
#     4  11  25  46  68  92 126 174 223 268 313 378
#     4  11  23  35  62  95 133 163 208 263 331 389
#     4  12  22  40  66  96 127 163 216 267 313 381
#     4  11  22  39  58  90 129 167 208 264 322 381
#     4  11  24  38  61  95 128 169 205 266 330 388
#
# _framework density 18.683752999999999
#
# number of rings (size 3 to 8) (size 9 to 14) (size 15 to 20)
#    0.000    0.750    6.250    1.875    1.750    0.500 
#    0.000    0.000    0.000    0.000    0.000    0.000 
#    0.000    0.000    0.000    0.000    0.000    0.000 
#
# Total GULP energy -89172.213551 kJ/mol
# GULP energy per Si atom -5573.263347 kJ/mol
# Density = 1.864123 g / cm^3
# Si number density = 18.683753 Si / 1000 Ang^3
#
#
#
# Elastic Constant Matrix: (Units=GPa)
#
#
# Indices 1 2 3 4 5 6 
#
# 1 98.3021 43.0438 35.9734 0.0000 -3.4398 0.0000
# 2 43.0438 79.7704 37.6147 0.0000 1.8477 0.0000
# 3 35.9734 37.6147 106.6845 0.0000 2.0008 0.0000
# 4 0.0000 0.0000 0.0000 29.1868 0.0000 3.6868
# 5 -3.4398 1.8477 2.0008 0.0000 28.3269 0.0000
# 6 0.0000 0.0000 0.0000 3.6868 0.0000 24.2583
#
#
#
# Elastic Compliance Matrix: (Units=1/GPa)
#
#
# Indices 1 2 3 4 5 6 
#
# 1 0.013976 -0.006419 -0.002492 0.000000 0.002292 0.000000
# 2 -0.006419 0.017995 -0.004149 0.000000 -0.001660 0.000000
# 3 -0.002492 -0.004149 0.011693 0.000000 -0.000858 0.000000
# 4 0.000000 0.000000 0.000000 0.034933 0.000000 -0.005309
# 5 0.002292 -0.001660 -0.000858 0.000000 0.035749 0.000000
# 6 0.000000 0.000000 0.000000 -0.005309 0.000000 0.042030
#
#
# Mechanical properties :
#
#
# Convention : Reuss Voigt Hill
#
# Bulk Modulus (GPa) = 57.00465 57.55786 57.28125
# Shear Modulus (GPa) = 26.54732 27.56273 27.05503
#
# Velocity S-wave (km/s) = 3.77354 3.84503 3.80945
# Velocity P-wave (km/s) = 7.04008 7.11236 7.07631
#
# Compressibility (1/GPa) = 0.01754243
#
# Stress axis : x y z
#
# Youngs Moduli (GPa) = 71.55265 55.57252 85.52350
#
# Poissons Ratio (x) = 0.35673 0.21315
# Poissons Ratio (y) = 0.45931 0.35482
# Poissons Ratio (z) = 0.17833 0.23056
#
# Static dielectric constant tensor:
#      x y z
#    x 1.646020 0.000000 0.003460 
#    y 0.000000 1.649580 0.000000 
#    z 0.003460 0.000000 1.728680 
# 
# From -- ./inp_files/19285.got.cif
#   From: 2010.05.17/outbox.cif.g08.bks.cpg/sg8_10_cif.got.tgz:19285.got - 2010.06.03 19:46:02.
