data_PCOD9133280
_publ_section_title
;
Structure prediction by ZEFSAII (Michael W. Deem and Ramdas Pophale) SiO2 
 PCOD9133280
Probable space group: C M
;
_chemical_formula_sum "Si O2"
_cell_formula_units_Z 28
_cell_length_a 5.473225
_cell_length_b 31.123574
_cell_length_c 7.947338
_cell_angle_alpha 90.000000
_cell_angle_beta 123.367184
_cell_angle_gamma 90.000000
_cell_volume 1130.643526
_symmetry_space_group_name_H-M "C M"
_symmetry_group_IT_number 8
_symmetry_cell_setting 'monoclinic'
loop_
_space_group_symop_operation_xyz
x,y,z
x,-y,z
1/2+x,1/2+y,z
1/2+x,1/2-y,z
loop_
_atom_site_type_symbol
_atom_site_label
_atom_site_fract_x
_atom_site_fract_y
_atom_site_fract_z
Si Si1 0.606250 0.635962 0.730450
Si Si2 0.084392 0.411604 0.457462
Si Si3 0.097622 0.417407 0.074931
Si Si4 0.108203 0.232974 0.717374
Si Si5 0.308419 0.731724 0.238299
Si Si6 0.005383 0.500000 0.592655
Si Si7 0.581161 0.360526 0.313789
Si Si8 0.217360 0.000000 0.828705
O O1 0.356473 0.601421 0.675631
O O2 0.533305 0.684729 0.744299
O O3 0.621398 0.633685 0.531629
O O4 0.892645 0.621032 0.933557
O O5 0.948720 0.454613 0.481331
O O6 0.146469 0.422904 0.290687
O O7 0.909235 0.366575 0.376333
O O8 0.418602 0.399172 0.151654
O O9 0.918912 0.459162 0.953394
O O10 0.448584 0.236776 0.792806
O O11 0.956979 0.241220 0.477674
O O12 0.468798 0.762021 0.160909
O O13 0.413897 0.683923 0.229016
O O14 0.371932 0.500000 0.755638
O O15 0.759730 0.500000 0.644699
#
# Coordination Sequence:
#
# PCOD9133280 Si02
#       8
#     4   4   4   4   4   2   4   2
#     4  10  22  42  67  95 140 181 229 286 341 410
#     4  11  25  43  71 102 138 180 229 286 344 413
#     4  11  25  45  69 104 138 180 229 284 346 415
#     4   9  19  35  60  96 128 178 230 280 335 398
#     4   9  19  35  63  94 134 180 230 282 337 400
#     4  12  27  49  76 103 138 182 230 280 351 416
#     4  10  24  40  68 101 136 187 233 286 343 406
#     4  12  27  49  76 103 138 186 226 280 355 412
#
# _framework density 24.764661
#
# number of rings (size 3 to 8) (size 9 to 14) (size 15 to 20)
#    0.000    1.714    1.429    1.286   16.000    1.714 
#    0.000    1.429    0.000    0.000    0.000    0.000 
#    0.000    0.000    0.000    0.000    0.000    0.000 
#
# Total GULP energy -78038.627654 kJ/mol
# GULP energy per Si atom -5574.187690 kJ/mol
# Density = 2.470830 g / cm^3
# Si number density = 24.764661 Si / 1000 Ang^3
#
#
#
# Elastic Constant Matrix: (Units=GPa)
#
#
# Indices 1 2 3 4 5 6 
#
# 1 53.0607 14.2497 3.4202 0.0000 14.4189 0.0000
# 2 14.2497 96.7726 8.0795 0.0000 -7.3355 0.0000
# 3 3.4202 8.0795 48.9739 0.0000 17.7452 0.0000
# 4 0.0000 0.0000 0.0000 40.1456 0.0000 -1.4278
# 5 14.4189 -7.3355 17.7452 0.0000 31.9901 0.0000
# 6 0.0000 0.0000 0.0000 -1.4278 0.0000 25.6330
#
#
#
# Elastic Compliance Matrix: (Units=1/GPa)
#
#
# Indices 1 2 3 4 5 6 
#
# 1 0.023763 -0.004938 0.004313 0.000000 -0.014236 0.000000
# 2 -0.004938 0.011977 -0.004296 0.000000 0.007355 0.000000
# 3 0.004313 -0.004296 0.027394 0.000000 -0.018125 0.000000
# 4 0.000000 0.000000 0.000000 0.024959 0.000000 0.001390
# 5 -0.014236 0.007355 -0.018125 0.000000 0.049417 0.000000
# 6 0.000000 0.000000 0.000000 0.001390 0.000000 0.039090
#
#
# Mechanical properties :
#
#
# Convention : Reuss Voigt Hill
#
# Bulk Modulus (GPa) = 18.76466 27.81177 23.28822
# Shear Modulus (GPa) = 24.48516 31.09092 27.78804
#
# Velocity S-wave (km/s) = 3.14779 3.54708 3.35339
# Velocity P-wave (km/s) = 4.56126 5.29439 4.94144
#
# Compressibility (1/GPa) = 0.05329167
#
# Stress axis : x y z
#
# Youngs Moduli (GPa) = 42.08220 83.49410 36.50440
#
# Poissons Ratio (x) = 0.41232 -0.15746
# Poissons Ratio (y) = 0.20781 0.15683
# Poissons Ratio (z) = -0.18152 0.35870
#
# Static dielectric constant tensor:
#      x y z
#    x 2.014710 0.000000 0.043080 
#    y 0.000000 1.988360 0.000000 
#    z 0.043080 0.000000 1.995190 
# 
# From -- ./inp_files/7237.got.cif
#   From: 2010.05.17/outbox.cif.g08.bks.cpg/sg8_4_cif.got.tgz:7237.got - 2010.06.03 19:46:02.
