data_PCOD9133155
_publ_section_title
;
Structure prediction by ZEFSAII (Michael W. Deem and Ramdas Pophale) SiO2 
 PCOD9133155
Probable space group: C M
;
_chemical_formula_sum "Si O2"
_cell_formula_units_Z 30
_cell_length_a 7.449143
_cell_length_b 22.305628
_cell_length_c 8.882783
_cell_angle_alpha 90.000000
_cell_angle_beta 109.518823
_cell_angle_gamma 90.000000
_cell_volume 1391.123927
_symmetry_space_group_name_H-M "C M"
_symmetry_group_IT_number 8
_symmetry_cell_setting 'monoclinic'
loop_
_space_group_symop_operation_xyz
x,y,z
x,-y,z
1/2+x,1/2+y,z
1/2+x,1/2-y,z
loop_
_atom_site_type_symbol
_atom_site_label
_atom_site_fract_x
_atom_site_fract_y
_atom_site_fract_z
Si Si1 0.413400 0.429393 0.639740
Si Si2 0.003343 0.828748 0.897575
Si Si3 0.563792 0.195789 0.826189
Si Si4 0.932219 0.500000 0.746886
Si Si5 0.471026 0.894527 0.554142
Si Si6 0.232426 0.893967 0.194411
Si Si7 0.387363 0.568721 0.294296
Si Si8 0.009880 0.596971 0.023530
O O1 0.468244 0.500000 0.675411
O O2 0.514178 0.385916 0.787894
O O3 0.185288 0.422285 0.602354
O O4 0.441545 0.408556 0.475549
O O5 0.047195 0.766619 0.827900
O O6 0.784162 0.823911 0.887652
O O7 0.133488 0.838896 0.079906
O O8 0.477018 0.165662 0.653297
O O9 0.468812 0.162404 0.941993
O O10 0.860582 0.446930 0.610863
O O11 0.016592 0.552170 0.885119
O O12 0.382599 0.881344 0.367796
O O13 0.060749 0.928209 0.226717
O O14 0.349675 0.925220 0.094129
O O15 0.328432 0.500000 0.302498
O O16 0.206515 0.600052 0.169144
#
# Coordination Sequence:
#
# PCOD9133155 Si02
#       8
#     4   4   4   2   4   4   4   4
#     4  10  22  44  70  99 143 184 230 286 359 409
#     4  11  24  46  71 103 139 187 233 291 344 428
#     4  10  23  46  70  98 141 185 232 284 355 412
#     4  10  22  38  70  94 142 188 218 276 364 404
#     4  10  22  42  70 100 136 186 230 288 346 422
#     4  12  26  41  69 104 135 182 243 282 349 410
#     4  11  24  40  66 103 140 177 231 292 347 413
#     4  11  22  44  68  98 138 182 228 291 345 409
#
# _framework density 21.565297000000001
#
# number of rings (size 3 to 8) (size 9 to 14) (size 15 to 20)
#    0.000    1.333    4.000    0.800    1.867    3.733 
#    4.800    1.333    0.000    0.000    0.000    0.000 
#    0.000    0.000    0.000    0.000    0.000    0.000 
#
# Total GULP energy -83580.014274 kJ/mol
# GULP energy per Si atom -5572.000952 kJ/mol
# Density = 2.151621 g / cm^3
# Si number density = 21.565297 Si / 1000 Ang^3
#
#
#
# Elastic Constant Matrix: (Units=GPa)
#
#
# Indices 1 2 3 4 5 6 
#
# 1 74.9526 6.9213 28.4818 0.0000 -9.7197 0.0000
# 2 6.9213 136.2357 68.9993 0.0000 -3.1528 0.0000
# 3 28.4818 68.9993 156.5910 0.0000 1.3451 0.0000
# 4 0.0000 0.0000 0.0000 15.3966 0.0000 -0.2418
# 5 -9.7197 -3.1528 1.3451 0.0000 25.5482 0.0000
# 6 0.0000 0.0000 0.0000 -0.2418 0.0000 -1.2076
#
#
#
# Elastic Compliance Matrix: (Units=1/GPa)
#
#
# Indices 1 2 3 4 5 6 
#
# 1 0.015289 0.001030 -0.003287 0.000000 0.006117 0.000000
# 2 0.001030 0.009568 -0.004419 0.000000 0.001805 0.000000
# 3 -0.003287 -0.004419 0.008950 0.000000 -0.002267 0.000000
# 4 0.000000 0.000000 0.000000 0.064746 0.000000 -0.012965
# 5 0.006117 0.001805 -0.002267 0.000000 0.041811 0.000000
# 6 0.000000 0.000000 0.000000 -0.012965 0.000000 -0.825461
#
#
# Mechanical properties :
#
#
# Convention : Reuss Voigt Hill
#
# Bulk Modulus (GPa) = 48.88812 64.06487 56.47650
# Shear Modulus (GPa) = -7.51963 25.50588 8.99313
#
# Velocity S-wave (km/s) = -1.86935 3.44281 2.04432
# Velocity P-wave (km/s) = 4.24967 6.75099 5.64072
#
# Compressibility (1/GPa) = 0.02045487
#
# Stress axis : x y z
#
# Youngs Moduli (GPa) = 65.40657 104.51990 111.72704
#
# Poissons Ratio (x) = -0.10762 0.36726
# Poissons Ratio (y) = -0.06734 0.49367
# Poissons Ratio (z) = 0.21500 0.46183
#
# Static dielectric constant tensor:
#      x y z
#    x 1.910700 0.000000 -0.014640 
#    y 0.000000 1.741900 0.000000 
#    z -0.014640 0.000000 1.766050 
# 
# From -- ./inp_files/9037.got.cif
#   From: 2010.05.17/outbox.cif.g08.bks.cpg/sg8_5_cif.got.tgz:9037.got - 2010.06.03 19:46:02.
