data_PCOD9133565
_publ_section_title
;
Structure prediction by ZEFSAII (Michael W. Deem and Ramdas Pophale) SiO2 
 PCOD9133565
Probable space group: C M
;
_chemical_formula_sum "Si O2"
_cell_formula_units_Z 32
_cell_length_a 11.696240
_cell_length_b 30.622987
_cell_length_c 8.017506
_cell_angle_alpha 90.000000
_cell_angle_beta 34.835205
_cell_angle_gamma 90.000000
_cell_volume 1640.344271
_symmetry_space_group_name_H-M "C M"
_symmetry_group_IT_number 8
_symmetry_cell_setting 'monoclinic'
loop_
_space_group_symop_operation_xyz
x,y,z
x,-y,z
1/2+x,1/2+y,z
1/2+x,1/2-y,z
loop_
_atom_site_type_symbol
_atom_site_label
_atom_site_fract_x
_atom_site_fract_y
_atom_site_fract_z
Si Si1 0.230270 0.794127 0.647880
Si Si2 0.498449 0.157813 0.582199
Si Si3 0.358713 0.296670 0.334239
Si Si4 0.033720 0.450448 0.089602
Si Si5 0.254899 0.580334 0.147413
Si Si6 0.094818 0.872484 0.229022
Si Si7 0.667652 0.383549 0.529116
Si Si8 0.826204 0.049647 0.426092
O O1 0.392640 0.806297 0.594036
O O2 0.296353 0.749700 0.482407
O O3 0.218339 0.835840 0.540446
O O4 0.015473 0.790155 0.995438
O O5 0.660777 0.178988 0.508462
O O6 0.615721 0.122885 0.330506
O O7 0.319564 0.134314 0.894691
O O8 0.470097 0.329213 0.328971
O O9 0.953901 0.500000 0.183222
O O10 0.178963 0.445146 0.075666
O O11 0.857148 0.415448 0.312743
O O12 0.158844 0.443700 0.769516
O O13 0.241946 0.555965 0.340373
O O14 0.482704 0.595909 0.851460
O O15 0.098423 0.879566 0.421295
O O16 0.992435 0.913655 0.261365
O O17 0.902239 0.000000 0.352794
#
# Coordination Sequence:
#
# PCOD9133565 Si02
#       8
#     4   4   4   4   4   4   4   4
#     4  11  26  42  65 102 129 178 228 274 342 402
#     4  11  23  45  69  93 138 175 222 279 336 404
#     4  11  26  44  67  97 137 174 226 281 333 408
#     4  11  26  45  68 103 137 180 229 280 343 405
#     4  12  22  46  72  95 136 180 227 277 338 400
#     4  11  25  44  68 103 134 181 222 275 346 402
#     4  12  25  43  70 101 136 178 226 280 337 407
#     4  11  24  45  70 100 139 178 227 284 340 402
#
# _framework density 19.508099000000001
#
# number of rings (size 3 to 8) (size 9 to 14) (size 15 to 20)
#    0.000    0.750    5.000    1.875    3.500    3.500 
#    0.000    0.625    0.000    0.000    0.000    0.000 
#    0.000    0.000    0.000    0.000    0.000    0.000 
#
# Total GULP energy -89479.094416 kJ/mol
# GULP energy per Si atom -5592.443401 kJ/mol
# Density = 1.946370 g / cm^3
# Si number density = 19.508099 Si / 1000 Ang^3
#
#
#
# Elastic Constant Matrix: (Units=GPa)
#
#
# Indices 1 2 3 4 5 6 
#
# 1 111.2708 39.3875 51.9464 0.0000 10.7716 0.0000
# 2 39.3875 143.6565 75.3025 0.0000 -0.9037 0.0000
# 3 51.9464 75.3025 113.0904 0.0000 -2.5382 0.0000
# 4 0.0000 0.0000 0.0000 14.7373 0.0000 11.3067
# 5 10.7716 -0.9037 -2.5382 0.0000 30.0633 0.0000
# 6 0.0000 0.0000 0.0000 11.3067 0.0000 12.2349
#
#
#
# Elastic Compliance Matrix: (Units=1/GPa)
#
#
# Indices 1 2 3 4 5 6 
#
# 1 0.012129 -0.000582 -0.005292 0.000000 -0.004810 0.000000
# 2 -0.000582 0.010724 -0.006874 0.000000 -0.000050 0.000000
# 3 -0.005292 -0.006874 0.015919 0.000000 0.003033 0.000000
# 4 0.000000 0.000000 0.000000 0.233187 0.000000 -0.215495
# 5 -0.004810 -0.000050 0.003033 0.000000 0.035241 0.000000
# 6 0.000000 0.000000 0.000000 -0.215495 0.000000 0.280879
#
#
# Mechanical properties :
#
#
# Convention : Reuss Voigt Hill
#
# Bulk Modulus (GPa) = 75.32746 77.92118 76.62432
# Shear Modulus (GPa) = 8.09061 24.83252 16.46157
#
# Velocity S-wave (km/s) = 2.03870 3.57169 2.90803
# Velocity P-wave (km/s) = 6.65124 7.55242 7.11611
#
# Compressibility (1/GPa) = 0.01327537
#
# Stress axis : x y z
#
# Youngs Moduli (GPa) = 82.44567 93.25144 62.81943
#
# Poissons Ratio (x) = 0.05426 0.33243
# Poissons Ratio (y) = 0.04798 0.43184
# Poissons Ratio (z) = 0.43629 0.64104
#
# Static dielectric constant tensor:
#      x y z
#    x 1.678200 0.000000 0.012030 
#    y 0.000000 1.660160 0.000000 
#    z 0.012030 0.000000 1.664280 
# 
# From -- ./inp_files/11707.got.cif
#   From: 2010.05.17/outbox.cif.g08.bks.cpg/sg8_6_cif.got.tgz:11707.got - 2010.06.03 19:46:02.
