data_PCOD9133164
_publ_section_title
;
Structure prediction by ZEFSAII (Michael W. Deem and Ramdas Pophale) SiO2 
 PCOD9133164
Probable space group: C M
;
_chemical_formula_sum "Si O2"
_cell_formula_units_Z 32
_cell_length_a 9.719099
_cell_length_b 17.068912
_cell_length_c 11.795305
_cell_angle_alpha 90.000000
_cell_angle_beta 54.517380
_cell_angle_gamma 90.000000
_cell_volume 1593.385980
_symmetry_space_group_name_H-M "C M"
_symmetry_group_IT_number 8
_symmetry_cell_setting 'monoclinic'
loop_
_space_group_symop_operation_xyz
x,y,z
x,-y,z
1/2+x,1/2+y,z
1/2+x,1/2-y,z
loop_
_atom_site_type_symbol
_atom_site_label
_atom_site_fract_x
_atom_site_fract_y
_atom_site_fract_z
Si Si1 0.010150 0.876348 0.767250
Si Si2 0.516037 0.907125 0.159238
Si Si3 0.246896 0.845681 0.458282
Si Si4 0.137433 0.410527 0.869049
Si Si5 0.779547 0.094028 0.221773
Si Si6 0.543431 0.198532 0.480897
Si Si7 0.967521 0.689344 0.775068
Si Si8 0.140494 0.909519 0.956041
O O1 0.138096 0.893544 0.602294
O O2 0.079753 0.904920 0.854110
O O3 0.827644 0.910014 0.824325
O O4 0.986578 0.781942 0.784191
O O5 0.350730 0.890083 0.311886
O O6 0.676389 0.881115 0.157868
O O7 0.533923 0.000000 0.137649
O O8 0.525414 0.876608 0.026838
O O9 0.388800 0.802640 0.467213
O O10 0.124807 0.783386 0.457945
O O11 0.089433 0.500000 0.863978
O O12 0.114323 0.354961 0.772937
O O13 0.686502 0.139685 0.366312
O O14 0.759136 0.000000 0.244063
O O15 0.976437 0.110501 0.109823
O O16 0.480001 0.173751 0.635131
O O17 0.792827 0.650736 0.899918
O O18 0.189663 0.000000 0.956005
#
# Coordination Sequence:
#
# PCOD9133164 Si02
#       8
#     4   4   4   4   4   4   4   4
#     4  11  22  39  62  89 118 158 204 242 295 357
#     4   9  19  39  61  85 116 155 199 243 291 348
#     4  10  22  39  62  87 119 155 198 247 292 350
#     4  11  23  41  62  89 124 159 196 248 302 352
#     4   9  19  38  62  86 115 153 200 246 288 347
#     4  10  22  40  61  86 120 157 197 243 297 350
#     4  11  24  39  60  90 125 156 195 249 305 349
#     4  11  21  39  62  90 119 155 203 246 290 357
#
# _framework density 20.083019
#
# number of rings (size 3 to 8) (size 9 to 14) (size 15 to 20)
#    0.000    1.750    2.500    1.500    5.250    4.000 
#    2.250    0.000    0.000    0.000    0.000    0.000 
#    0.000    0.000    0.000    0.000    0.000    0.000 
#
# Total GULP energy -89360.126411 kJ/mol
# GULP energy per Si atom -5585.007901 kJ/mol
# Density = 2.003731 g / cm^3
# Si number density = 20.083019 Si / 1000 Ang^3
#
#
#
# Elastic Constant Matrix: (Units=GPa)
#
#
# Indices 1 2 3 4 5 6 
#
# 1 42.9463 -0.8190 -7.2690 0.0000 -2.9210 0.0000
# 2 -0.8190 45.1004 6.9382 0.0000 2.3779 0.0000
# 3 -7.2690 6.9382 59.0348 0.0000 -16.9387 0.0000
# 4 0.0000 0.0000 0.0000 23.9459 0.0000 -11.3064
# 5 -2.9210 2.3779 -16.9387 0.0000 28.4580 0.0000
# 6 0.0000 0.0000 0.0000 -11.3064 0.0000 27.0400
#
#
#
# Elastic Compliance Matrix: (Units=1/GPa)
#
#
# Indices 1 2 3 4 5 6 
#
# 1 0.024409 -0.000540 0.004584 0.000000 0.005279 0.000000
# 2 -0.000540 0.023013 -0.004026 0.000000 -0.004375 0.000000
# 3 0.004584 -0.004026 0.021959 0.000000 0.013877 0.000000
# 4 0.000000 0.000000 0.000000 0.052034 0.000000 0.021757
# 5 0.005279 -0.004375 0.013877 0.000000 0.044307 0.000000
# 6 0.000000 0.000000 0.000000 0.021757 0.000000 0.046080
#
#
# Mechanical properties :
#
#
# Convention : Reuss Voigt Hill
#
# Bulk Modulus (GPa) = 14.40609 16.08686 15.24648
# Shear Modulus (GPa) = 21.28515 25.77087 23.52801
#
# Velocity S-wave (km/s) = 3.25908 3.58609 3.42649
# Velocity P-wave (km/s) = 4.62071 5.01740 4.82313
#
# Compressibility (1/GPa) = 0.06941508
#
# Stress axis : x y z
#
# Youngs Moduli (GPa) = 40.96768 43.45361 45.54043
#
# Poissons Ratio (x) = 0.02347 -0.20874
# Poissons Ratio (y) = 0.02213 0.18337
# Poissons Ratio (z) = -0.18778 0.17497
#
# Static dielectric constant tensor:
#      x y z
#    x 1.694360 0.000000 -0.009620 
#    y 0.000000 1.683460 0.000000 
#    z -0.009620 0.000000 1.728120 
# 
# From -- ./inp_files/19255.got.cif
#   From: 2010.05.17/outbox.cif.g08.bks.cpg/sg8_10_cif.got.tgz:19255.got - 2010.06.03 19:46:02.
