data_PCOD9133195
_publ_section_title
;
Structure prediction by ZEFSAII (Michael W. Deem and Ramdas Pophale) SiO2 
 PCOD9133195
Probable space group: C M
;
_chemical_formula_sum "Si O2"
_cell_formula_units_Z 26
_cell_length_a 9.835569
_cell_length_b 7.863555
_cell_length_c 23.879435
_cell_angle_alpha 90.000000
_cell_angle_beta 145.327854
_cell_angle_gamma 90.000000
_cell_volume 1050.661841
_symmetry_space_group_name_H-M "C M"
_symmetry_group_IT_number 8
_symmetry_cell_setting 'monoclinic'
loop_
_space_group_symop_operation_xyz
x,y,z
x,-y,z
1/2+x,1/2+y,z
1/2+x,1/2-y,z
loop_
_atom_site_type_symbol
_atom_site_label
_atom_site_fract_x
_atom_site_fract_y
_atom_site_fract_z
Si Si1 0.275440 0.698411 0.508310
Si Si2 0.283275 0.302801 0.816460
Si Si3 0.531748 0.314218 0.189777
Si Si4 0.058297 0.697219 0.320507
Si Si5 0.252251 0.808881 0.921204
Si Si6 0.867889 0.500000 0.070949
Si Si7 0.741634 0.799271 0.618925
O O1 0.207581 0.500000 0.485283
O O2 0.561923 0.713633 0.601269
O O3 0.191971 0.770330 0.539304
O O4 0.175950 0.772173 0.416802
O O5 0.267162 0.500000 0.794985
O O6 0.494599 0.229969 0.850089
O O7 0.365910 0.295579 0.909460
O O8 0.020796 0.227983 0.724075
O O9 0.417500 0.500000 0.142161
O O10 0.775898 0.302474 0.237200
O O11 0.605273 0.298166 0.279893
O O12 0.381482 0.150687 0.122710
O O13 0.135344 0.500000 0.339605
O O14 0.218902 0.000000 0.885072
O O15 0.371332 0.852452 0.020931
O O16 0.693960 0.000000 0.604562
#
# Coordination Sequence:
#
# PCOD9133195 Si02
#       7
#     4   4   4   4   4   2   4
#     4  10  22  40  62  95 129 170 214 262 310 374
#     4  11  22  41  65  90 124 170 212 261 330 381
#     4  11  24  43  68  98 131 178 215 271 331 390
#     4  10  22  42  65  95 137 170 218 272 321 389
#     4   9  23  43  62  91 125 158 208 272 320 382
#     4  10  24  48  66 100 132 164 226 276 328 398
#     4  11  23  38  61  94 131 167 214 263 311 386
#
# _framework density 24.746305
#
# number of rings (size 3 to 8) (size 9 to 14) (size 15 to 20)
#    0.462    1.231    0.769    2.769    1.077    8.615 
#    0.000    0.000    0.000    0.000    0.000    0.000 
#    0.000    0.000    0.000    0.000    0.000    0.000 
#
# Total GULP energy -72412.243799 kJ/mol
# GULP energy per Si atom -5570.172600 kJ/mol
# Density = 2.468998 g / cm^3
# Si number density = 24.746305 Si / 1000 Ang^3
#
#
#
# Elastic Constant Matrix: (Units=GPa)
#
#
# Indices 1 2 3 4 5 6 
#
# 1 81.6976 -6.9445 -8.2413 0.0000 -6.3121 0.0000
# 2 -6.9445 88.7422 12.4090 0.0000 0.1693 0.0000
# 3 -8.2413 12.4090 77.5050 0.0000 -9.8474 0.0000
# 4 0.0000 0.0000 0.0000 27.7588 0.0000 -8.9343
# 5 -6.3121 0.1693 -9.8474 0.0000 36.9552 0.0000
# 6 0.0000 0.0000 0.0000 -8.9343 0.0000 22.7025
#
#
#
# Elastic Compliance Matrix: (Units=1/GPa)
#
#
# Indices 1 2 3 4 5 6 
#
# 1 0.012661 0.000769 0.001550 0.000000 0.002572 0.000000
# 2 0.000769 0.011585 -0.001825 0.000000 -0.000408 0.000000
# 3 0.001550 -0.001825 0.013863 0.000000 0.003967 0.000000
# 4 0.000000 0.000000 0.000000 0.041249 0.000000 0.016233
# 5 0.002572 -0.000408 0.003967 0.000000 0.028558 0.000000
# 6 0.000000 0.000000 0.000000 0.016233 0.000000 0.050436
#
#
# Mechanical properties :
#
#
# Convention : Reuss Voigt Hill
#
# Bulk Modulus (GPa) = 25.57727 26.93235 26.25481
# Shear Modulus (GPa) = 29.34327 34.19807 31.77067
#
# Velocity S-wave (km/s) = 3.44723 3.72149 3.58698
# Velocity P-wave (km/s) = 5.11886 5.41968 5.27142
#
# Compressibility (1/GPa) = 0.03909722
#
# Stress axis : x y z
#
# Youngs Moduli (GPa) = 78.98461 86.32050 72.13227
#
# Poissons Ratio (x) = -0.06639 -0.11180
# Poissons Ratio (y) = -0.06075 0.13163
# Poissons Ratio (z) = -0.12242 0.15752
#
# Static dielectric constant tensor:
#      x y z
#    x 1.950860 0.000000 0.044330 
#    y 0.000000 1.868530 0.000000 
#    z 0.044330 0.000000 2.064160 
# 
# From -- ./inp_files/28490.got.cif
#   From: 2010.05.17/outbox.cif.g08.bks.cpg/sg8_15_cif.got.tgz:28490.got - 2010.06.03 19:46:02.
