data_PCOD9133337
_publ_section_title
;
Structure prediction by ZEFSAII (Michael W. Deem and Ramdas Pophale) SiO2 
 PCOD9133337
Probable space group: C M
;
_chemical_formula_sum "Si O2"
_cell_formula_units_Z 28
_cell_length_a 9.876105
_cell_length_b 27.640782
_cell_length_c 5.120776
_cell_angle_alpha 90.000000
_cell_angle_beta 73.909774
_cell_angle_gamma 90.000000
_cell_volume 1343.125986
_symmetry_space_group_name_H-M "C M"
_symmetry_group_IT_number 8
_symmetry_cell_setting 'monoclinic'
loop_
_space_group_symop_operation_xyz
x,y,z
x,-y,z
1/2+x,1/2+y,z
1/2+x,1/2-y,z
loop_
_atom_site_type_symbol
_atom_site_label
_atom_site_fract_x
_atom_site_fract_y
_atom_site_fract_z
Si Si1 0.459180 0.702456 0.936080
Si Si2 0.777074 0.056107 0.784210
Si Si3 0.838296 0.606288 0.707253
Si Si4 0.116509 0.860493 0.465368
Si Si5 0.273839 0.797544 0.994657
Si Si6 0.894722 0.106288 0.223484
Si Si7 0.455943 0.943893 0.146526
O O1 0.496590 0.674287 0.648505
O O2 0.366510 0.750000 0.965369
O O3 0.616509 0.712469 0.965368
O O4 0.377690 0.662290 0.150336
O O5 0.798619 0.086298 0.508300
O O6 0.616509 0.059820 0.965368
O O7 0.809653 0.000000 0.712863
O O8 0.870122 0.075747 0.975200
O O9 0.683910 0.607355 0.656142
O O10 0.855329 0.662290 0.780400
O O11 0.862895 0.575747 0.955537
O O12 0.934399 0.586298 0.422437
O O13 0.049107 0.892645 0.274596
O O14 0.236428 0.825713 0.282231
O O15 0.423365 0.000000 0.217875
#
# Coordination Sequence:
#
# PCOD9133337 Si02
#       7
#     4   4   4   4   4   4   4
#     4  10  23  43  68  97 138 178 223 278 333 399
#     4  11  24  44  68  99 134 172 222 281 337 397
#     4  11  22  43  69  95 135 176 214 274 335 396
#     4  10  22  46  65  92 144 168 221 278 334 392
#     4  10  23  43  68  97 138 178 223 278 333 399
#     4  11  22  43  69  95 135 176 214 274 335 396
#     4  11  24  44  68  99 134 172 222 281 337 397
#
# _framework density 20.846889000000001
#
# number of rings (size 3 to 8) (size 9 to 14) (size 15 to 20)
#    0.000    1.429    2.857    1.714    0.000    8.000 
#   10.286    4.286    0.000    0.000    0.000    0.000 
#    0.000    0.000    0.000    0.000    0.000    0.000 
#
# Total GULP energy -78146.260872 kJ/mol
# GULP energy per Si atom -5581.875777 kJ/mol
# Density = 2.079944 g / cm^3
# Si number density = 20.846889 Si / 1000 Ang^3
#
#
#
# Elastic Constant Matrix: (Units=GPa)
#
#
# Indices 1 2 3 4 5 6 
#
# 1 67.8298 72.7859 35.6532 0.0000 3.6331 0.0000
# 2 72.7859 165.1359 82.4200 0.0000 -7.6685 0.0000
# 3 35.6532 82.4200 157.4464 0.0000 4.1358 0.0000
# 4 0.0000 0.0000 0.0000 27.7760 0.0000 -11.2115
# 5 3.6331 -7.6685 4.1358 0.0000 29.2630 0.0000
# 6 0.0000 0.0000 0.0000 -11.2115 0.0000 34.8740
#
#
#
# Elastic Compliance Matrix: (Units=1/GPa)
#
#
# Indices 1 2 3 4 5 6 
#
# 1 0.029423 -0.013644 0.000672 0.000000 -0.007323 0.000000
# 2 -0.013644 0.014753 -0.004797 0.000000 0.006238 0.000000
# 3 0.000672 -0.004797 0.008778 0.000000 -0.002581 0.000000
# 4 0.000000 0.000000 0.000000 0.041371 0.000000 0.013300
# 5 -0.007323 0.006238 -0.002581 0.000000 0.037082 0.000000
# 6 0.000000 0.000000 0.000000 0.013300 0.000000 0.032950
#
#
# Mechanical properties :
#
#
# Convention : Reuss Voigt Hill
#
# Bulk Modulus (GPa) = 57.41891 85.79227 71.60559
# Shear Modulus (GPa) = 24.30712 31.68613 27.99662
#
# Velocity S-wave (km/s) = 3.41835 3.90288 3.66862
# Velocity P-wave (km/s) = 6.57139 7.84556 7.23657
#
# Compressibility (1/GPa) = 0.01741587
#
# Stress axis : x y z
#
# Youngs Moduli (GPa) = 33.98742 67.78086 113.91710
#
# Poissons Ratio (x) = 0.92480 -0.07655
# Poissons Ratio (y) = 0.46372 0.54650
# Poissons Ratio (z) = -0.02284 0.32517
#
# Static dielectric constant tensor:
#      x y z
#    x 1.782600 0.000000 0.003140 
#    y 0.000000 1.712810 0.000000 
#    z 0.003140 0.000000 1.817730 
# 
# From -- ./inp_files/2914.got.cif
#   From: 2010.05.17/outbox.cif.g08.bks.cpg/sg8_2_cif.got.tgz:2914.got - 2010.06.03 19:46:02.
