data_PCOD9133068
_publ_section_title
;
Structure prediction by ZEFSAII (Michael W. Deem and Ramdas Pophale) SiO2 
 PCOD9133068
Probable space group: C M
;
_chemical_formula_sum "Si O2"
_cell_formula_units_Z 26
_cell_length_a 14.108507
_cell_length_b 10.486358
_cell_length_c 9.707023
_cell_angle_alpha 90.000000
_cell_angle_beta 57.008795
_cell_angle_gamma 90.000000
_cell_volume 1204.554584
_symmetry_space_group_name_H-M "C M"
_symmetry_group_IT_number 8
_symmetry_cell_setting 'monoclinic'
loop_
_space_group_symop_operation_xyz
x,y,z
x,-y,z
1/2+x,1/2+y,z
1/2+x,1/2-y,z
loop_
_atom_site_type_symbol
_atom_site_label
_atom_site_fract_x
_atom_site_fract_y
_atom_site_fract_z
Si Si1 0.949690 0.854915 0.437990
Si Si2 0.478722 0.272165 0.721326
Si Si3 0.785392 0.360314 0.235299
Si Si4 0.209318 0.646508 0.511544
Si Si5 0.461472 0.500000 0.960998
Si Si6 0.008516 0.757039 0.106291
Si Si7 0.740505 0.353955 0.949968
O O1 0.813432 0.846991 0.535669
O O2 0.991374 0.821972 0.555742
O O3 0.994755 0.763844 0.282336
O O4 0.982980 0.000000 0.378542
O O5 0.590188 0.190980 0.666717
O O6 0.465331 0.387433 0.838414
O O7 0.365199 0.188462 0.811048
O O8 0.755270 0.500000 0.316325
O O9 0.742174 0.245572 0.364509
O O10 0.739368 0.350872 0.117095
O O11 0.922103 0.348242 0.120514
O O12 0.201940 0.500000 0.467875
O O13 0.461197 0.611823 0.080284
O O14 0.716493 0.500000 0.923167
O O15 0.142002 0.762079 0.971924
#
# Coordination Sequence:
#
# PCOD9133068 Si02
#       7
#     4   4   4   4   2   4   4
#     4  10  21  41  65  89 130 172 216 262 331 388
#     4  12  25  40  62 104 130 171 220 275 319 387
#     4  10  23  43  67  98 128 173 223 274 320 387
#     4  10  24  43  67  92 133 179 215 266 330 392
#     4  12  24  40  68  94 132 172 224 274 318 390
#     4  11  22  44  66  93 127 176 216 267 330 390
#     4  11  23  39  65  92 133 174 216 270 329 385
#
# _framework density 21.584741000000001
#
# number of rings (size 3 to 8) (size 9 to 14) (size 15 to 20)
#    0.000    1.231    3.846    1.385    4.308    1.231 
#    1.385    9.231    0.000    0.000    0.000    0.000 
#    0.000    0.000    0.000    0.000    0.000    0.000 
#
# Total GULP energy -72381.656850 kJ/mol
# GULP energy per Si atom -5567.819758 kJ/mol
# Density = 2.153561 g / cm^3
# Si number density = 21.584741 Si / 1000 Ang^3
#
#
#
# Elastic Constant Matrix: (Units=GPa)
#
#
# Indices 1 2 3 4 5 6 
#
# 1 84.3047 19.6736 25.3470 0.0000 -29.6289 0.0000
# 2 19.6736 99.0962 11.2944 0.0000 -6.7919 0.0000
# 3 25.3470 11.2944 48.4937 0.0000 -0.6331 0.0000
# 4 0.0000 0.0000 0.0000 30.9447 0.0000 1.4743
# 5 -29.6289 -6.7919 -0.6331 0.0000 58.7340 0.0000
# 6 0.0000 0.0000 0.0000 1.4743 0.0000 22.8328
#
#
#
# Elastic Compliance Matrix: (Units=1/GPa)
#
#
# Indices 1 2 3 4 5 6 
#
# 1 0.018084 -0.001975 -0.008877 0.000000 0.008799 0.000000
# 2 -0.001975 0.010664 -0.001448 0.000000 0.000221 0.000000
# 3 -0.008877 -0.001448 0.025542 0.000000 -0.004370 0.000000
# 4 0.000000 0.000000 0.000000 0.032415 0.000000 -0.002093
# 5 0.008799 0.000221 -0.004370 0.000000 0.021443 0.000000
# 6 0.000000 0.000000 0.000000 -0.002093 0.000000 0.043932
#
#
# Mechanical properties :
#
#
# Convention : Reuss Voigt Hill
#
# Bulk Modulus (GPa) = 33.68442 38.28050 35.98246
# Shear Modulus (GPa) = 26.79861 34.20760 30.50310
#
# Velocity S-wave (km/s) = 3.52739 3.98528 3.76331
# Velocity P-wave (km/s) = 5.67711 6.24100 5.96572
#
# Compressibility (1/GPa) = 0.02968732
#
# Stress axis : x y z
#
# Youngs Moduli (GPa) = 55.29744 93.77707 39.15192
#
# Poissons Ratio (x) = 0.18525 0.34756
# Poissons Ratio (y) = 0.10924 0.05670
# Poissons Ratio (z) = 0.49089 0.13581
#
# Static dielectric constant tensor:
#      x y z
#    x 1.815180 0.000000 -0.059200 
#    y 0.000000 1.752560 0.000000 
#    z -0.059200 0.000000 1.825840 
# 
# From -- ./inp_files/21232.got.cif
#   From: 2010.05.17/outbox.cif.g08.bks.cpg/sg8_11_cif.got.tgz:21232.got - 2010.06.03 19:46:02.
