data_PCOD9133052
_publ_section_title
;
Structure prediction by ZEFSAII (Michael W. Deem and Ramdas Pophale) SiO2 
 PCOD9133052
Probable space group: C M
;
_chemical_formula_sum "Si O2"
_cell_formula_units_Z 28
_cell_length_a 19.436876
_cell_length_b 9.758486
_cell_length_c 13.818216
_cell_angle_alpha 90.000000
_cell_angle_beta 29.105055
_cell_angle_gamma 90.000000
_cell_volume 1274.869066
_symmetry_space_group_name_H-M "C M"
_symmetry_group_IT_number 8
_symmetry_cell_setting 'monoclinic'
loop_
_space_group_symop_operation_xyz
x,y,z
x,-y,z
1/2+x,1/2+y,z
1/2+x,1/2-y,z
loop_
_atom_site_type_symbol
_atom_site_label
_atom_site_fract_x
_atom_site_fract_y
_atom_site_fract_z
Si Si1 0.561220 0.349425 0.277780
Si Si2 0.058172 0.848228 0.717255
Si Si3 0.659888 0.839025 0.862602
Si Si4 0.827406 0.660533 0.499331
Si Si5 0.389062 0.163910 0.074914
Si Si6 0.788513 0.352313 0.857805
Si Si7 0.572780 0.728482 0.484215
O O1 0.507120 0.500000 0.316486
O O2 0.476839 0.235217 0.322170
O O3 0.543012 0.333654 0.414777
O O4 0.725155 0.344058 0.043847
O O5 0.225989 0.828546 0.531060
O O6 0.037848 0.848469 0.627261
O O7 0.021318 0.000000 0.801437
O O8 0.972460 0.734260 0.882705
O O9 0.739967 0.745658 0.686070
O O10 0.717061 0.773221 0.890162
O O11 0.694343 0.000000 0.813931
O O12 0.495177 0.826200 0.036370
O O13 0.843363 0.500000 0.502048
O O14 0.242043 0.242515 0.273649
O O15 0.361709 0.000000 0.092951
O O16 0.738358 0.500000 0.880085
O O17 0.956326 0.347251 0.637609
#
# Coordination Sequence:
#
# PCOD9133052 Si02
#       7
#     4   4   4   4   4   4   4
#     4  11  24  42  66  96 133 179 225 274 335 399
#     4  10  23  42  67  98 133 175 223 275 330 393
#     4  10  21  40  70 100 132 177 226 273 333 401
#     4  10  21  40  67  98 137 175 221 278 331 393
#     4  10  23  43  68  99 135 174 221 274 334 403
#     4  11  26  45  66  98 137 177 226 281 335 395
#     4  12  24  42  70  97 133 179 222 271 336 396
#
# _framework density 21.963038999999998
#
# number of rings (size 3 to 8) (size 9 to 14) (size 15 to 20)
#    0.000    1.429    1.429    3.000    2.000    5.143 
#    0.000    1.429    0.000    0.000    0.000    0.000 
#    0.000    0.000    0.000    0.000    0.000    0.000 
#
# Total GULP energy -78036.898985 kJ/mol
# GULP energy per Si atom -5574.064213 kJ/mol
# Density = 2.191305 g / cm^3
# Si number density = 21.963039 Si / 1000 Ang^3
#
#
#
# Elastic Constant Matrix: (Units=GPa)
#
#
# Indices 1 2 3 4 5 6 
#
# 1 83.8176 54.4721 29.0178 0.0000 -6.4620 0.0000
# 2 54.4721 139.0549 50.3968 0.0000 -11.8763 0.0000
# 3 29.0178 50.3968 144.9582 0.0000 -12.8397 0.0000
# 4 0.0000 0.0000 0.0000 18.7193 0.0000 -6.1554
# 5 -6.4620 -11.8763 -12.8397 0.0000 36.7867 0.0000
# 6 0.0000 0.0000 0.0000 -6.1554 0.0000 -5.1390
#
#
#
# Elastic Compliance Matrix: (Units=1/GPa)
#
#
# Indices 1 2 3 4 5 6 
#
# 1 0.016192 -0.005880 -0.001149 0.000000 0.000545 0.000000
# 2 -0.005880 0.010469 -0.002327 0.000000 0.001535 0.000000
# 3 -0.001149 -0.002327 0.008104 0.000000 0.001875 0.000000
# 4 0.000000 0.000000 0.000000 0.038326 0.000000 -0.045906
# 5 0.000545 0.001535 0.001875 0.000000 0.028430 0.000000
# 6 0.000000 0.000000 0.000000 -0.045906 0.000000 -0.139606
#
#
# Mechanical properties :
#
#
# Convention : Reuss Voigt Hill
#
# Bulk Modulus (GPa) = 62.29159 70.62268 66.45713
# Shear Modulus (GPa) = -356.52220 25.66968 -165.42626
#
# Velocity S-wave (km/s) = -12.75463 3.42243 -8.68814
# Velocity P-wave (km/s) = 13.72895 6.91682 8.38575
#
# Compressibility (1/GPa) = 0.01605353
#
# Stress axis : x y z
#
# Youngs Moduli (GPa) = 61.76023 95.51922 123.40288
#
# Poissons Ratio (x) = 0.56164 0.14176
# Poissons Ratio (y) = 0.36314 0.28713
# Poissons Ratio (z) = 0.07095 0.22225
#
# Static dielectric constant tensor:
#      x y z
#    x 1.837010 0.000000 -0.021390 
#    y 0.000000 1.766210 0.000000 
#    z -0.021390 0.000000 1.832570 
# 
# From -- ./inp_files/27820.got.cif
#   From: 2010.05.17/outbox.cif.g08.bks.cpg/sg8_14_cif.got.tgz:27820.got - 2010.06.03 19:46:02.
