data_PCOD9133959
_publ_section_title
;
Structure prediction by ZEFSAII (Michael W. Deem and Ramdas Pophale) SiO2 
 PCOD9133959
Probable space group: C C
;
_chemical_formula_sum "Si O2"
_cell_formula_units_Z 32
_cell_length_a 11.397399
_cell_length_b 20.729683
_cell_length_c 5.521038
_cell_angle_alpha 90.000000
_cell_angle_beta 72.959569
_cell_angle_gamma 90.000000
_cell_volume 1247.158503
_symmetry_space_group_name_H-M "C C"
_symmetry_group_IT_number 9
_symmetry_cell_setting 'monoclinic'
loop_
_space_group_symop_operation_xyz
x,y,z
x,-y,1/2+z
1/2+x,1/2+y,z
1/2+x,1/2-y,1/2+z
loop_
_atom_site_type_symbol
_atom_site_label
_atom_site_fract_x
_atom_site_fract_y
_atom_site_fract_z
Si Si1 0.562810 0.200544 0.919940
Si Si2 0.964761 0.030687 0.200369
Si Si3 0.815404 0.782868 0.114936
Si Si4 0.396442 0.672643 0.065995
Si Si5 0.503382 0.191366 0.457309
Si Si6 0.435384 0.995849 0.563971
Si Si7 0.258757 0.121037 0.634101
Si Si8 0.704244 0.410988 0.668766
O O1 0.683800 0.241884 0.787694
O O2 0.547552 0.160429 0.682522
O O3 0.433844 0.237225 0.026592
O O4 0.573767 0.168886 0.176002
O O5 0.940546 0.104079 0.136652
O O6 0.113105 0.031401 0.148601
O O7 0.921287 0.010982 0.495781
O O8 0.847796 0.831309 0.318754
O O9 0.806256 0.806206 0.842162
O O10 0.497641 0.730790 0.989035
O O11 0.360750 0.173680 0.516344
O O12 0.345099 0.934117 0.616763
O O13 0.506290 0.000848 0.271118
O O14 0.336687 0.054605 0.619441
O O15 0.169969 0.114501 0.456722
O O16 0.204790 0.133652 0.931709
#
# Coordination Sequence:
#
# PCOD9133959 Si02
#       8
#     4   4   4   4   4   4   4   4
#     4  10  21  40  66  92 131 187 229 279 333 418
#     4  12  23  40  64  93 133 180 237 301 364 417
#     4  10  21  43  67  94 137 182 227 289 347 407
#     4  10  23  42  60  95 134 177 226 298 343 416
#     4  10  21  39  57  94 137 178 236 268 341 426
#     4   8  14  25  44  69 107 154 202 253 308 371
#     4  10  18  32  52  83 126 176 219 257 332 417
#     4  10  19  33  54  88 129 174 222 283 344 412
#
# _framework density 25.658328999999998
#
# number of rings (size 3 to 8) (size 9 to 14) (size 15 to 20)
#    0.000    2.000    0.000    5.250    0.000    0.000 
#   27.000    0.000    0.000    0.000    0.000   52.500 
#    0.000    0.000    0.000    0.000    0.000    0.000 
#
# Total GULP energy -89229.204458 kJ/mol
# GULP energy per Si atom -5576.825279 kJ/mol
# Density = 2.559993 g / cm^3
# Si number density = 25.658329 Si / 1000 Ang^3
#
#
#
# Elastic Constant Matrix: (Units=GPa)
#
#
# Indices 1 2 3 4 5 6 
#
# 1 53.5429 6.9842 37.6407 0.0000 7.9803 0.0000
# 2 6.9842 68.5920 1.0407 0.0000 7.7323 0.0000
# 3 37.6407 1.0407 237.0795 0.0000 59.2406 0.0000
# 4 0.0000 0.0000 0.0000 24.0378 0.0000 4.7840
# 5 7.9803 7.7323 59.2406 0.0000 55.2281 0.0000
# 6 0.0000 0.0000 0.0000 4.7840 0.0000 26.1387
#
#
#
# Elastic Compliance Matrix: (Units=1/GPa)
#
#
# Indices 1 2 3 4 5 6 
#
# 1 0.021381 -0.002253 -0.003677 0.000000 0.001170 0.000000
# 2 -0.002253 0.015117 0.001009 0.000000 -0.002874 0.000000
# 3 -0.003677 0.001009 0.006421 0.000000 -0.006497 0.000000
# 4 0.000000 0.000000 0.000000 0.043174 0.000000 -0.007902
# 5 0.001170 -0.002874 -0.006497 0.000000 0.025309 0.000000
# 6 0.000000 0.000000 0.000000 -0.007902 0.000000 0.039704
#
#
# Mechanical properties :
#
#
# Convention : Reuss Voigt Hill
#
# Bulk Modulus (GPa) = 30.23229 50.06061 40.14645
# Shear Modulus (GPa) = 29.07420 41.98416 35.52918
#
# Velocity S-wave (km/s) = 3.36985 4.04948 3.72520
# Velocity P-wave (km/s) = 5.19128 6.43562 5.84665
#
# Compressibility (1/GPa) = 0.03307722
#
# Stress axis : x y z
#
# Youngs Moduli (GPa) = 46.77009 66.15057 155.74039
#
# Poissons Ratio (x) = 0.14905 0.57269
# Poissons Ratio (y) = 0.10538 -0.15721
# Poissons Ratio (z) = 0.17198 -0.06678
#
# Static dielectric constant tensor:
#      x y z
#    x 2.057010 0.000000 0.059220 
#    y 0.000000 2.041240 0.000000 
#    z 0.059220 0.000000 2.163540 
# 
# From -- ./inp_files/1848.got.cif
#   From: 2010.05.17/outbox.cif.g08.bks.cpg/sg9_1_cif.got.tgz:1848.got - 2010.06.03 20:04:27.
