data_PCOD9133567
_publ_section_title
;
Structure prediction by ZEFSAII (Michael W. Deem and Ramdas Pophale) SiO2 
 PCOD9133567
Probable space group: C M
;
_chemical_formula_sum "Si O2"
_cell_formula_units_Z 24
_cell_length_a 9.007335
_cell_length_b 17.906692
_cell_length_c 9.831500
_cell_angle_alpha 90.000000
_cell_angle_beta 136.674586
_cell_angle_gamma 90.000000
_cell_volume 1088.040080
_symmetry_space_group_name_H-M "C M"
_symmetry_group_IT_number 8
_symmetry_cell_setting 'monoclinic'
loop_
_space_group_symop_operation_xyz
x,y,z
x,-y,z
1/2+x,1/2+y,z
1/2+x,1/2-y,z
loop_
_atom_site_type_symbol
_atom_site_label
_atom_site_fract_x
_atom_site_fract_y
_atom_site_fract_z
Si Si1 0.180061 0.000000 0.079381
Si Si2 0.835949 0.000000 0.644226
Si Si3 0.847013 0.332778 0.184227
Si Si4 0.101173 0.647187 0.595374
Si Si5 0.273157 0.500000 0.018715
Si Si6 0.499834 0.500000 0.463848
Si Si7 0.385204 0.886212 0.701166
Si Si8 0.416428 0.241026 0.940856
O O1 0.308039 0.078034 0.176439
O O2 0.976404 0.000000 0.049324
O O3 0.080762 0.000000 0.861641
O O4 0.728426 0.926732 0.636373
O O5 0.837459 0.000000 0.482947
O O6 0.039315 0.312173 0.415010
O O7 0.637452 0.287087 0.091098
O O8 0.888609 0.307564 0.058028
O O9 0.890997 0.625553 0.542608
O O10 0.234384 0.697806 0.787910
O O11 0.372655 0.500000 0.236445
O O12 0.105132 0.432259 0.881674
O O13 0.665105 0.430463 0.585710
O O14 0.400756 0.813437 0.802255
#
# Coordination Sequence:
#
# PCOD9133567 Si02
#       8
#     2   2   4   4   2   2   4   4
#     4  12  22  49  78 100 142 187 246 295 350 425
#     4  12  23  46  73 105 143 184 239 305 350 413
#     4  12  28  46  77 106 141 193 241 292 363 425
#     4  12  26  48  74 101 146 193 238 292 361 429
#     4  11  23  45  71 102 145 187 237 291 359 425
#     4  11  26  40  72 107 138 186 242 295 349 427
#     4  11  24  46  69 100 144 187 234 294 357 420
#     4  12  27  47  69 106 147 184 237 302 354 425
#
# _framework density 22.058011
#
# number of rings (size 3 to 8) (size 9 to 14) (size 15 to 20)
#    0.000    0.333    5.000    3.000    4.667    2.000 
#    0.000    0.000    0.000    0.000    0.000    0.000 
#    0.000    0.000    0.000    0.000    0.000    0.000 
#
# Total GULP energy -67120.769231 kJ/mol
# GULP energy per Si atom -5593.397436 kJ/mol
# Density = 2.200781 g / cm^3
# Si number density = 22.058011 Si / 1000 Ang^3
#
#
#
# Elastic Constant Matrix: (Units=GPa)
#
#
# Indices 1 2 3 4 5 6 
#
# 1 101.5367 43.2355 18.1290 0.0000 -34.3049 0.0000
# 2 43.2355 118.1951 23.7839 0.0000 -11.7637 0.0000
# 3 18.1290 23.7839 120.8179 0.0000 -28.4325 0.0000
# 4 0.0000 0.0000 0.0000 16.4354 0.0000 -9.0505
# 5 -34.3049 -11.7637 -28.4325 0.0000 35.7794 0.0000
# 6 0.0000 0.0000 0.0000 -9.0505 0.0000 28.7743
#
#
#
# Elastic Compliance Matrix: (Units=1/GPa)
#
#
# Indices 1 2 3 4 5 6 
#
# 1 0.017267 -0.005124 0.002358 0.000000 0.016745 0.000000
# 2 -0.005124 0.010433 -0.002010 0.000000 -0.003080 0.000000
# 3 0.002358 -0.002010 0.010695 0.000000 0.010100 0.000000
# 4 0.000000 0.000000 0.000000 0.073591 0.000000 0.023147
# 5 0.016745 -0.003080 0.010100 0.000000 0.051017 0.000000
# 6 0.000000 0.000000 0.000000 0.023147 0.000000 0.042034
#
#
# Mechanical properties :
#
#
# Convention : Reuss Voigt Hill
#
# Bulk Modulus (GPa) = 34.66913 56.76073 45.71493
# Shear Modulus (GPa) = 22.30132 33.22457 27.76295
#
# Velocity S-wave (km/s) = 3.18312 3.88524 3.55157
# Velocity P-wave (km/s) = 5.40935 6.77607 6.13091
#
# Compressibility (1/GPa) = 0.02884411
#
# Stress axis : x y z
#
# Youngs Moduli (GPa) = 57.91477 95.85098 93.49767
#
# Poissons Ratio (x) = 0.49116 -0.22050
# Poissons Ratio (y) = 0.29676 0.18790
# Poissons Ratio (z) = -0.13658 0.19263
#
# Static dielectric constant tensor:
#      x y z
#    x 1.804690 0.000000 -0.013730 
#    y 0.000000 1.814770 0.000000 
#    z -0.013730 0.000000 1.819290 
# 
# From -- ./inp_files/8679.got.cif
#   From: 2010.05.17/outbox.cif.g08.bks.cpg/sg8_5_cif.got.tgz:8679.got - 2010.06.03 19:46:02.
