data_PCOD9133703
_publ_section_title
;
Structure prediction by ZEFSAII (Michael W. Deem and Ramdas Pophale) SiO2 
 PCOD9133703
Probable space group: C M
;
_chemical_formula_sum "Si O2"
_cell_formula_units_Z 16
_cell_length_a 21.000000
_cell_length_b 9.000000
_cell_length_c 27.000000
_cell_angle_alpha 90.000000
_cell_angle_beta 20.000000
_cell_angle_gamma 90.000000
_cell_volume 1745.328791
_symmetry_space_group_name_H-M "C M"
_symmetry_group_IT_number 8
_symmetry_cell_setting 'monoclinic'
loop_
_space_group_symop_operation_xyz
x,y,z
x,-y,z
1/2+x,1/2+y,z
1/2+x,1/2-y,z
loop_
_atom_site_type_symbol
_atom_site_label
_atom_site_fract_x
_atom_site_fract_y
_atom_site_fract_z
Si Si1 0.196480 0.821262 0.365400
Si Si2 0.287752 0.179136 0.674745
Si Si3 0.982473 0.322143 0.827130
Si Si4 0.005865 0.819733 0.063281
Si Si5 0.665364 0.674307 0.130888
Si Si6 0.266908 0.176570 0.431675
Si Si7 0.951050 0.676531 0.734477
Si Si8 0.012045 0.323363 0.953327
O O1 0.361665 0.750525 0.209709
O O2 0.236101 0.799765 0.395158
O O3 0.989746 0.746898 0.512003
O O4 0.187444 0.000000 0.362339
O O5 0.193085 0.248702 0.794161
O O6 0.136838 0.229662 0.743911
O O7 0.299472 0.000000 0.670589
O O8 0.003766 0.500000 0.822595
O O9 0.010926 0.301205 0.747936
O O10 0.774354 0.282185 0.999969
O O11 0.992866 0.000000 0.076420
O O12 0.229687 0.780708 0.899696
O O13 0.956708 0.757330 0.044711
O O14 0.616270 0.500000 0.162531
O O15 0.477259 0.758404 0.284650
O O16 0.833672 0.690247 0.047334
O O17 0.098495 0.246752 0.588464
O O18 0.267216 0.000000 0.440985
O O19 0.954962 0.500000 0.720264
O O20 0.048046 0.500000 0.934355
#
# Coordination Sequence:
#
# PCOD9133703 Si02
#       8
#     4   4   4   4   4   4   4   4
#     4  11  24  41  59  82 115 156 193 233 290 351
#     4  11  22  37  60  89 117 150 193 242 285 330
#     4   9  19  38  61  85 114 151 190 230 283 349
#     4  11  23  39  61  89 115 146 192 244 288 335
#     4   9  19  37  61  84 112 151 190 228 279 340
#     4  11  24  38  57  85 115 148 191 238 283 334
#     4  10  22  39  60  84 114 151 189 231 287 347
#     4  10  21  39  61  86 118 157 192 228 283 350
#
# _framework density 9.1673270000000002
#
# number of rings (size 3 to 8) (size 9 to 14) (size 15 to 20)
#    0.000    1.750    0.000    4.875    0.000   10.000 
#    0.000    1.250    0.000    0.000    0.000    0.000 
#    0.000    0.000    0.000    0.000    0.000    0.000 
#
# Total GULP energy -89222.471393 kJ/mol
# GULP energy per Si atom -5576.404462 kJ/mol
# Density = 0.914646 g / cm^3
# Si number density = 9.167327 Si / 1000 Ang^3
#
#
#
# Elastic Constant Matrix: (Units=GPa)
#
#
# Indices 1 2 3 4 5 6 
#
# 1 70.0591 39.4015 55.1989 0.0016 22.7395 -0.0010
# 2 39.4015 118.2064 84.0024 0.0067 11.5652 -0.0033
# 3 55.1989 84.0024 212.6057 0.0094 24.0956 -0.0052
# 4 0.0016 0.0067 0.0094 45.8646 0.0039 8.0422
# 5 22.7395 11.5652 24.0956 0.0039 40.5681 -0.0015
# 6 -0.0010 -0.0033 -0.0052 8.0422 -0.0015 25.3114
#
#
#
# Elastic Compliance Matrix: (Units=1/GPa)
#
#
# Indices 1 2 3 4 5 6 
#
# 1 0.022094 -0.004346 -0.002955 0.000002 -0.009390 -0.000001
# 2 -0.004346 0.012633 -0.004000 -0.000001 0.001211 0.000001
# 3 -0.002955 -0.004000 0.007220 -0.000001 -0.001492 0.000001
# 4 0.000002 -0.000001 -0.000001 0.023090 -0.000002 -0.007336
# 5 -0.009390 0.001211 -0.001492 -0.000002 0.030454 0.000002
# 6 -0.000001 0.000001 0.000001 -0.007336 0.000002 0.041839
#
#
# Mechanical properties :
#
#
# Convention : Reuss Voigt Hill
#
# Bulk Modulus (GPa) = 51.69333 84.23074 67.96204
# Shear Modulus (GPa) = 30.05175 37.16671 33.60923
#
# Velocity S-wave (km/s) = 4.05293 4.50725 4.28611
# Velocity P-wave (km/s) = 7.08218 8.55146 7.85127
#
# Compressibility (1/GPa) = 0.01934486
#
# Stress axis : x y z
#
# Youngs Moduli (GPa) = 45.26164 79.16029 138.49864
#
# Poissons Ratio (x) = 0.34402 0.40925
# Poissons Ratio (y) = 0.19670 0.55401
# Poissons Ratio (z) = 0.13374 0.31665
#
# Static dielectric constant tensor:
#      x y z
#    x 1.685440 0.000000 -0.019270 
#    y 0.000000 1.629900 0.000000 
#    z -0.019270 0.000000 1.614250 
# 
# From -- ./inp_files/33035.got.cif
#   From: 2010.05.17/outbox.ucp.g08.bks.cvg/sg8_17_cif.got.tgz:33035.got - 2010.06.11 13:00:03.
