data_PCOD9133419
_publ_section_title
;
Structure prediction by ZEFSAII (Michael W. Deem and Ramdas Pophale) SiO2 
 PCOD9133419
Probable space group: C M
;
_chemical_formula_sum "Si O2"
_cell_formula_units_Z 14
_cell_length_a 8.306088
_cell_length_b 12.110688
_cell_length_c 5.674529
_cell_angle_alpha 90.000000
_cell_angle_beta 111.091813
_cell_angle_gamma 90.000000
_cell_volume 532.572968
_symmetry_space_group_name_H-M "C M"
_symmetry_group_IT_number 8
_symmetry_cell_setting 'monoclinic'
loop_
_space_group_symop_operation_xyz
x,y,z
x,-y,z
1/2+x,1/2+y,z
1/2+x,1/2-y,z
loop_
_atom_site_type_symbol
_atom_site_label
_atom_site_fract_x
_atom_site_fract_y
_atom_site_fract_z
Si Si1 0.180850 0.126682 0.721760
Si Si2 0.321604 0.688922 0.499388
Si Si3 0.766320 0.500000 0.173054
Si Si4 0.603917 0.000000 0.624672
Si Si5 0.374429 0.500000 0.157712
O O1 0.249133 0.191959 0.531267
O O2 0.009478 0.187285 0.718976
O O3 0.128652 0.000000 0.636343
O O4 0.300143 0.104806 0.013014
O O5 0.187653 0.606858 0.550311
O O6 0.362237 0.620172 0.282971
O O7 0.558904 0.500000 0.115725
O O8 0.904508 0.500000 0.453887
O O9 0.690528 0.000000 0.924355
#
# Coordination Sequence:
#
# PCOD9133419 Si02
#       5
#     4   4   2   2   2
#     4  10  23  55  83 119 164 222 275 341 416 493
#     4  11  24  52  83 121 171 214 272 352 414 484
#     4  10  23  52  92 117 164 222 286 336 413 496
#     4  11  23  53  84 125 161 224 278 331 423 499
#     4  11  22  53  86 116 179 212 272 353 406 503
#
# _framework density 26.287479000000001
#
# number of rings (size 3 to 8) (size 9 to 14) (size 15 to 20)
#    0.857    0.571    5.714    0.000    0.000    2.286 
#   36.000    0.000    0.000    0.000    0.000    0.000 
#    0.000    0.000    0.000    0.000    0.000    0.000 
#
# Total GULP energy -38995.271605 kJ/mol
# GULP energy per Si atom -5570.753086 kJ/mol
# Density = 2.622765 g / cm^3
# Si number density = 26.287479 Si / 1000 Ang^3
#
#
#
# Elastic Constant Matrix: (Units=GPa)
#
#
# Indices 1 2 3 4 5 6 
#
# 1 137.3624 75.6874 39.2094 0.0000 8.8251 0.0000
# 2 75.6874 170.5680 25.0402 0.0000 -8.8562 0.0000
# 3 39.2094 25.0402 109.0042 0.0000 17.2752 0.0000
# 4 0.0000 0.0000 0.0000 8.9855 0.0000 -11.0091
# 5 8.8251 -8.8562 17.2752 0.0000 41.9696 0.0000
# 6 0.0000 0.0000 0.0000 -11.0091 0.0000 60.6192
#
#
#
# Elastic Compliance Matrix: (Units=1/GPa)
#
#
# Indices 1 2 3 4 5 6 
#
# 1 0.010561 -0.004440 -0.002437 0.000000 -0.002154 0.000000
# 2 -0.004440 0.008093 -0.000728 0.000000 0.002941 0.000000
# 3 -0.002437 -0.000728 0.010870 0.000000 -0.004115 0.000000
# 4 0.000000 0.000000 0.000000 0.143140 0.000000 0.025996
# 5 -0.002154 0.002941 -0.004115 0.000000 0.026594 0.000000
# 6 0.000000 0.000000 0.000000 0.025996 0.000000 0.021217
#
#
# Mechanical properties :
#
#
# Convention : Reuss Voigt Hill
#
# Bulk Modulus (GPa) = 69.86907 77.42317 73.64612
# Shear Modulus (GPa) = 20.79372 40.78137 30.78755
#
# Velocity S-wave (km/s) = 2.81555 3.94301 3.42597
# Velocity P-wave (km/s) = 6.09969 7.08845 6.61258
#
# Compressibility (1/GPa) = 0.01431249
#
# Stress axis : x y z
#
# Youngs Moduli (GPa) = 94.69033 123.56928 91.99539
#
# Poissons Ratio (x) = 0.54868 0.22422
# Poissons Ratio (y) = 0.42045 0.06697
# Poissons Ratio (z) = 0.23079 0.08995
#
# Static dielectric constant tensor:
#      x y z
#    x 2.020360 0.000000 -0.014060 
#    y 0.000000 2.144410 0.000000 
#    z -0.014060 0.000000 2.280330 
# 
# From -- ./inp_files/882.got.cif
#   From: 2010.05.17/outbox.cif.g08.bks.cpg/sg8_1_cif.got.tgz:882.got - 2010.06.03 19:46:02.
