data_PCOD9133761
_publ_section_title
;
Structure prediction by ZEFSAII (Michael W. Deem and Ramdas Pophale) SiO2 
 PCOD9133761
Probable space group: C C
;
_chemical_formula_sum "Si O2"
_cell_formula_units_Z 32
_cell_length_a 10.285531
_cell_length_b 19.936947
_cell_length_c 9.094918
_cell_angle_alpha 90.000000
_cell_angle_beta 53.345177
_cell_angle_gamma 90.000000
_cell_volume 1496.208277
_symmetry_space_group_name_H-M "C C"
_symmetry_group_IT_number 9
_symmetry_cell_setting 'monoclinic'
loop_
_space_group_symop_operation_xyz
x,y,z
x,-y,1/2+z
1/2+x,1/2+y,z
1/2+x,1/2-y,1/2+z
loop_
_atom_site_type_symbol
_atom_site_label
_atom_site_fract_x
_atom_site_fract_y
_atom_site_fract_z
Si Si1 0.257480 0.096991 0.649370
Si Si2 0.112262 0.745548 0.546334
Si Si3 0.023467 0.383754 0.739963
Si Si4 0.784803 0.557183 0.183031
Si Si5 0.302789 0.688702 0.142731
Si Si6 0.337671 0.250432 0.297387
Si Si7 0.062349 0.153843 0.510225
Si Si8 0.369151 0.156207 0.872155
O O1 0.430452 0.108344 0.455752
O O2 0.130717 0.130090 0.623192
O O3 0.268304 0.132392 0.797738
O O4 0.234303 0.017994 0.681979
O O5 0.970603 0.801045 0.616288
O O6 0.035201 0.686429 0.696153
O O7 0.173243 0.718618 0.346409
O O8 0.268658 0.781891 0.506569
O O9 0.933178 0.438808 0.700344
O O10 0.963962 0.312678 0.708056
O O11 0.214371 0.378833 0.643520
O O12 0.627321 0.595783 0.357436
O O13 0.858601 0.596232 0.993913
O O14 0.330105 0.729566 0.974695
O O15 0.165121 0.217386 0.384968
O O16 0.389499 0.314463 0.166378
#
# Coordination Sequence:
#
# PCOD9133761 Si02
#       8
#     4   4   4   4   4   4   4   4
#     4  10  19  36  57  78 105 149 196 227 245 332
#     4  10  20  30  56  87 117 138 178 227 296 324
#     4  10  19  32  57  84 105 140 187 231 271 310
#     4  10  23  36  53  80 117 151 187 216 272 335
#     4  11  15  32  53  87 109 137 183 229 264 336
#     4  10  16  29  54  88 108 124 177 239 285 304
#     4  10  20  33  57  88 105 142 185 234 278 317
#     4  11  20  36  55  86 114 145 175 231 285 334
#
# _framework density 21.387395999999999
#
# number of rings (size 3 to 8) (size 9 to 14) (size 15 to 20)
#    0.000    2.000    3.750    4.500    0.000    2.000 
#    0.000    0.000    0.000    6.000    0.000    0.000 
#    0.000    0.000    0.000    0.000    0.000    0.000 
#
# Total GULP energy -89162.484670 kJ/mol
# GULP energy per Si atom -5572.655292 kJ/mol
# Density = 2.133872 g / cm^3
# Si number density = 21.387396 Si / 1000 Ang^3
#
#
#
# Elastic Constant Matrix: (Units=GPa)
#
#
# Indices 1 2 3 4 5 6 
#
# 1 34.4727 10.8509 23.8870 0.0000 -1.9549 0.0000
# 2 10.8509 95.1815 45.6156 0.0000 -5.1189 0.0000
# 3 23.8870 45.6156 102.3368 0.0000 3.1269 0.0000
# 4 0.0000 0.0000 0.0000 27.5170 0.0000 5.2004
# 5 -1.9549 -5.1189 3.1269 0.0000 30.0084 0.0000
# 6 0.0000 0.0000 0.0000 5.2004 0.0000 15.1331
#
#
#
# Elastic Compliance Matrix: (Units=1/GPa)
#
#
# Indices 1 2 3 4 5 6 
#
# 1 0.034899 0.000181 -0.008324 0.000000 0.003172 0.000000
# 2 0.000181 0.013619 -0.006204 0.000000 0.002981 0.000000
# 3 -0.008324 -0.006204 0.014575 0.000000 -0.003119 0.000000
# 4 0.000000 0.000000 0.000000 0.038865 0.000000 -0.013356
# 5 0.003172 0.002981 -0.003119 0.000000 0.034364 0.000000
# 6 0.000000 0.000000 0.000000 -0.013356 0.000000 0.070670
#
#
# Mechanical properties :
#
#
# Convention : Reuss Voigt Hill
#
# Bulk Modulus (GPa) = 29.06948 43.63310 36.35129
# Shear Modulus (GPa) = 20.23041 24.64086 22.43563
#
# Velocity S-wave (km/s) = 3.07889 3.39797 3.24236
# Velocity P-wave (km/s) = 5.12453 5.98670 5.57231
#
# Compressibility (1/GPa) = 0.03440034
#
# Stress axis : x y z
#
# Youngs Moduli (GPa) = 28.65419 73.42573 68.60976
#
# Poissons Ratio (x) = -0.01330 0.57108
# Poissons Ratio (y) = -0.00519 0.42565
# Poissons Ratio (z) = 0.23851 0.45553
#
# Static dielectric constant tensor:
#      x y z
#    x 1.852550 0.000000 0.015460 
#    y 0.000000 1.778080 0.000000 
#    z 0.015460 0.000000 1.820050 
# 
# From -- ./inp_files/8271.got.cif
#   From: 2010.05.17/outbox.cif.g08.bks.cpg/sg9_5_cif.got.tgz:8271.got - 2010.06.03 20:04:27.
