data_PCOD9133653
_publ_section_title
;
Structure prediction by ZEFSAII (Michael W. Deem and Ramdas Pophale) SiO2 
 PCOD9133653
Probable space group: C M
;
_chemical_formula_sum "Si O2"
_cell_formula_units_Z 16
_cell_length_a 12.000000
_cell_length_b 15.000000
_cell_length_c 18.000000
_cell_angle_alpha 90.000000
_cell_angle_beta 30.000000
_cell_angle_gamma 90.000000
_cell_volume 1620.000000
_symmetry_space_group_name_H-M "C M"
_symmetry_group_IT_number 8
_symmetry_cell_setting 'monoclinic'
loop_
_space_group_symop_operation_xyz
x,y,z
x,-y,z
1/2+x,1/2+y,z
1/2+x,1/2-y,z
loop_
_atom_site_type_symbol
_atom_site_label
_atom_site_fract_x
_atom_site_fract_y
_atom_site_fract_z
Si Si1 0.967400 0.602006 0.338560
Si Si2 0.168322 0.898457 0.126082
Si Si3 0.645281 0.902336 0.404265
Si Si4 0.378716 0.258454 0.570079
Si Si5 0.190389 0.889996 0.292611
Si Si6 0.648031 0.196375 0.095376
Si Si7 0.429307 0.398370 0.657025
Si Si8 0.993453 0.892977 0.786642
O O1 0.004403 0.500000 0.291766
O O2 0.699192 0.615420 0.493183
O O3 0.057865 0.607821 0.370228
O O4 0.099573 0.667218 0.208216
O O5 0.187993 0.887930 0.204243
O O6 0.219385 0.801816 0.057175
O O7 0.908325 0.905485 0.256195
O O8 0.264132 0.000000 0.052556
O O9 0.568020 0.811581 0.487966
O O10 0.564403 0.000000 0.478763
O O11 0.490127 0.327434 0.444425
O O12 0.312715 0.325207 0.673924
O O13 0.183993 0.184621 0.667589
O O14 0.415372 0.838865 0.191007
O O15 0.182691 0.000000 0.316644
O O16 0.838039 0.139332 0.943641
O O17 0.384027 0.500000 0.659494
O O18 0.371381 0.390258 0.777201
O O19 0.058071 0.000000 0.757217
#
# Coordination Sequence:
#
# PCOD9133653 Si02
#       8
#     4   4   4   4   4   4   4   4
#     4  10  18  34  64  95 123 162 221 271 305 368
#     4  10  23  40  62  97 133 165 207 264 331 382
#     4  10  19  34  60  93 127 163 206 261 317 373
#     4  12  21  36  63  94 125 165 210 262 318 376
#     4  11  23  40  67 100 130 165 217 273 317 378
#     4  12  23  41  69  96 126 171 220 266 320 379
#     4  10  21  39  62  90 124 166 214 262 315 377
#     4  11  26  44  63  93 132 169 213 267 323 381
#
# _framework density 9.8765429999999999
#
# number of rings (size 3 to 8) (size 9 to 14) (size 15 to 20)
#    0.000    1.250    3.750    2.625    1.750    1.000 
#    0.000    2.500    0.000    0.750    0.000    0.000 
#    0.000    0.000    0.000    0.000    0.000    0.000 
#
# Total GULP energy -89105.234242 kJ/mol
# GULP energy per Si atom -5569.077140 kJ/mol
# Density = 0.985406 g / cm^3
# Si number density = 9.876543 Si / 1000 Ang^3
#
#
#
# Elastic Constant Matrix: (Units=GPa)
#
#
# Indices 1 2 3 4 5 6 
#
# 1 63.5207 34.8345 3.4127 -0.0012 -0.6556 0.0002
# 2 34.8345 188.9080 21.7224 -0.0030 9.7519 -0.0001
# 3 3.4127 21.7224 52.1691 -0.0084 6.6291 0.0049
# 4 -0.0012 -0.0030 -0.0084 33.0366 0.0027 1.8734
# 5 -0.6556 9.7519 6.6291 0.0027 18.7526 -0.0022
# 6 0.0002 -0.0001 0.0049 1.8734 -0.0022 36.5643
#
#
#
# Elastic Compliance Matrix: (Units=1/GPa)
#
#
# Indices 1 2 3 4 5 6 
#
# 1 0.017616 -0.003365 -0.000054 0.000000 0.002385 0.000000
# 2 -0.003365 0.006288 -0.002060 0.000000 -0.002659 0.000000
# 3 -0.000054 -0.002060 0.020830 0.000006 -0.006294 -0.000003
# 4 0.000000 0.000000 0.000006 0.030358 -0.000007 -0.001555
# 5 0.002385 -0.002659 -0.006294 -0.000007 0.057017 0.000005
# 6 0.000000 0.000000 -0.000003 -0.001555 0.000005 0.027429
#
#
# Mechanical properties :
#
#
# Convention : Reuss Voigt Hill
#
# Bulk Modulus (GPa) = 29.60825 47.17079 38.38952
# Shear Modulus (GPa) = 27.50953 33.97924 30.74438
#
# Velocity S-wave (km/s) = 3.73590 4.15203 3.94945
# Velocity P-wave (km/s) = 5.79922 6.84966 6.34621
#
# Compressibility (1/GPa) = 0.03377437
#
# Stress axis : x y z
#
# Youngs Moduli (GPa) = 56.76688 159.02479 48.00857
#
# Poissons Ratio (x) = 0.53516 0.00260
# Poissons Ratio (y) = 0.19103 0.09891
# Poissons Ratio (z) = 0.00308 0.32764
#
# Static dielectric constant tensor:
#      x y z
#    x 1.711700 0.000000 -0.018290 
#    y 0.000000 1.770750 0.000000 
#    z -0.018290 0.000000 1.731210 
# 
# From -- ./inp_files/23336.got.cif
#   From: 2010.05.17/outbox.ucp.g08.bks.cvg/sg8_12_cif.got.tgz:23336.got - 2010.06.11 13:00:03.
