data_PCOD9133380
_publ_section_title
;
Structure prediction by ZEFSAII (Michael W. Deem and Ramdas Pophale) SiO2 
 PCOD9133380
Probable space group: C M
;
_chemical_formula_sum "Si O2"
_cell_formula_units_Z 26
_cell_length_a 7.754747
_cell_length_b 20.148305
_cell_length_c 10.046976
_cell_angle_alpha 90.000000
_cell_angle_beta 135.452518
_cell_angle_gamma 90.000000
_cell_volume 1101.207742
_symmetry_space_group_name_H-M "C M"
_symmetry_group_IT_number 8
_symmetry_cell_setting 'monoclinic'
loop_
_space_group_symop_operation_xyz
x,y,z
x,-y,z
1/2+x,1/2+y,z
1/2+x,1/2-y,z
loop_
_atom_site_type_symbol
_atom_site_label
_atom_site_fract_x
_atom_site_fract_y
_atom_site_fract_z
Si Si1 0.493870 0.718464 0.851620
Si Si2 0.863538 0.193757 0.475848
Si Si3 0.041094 0.000000 0.934940
Si Si4 0.133471 0.393686 0.703353
Si Si5 0.647426 0.335533 0.365486
Si Si6 0.403810 0.117731 0.144569
Si Si7 0.614025 0.130854 0.977134
O O1 0.466544 0.703431 0.679720
O O2 0.259075 0.679169 0.780062
O O3 0.734255 0.682934 0.041460
O O4 0.508888 0.795015 0.898510
O O5 0.740714 0.263968 0.366738
O O6 0.649428 0.138473 0.357390
O O7 0.060564 0.175487 0.471156
O O8 0.845660 0.057555 0.773961
O O9 0.230714 0.058211 0.091827
O O10 0.877837 0.384953 0.487371
O O11 0.072604 0.411839 0.822771
O O12 0.406035 0.361118 0.159590
O O13 0.493708 0.101659 0.043358
#
# Coordination Sequence:
#
# PCOD9133380 Si02
#       7
#     4   4   2   4   4   4   4
#     4  11  21  37  64 101 136 167 213 277 345 397
#     4  11  22  37  64 100 138 167 213 274 342 405
#     4  10  26  48  66  90 138 190 234 268 318 408
#     4  11  24  41  65  95 134 178 224 272 329 399
#     4  11  23  37  62  99 137 170 213 274 344 395
#     4  10  23  43  64  94 135 182 222 267 333 396
#     4  11  22  38  66 100 132 170 220 285 338 394
#
# _framework density 23.610441000000002
#
# number of rings (size 3 to 8) (size 9 to 14) (size 15 to 20)
#    0.000    1.231    3.077    2.769    2.154    3.077 
#    0.000   10.000    0.000    0.000    0.000    0.000 
#    0.000    0.000    0.000    0.000    0.000    0.000 
#
# Total GULP energy -72526.426806 kJ/mol
# GULP energy per Si atom -5578.955908 kJ/mol
# Density = 2.355670 g / cm^3
# Si number density = 23.610441 Si / 1000 Ang^3
#
#
#
# Elastic Constant Matrix: (Units=GPa)
#
#
# Indices 1 2 3 4 5 6 
#
# 1 77.4550 1.5087 24.3649 0.0000 3.2667 0.0000
# 2 1.5087 70.3232 38.4336 0.0000 14.1995 0.0000
# 3 24.3649 38.4336 111.5399 0.0000 30.1924 0.0000
# 4 0.0000 0.0000 0.0000 27.0290 0.0000 5.9258
# 5 3.2667 14.1995 30.1924 0.0000 48.6960 0.0000
# 6 0.0000 0.0000 0.0000 5.9258 0.0000 -20.9615
#
#
#
# Elastic Compliance Matrix: (Units=1/GPa)
#
#
# Indices 1 2 3 4 5 6 
#
# 1 0.014065 0.001630 -0.003906 0.000000 0.001003 0.000000
# 2 0.001630 0.017818 -0.006080 0.000000 -0.001535 0.000000
# 3 -0.003906 -0.006080 0.013654 0.000000 -0.006431 0.000000
# 4 0.000000 0.000000 0.000000 0.034838 0.000000 0.009849
# 5 0.001003 -0.001535 -0.006431 0.000000 0.024903 0.000000
# 6 0.000000 0.000000 0.000000 0.009849 0.000000 -0.044922
#
#
# Mechanical properties :
#
#
# Convention : Reuss Voigt Hill
#
# Bulk Modulus (GPa) = 34.68995 43.10362 38.89678
# Shear Modulus (GPa) = 57.68563 23.95343 40.81953
#
# Velocity S-wave (km/s) = 4.94826 3.18862 4.16249
# Velocity P-wave (km/s) = 6.88270 5.64377 6.29380
#
# Compressibility (1/GPa) = 0.02882679
#
# Stress axis : x y z
#
# Youngs Moduli (GPa) = 71.09720 56.12284 73.23639
#
# Poissons Ratio (x) = -0.09150 0.28603
# Poissons Ratio (y) = -0.11591 0.44529
# Poissons Ratio (z) = 0.27768 0.34124
#
# Static dielectric constant tensor:
#      x y z
#    x 2.009910 0.000000 -0.035820 
#    y 0.000000 2.196030 0.000000 
#    z -0.035820 0.000000 1.893750 
# 
# From -- ./inp_files/19290.got.cif
#   From: 2010.05.17/outbox.cif.g08.bks.cpg/sg8_10_cif.got.tgz:19290.got - 2010.06.03 19:46:02.
