data_PCOD9133909
_publ_section_title
;
Structure prediction by ZEFSAII (Michael W. Deem and Ramdas Pophale) SiO2 
 PCOD9133909
Probable space group: C C
;
_chemical_formula_sum "Si O2"
_cell_formula_units_Z 28
_cell_length_a 13.628416
_cell_length_b 7.844214
_cell_length_c 16.518540
_cell_angle_alpha 90.000000
_cell_angle_beta 35.903585
_cell_angle_gamma 90.000000
_cell_volume 1035.565323
_symmetry_space_group_name_H-M "C C"
_symmetry_group_IT_number 9
_symmetry_cell_setting 'monoclinic'
loop_
_space_group_symop_operation_xyz
x,y,z
x,-y,1/2+z
1/2+x,1/2+y,z
1/2+x,1/2-y,1/2+z
loop_
_atom_site_type_symbol
_atom_site_label
_atom_site_fract_x
_atom_site_fract_y
_atom_site_fract_z
Si Si1 0.302120 0.453428 0.717910
Si Si2 0.735907 0.389921 0.509942
Si Si3 0.687366 0.787141 0.549951
Si Si4 0.481819 0.444794 0.269777
Si Si5 0.056916 0.244687 0.973050
Si Si6 0.899005 0.591015 0.126492
Si Si7 0.054342 0.754745 0.873589
O O1 0.386031 0.531232 0.745764
O O2 0.424011 0.406069 0.563246
O O3 0.166373 0.587829 0.783591
O O4 0.205312 0.284190 0.812844
O O5 0.745966 0.593991 0.479942
O O6 0.618357 0.404579 0.668926
O O7 0.641719 0.290942 0.502781
O O8 0.899408 0.281425 0.417941
O O9 0.600899 0.722826 0.689748
O O10 0.844476 0.908798 0.429147
O O11 0.530317 0.878345 0.611217
O O12 0.948613 0.416354 0.049876
O O13 0.703477 0.606120 0.278354
O O14 0.965109 0.733715 0.019943
#
# Coordination Sequence:
#
# PCOD9133909 Si02
#       7
#     4   4   4   4   4   4   4
#     4  10  20  39  58  85 124 154 209 252 301 366
#     4   9  23  39  61  89 132 152 200 266 309 349
#     4  10  17  39  65  86 114 170 203 245 296 382
#     4   9  18  36  62  87 115 164 204 253 285 382
#     4  10  21  38  61  89 115 166 205 252 298 374
#     4  11  21  39  68  85 119 168 213 243 307 381
#     4  11  22  42  59  91 125 158 198 271 310 354
#
# _framework density 27.03837
#
# number of rings (size 3 to 8) (size 9 to 14) (size 15 to 20)
#    0.857    1.143    4.286    0.000    0.000    5.714 
#    5.143    0.000    0.000    0.000    0.000    0.000 
#    0.000    0.000    0.000    0.000    0.000    0.000 
#
# Total GULP energy -78073.878201 kJ/mol
# GULP energy per Si atom -5576.705586 kJ/mol
# Density = 2.697683 g / cm^3
# Si number density = 27.038370 Si / 1000 Ang^3
#
#
#
# Elastic Constant Matrix: (Units=GPa)
#
#
# Indices 1 2 3 4 5 6 
#
# 1 67.7676 -5.4207 29.5630 0.0000 -20.3081 0.0000
# 2 -5.4207 110.8684 31.1729 0.0000 -14.0048 0.0000
# 3 29.5630 31.1729 195.4622 -0.0001 -23.0903 0.0000
# 4 0.0000 0.0000 -0.0001 56.8033 0.0000 -1.2989
# 5 -20.3081 -14.0048 -23.0903 0.0000 29.2926 0.0000
# 6 0.0000 0.0000 0.0000 -1.2989 0.0000 11.1772
#
#
#
# Elastic Compliance Matrix: (Units=1/GPa)
#
#
# Indices 1 2 3 4 5 6 
#
# 1 0.020030 0.003277 -0.001904 0.000000 0.013953 0.000000
# 2 0.003277 0.010351 -0.001426 0.000000 0.006097 0.000000
# 3 -0.001904 -0.001426 0.005949 0.000000 0.002688 0.000000
# 4 0.000000 0.000000 0.000000 0.017652 0.000000 0.002051
# 5 0.013953 0.006097 0.002688 0.000000 0.048845 0.000000
# 6 0.000000 0.000000 0.000000 0.002051 0.000000 0.089706
#
#
# Mechanical properties :
#
#
# Convention : Reuss Voigt Hill
#
# Bulk Modulus (GPa) = 27.60581 53.85872 40.73227
# Shear Modulus (GPa) = 24.42440 40.70684 32.56562
#
# Velocity S-wave (km/s) = 3.00879 3.88431 3.47424
# Velocity P-wave (km/s) = 4.72255 6.33086 5.58490
#
# Compressibility (1/GPa) = 0.03622426
#
# Stress axis : x y z
#
# Youngs Moduli (GPa) = 49.92446 96.60841 168.09587
#
# Poissons Ratio (x) = -0.31660 0.32004
# Poissons Ratio (y) = -0.16361 0.23975
# Poissons Ratio (z) = 0.09505 0.13779
#
# Static dielectric constant tensor:
#      x y z
#    x 2.188810 0.000000 0.006500 
#    y 0.000000 2.170290 0.000000 
#    z 0.006500 0.000000 2.116150 
# 
# From -- ./inp_files/33650.got.cif
#   From: 2010.05.17/outbox.cif.g08.bks.cpg/sg9_17_cif.got.tgz:33650.got - 2010.06.03 20:04:27.
