data_PCOD9133208
_publ_section_title
;
Structure prediction by ZEFSAII (Michael W. Deem and Ramdas Pophale) SiO2 
 PCOD9133208
Probable space group: C M
;
_chemical_formula_sum "Si O2"
_cell_formula_units_Z 32
_cell_length_a 16.729360
_cell_length_b 14.909229
_cell_length_c 11.997446
_cell_angle_alpha 90.000000
_cell_angle_beta 28.798347
_cell_angle_gamma 90.000000
_cell_volume 1441.536223
_symmetry_space_group_name_H-M "C M"
_symmetry_group_IT_number 8
_symmetry_cell_setting 'monoclinic'
loop_
_space_group_symop_operation_xyz
x,y,z
x,-y,z
1/2+x,1/2+y,z
1/2+x,1/2-y,z
loop_
_atom_site_type_symbol
_atom_site_label
_atom_site_fract_x
_atom_site_fract_y
_atom_site_fract_z
Si Si1 0.884890 0.393989 0.995920
Si Si2 0.286318 0.715621 0.846323
Si Si3 0.098864 0.897466 0.504601
Si Si4 0.488419 0.402189 0.095919
Si Si5 0.720580 0.399448 0.607945
Si Si6 0.444949 0.727272 0.327637
Si Si7 0.343207 0.097327 0.781656
Si Si8 0.206759 0.392888 0.736159
O O1 0.884308 0.500000 0.024353
O O2 0.869638 0.389604 0.881680
O O3 0.061467 0.362423 0.829063
O O4 0.728715 0.357581 0.256440
O O5 0.428018 0.654905 0.722532
O O6 0.381577 0.804759 0.684853
O O7 0.186716 0.658296 0.876471
O O8 0.137442 0.749025 0.106127
O O9 0.178978 0.899148 0.528622
O O10 0.060209 0.000000 0.517859
O O11 0.400184 0.500000 0.210713
O O12 0.560256 0.389053 0.884264
O O13 0.653026 0.410642 0.972372
O O14 0.407244 0.314586 0.249748
O O15 0.787430 0.500000 0.553714
O O16 0.840667 0.316070 0.479406
O O17 0.382017 0.645436 0.480195
O O18 0.421199 0.000000 0.657150
O O19 0.208501 0.500000 0.744429
#
# Coordination Sequence:
#
# PCOD9133208 Si02
#       8
#     4   4   4   4   4   4   4   4
#     4   9  20  40  68  98 128 167 218 276 327 375
#     4  11  24  38  61 100 130 168 213 268 329 386
#     4  10  22  40  64  94 130 176 220 272 328 381
#     4   9  19  38  63  87 122 167 210 261 321 391
#     4  10  22  41  63  87 127 177 218 259 321 391
#     4  11  22  38  62  98 123 165 216 267 327 380
#     4   9  19  38  62  92 127 165 211 264 322 380
#     4  11  24  43  68  98 133 171 219 273 324 386
#
# _framework density 22.198539
#
# number of rings (size 3 to 8) (size 9 to 14) (size 15 to 20)
#    0.000    2.000    0.000    3.000    5.250    2.500 
#    0.000    0.000    2.750    0.000    0.000    0.000 
#    0.000    0.000    0.000    0.000    0.000    0.000 
#
# Total GULP energy -89171.887665 kJ/mol
# GULP energy per Si atom -5573.242979 kJ/mol
# Density = 2.214801 g / cm^3
# Si number density = 22.198539 Si / 1000 Ang^3
#
#
#
# Elastic Constant Matrix: (Units=GPa)
#
#
# Indices 1 2 3 4 5 6 
#
# 1 73.2500 9.8447 7.5059 0.0003 5.2177 -0.0003
# 2 9.8447 137.3569 22.2484 0.0002 -2.1439 -0.0003
# 3 7.5059 22.2484 54.6203 0.0003 -1.8879 -0.0004
# 4 0.0003 0.0002 0.0003 11.0207 -0.0003 28.9095
# 5 5.2177 -2.1439 -1.8879 -0.0003 22.5891 0.0004
# 6 -0.0003 -0.0003 -0.0004 28.9095 0.0004 -3.0265
#
#
#
# Elastic Compliance Matrix: (Units=1/GPa)
#
#
# Indices 1 2 3 4 5 6 
#
# 1 0.014186 -0.000788 -0.001749 0.000000 -0.003498 0.000000
# 2 -0.000788 0.007843 -0.003063 0.000000 0.000670 0.000000
# 3 -0.001749 -0.003063 0.019858 0.000000 0.001773 0.000000
# 4 0.000000 0.000000 0.000000 0.003482 -0.000001 0.033263
# 5 -0.003498 0.000670 0.001773 -0.000001 0.045289 0.000001
# 6 0.000000 0.000000 0.000000 0.033263 0.000001 -0.012680
#
#
# Mechanical properties :
#
#
# Convention : Reuss Voigt Hill
#
# Bulk Modulus (GPa) = 32.58839 38.26945 35.42892
# Shear Modulus (GPa) = 50.29771 21.15856 35.72814
#
# Velocity S-wave (km/s) = 4.76522 3.09066 4.01619
# Velocity P-wave (km/s) = 6.70736 5.47844 6.12381
#
# Compressibility (1/GPa) = 0.03068578
#
# Stress axis : x y z
#
# Youngs Moduli (GPa) = 70.49105 127.49512 50.35833
#
# Poissons Ratio (x) = 0.10047 0.08810
# Poissons Ratio (y) = 0.05555 0.15427
# Poissons Ratio (z) = 0.12332 0.39057
#
# Static dielectric constant tensor:
#      x y z
#    x 1.824620 0.000000 0.046470 
#    y 0.000000 1.915570 0.000000 
#    z 0.046470 0.000000 1.872020 
# 
# From -- ./inp_files/23332.got.cif
#   From: 2010.05.17/outbox.cif.g08.bks.cpg/sg8_12_cif.got.tgz:23332.got - 2010.06.03 19:46:02.
