data_PCOD9133503
_publ_section_title
;
Structure prediction by ZEFSAII (Michael W. Deem and Ramdas Pophale) SiO2 
 PCOD9133503
Probable space group: C M
;
_chemical_formula_sum "Si O2"
_cell_formula_units_Z 30
_cell_length_a 13.719369
_cell_length_b 16.046028
_cell_length_c 19.920834
_cell_angle_alpha 90.000000
_cell_angle_beta 159.252685
_cell_angle_gamma 90.000000
_cell_volume 1553.515692
_symmetry_space_group_name_H-M "C M"
_symmetry_group_IT_number 8
_symmetry_cell_setting 'monoclinic'
loop_
_space_group_symop_operation_xyz
x,y,z
x,-y,z
1/2+x,1/2+y,z
1/2+x,1/2-y,z
loop_
_atom_site_type_symbol
_atom_site_label
_atom_site_fract_x
_atom_site_fract_y
_atom_site_fract_z
Si Si1 0.878430 0.159128 0.854990
Si Si2 0.883519 0.222776 0.147952
Si Si3 0.410168 0.500000 0.778594
Si Si4 0.753100 0.902468 0.183502
Si Si5 0.611749 0.364313 0.798616
Si Si6 0.239716 0.674883 0.912858
Si Si7 0.448395 0.698635 0.554421
Si Si8 0.665754 0.402533 0.569800
O O1 0.911230 0.152471 0.956895
O O2 0.604463 0.214652 0.669455
O O3 0.865442 0.073414 0.807108
O O4 0.124231 0.215564 0.984724
O O5 0.832689 0.153394 0.171665
O O6 0.147080 0.277778 0.335609
O O7 0.902834 0.179038 0.087855
O O8 0.475886 0.426775 0.763590
O O9 0.948446 0.878761 0.371796
O O10 0.797847 0.000000 0.198418
O O11 0.432190 0.889148 0.994288
O O12 0.622226 0.268716 0.829519
O O13 0.463104 0.357817 0.630668
O O14 0.976899 0.614936 0.747952
O O15 0.606072 0.650716 0.597217
O O16 0.625567 0.500000 0.558103
#
# Coordination Sequence:
#
# PCOD9133503 Si02
#       8
#     4   4   2   4   4   4   4   4
#     4  11  25  44  67 100 133 178 227 281 352 416
#     4  12  23  44  72  94 135 184 230 283 347 417
#     4  12  24  42  72  98 140 182 224 294 350 404
#     4  11  22  39  66 101 129 174 232 283 336 407
#     4  11  21  40  67  94 135 175 222 278 341 404
#     4  11  22  45  64  94 134 179 222 277 351 405
#     4  11  24  43  69  99 134 180 228 279 346 418
#     4  11  24  39  68  99 133 175 232 285 338 411
#
# _framework density 19.311038
#
# number of rings (size 3 to 8) (size 9 to 14) (size 15 to 20)
#    0.000    0.800    6.000    2.400    1.867    1.600 
#    1.200    0.000    0.000    0.000    0.000    0.000 
#    0.000    0.000    0.000    0.000    0.000    0.000 
#
# Total GULP energy -83549.374567 kJ/mol
# GULP energy per Si atom -5569.958304 kJ/mol
# Density = 1.926709 g / cm^3
# Si number density = 19.311038 Si / 1000 Ang^3
#
#
#
# Elastic Constant Matrix: (Units=GPa)
#
#
# Indices 1 2 3 4 5 6 
#
# 1 150.2163 54.9717 26.1997 0.0084 -31.0344 0.0036
# 2 54.9717 94.0909 -1.8045 0.0418 -23.6259 0.0054
# 3 26.1997 -1.8045 57.8569 0.0598 -13.8498 0.0066
# 4 0.0084 0.0418 0.0598 17.3502 0.0168 0.6632
# 5 -31.0344 -23.6259 -13.8498 0.0168 29.6322 -0.0010
# 6 0.0036 0.0054 0.0066 0.6632 -0.0010 39.4419
#
#
#
# Elastic Compliance Matrix: (Units=1/GPa)
#
#
# Indices 1 2 3 4 5 6 
#
# 1 0.010020 -0.004611 -0.003433 0.000013 0.005213 0.000000
# 2 -0.004611 0.016003 0.005051 -0.000064 0.010290 -0.000001
# 3 -0.003433 0.005051 0.021506 -0.000095 0.010483 -0.000002
# 4 0.000013 -0.000064 -0.000095 0.057674 -0.000114 -0.000970
# 5 0.005213 0.010290 0.010483 -0.000114 0.052311 0.000000
# 6 0.000000 -0.000001 -0.000002 -0.000970 0.000000 0.025370
#
#
# Mechanical properties :
#
#
# Convention : Reuss Voigt Hill
#
# Bulk Modulus (GPa) = 24.07262 51.21088 37.64175
# Shear Modulus (GPa) = 24.66465 32.13801 28.40133
#
# Velocity S-wave (km/s) = 3.57771 4.08392 3.83917
# Velocity P-wave (km/s) = 5.43687 6.98673 6.25995
#
# Compressibility (1/GPa) = 0.04154097
#
# Stress axis : x y z
#
# Youngs Moduli (GPa) = 99.79624 62.48900 46.49914
#
# Poissons Ratio (x) = 0.28815 0.15965
# Poissons Ratio (y) = 0.46018 -0.23485
# Poissons Ratio (z) = 0.34265 -0.31561
#
# Static dielectric constant tensor:
#      x y z
#    x 1.686580 -0.000010 -0.027190 
#    y -0.000010 1.646160 -0.000030 
#    z -0.027190 -0.000030 1.698880 
# 
# From -- ./inp_files/11134.got.cif
#   From: 2010.05.17/outbox.cif.g08.bks.cpg/sg8_6_cif.got.tgz:11134.got - 2010.06.03 19:46:02.
