data_PCOD9133148
_publ_section_title
;
Structure prediction by ZEFSAII (Michael W. Deem and Ramdas Pophale) SiO2 
 PCOD9133148
Probable space group: C M
;
_chemical_formula_sum "Si O2"
_cell_formula_units_Z 28
_cell_length_a 11.108071
_cell_length_b 18.576715
_cell_length_c 7.712638
_cell_angle_alpha 90.000000
_cell_angle_beta 126.666256
_cell_angle_gamma 90.000000
_cell_volume 1276.597249
_symmetry_space_group_name_H-M "C M"
_symmetry_group_IT_number 8
_symmetry_cell_setting 'monoclinic'
loop_
_space_group_symop_operation_xyz
x,y,z
x,-y,z
1/2+x,1/2+y,z
1/2+x,1/2-y,z
loop_
_atom_site_type_symbol
_atom_site_label
_atom_site_fract_x
_atom_site_fract_y
_atom_site_fract_z
Si Si1 0.598380 0.334913 0.469650
Si Si2 0.507233 0.921802 0.698931
Si Si3 0.421741 0.222895 0.804965
Si Si4 0.705973 0.392241 0.223237
Si Si5 0.426259 0.794707 0.214707
Si Si6 0.006800 0.880807 0.748932
Si Si7 0.163911 0.580601 0.486682
O O1 0.753064 0.290395 0.594070
O O2 0.595391 0.377390 0.287521
O O3 0.472122 0.274820 0.362497
O O4 0.588716 0.382020 0.633585
O O5 0.503433 0.850646 0.813002
O O6 0.354131 0.923243 0.448495
O O7 0.640904 0.915750 0.675158
O O8 0.515108 0.000000 0.795520
O O9 0.488423 0.296522 0.788687
O O10 0.408769 0.226510 0.000610
O O11 0.782292 0.325810 0.187259
O O12 0.604120 0.421226 0.979006
O O13 0.554406 0.856687 0.325614
O O14 0.836911 0.908688 0.588749
O O15 0.114423 0.500000 0.390509
#
# Coordination Sequence:
#
# PCOD9133148 Si02
#       7
#     4   4   4   4   4   4   4
#     4  11  21  38  59  96 126 156 199 261 311 360
#     4   9  21  43  65  88 124 167 212 255 303 372
#     4  11  22  36  65  95 122 161 208 260 311 361
#     4  10  22  38  62  92 118 165 205 248 311 359
#     4  11  21  39  63  88 127 163 208 254 306 374
#     4  12  22  38  63  94 130 157 206 258 315 367
#     4  10  23  42  61  87 127 169 204 252 309 369
#
# _framework density 21.933309000000001
#
# number of rings (size 3 to 8) (size 9 to 14) (size 15 to 20)
#    0.000    1.429    4.286    2.571    0.000    1.143 
#    2.571    2.857    0.000    0.000    0.000    0.000 
#    0.000    0.000    0.000    0.000    0.000    0.000 
#
# Total GULP energy -78099.422504 kJ/mol
# GULP energy per Si atom -5578.530179 kJ/mol
# Density = 2.188339 g / cm^3
# Si number density = 21.933309 Si / 1000 Ang^3
#
#
#
# Elastic Constant Matrix: (Units=GPa)
#
#
# Indices 1 2 3 4 5 6 
#
# 1 89.6762 13.9538 14.7905 0.0000 -14.2302 0.0000
# 2 13.9538 77.0053 5.1822 0.0000 -20.3537 0.0000
# 3 14.7905 5.1822 62.4105 0.0000 -26.0825 0.0000
# 4 0.0000 0.0000 0.0000 -4.3099 0.0000 -6.2163
# 5 -14.2302 -20.3537 -26.0825 0.0000 39.5679 0.0000
# 6 0.0000 0.0000 0.0000 -6.2163 0.0000 0.5033
#
#
#
# Elastic Compliance Matrix: (Units=1/GPa)
#
#
# Indices 1 2 3 4 5 6 
#
# 1 0.012045 -0.001411 -0.001698 0.000000 0.002487 0.000000
# 2 -0.001411 0.015541 0.002999 0.000000 0.009464 0.000000
# 3 -0.001698 0.002999 0.022865 0.000000 0.016004 0.000000
# 4 0.000000 0.000000 0.000000 -0.012332 0.000000 -0.152316
# 5 0.002487 0.009464 0.016004 0.000000 0.041585 0.000000
# 6 0.000000 0.000000 0.000000 -0.152316 0.000000 0.105603
#
#
# Mechanical properties :
#
#
# Convention : Reuss Voigt Hill
#
# Bulk Modulus (GPa) = 19.90795 32.99391 26.45093
# Shear Modulus (GPa) = 24.71915 20.16330 22.44122
#
# Velocity S-wave (km/s) = 3.36075 3.03529 3.20215
# Velocity P-wave (km/s) = 4.91485 5.23063 5.07519
#
# Compressibility (1/GPa) = 0.05023120
#
# Stress axis : x y z
#
# Youngs Moduli (GPa) = 83.01858 64.34402 43.73540
#
# Poissons Ratio (x) = 0.09080 0.07427
# Poissons Ratio (y) = 0.11715 -0.13117
# Poissons Ratio (z) = 0.14098 -0.19298
#
# Static dielectric constant tensor:
#      x y z
#    x 1.783840 0.000000 0.007790 
#    y 0.000000 1.830570 0.000000 
#    z 0.007790 0.000000 1.811180 
# 
# From -- ./inp_files/11376.got.cif
#   From: 2010.05.17/outbox.cif.g08.bks.cpg/sg8_6_cif.got.tgz:11376.got - 2010.06.03 19:46:02.
