data_PCOD9133906
_publ_section_title
;
Structure prediction by ZEFSAII (Michael W. Deem and Ramdas Pophale) SiO2 
 PCOD9133906
Probable space group: C C
;
_chemical_formula_sum "Si O2"
_cell_formula_units_Z 28
_cell_length_a 6.107979
_cell_length_b 13.173668
_cell_length_c 18.797562
_cell_angle_alpha 90.000000
_cell_angle_beta 134.424728
_cell_angle_gamma 90.000000
_cell_volume 1080.208954
_symmetry_space_group_name_H-M "C C"
_symmetry_group_IT_number 9
_symmetry_cell_setting 'monoclinic'
loop_
_space_group_symop_operation_xyz
x,y,z
x,-y,1/2+z
1/2+x,1/2+y,z
1/2+x,1/2-y,1/2+z
loop_
_atom_site_type_symbol
_atom_site_label
_atom_site_fract_x
_atom_site_fract_y
_atom_site_fract_z
Si Si1 0.541430 0.407178 0.034650
Si Si2 0.332301 0.904735 0.832490
Si Si3 0.289509 0.986604 0.464220
Si Si4 0.765185 0.831079 0.368387
Si Si5 0.464580 0.238357 0.277849
Si Si6 0.129228 0.297806 0.487363
Si Si7 0.071469 0.090660 0.705115
O O1 0.490673 0.423519 0.105704
O O2 0.773526 0.475040 0.041460
O O3 0.663955 0.291146 0.052100
O O4 0.205764 0.424180 0.923401
O O5 0.362465 0.874408 0.746884
O O6 0.275397 0.917735 0.908348
O O7 0.087529 0.993962 0.758639
O O8 0.555486 0.905868 0.505435
O O9 0.994609 0.912571 0.388699
O O10 0.847781 0.810209 0.468944
O O11 0.423020 0.868584 0.282834
O O12 0.805146 0.731920 0.324689
O O13 0.379144 0.320408 0.201078
O O14 0.812791 0.260935 0.376398
#
# Coordination Sequence:
#
# PCOD9133906 Si02
#       7
#     4   4   4   4   4   4   4
#     4  11  24  37  62  97 130 168 221 268 323 390
#     4  11  21  42  64  92 128 170 220 262 327 390
#     4  11  19  38  65  90 124 176 203 268 329 375
#     4  10  17  39  62  82 122 165 209 262 321 382
#     4   9  20  36  64  85 121 170 210 265 328 379
#     4   9  19  36  58  88 121 163 212 261 317 382
#     4  11  22  40  61  94 130 168 217 272 321 384
#
# _framework density 25.920909999999999
#
# number of rings (size 3 to 8) (size 9 to 14) (size 15 to 20)
#    0.000    1.714    5.714    0.857    0.000    2.286 
#    0.000    2.857    0.000    0.000    0.000    0.000 
#    0.000    0.000    0.000    0.000    0.000    0.000 
#
# Total GULP energy -77938.455327 kJ/mol
# GULP energy per Si atom -5567.032523 kJ/mol
# Density = 2.586191 g / cm^3
# Si number density = 25.920910 Si / 1000 Ang^3
#
#
#
# Elastic Constant Matrix: (Units=GPa)
#
#
# Indices 1 2 3 4 5 6 
#
# 1 91.8008 45.9532 33.1819 0.0000 -29.1783 0.0000
# 2 45.9532 129.5912 49.0759 0.0000 -20.7578 0.0000
# 3 33.1819 49.0759 92.0416 -0.0001 -34.8030 -0.0001
# 4 0.0000 0.0000 -0.0001 23.8304 0.0000 -20.3117
# 5 -29.1783 -20.7578 -34.8030 0.0000 50.7447 0.0000
# 6 0.0000 0.0000 -0.0001 -20.3117 0.0000 52.6660
#
#
#
# Elastic Compliance Matrix: (Units=1/GPa)
#
#
# Indices 1 2 3 4 5 6 
#
# 1 0.015321 -0.004047 -0.000892 0.000000 0.006542 0.000000
# 2 -0.004047 0.010750 -0.004712 0.000000 -0.001161 0.000000
# 3 -0.000892 -0.004712 0.017249 0.000000 0.009390 0.000000
# 4 0.000000 0.000000 0.000000 0.062513 0.000000 0.024109
# 5 0.006542 -0.001161 0.009390 0.000000 0.029433 0.000000
# 6 0.000000 0.000000 0.000000 0.024109 0.000000 0.028286
#
#
# Mechanical properties :
#
#
# Convention : Reuss Voigt Hill
#
# Bulk Modulus (GPa) = 41.63436 63.31728 52.47582
# Shear Modulus (GPa) = 26.19731 37.79640 31.99686
#
# Velocity S-wave (km/s) = 3.18254 3.82271 3.51722
# Velocity P-wave (km/s) = 5.44075 6.63055 6.06490
#
# Compressibility (1/GPa) = 0.02401862
#
# Stress axis : x y z
#
# Youngs Moduli (GPa) = 65.27075 93.02254 57.97446
#
# Poissons Ratio (x) = 0.37648 0.05168
# Poissons Ratio (y) = 0.26416 0.27317
# Poissons Ratio (z) = 0.05819 0.43832
#
# Static dielectric constant tensor:
#      x y z
#    x 2.124330 0.000000 -0.083520 
#    y 0.000000 2.140690 0.000000 
#    z -0.083520 0.000000 2.146040 
# 
# From -- ./inp_files/21719.got.cif
#   From: 2010.05.17/outbox.cif.g08.bks.cpg/sg9_11_cif.got.tgz:21719.got - 2010.06.03 20:04:27.
