data_PCOD9133688
_publ_section_title
;
Structure prediction by ZEFSAII (Michael W. Deem and Ramdas Pophale) SiO2 
 PCOD9133688
Probable space group: C M
;
_chemical_formula_sum "Si O2"
_cell_formula_units_Z 16
_cell_length_a 12.000000
_cell_length_b 18.000000
_cell_length_c 15.000000
_cell_angle_alpha 90.000000
_cell_angle_beta 30.000000
_cell_angle_gamma 90.000000
_cell_volume 1620.000000
_symmetry_space_group_name_H-M "C M"
_symmetry_group_IT_number 8
_symmetry_cell_setting 'monoclinic'
loop_
_space_group_symop_operation_xyz
x,y,z
x,-y,z
1/2+x,1/2+y,z
1/2+x,1/2-y,z
loop_
_atom_site_type_symbol
_atom_site_label
_atom_site_fract_x
_atom_site_fract_y
_atom_site_fract_z
Si Si1 0.800170 0.912646 0.026440
Si Si2 0.821113 0.586675 0.281408
Si Si3 0.488145 0.088692 0.697228
Si Si4 0.775558 0.335694 0.667020
Si Si5 0.324848 0.342114 0.610411
Si Si6 0.458758 0.913813 0.982860
Si Si7 0.089824 0.087464 0.116200
Si Si8 0.663253 0.086502 0.321437
O O1 0.546158 0.887610 0.177679
O O2 0.792241 0.911413 0.138759
O O3 0.824291 0.000000 0.981094
O O4 0.018767 0.865655 0.844871
O O5 0.774860 0.500000 0.339525
O O6 0.583179 0.630519 0.443120
O O7 0.919878 0.586923 0.113573
O O8 0.403677 0.132526 0.667380
O O9 0.694864 0.124898 0.611351
O O10 0.533320 0.000000 0.649114
O O11 0.269315 0.091856 0.912214
O O12 0.796912 0.247062 0.638631
O O13 0.929099 0.372197 0.484135
O O14 0.176350 0.374692 0.794434
O O15 0.474491 0.000000 0.941683
O O16 0.232021 0.880074 0.098437
O O17 0.847899 0.119138 0.261740
O O18 0.047324 0.000000 0.163012
O O19 0.617837 0.000000 0.372905
#
# Coordination Sequence:
#
# PCOD9133688 Si02
#       8
#     4   4   4   4   4   4   4   4
#     4  10  22  42  63  88 125 170 221 271 320 389
#     4  10  22  41  66  89 121 173 223 264 318 400
#     4  10  20  41  70  92 123 169 223 274 316 383
#     4  12  25  39  61  97 132 169 212 268 342 399
#     4  11  25  41  59  97 136 166 208 275 344 388
#     4   9  19  38  64  90 118 163 220 270 317 379
#     4   8  15  32  60  91 116 146 206 278 318 352
#     4  10  20  36  61  90 120 162 219 274 318 376
#
# _framework density 9.8765429999999999
#
# number of rings (size 3 to 8) (size 9 to 14) (size 15 to 20)
#    0.000    2.000    1.250    3.000    1.750    4.000 
#    4.500    3.750    0.000    0.000    0.000    0.000 
#    0.000    0.000    0.000    0.000    0.000    0.000 
#
# Total GULP energy -89134.825332 kJ/mol
# GULP energy per Si atom -5570.926583 kJ/mol
# Density = 0.985406 g / cm^3
# Si number density = 9.876543 Si / 1000 Ang^3
#
#
#
# Elastic Constant Matrix: (Units=GPa)
#
#
# Indices 1 2 3 4 5 6 
#
# 1 86.9619 29.3872 29.7577 0.0248 -31.7284 -0.0142
# 2 29.3872 113.5624 48.5340 -0.0277 -22.0601 -0.0026
# 3 29.7577 48.5340 123.6001 -0.0137 -40.2878 -0.0095
# 4 0.0248 -0.0277 -0.0137 25.4967 -0.0196 -3.7257
# 5 -31.7284 -22.0601 -40.2878 -0.0196 43.3510 0.0228
# 6 -0.0142 -0.0026 -0.0095 -3.7257 0.0228 22.0996
#
#
#
# Elastic Compliance Matrix: (Units=1/GPa)
#
#
# Indices 1 2 3 4 5 6 
#
# 1 0.016160 -0.002280 0.000691 -0.000010 0.011309 -0.000003
# 2 -0.002280 0.011050 -0.003588 0.000013 0.000620 0.000000
# 3 0.000691 -0.003588 0.012772 0.000010 0.010549 -0.000004
# 4 -0.000010 0.000013 0.000010 0.040211 0.000023 0.006779
# 5 0.011309 0.000620 0.010549 0.000023 0.041464 -0.000027
# 6 -0.000003 0.000000 -0.000004 0.006779 -0.000027 0.046393
#
#
# Mechanical properties :
#
#
# Convention : Reuss Voigt Hill
#
# Bulk Modulus (GPa) = 33.75355 59.94247 46.84801
# Shear Modulus (GPa) = 26.55649 32.61915 29.58782
#
# Velocity S-wave (km/s) = 3.67061 4.06808 3.87445
# Velocity P-wave (km/s) = 5.92363 7.24413 6.61690
#
# Compressibility (1/GPa) = 0.02962651
#
# Stress axis : x y z
#
# Youngs Moduli (GPa) = 61.88307 90.50162 78.29856
#
# Poissons Ratio (x) = 0.20636 -0.05410
# Poissons Ratio (y) = 0.14111 0.28093
# Poissons Ratio (z) = -0.04276 0.32471
#
# Static dielectric constant tensor:
#      x y z
#    x 1.809030 -0.000040 0.015010 
#    y -0.000040 1.700130 0.000030 
#    z 0.015010 0.000030 1.695460 
# 
# From -- ./inp_files/26266.got.cif
#   From: 2010.05.17/outbox.ucp.g08.bks.cvg/sg8_14_cif.got.tgz:26266.got - 2010.06.11 13:00:03.
