data_PCOD9133759
_publ_section_title
;
Structure prediction by ZEFSAII (Michael W. Deem and Ramdas Pophale) SiO2 
 PCOD9133759
Probable space group: C C
;
_chemical_formula_sum "Si O2"
_cell_formula_units_Z 32
_cell_length_a 19.938793
_cell_length_b 7.180865
_cell_length_c 22.881231
_cell_angle_alpha 90.000000
_cell_angle_beta 158.833764
_cell_angle_gamma 90.000000
_cell_volume 1182.912298
_symmetry_space_group_name_H-M "C C"
_symmetry_group_IT_number 9
_symmetry_cell_setting 'monoclinic'
loop_
_space_group_symop_operation_xyz
x,y,z
x,-y,1/2+z
1/2+x,1/2+y,z
1/2+x,1/2-y,1/2+z
loop_
_atom_site_type_symbol
_atom_site_label
_atom_site_fract_x
_atom_site_fract_y
_atom_site_fract_z
Si Si1 0.283560 0.677373 0.755800
Si Si2 0.410106 0.001520 0.536824
Si Si3 0.977583 0.304843 0.346215
Si Si4 0.410994 0.957732 0.418666
Si Si5 0.188576 0.096278 0.073944
Si Si6 0.843696 0.952326 0.588976
Si Si7 0.608988 0.571349 0.887263
Si Si8 0.172739 0.354622 0.332955
O O1 0.109116 0.543221 0.602200
O O2 0.300668 0.761450 0.704482
O O3 0.480499 0.584603 0.931096
O O4 0.280282 0.870124 0.790759
O O5 0.355734 0.874712 0.436975
O O6 0.296046 0.959754 0.502623
O O7 0.335338 0.204782 0.455819
O O8 0.616858 0.032901 0.729885
O O9 0.935401 0.330950 0.381145
O O10 0.169473 0.407524 0.488017
O O11 0.516032 0.392774 0.846254
O O12 0.807061 0.408226 0.175217
O O13 0.168121 0.176424 0.992893
O O14 0.747387 0.976684 0.447604
O O15 0.971261 0.107467 0.722063
O O16 0.993891 0.778399 0.704701
#
# Coordination Sequence:
#
# PCOD9133759 Si02
#       8
#     4   4   4   4   4   4   4   4
#     4   9  20  39  53  79 113 159 210 239 293 361
#     4  10  18  30  49  80 118 155 192 243 306 355
#     4  11  19  31  52  87 125 146 189 247 313 359
#     4  10  20  33  53  78 117 163 195 245 303 371
#     4  10  21  36  60  84 116 157 203 252 295 353
#     4  10  16  28  47  79 117 143 182 242 304 341
#     4  11  20  32  56  92 120 147 193 257 311 357
#     4   9  16  27  46  73 110 154 186 247 295 337
#
# _framework density 27.051880000000001
#
# number of rings (size 3 to 8) (size 9 to 14) (size 15 to 20)
#    0.000    2.000    3.750    3.000    0.000    0.000 
#    0.000    1.250    0.000    0.000   13.000    0.000 
#    0.000    0.000    0.000    0.000    0.000    0.000 
#
# Total GULP energy -89260.352217 kJ/mol
# GULP energy per Si atom -5578.772014 kJ/mol
# Density = 2.699031 g / cm^3
# Si number density = 27.051880 Si / 1000 Ang^3
#
#
#
# Elastic Constant Matrix: (Units=GPa)
#
#
# Indices 1 2 3 4 5 6 
#
# 1 96.3194 6.1275 34.6920 -0.0003 -44.2042 0.0006
# 2 6.1275 68.2299 22.7379 -0.0342 8.5925 -0.0039
# 3 34.6920 22.7379 181.7230 -0.0387 -30.8984 -0.0041
# 4 -0.0003 -0.0342 -0.0387 30.5594 -0.0028 6.6127
# 5 -44.2042 8.5925 -30.8984 -0.0028 73.1347 0.0025
# 6 0.0006 -0.0039 -0.0041 6.6127 0.0025 21.4846
#
#
#
# Elastic Compliance Matrix: (Units=1/GPa)
#
#
# Indices 1 2 3 4 5 6 
#
# 1 0.014959 -0.002090 -0.001094 -0.000003 0.008825 -0.000001
# 2 -0.002090 0.016140 -0.002325 0.000015 -0.004142 -0.000002
# 3 -0.001094 -0.002325 0.006396 0.000006 0.002314 -0.000001
# 4 -0.000003 0.000015 0.000006 0.035058 0.000001 -0.010790
# 5 0.008825 -0.004142 0.002314 0.000001 0.020472 -0.000003
# 6 -0.000001 -0.000002 -0.000001 -0.010790 -0.000003 0.049866
#
#
# Mechanical properties :
#
#
# Convention : Reuss Voigt Hill
#
# Bulk Modulus (GPa) = 37.76708 52.59856 45.18282
# Shear Modulus (GPa) = 30.72470 43.88339 37.30405
#
# Velocity S-wave (km/s) = 3.37377 4.03202 3.71749
# Velocity P-wave (km/s) = 5.40072 6.41576 5.93000
#
# Compressibility (1/GPa) = 0.02647809
#
# Stress axis : x y z
#
# Youngs Moduli (GPa) = 66.84845 61.95626 156.34619
#
# Poissons Ratio (x) = 0.12951 0.17100
# Poissons Ratio (y) = 0.13974 0.36346
# Poissons Ratio (z) = 0.07311 0.14403
#
# Static dielectric constant tensor:
#      x y z
#    x 2.331480 0.000000 -0.027640 
#    y 0.000000 2.262280 0.000000 
#    z -0.027640 0.000000 2.111920 
# 
# From -- ./inp_files/11656.got.cif
#   From: 2010.05.17/outbox.cif.g08.bks.cpg/sg9_6_cif.got.tgz:11656.got - 2010.06.03 20:04:27.
