data_PCOD9133948
_publ_section_title
;
Structure prediction by ZEFSAII (Michael W. Deem and Ramdas Pophale) SiO2 
 PCOD9133948
Probable space group: C C
;
_chemical_formula_sum "Si O2"
_cell_formula_units_Z 32
_cell_length_a 18.654014
_cell_length_b 5.008178
_cell_length_c 20.168917
_cell_angle_alpha 90.000000
_cell_angle_beta 73.936557
_cell_angle_gamma 90.000000
_cell_volume 1810.664927
_symmetry_space_group_name_H-M "C C"
_symmetry_group_IT_number 9
_symmetry_cell_setting 'monoclinic'
loop_
_space_group_symop_operation_xyz
x,y,z
x,-y,1/2+z
1/2+x,1/2+y,z
1/2+x,1/2-y,1/2+z
loop_
_atom_site_type_symbol
_atom_site_label
_atom_site_fract_x
_atom_site_fract_y
_atom_site_fract_z
Si Si1 0.546010 0.884227 0.276450
Si Si2 0.656226 0.601364 0.445511
Si Si3 0.147858 0.954798 0.102727
Si Si4 0.995944 0.900293 0.212838
Si Si5 0.699073 0.937502 0.167120
Si Si6 0.757610 0.355780 0.320278
Si Si7 0.108659 0.633852 0.381260
Si Si8 0.325722 0.374453 0.237887
O O1 0.513716 0.106628 0.235510
O O2 0.633019 0.846158 0.234411
O O3 0.504570 0.609016 0.271609
O O4 0.546646 0.009247 0.349615
O O5 0.654781 0.617650 0.524259
O O6 0.733892 0.476662 0.397462
O O7 0.642120 0.885018 0.413935
O O8 0.595713 0.381945 0.434085
O O9 0.192107 0.222391 0.110128
O O10 0.060688 0.983787 0.144976
O O11 0.179343 0.722427 0.141626
O O12 0.913492 0.896152 0.204725
O O13 0.776373 0.942346 0.186353
O O14 0.797848 0.584816 0.268719
O O15 0.674185 0.265287 0.318276
O O16 0.804809 0.088571 0.300469
#
# Coordination Sequence:
#
# PCOD9133948 Si02
#       8
#     4   4   4   4   4   4   4   4
#     4  10  18  35  51  81 107 132 181 219 267 316
#     4  10  18  33  53  84 103 135 185 225 255 305
#     4  10  21  35  53  80 104 144 178 220 252 317
#     4  10  23  33  53  79 116 138 165 221 279 324
#     4  10  19  31  55  76 105 139 180 220 257 308
#     4  10  19  31  56  82 100 138 174 229 258 316
#     4  10  18  31  57  83  99 136 173 236 256 308
#     4  12  20  35  54  83 110 138 172 222 284 322
#
# _framework density 17.673065000000001
#
# number of rings (size 3 to 8) (size 9 to 14) (size 15 to 20)
#    0.750    1.000    2.500    3.000    3.500    0.000 
#    0.000    0.000    0.000    9.000    0.000    0.000 
#    0.000    0.000    0.000    0.000    0.000    0.000 
#
# Total GULP energy -89086.502219 kJ/mol
# GULP energy per Si atom -5567.906389 kJ/mol
# Density = 1.763284 g / cm^3
# Si number density = 17.673065 Si / 1000 Ang^3
#
#
#
# Elastic Constant Matrix: (Units=GPa)
#
#
# Indices 1 2 3 4 5 6 
#
# 1 115.3702 19.0358 31.6520 0.0000 8.3798 0.0000
# 2 19.0358 90.3075 1.8211 0.0002 -1.1663 0.0001
# 3 31.6520 1.8211 58.9912 0.0000 6.2423 0.0000
# 4 0.0000 0.0002 0.0000 20.9648 0.0000 3.1228
# 5 8.3798 -1.1663 6.2423 0.0000 10.7994 0.0000
# 6 0.0000 0.0001 0.0000 3.1228 0.0000 14.6799
#
#
#
# Elastic Compliance Matrix: (Units=1/GPa)
#
#
# Indices 1 2 3 4 5 6 
#
# 1 0.010870 -0.002261 -0.005160 0.000000 -0.005696 0.000000
# 2 -0.002261 0.011573 0.000573 0.000000 0.002673 0.000000
# 3 -0.005160 0.000573 0.020528 0.000000 -0.007800 0.000000
# 4 0.000000 0.000000 0.000000 0.049260 0.000000 -0.010479
# 5 -0.005696 0.002673 -0.007800 0.000000 0.101815 0.000000
# 6 0.000000 0.000000 0.000000 -0.010479 0.000000 0.070350
#
#
# Mechanical properties :
#
#
# Convention : Reuss Voigt Hill
#
# Bulk Modulus (GPa) = 34.15837 41.07629 37.61733
# Shear Modulus (GPa) = 17.37022 23.43283 20.40152
#
# Velocity S-wave (km/s) = 3.13847 3.64525 3.40131
# Velocity P-wave (km/s) = 5.70116 6.40390 6.06272
#
# Compressibility (1/GPa) = 0.02927541
#
# Stress axis : x y z
#
# Youngs Moduli (GPa) = 91.99510 86.40952 48.71415
#
# Poissons Ratio (x) = 0.19536 0.25136
# Poissons Ratio (y) = 0.20798 -0.02791
# Poissons Ratio (z) = 0.47468 -0.04951
#
# Static dielectric constant tensor:
#      x y z
#    x 1.606040 0.000000 -0.000720 
#    y 0.000000 1.633590 0.000000 
#    z -0.000720 0.000000 1.617190 
# 
# From -- ./inp_files/30861.got.cif
#   From: 2010.05.17/outbox.cif.g08.bks.cpg/sg9_16_cif.got.tgz:30861.got - 2010.06.03 20:04:27.
