data_PCOD9133201
_publ_section_title
;
Structure prediction by ZEFSAII (Michael W. Deem and Ramdas Pophale) SiO2 
 PCOD9133201
Probable space group: C M
;
_chemical_formula_sum "Si O2"
_cell_formula_units_Z 32
_cell_length_a 9.305838
_cell_length_b 22.529389
_cell_length_c 14.751316
_cell_angle_alpha 90.000000
_cell_angle_beta 149.423563
_cell_angle_gamma 90.000000
_cell_volume 1573.209792
_symmetry_space_group_name_H-M "C M"
_symmetry_group_IT_number 8
_symmetry_cell_setting 'monoclinic'
loop_
_space_group_symop_operation_xyz
x,y,z
x,-y,z
1/2+x,1/2+y,z
1/2+x,1/2-y,z
loop_
_atom_site_type_symbol
_atom_site_label
_atom_site_fract_x
_atom_site_fract_y
_atom_site_fract_z
Si Si1 0.305000 0.929100 0.137370
Si Si2 0.719486 0.363059 0.906368
Si Si3 0.789634 0.777701 0.925816
Si Si4 0.124332 0.663455 0.648259
Si Si5 0.369376 0.869398 0.792374
Si Si6 0.844874 0.730156 0.335217
Si Si7 0.735204 0.828157 0.413146
Si Si8 0.638098 0.065889 0.787332
O O1 0.524591 0.884634 0.305209
O O2 0.363568 0.000000 0.176527
O O3 0.320634 0.903330 0.043988
O O4 0.972778 0.920013 0.983160
O O5 0.754987 0.291787 0.925331
O O6 0.378842 0.365857 0.728859
O O7 0.881645 0.382149 0.904729
O O8 0.749070 0.793738 0.796915
O O9 0.564363 0.815946 0.860397
O O10 0.094773 0.791653 0.133970
O O11 0.000782 0.610912 0.641682
O O12 0.915286 0.693107 0.463955
O O13 0.471835 0.924760 0.789497
O O14 0.048247 0.850123 0.602639
O O15 0.759255 0.794420 0.329083
O O16 0.122082 0.720646 0.424039
O O17 0.625005 0.000000 0.744846
#
# Coordination Sequence:
#
# PCOD9133201 Si02
#       8
#     4   4   4   4   4   4   4   4
#     4  10  23  46  70  92 129 180 229 274 329 397
#     4  11  19  39  61  95 130 169 217 270 332 392
#     4  11  23  40  63  95 139 177 211 267 338 402
#     4  10  22  40  63  94 134 174 218 271 331 400
#     4  11  24  37  65  97 134 172 217 280 333 393
#     4  12  25  40  64  99 139 174 221 266 336 403
#     4  12  25  42  63 102 137 177 217 277 332 403
#     4   9  21  44  69  90 126 181 228 271 333 396
#
# _framework density 20.340581
#
# number of rings (size 3 to 8) (size 9 to 14) (size 15 to 20)
#    0.000    1.250    2.500    4.500    5.250    1.000 
#    0.000    0.625    0.000    3.000    0.000    0.000 
#    0.000    0.000    0.000    0.000    0.000    0.000 
#
# Total GULP energy -89216.841766 kJ/mol
# GULP energy per Si atom -5576.052610 kJ/mol
# Density = 2.029428 g / cm^3
# Si number density = 20.340581 Si / 1000 Ang^3
#
#
#
# Elastic Constant Matrix: (Units=GPa)
#
#
# Indices 1 2 3 4 5 6 
#
# 1 108.4309 8.5601 7.8635 0.0002 9.0312 -0.0001
# 2 8.5601 79.2432 6.6281 -0.0002 2.8535 -0.0002
# 3 7.8635 6.6281 62.7822 0.0000 3.8088 -0.0006
# 4 0.0002 -0.0002 0.0000 24.2852 -0.0004 1.2731
# 5 9.0312 2.8535 3.8088 -0.0004 23.6600 -0.0005
# 6 -0.0001 -0.0002 -0.0006 1.2731 -0.0005 12.4428
#
#
#
# Elastic Compliance Matrix: (Units=1/GPa)
#
#
# Indices 1 2 3 4 5 6 
#
# 1 0.009641 -0.000842 -0.000910 0.000000 -0.003432 0.000000
# 2 -0.000842 0.012847 -0.001188 0.000000 -0.001037 0.000000
# 3 -0.000910 -0.001188 0.016297 0.000000 -0.002133 0.000001
# 4 0.000000 0.000000 0.000000 0.041399 0.000001 -0.004236
# 5 -0.003432 -0.001037 -0.002133 0.000001 0.044044 0.000001
# 6 0.000000 0.000000 0.000001 -0.004236 0.000001 0.080801
#
#
# Mechanical properties :
#
#
# Convention : Reuss Voigt Hill
#
# Bulk Modulus (GPa) = 30.39101 32.95108 31.67105
# Shear Modulus (GPa) = 22.53497 27.23791 24.88644
#
# Velocity S-wave (km/s) = 3.33210 3.66333 3.50163
# Velocity P-wave (km/s) = 5.45686 5.84193 5.65268
#
# Compressibility (1/GPa) = 0.03290447
#
# Stress axis : x y z
#
# Youngs Moduli (GPa) = 103.72602 77.83911 61.36126
#
# Poissons Ratio (x) = 0.06552 0.05587
# Poissons Ratio (y) = 0.08731 0.07290
# Poissons Ratio (z) = 0.09444 0.09247
#
# Static dielectric constant tensor:
#      x y z
#    x 1.764110 0.000000 -0.015660 
#    y 0.000000 1.765630 0.000000 
#    z -0.015660 0.000000 1.768570 
# 
# From -- ./inp_files/25671.got.cif
#   From: 2010.05.17/outbox.cif.g08.bks.cpg/sg8_13_cif.got.tgz:25671.got - 2010.06.03 19:46:02.
