data_PCOD9133514
_publ_section_title
;
Structure prediction by ZEFSAII (Michael W. Deem and Ramdas Pophale) SiO2 
 PCOD9133514
Probable space group: C M
;
_chemical_formula_sum "Si O2"
_cell_formula_units_Z 32
_cell_length_a 26.019865
_cell_length_b 7.839070
_cell_length_c 17.363321
_cell_angle_alpha 90.000000
_cell_angle_beta 154.814077
_cell_angle_gamma 90.000000
_cell_volume 1507.162520
_symmetry_space_group_name_H-M "C M"
_symmetry_group_IT_number 8
_symmetry_cell_setting 'monoclinic'
loop_
_space_group_symop_operation_xyz
x,y,z
x,-y,z
1/2+x,1/2+y,z
1/2+x,1/2-y,z
loop_
_atom_site_type_symbol
_atom_site_label
_atom_site_fract_x
_atom_site_fract_y
_atom_site_fract_z
Si Si1 0.304930 0.298132 0.354940
Si Si2 0.179969 0.790108 0.585653
Si Si3 0.500711 0.302509 0.218607
Si Si4 0.926989 0.705050 0.846512
Si Si5 0.108753 0.290595 0.966439
Si Si6 0.571350 0.198444 0.743748
Si Si7 0.635578 0.795822 0.255328
Si Si8 0.235957 0.196729 0.831289
O O1 0.280395 0.500000 0.324174
O O2 0.446808 0.272960 0.542352
O O3 0.251005 0.232663 0.363293
O O4 0.224284 0.233557 0.174037
O O5 0.297289 0.729827 0.697094
O O6 0.191070 0.732336 0.688600
O O7 0.059987 0.738561 0.377884
O O8 0.182967 0.000000 0.589990
O O9 0.466892 0.500000 0.181938
O O10 0.603007 0.288419 0.291706
O O11 0.380652 0.207341 0.029825
O O12 0.916624 0.500000 0.825855
O O13 0.989835 0.764676 0.853061
O O14 0.023179 0.736550 0.045142
O O15 0.111253 0.500000 0.969232
O O16 0.105043 0.230046 0.873632
O O17 0.677373 0.218036 0.825982
O O18 0.546302 0.000000 0.721081
O O19 0.643395 0.000000 0.279038
O O20 0.198564 0.000000 0.783880
#
# Coordination Sequence:
#
# PCOD9133514 Si02
#       8
#     4   4   4   4   4   4   4   4
#     4   9  19  37  59  84 113 153 195 228 269 337
#     4   9  19  34  57  83 109 148 193 227 270 342
#     4  11  22  35  57  89 116 142 186 243 289 328
#     4   8  13  29  56  82 108 146 191 223 259 331
#     4   8  17  33  56  82 113 151 188 225 271 336
#     4  11  23  38  59  87 115 146 188 241 288 329
#     4   9  17  33  58  84 117 153 188 226 274 339
#     4  11  23  43  62  77 109 157 197 231 276 340
#
# _framework density 21.231949
#
# number of rings (size 3 to 8) (size 9 to 14) (size 15 to 20)
#    0.000    2.500    1.250    2.625    1.750    1.500 
#    0.000    8.750    0.000    1.500    0.000    0.000 
#    0.000    0.000    0.000    0.000    0.000    0.000 
#
# Total GULP energy -89298.552630 kJ/mol
# GULP energy per Si atom -5581.159539 kJ/mol
# Density = 2.118362 g / cm^3
# Si number density = 21.231949 Si / 1000 Ang^3
#
#
#
# Elastic Constant Matrix: (Units=GPa)
#
#
# Indices 1 2 3 4 5 6 
#
# 1 110.6098 -1.7035 38.1065 0.0000 -27.4132 0.0000
# 2 -1.7035 21.9362 6.4202 0.0000 -3.7420 0.0000
# 3 38.1065 6.4202 51.9467 0.0000 -26.9099 0.0000
# 4 0.0000 0.0000 0.0000 9.0017 0.0000 4.6222
# 5 -27.4132 -3.7420 -26.9099 0.0000 30.3849 0.0000
# 6 0.0000 0.0000 0.0000 4.6222 0.0000 22.5109
#
#
#
# Elastic Compliance Matrix: (Units=1/GPa)
#
#
# Indices 1 2 3 4 5 6 
#
# 1 0.012985 0.004060 -0.006836 0.000000 0.006162 0.000000
# 2 0.004060 0.048591 -0.007365 0.000000 0.003124 0.000000
# 3 -0.006836 -0.007365 0.039745 0.000000 0.028125 0.000000
# 4 0.000000 0.000000 0.000000 0.124183 0.000000 -0.025499
# 5 0.006162 0.003124 0.028125 0.000000 0.063763 0.000000
# 6 0.000000 0.000000 0.000000 -0.025499 0.000000 0.049659
#
#
# Mechanical properties :
#
#
# Convention : Reuss Voigt Hill
#
# Bulk Modulus (GPa) = 12.33976 30.01545 21.17760
# Shear Modulus (GPa) = 12.94597 21.82415 17.38506
#
# Velocity S-wave (km/s) = 2.47197 3.20955 2.86460
# Velocity P-wave (km/s) = 3.73792 5.28229 4.57573
#
# Compressibility (1/GPa) = 0.08103888
#
# Stress axis : x y z
#
# Youngs Moduli (GPa) = 77.01005 20.58008 25.16054
#
# Poissons Ratio (x) = -0.08356 0.17199
# Poissons Ratio (y) = -0.31267 0.18532
# Poissons Ratio (z) = 0.52641 0.15158
#
# Static dielectric constant tensor:
#      x y z
#    x 1.749220 0.000000 -0.023670 
#    y 0.000000 1.780890 0.000000 
#    z -0.023670 0.000000 1.754130 
# 
# From -- ./inp_files/28200.got.cif
#   From: 2010.05.17/outbox.cif.g08.bks.cpg/sg8_15_cif.got.tgz:28200.got - 2010.06.03 19:46:02.
