data_PCOD9133658
_publ_section_title
;
Structure prediction by ZEFSAII (Michael W. Deem and Ramdas Pophale) SiO2 
 PCOD9133658
Probable space group: C M
;
_chemical_formula_sum "Si O2"
_cell_formula_units_Z 16
_cell_length_a 27.000000
_cell_length_b 9.000000
_cell_length_c 21.000000
_cell_angle_alpha 90.000000
_cell_angle_beta 20.000000
_cell_angle_gamma 90.000000
_cell_volume 1745.328791
_symmetry_space_group_name_H-M "C M"
_symmetry_group_IT_number 8
_symmetry_cell_setting 'monoclinic'
loop_
_space_group_symop_operation_xyz
x,y,z
x,-y,z
1/2+x,1/2+y,z
1/2+x,1/2-y,z
loop_
_atom_site_type_symbol
_atom_site_label
_atom_site_fract_x
_atom_site_fract_y
_atom_site_fract_z
Si Si1 0.728360 0.323882 0.127690
Si Si2 0.801047 0.677943 0.524892
Si Si3 0.304837 0.177120 0.781016
Si Si4 0.008076 0.830806 0.825502
Si Si5 0.099643 0.178697 0.146410
Si Si6 0.918314 0.169953 0.083533
Si Si7 0.131173 0.322234 0.376063
Si Si8 0.199974 0.675594 0.778628
O O1 0.716536 0.500000 0.148844
O O2 0.659308 0.279752 0.144065
O O3 0.654948 0.249127 0.277980
O O4 0.895253 0.273694 0.927163
O O5 0.796568 0.500000 0.537327
O O6 0.672692 0.720443 0.631451
O O7 0.771934 0.749207 0.629455
O O8 0.950582 0.736656 0.318049
O O9 0.472138 0.207537 0.592970
O O10 0.265123 0.262673 0.764906
O O11 0.288927 0.000000 0.788269
O O12 0.207638 0.216125 0.958832
O O13 0.997485 0.000000 0.814492
O O14 0.962493 0.834192 0.955330
O O15 0.078336 0.000000 0.172033
O O16 0.754254 0.225009 0.277282
O O17 0.928665 0.000000 0.095162
O O18 0.032190 0.274974 0.979719
O O19 0.149956 0.500000 0.345484
O O20 0.216732 0.500000 0.753504
#
# Coordination Sequence:
#
# PCOD9133658 Si02
#       8
#     4   4   4   4   4   4   4   4
#     4  10  19  31  51  79 107 132 164 211 261 305
#     4  10  20  35  56  79 104 137 175 212 255 308
#     4  10  21  38  55  72 102 142 178 213 257 306
#     4   8  16  31  51  76 103 131 167 208 250 304
#     4  10  22  37  52  75 106 138 175 217 257 303
#     4   8  15  30  51  76 103 131 168 211 256 306
#     4   9  18  33  55  78  99 131 174 212 251 307
#     4  11  21  33  53  81 108 134 171 216 259 305
#
# _framework density 9.1673270000000002
#
# number of rings (size 3 to 8) (size 9 to 14) (size 15 to 20)
#    0.000    2.500    0.000    4.125    0.000    9.000 
#    0.000    1.250    0.000    3.000    0.000    0.000 
#    0.000    0.000    0.000    0.000    0.000    0.000 
#
# Total GULP energy -89208.977681 kJ/mol
# GULP energy per Si atom -5575.561105 kJ/mol
# Density = 0.914646 g / cm^3
# Si number density = 9.167327 Si / 1000 Ang^3
#
#
#
# Elastic Constant Matrix: (Units=GPa)
#
#
# Indices 1 2 3 4 5 6 
#
# 1 -15.2769 -2.9044 32.4799 0.0001 -8.4795 0.0000
# 2 -2.9044 12.9898 40.8154 -0.0003 -2.6336 -0.0001
# 3 32.4799 40.8154 139.6004 -0.0001 -20.1491 0.0000
# 4 0.0001 -0.0003 -0.0001 14.9319 0.0000 -4.2517
# 5 -8.4795 -2.6336 -20.1491 0.0000 20.9973 0.0000
# 6 0.0000 -0.0001 0.0000 -4.2517 0.0000 16.3377
#
#
#
# Elastic Compliance Matrix: (Units=1/GPa)
#
#
# Indices 1 2 3 4 5 6 
#
# 1 -0.003166 -0.078956 0.025778 -0.000002 0.013555 -0.000001
# 2 -0.078956 0.159212 -0.034706 0.000004 -0.045221 0.000002
# 3 0.025778 -0.034706 0.014146 -0.000001 0.019632 0.000000
# 4 -0.000002 0.000004 -0.000001 0.072331 -0.000001 0.018823
# 5 0.013555 -0.045221 0.019632 -0.000001 0.066267 -0.000001
# 6 -0.000001 0.000002 0.000000 0.018823 -0.000001 0.066107
#
#
# Mechanical properties :
#
#
# Convention : Reuss Voigt Hill
#
# Bulk Modulus (GPa) = -179.32850 30.89947 -74.21452
# Shear Modulus (GPa) = 9.11067 14.91485 12.01276
#
# Velocity S-wave (km/s) = 2.23157 2.85525 2.56245
# Velocity P-wave (km/s) = 9.55934 5.26873 5.64010
#
# Compressibility (1/GPa) = -0.00557636
#
# Stress axis : x y z
#
# Youngs Moduli (GPa) = -315.89288 6.28093 70.68923
#
# Poissons Ratio (x) = 0.49592 -1.82221
# Poissons Ratio (y) = -24.94177 2.45334
# Poissons Ratio (z) = 8.14300 0.21799
#
# Static dielectric constant tensor:
#      x y z
#    x 1.608530 0.000000 -0.050230 
#    y 0.000000 1.615140 0.000000 
#    z -0.050230 0.000000 1.683750 
# 
# From -- ./inp_files/31635.got.cif
#   From: 2010.05.17/outbox.ucp.g08.bks.cvg/sg8_16_cif.got.tgz:31635.got - 2010.06.11 13:00:03.
