data_PCOD9133926
_publ_section_title
;
Structure prediction by ZEFSAII (Michael W. Deem and Ramdas Pophale) SiO2 
 PCOD9133926
Probable space group: C C
;
_chemical_formula_sum "Si O2"
_cell_formula_units_Z 28
_cell_length_a 23.180972
_cell_length_b 7.195566
_cell_length_c 7.017311
_cell_angle_alpha 90.000000
_cell_angle_beta 57.949551
_cell_angle_gamma 90.000000
_cell_volume 992.084419
_symmetry_space_group_name_H-M "C C"
_symmetry_group_IT_number 9
_symmetry_cell_setting 'monoclinic'
loop_
_space_group_symop_operation_xyz
x,y,z
x,-y,1/2+z
1/2+x,1/2+y,z
1/2+x,1/2-y,1/2+z
loop_
_atom_site_type_symbol
_atom_site_label
_atom_site_fract_x
_atom_site_fract_y
_atom_site_fract_z
Si Si1 0.563690 0.164017 0.190800
Si Si2 0.292372 0.196052 0.287839
Si Si3 0.003526 0.170452 0.181317
Si Si4 0.934203 0.397955 0.644202
Si Si5 0.755713 0.274905 0.239009
Si Si6 0.372032 0.686612 0.282595
Si Si7 0.118630 0.258083 0.211072
O O1 0.565338 0.388514 0.711001
O O2 0.494081 0.144056 0.187693
O O3 0.591086 0.961279 0.198805
O O4 0.615131 0.252206 0.945649
O O5 0.359924 0.186182 0.302531
O O6 0.321347 0.707362 0.549955
O O7 0.410452 0.884889 0.166898
O O8 0.240212 0.262378 0.542450
O O9 0.938316 0.059272 0.210299
O O10 0.273023 0.007434 0.744101
O O11 0.043662 0.247467 0.927384
O O12 0.962366 0.305436 0.401026
O O13 0.817817 0.152971 0.212829
O O14 0.690887 0.251290 0.487162
#
# Coordination Sequence:
#
# PCOD9133926 Si02
#       7
#     4   4   4   4   4   4   4
#     4  11  19  32  47  74 107 127 156 201 245 295
#     4  10  19  32  49  73 108 125 154 201 248 297
#     4  10  18  30  50  73 104 129 147 200 259 298
#     4   9  17  26  52  76  98 127 140 198 271 307
#     4  11  21  32  47  74 101 134 165 192 241 298
#     4  10  18  29  50  75 102 128 147 199 260 300
#     4  11  22  31  47  73 102 134 167 191 240 297
#
# _framework density 28.223405
#
# number of rings (size 3 to 8) (size 9 to 14) (size 15 to 20)
#    0.000    1.714    5.714    1.714    2.000    1.143 
#    0.000    0.000    0.000    0.000    0.000    2.000 
#    0.000    0.000    0.000    0.000    0.000    0.000 
#
# Total GULP energy -78218.814517 kJ/mol
# GULP energy per Si atom -5587.058180 kJ/mol
# Density = 2.815917 g / cm^3
# Si number density = 28.223405 Si / 1000 Ang^3
#
#
#
# Elastic Constant Matrix: (Units=GPa)
#
#
# Indices 1 2 3 4 5 6 
#
# 1 111.9638 24.5205 44.6875 0.0000 12.1430 0.0000
# 2 24.5205 102.4333 55.4787 0.0000 9.4786 0.0000
# 3 44.6875 55.4787 243.4468 0.0000 43.9580 0.0000
# 4 0.0000 0.0000 0.0000 14.5806 0.0000 -4.0217
# 5 12.1430 9.4786 43.9580 0.0000 50.6664 0.0000
# 6 0.0000 0.0000 0.0000 -4.0217 0.0000 11.4035
#
#
#
# Elastic Compliance Matrix: (Units=1/GPa)
#
#
# Indices 1 2 3 4 5 6 
#
# 1 0.009894 -0.001586 -0.001281 0.000000 -0.000963 0.000000
# 2 -0.001586 0.011392 -0.002358 0.000000 0.000295 0.000000
# 3 -0.001281 -0.002358 0.005627 0.000000 -0.004133 0.000000
# 4 0.000000 0.000000 0.000000 0.075975 0.000000 0.026795
# 5 -0.000963 0.000295 -0.004133 0.000000 0.023499 0.000000
# 6 0.000000 0.000000 0.000000 0.026795 0.000000 0.097143
#
#
# Mechanical properties :
#
#
# Convention : Reuss Voigt Hill
#
# Bulk Modulus (GPa) = 60.74103 78.57969 69.66036
# Shear Modulus (GPa) = 20.87971 37.54057 29.21014
#
# Velocity S-wave (km/s) = 2.72288 3.65104 3.22057
# Velocity P-wave (km/s) = 5.60836 6.75840 6.21006
#
# Compressibility (1/GPa) = 0.01646334
#
# Stress axis : x y z
#
# Youngs Moduli (GPa) = 101.06673 87.78088 177.72773
#
# Poissons Ratio (x) = 0.13919 0.22766
# Poissons Ratio (y) = 0.16025 0.41913
# Poissons Ratio (z) = 0.12946 0.20701
#
# Static dielectric constant tensor:
#      x y z
#    x 2.315220 0.000000 -0.022410 
#    y 0.000000 2.417760 0.000000 
#    z -0.022410 0.000000 2.178220 
# 
# From -- ./inp_files/11558.got.cif
#   From: 2010.05.17/outbox.cif.g08.bks.cpg/sg9_6_cif.got.tgz:11558.got - 2010.06.03 20:04:27.
