data_PCOD9133608
_publ_section_title
;
Structure prediction by ZEFSAII (Michael W. Deem and Ramdas Pophale) SiO2 
 PCOD9133608
Probable space group: C M
;
_chemical_formula_sum "Si O2"
_cell_formula_units_Z 22
_cell_length_a 14.209268
_cell_length_b 14.129788
_cell_length_c 5.017672
_cell_angle_alpha 90.000000
_cell_angle_beta 63.591451
_cell_angle_gamma 90.000000
_cell_volume 902.289125
_symmetry_space_group_name_H-M "C M"
_symmetry_group_IT_number 8
_symmetry_cell_setting 'monoclinic'
loop_
_space_group_symop_operation_xyz
x,y,z
x,-y,z
1/2+x,1/2+y,z
1/2+x,1/2-y,z
loop_
_atom_site_type_symbol
_atom_site_label
_atom_site_fract_x
_atom_site_fract_y
_atom_site_fract_z
Si Si1 0.679890 0.317955 0.125000
Si Si2 0.942053 0.000000 0.661725
Si Si3 0.296441 0.347705 0.659870
Si Si4 0.584769 0.500000 0.982481
Si Si5 0.157364 0.500000 0.523356
Si Si6 0.015765 0.332266 0.513079
Si Si7 0.876041 0.308631 0.211514
O O1 0.648613 0.406709 0.985151
O O2 0.762915 0.344321 0.252005
O O3 0.739541 0.238088 0.879251
O O4 0.955488 0.318538 0.866447
O O5 0.868598 0.907788 0.770043
O O6 0.984919 0.000000 0.307245
O O7 0.037897 0.000000 0.745487
O O8 0.214775 0.418291 0.632632
O O9 0.360672 0.297767 0.340954
O O10 0.097648 0.416675 0.429715
O O11 0.930674 0.357643 0.394328
O O12 0.077463 0.235573 0.366314
#
# Coordination Sequence:
#
# PCOD9133608 Si02
#       7
#     4   2   4   2   2   4   4
#     4  12  29  52  82 117 164 210 263 335 388 478
#     4  11  30  48  79 124 148 211 272 328 387 477
#     4  11  26  52  85 112 163 203 275 332 391 458
#     4  12  32  50  81 112 166 207 269 317 406 466
#     4  11  26  50  80 124 152 212 261 335 391 473
#     4  12  28  48  81 118 166 201 267 324 407 460
#     4  12  27  50  80 116 161 214 254 325 398 471
#
# _framework density 24.382428000000001
#
# number of rings (size 3 to 8) (size 9 to 14) (size 15 to 20)
#    0.000    0.364    3.636    2.182    7.636    6.545 
#    0.000    1.818    0.000    0.000    0.000    0.000 
#    0.000    0.000    0.000    0.000    0.000    0.000 
#
# Total GULP energy -61435.107372 kJ/mol
# GULP energy per Si atom -5585.009761 kJ/mol
# Density = 2.432693 g / cm^3
# Si number density = 24.382428 Si / 1000 Ang^3
#
#
#
# Elastic Constant Matrix: (Units=GPa)
#
#
# Indices 1 2 3 4 5 6 
#
# 1 159.6075 49.3194 -10.8534 0.0000 37.4285 0.0000
# 2 49.3194 131.7859 4.0701 0.0000 8.7436 0.0000
# 3 -10.8534 4.0701 80.8097 0.0000 12.8032 0.0000
# 4 0.0000 0.0000 0.0000 7.0123 0.0000 10.2682
# 5 37.4285 8.7436 12.8032 0.0000 37.1739 0.0000
# 6 0.0000 0.0000 0.0000 10.2682 0.0000 39.1160
#
#
#
# Elastic Compliance Matrix: (Units=1/GPa)
#
#
# Indices 1 2 3 4 5 6 
#
# 1 0.009835 -0.003097 0.003099 0.000000 -0.010241 0.000000
# 2 -0.003097 0.008684 -0.001083 0.000000 0.001448 0.000000
# 3 0.003099 -0.001083 0.014067 0.000000 -0.007711 0.000000
# 4 0.000000 0.000000 0.000000 0.231652 0.000000 -0.060810
# 5 -0.010241 0.001448 -0.007711 0.000000 0.039527 0.000000
# 6 0.000000 0.000000 0.000000 -0.060810 0.000000 0.041528
#
#
# Mechanical properties :
#
#
# Convention : Reuss Voigt Hill
#
# Bulk Modulus (GPa) = 32.86667 50.80837 41.83752
# Shear Modulus (GPa) = 13.98230 38.63822 26.31026
#
# Velocity S-wave (km/s) = 2.39730 3.98512 3.28848
# Velocity P-wave (km/s) = 4.60126 6.48523 5.62271
#
# Compressibility (1/GPa) = 0.03042596
#
# Stress axis : x y z
#
# Youngs Moduli (GPa) = 101.68179 115.14979 71.08706
#
# Poissons Ratio (x) = 0.35659 -0.22033
# Poissons Ratio (y) = 0.31488 0.07697
# Poissons Ratio (z) = -0.31515 0.12468
#
# Static dielectric constant tensor:
#      x y z
#    x 1.940310 0.000000 -0.038250 
#    y 0.000000 1.905560 0.000000 
#    z -0.038250 0.000000 1.981420 
# 
# From -- ./inp_files/2634.got.cif
#   From: 2010.05.17/outbox.cif.g08.bks.cpg/sg8_2_cif.got.tgz:2634.got - 2010.06.03 19:46:02.
