data_PCOD9133607
_publ_section_title
;
Structure prediction by ZEFSAII (Michael W. Deem and Ramdas Pophale) SiO2 
 PCOD9133607
Probable space group: C M
;
_chemical_formula_sum "Si O2"
_cell_formula_units_Z 28
_cell_length_a 7.487061
_cell_length_b 28.324313
_cell_length_c 7.060348
_cell_angle_alpha 90.000000
_cell_angle_beta 137.226847
_cell_angle_gamma 90.000000
_cell_volume 1016.784575
_symmetry_space_group_name_H-M "C M"
_symmetry_group_IT_number 8
_symmetry_cell_setting 'monoclinic'
loop_
_space_group_symop_operation_xyz
x,y,z
x,-y,z
1/2+x,1/2+y,z
1/2+x,1/2-y,z
loop_
_atom_site_type_symbol
_atom_site_label
_atom_site_fract_x
_atom_site_fract_y
_atom_site_fract_z
Si Si1 0.875000 0.757178 0.107540
Si Si2 0.757584 0.944294 0.534104
Si Si3 0.035323 0.318959 0.492282
Si Si4 0.016821 0.141277 0.039565
Si Si5 0.256115 0.053123 0.416565
Si Si6 0.390105 0.805108 0.817722
Si Si7 0.338675 0.086814 0.900487
O O1 0.066374 0.727407 0.391746
O O2 0.951899 0.810156 0.106153
O O3 0.638837 0.771790 0.071335
O O4 0.715655 0.724099 0.831972
O O5 0.537198 0.940054 0.529499
O O6 0.056252 0.923343 0.783227
O O7 0.806061 0.000000 0.552663
O O8 0.592325 0.927966 0.220227
O O9 0.927878 0.309400 0.621097
O O10 0.289113 0.351304 0.709877
O O11 0.813174 0.348243 0.210250
O O12 0.049723 0.094032 0.189877
O O13 0.310350 0.058757 0.680817
O O14 0.161469 0.000000 0.297587
O O15 0.373844 0.859167 0.862851
#
# Coordination Sequence:
#
# PCOD9133607 Si02
#       7
#     4   4   4   4   4   4   4
#     4  11  26  50  80 114 163 221 267 339 405 495
#     4  11  28  54  84 123 163 218 285 340 422 505
#     4  11  26  49  75 112 165 204 279 325 405 489
#     4  11  26  47  79 118 156 209 275 331 398 495
#     4  11  27  55  88 123 169 223 277 351 421 492
#     4  11  27  47  79 119 161 215 274 335 410 495
#     4  12  28  52  84 125 168 216 277 351 417 493
#
# _framework density 27.537790000000001
#
# number of rings (size 3 to 8) (size 9 to 14) (size 15 to 20)
#    0.000    0.857    2.857    1.286   10.000    2.286 
#    2.571    3.571    0.000    0.000    0.000    0.000 
#    0.000    0.000    0.000    0.000    0.000    0.000 
#
# Total GULP energy -78197.919041 kJ/mol
# GULP energy per Si atom -5585.565646 kJ/mol
# Density = 2.747511 g / cm^3
# Si number density = 27.537790 Si / 1000 Ang^3
#
#
#
# Elastic Constant Matrix: (Units=GPa)
#
#
# Indices 1 2 3 4 5 6 
#
# 1 58.3778 14.5373 18.3260 0.0000 -35.4888 0.0000
# 2 14.5373 185.4102 19.2549 0.0000 4.1425 0.0000
# 3 18.3260 19.2549 163.3392 0.0000 15.4011 0.0000
# 4 0.0000 0.0000 0.0000 46.9775 0.0000 13.3293
# 5 -35.4888 4.1425 15.4011 0.0000 53.5866 0.0000
# 6 0.0000 0.0000 0.0000 13.3293 0.0000 51.6230
#
#
#
# Elastic Compliance Matrix: (Units=1/GPa)
#
#
# Indices 1 2 3 4 5 6 
#
# 1 0.034871 -0.002674 -0.005955 0.000000 0.025012 0.000000
# 2 -0.002674 0.005669 -0.000164 0.000000 -0.002162 0.000000
# 3 -0.005955 -0.000164 0.007380 0.000000 -0.006053 0.000000
# 4 0.000000 0.000000 0.000000 0.022970 0.000000 -0.005931
# 5 0.025012 -0.002162 -0.006053 0.000000 0.037133 0.000000
# 6 0.000000 0.000000 0.000000 -0.005931 0.000000 0.020903
#
#
# Mechanical properties :
#
#
# Convention : Reuss Voigt Hill
#
# Bulk Modulus (GPa) = 32.96924 56.81820 44.89372
# Shear Modulus (GPa) = 31.92367 54.10468 43.01417
#
# Velocity S-wave (km/s) = 3.40850 4.43735 3.95651
# Velocity P-wave (km/s) = 5.24298 6.85062 6.09999
#
# Compressibility (1/GPa) = 0.03033130
#
# Stress axis : x y z
#
# Youngs Moduli (GPa) = 28.67737 176.41329 135.49273
#
# Poissons Ratio (x) = 0.47181 0.80692
# Poissons Ratio (y) = 0.07670 0.02226
# Poissons Ratio (z) = 0.17079 0.02898
#
# Static dielectric constant tensor:
#      x y z
#    x 2.665790 0.000000 0.111480 
#    y 0.000000 2.104400 0.000000 
#    z 0.111480 0.000000 2.412300 
# 
# From -- ./inp_files/9329.got.cif
#   From: 2010.05.17/outbox.cif.g08.bks.cpg/sg8_5_cif.got.tgz:9329.got - 2010.06.03 19:46:02.
