data_PCOD9133133
_publ_section_title
;
Structure prediction by ZEFSAII (Michael W. Deem and Ramdas Pophale) SiO2 
 PCOD9133133
Probable space group: C M
;
_chemical_formula_sum "Si O2"
_cell_formula_units_Z 32
_cell_length_a 14.537263
_cell_length_b 7.851990
_cell_length_c 12.670128
_cell_angle_alpha 90.000000
_cell_angle_beta 89.894982
_cell_angle_gamma 90.000000
_cell_volume 1446.247623
_symmetry_space_group_name_H-M "C M"
_symmetry_group_IT_number 8
_symmetry_cell_setting 'monoclinic'
loop_
_space_group_symop_operation_xyz
x,y,z
x,-y,z
1/2+x,1/2+y,z
1/2+x,1/2-y,z
loop_
_atom_site_type_symbol
_atom_site_label
_atom_site_fract_x
_atom_site_fract_y
_atom_site_fract_z
Si Si1 0.642700 0.204333 0.221020
Si Si2 0.222915 0.703230 0.811709
Si Si3 0.507660 0.205602 0.403360
Si Si4 0.298730 0.205716 0.361460
Si Si5 0.430665 0.295099 0.852477
Si Si6 0.588235 0.797262 0.991634
Si Si7 0.456071 0.702678 0.623278
Si Si8 0.747732 0.694772 0.580864
O O1 0.577793 0.271139 0.315407
O O2 0.746333 0.242985 0.256186
O O3 0.631394 0.000000 0.219170
O O4 0.614062 0.271538 0.106509
O O5 0.224836 0.500000 0.822940
O O6 0.325808 0.765217 0.839960
O O7 0.151533 0.774099 0.896905
O O8 0.204863 0.734794 0.688135
O O9 0.404280 0.262051 0.371173
O O10 0.522002 0.260415 0.524791
O O11 0.509217 0.000000 0.402882
O O12 0.242024 0.274268 0.463989
O O13 0.299070 0.000000 0.368547
O O14 0.430068 0.500000 0.857767
O O15 0.484505 0.230357 0.953518
O O16 0.481339 0.245357 0.742261
O O17 0.603807 0.000000 0.996162
O O18 0.437975 0.500000 0.625290
O O19 0.358660 0.793404 0.599410
O O20 0.718037 0.500000 0.574636
#
# Coordination Sequence:
#
# PCOD9133133 Si02
#       8
#     4   4   4   4   4   4   4   4
#     4  10  22  38  54  75 104 139 181 223 260 305
#     4   9  19  36  55  77 108 141 172 212 263 314
#     4   9  19  36  55  77 108 141 172 212 263 314
#     4   9  19  35  54  77 106 137 169 213 265 314
#     4   9  19  35  54  77 106 137 169 213 265 314
#     4  10  22  38  54  75 104 139 181 223 260 305
#     4   9  17  31  53  81 110 137 169 210 259 315
#     4   9  17  31  53  81 110 137 169 210 259 315
#
# _framework density 22.126223
#
# number of rings (size 3 to 8) (size 9 to 14) (size 15 to 20)
#    0.000    2.750    0.000    2.250    0.000    8.500 
#    0.000    5.000    0.000    0.000    0.000    0.000 
#    0.000    0.000    0.000    0.000    0.000    0.000 
#
# Total GULP energy -89285.224087 kJ/mol
# GULP energy per Si atom -5580.326505 kJ/mol
# Density = 2.207586 g / cm^3
# Si number density = 22.126223 Si / 1000 Ang^3
#
#
#
# Elastic Constant Matrix: (Units=GPa)
#
#
# Indices 1 2 3 4 5 6 
#
# 1 55.9214 -1.3015 29.2874 0.0000 8.0509 0.0000
# 2 -1.3015 27.2560 4.8106 0.0000 -4.6610 0.0000
# 3 29.2874 4.8106 106.7231 0.0000 28.6305 0.0000
# 4 0.0000 0.0000 0.0000 24.5526 0.0000 6.0854
# 5 8.0509 -4.6610 28.6305 0.0000 36.4288 0.0000
# 6 0.0000 0.0000 0.0000 6.0854 0.0000 14.1350
#
#
#
# Elastic Compliance Matrix: (Units=1/GPa)
#
#
# Indices 1 2 3 4 5 6 
#
# 1 0.020998 0.002100 -0.005936 0.000000 0.000293 0.000000
# 2 0.002100 0.038959 -0.004492 0.000000 0.008051 0.000000
# 3 -0.005936 -0.004492 0.013944 0.000000 -0.010222 0.000000
# 4 0.000000 0.000000 0.000000 0.045594 0.000000 -0.019629
# 5 0.000293 0.008051 -0.010222 0.000000 0.036450 0.000000
# 6 0.000000 0.000000 0.000000 -0.019629 0.000000 0.079197
#
#
# Mechanical properties :
#
#
# Convention : Reuss Voigt Hill
#
# Bulk Modulus (GPa) = 17.46870 28.38816 22.92843
# Shear Modulus (GPa) = 18.45847 25.49686 21.97767
#
# Velocity S-wave (km/s) = 2.89145 3.39829 3.15506
# Velocity P-wave (km/s) = 4.36571 5.31562 4.86391
#
# Compressibility (1/GPa) = 0.05724524
#
# Stress axis : x y z
#
# Youngs Moduli (GPa) = 47.62465 25.66783 71.71775
#
# Poissons Ratio (x) = -0.05391 0.42568
# Poissons Ratio (y) = -0.10003 0.32219
# Poissons Ratio (z) = 0.28268 0.11531
#
# Static dielectric constant tensor:
#      x y z
#    x 1.836040 0.000000 -0.020770 
#    y 0.000000 1.799300 0.000000 
#    z -0.020770 0.000000 1.829110 
# 
# From -- ./inp_files/21556.got.cif
#   From: 2010.05.17/outbox.cif.g08.bks.cpg/sg8_11_cif.got.tgz:21556.got - 2010.06.03 19:46:02.
