data_PCOD9133462
_publ_section_title
;
Structure prediction by ZEFSAII (Michael W. Deem and Ramdas Pophale) SiO2 
 PCOD9133462
Probable space group: C M
;
_chemical_formula_sum "Si O2"
_cell_formula_units_Z 18
_cell_length_a 10.499528
_cell_length_b 7.633915
_cell_length_c 9.744927
_cell_angle_alpha 90.000000
_cell_angle_beta 71.633104
_cell_angle_gamma 90.000000
_cell_volume 741.290688
_symmetry_space_group_name_H-M "C M"
_symmetry_group_IT_number 8
_symmetry_cell_setting 'monoclinic'
loop_
_space_group_symop_operation_xyz
x,y,z
x,-y,z
1/2+x,1/2+y,z
1/2+x,1/2-y,z
loop_
_atom_site_type_symbol
_atom_site_label
_atom_site_fract_x
_atom_site_fract_y
_atom_site_fract_z
Si Si1 0.865870 0.000000 0.112741
Si Si2 0.056348 0.292241 0.040519
Si Si3 0.602426 0.203469 0.601805
Si Si4 0.804486 0.789793 0.769338
Si Si5 0.168952 0.803640 0.280225
O O1 0.776749 0.153444 0.219014
O O2 0.956392 0.155013 0.008506
O O3 0.032196 0.500000 0.031941
O O4 0.059470 0.235536 0.199290
O O5 0.206044 0.258456 0.931540
O O6 0.714698 0.270813 0.669466
O O7 0.452778 0.213756 0.713457
O O8 0.608968 0.293918 0.452197
O O9 0.633275 0.000000 0.568157
O O10 0.818119 0.000000 0.755960
O O11 0.221723 0.000000 0.239275
#
# Coordination Sequence:
#
# PCOD9133462 Si02
#       5
#     2   4   4   4   4
#     4  12  26  46  74 100 148 186 244 292 370 410
#     4  11  25  47  74 106 141 190 239 299 355 431
#     4  11  25  46  71 105 145 189 239 297 361 428
#     4  10  26  46  71 105 144 186 238 297 362 428
#     4  12  26  46  72 106 143 191 240 298 353 433
#
# _framework density 24.281973000000001
#
# number of rings (size 3 to 8) (size 9 to 14) (size 15 to 20)
#    0.000    0.889    3.333    1.333    7.778    1.778 
#    0.000    0.000    0.000    0.000    0.000    0.000 
#    0.000    0.000    0.000    0.000    0.000    0.000 
#
# Total GULP energy -50120.462972 kJ/mol
# GULP energy per Si atom -5568.940330 kJ/mol
# Density = 2.422671 g / cm^3
# Si number density = 24.281973 Si / 1000 Ang^3
#
#
#
# Elastic Constant Matrix: (Units=GPa)
#
#
# Indices 1 2 3 4 5 6 
#
# 1 81.5995 23.2564 27.2479 0.0000 -9.0411 0.0000
# 2 23.2564 195.5098 33.3541 0.0000 -15.3885 0.0000
# 3 27.2479 33.3541 79.6159 0.0000 17.4561 0.0000
# 4 0.0000 0.0000 0.0000 29.5014 0.0000 -27.1737
# 5 -9.0411 -15.3885 17.4561 0.0000 41.6297 0.0000
# 6 0.0000 0.0000 0.0000 -27.1737 0.0000 14.3541
#
#
#
# Elastic Compliance Matrix: (Units=1/GPa)
#
#
# Indices 1 2 3 4 5 6 
#
# 1 0.015092 -0.000254 -0.006339 0.000000 0.005842 0.000000
# 2 -0.000254 0.005960 -0.003173 0.000000 0.003478 0.000000
# 3 -0.006339 -0.003173 0.018301 0.000000 -0.010223 0.000000
# 4 0.000000 0.000000 0.000000 -0.045577 0.000000 -0.086281
# 5 0.005842 0.003478 -0.010223 0.000000 0.030863 0.000000
# 6 0.000000 0.000000 0.000000 -0.086281 0.000000 -0.093672
#
#
# Mechanical properties :
#
#
# Convention : Reuss Voigt Hill
#
# Bulk Modulus (GPa) = 50.45358 58.27134 54.36246
# Shear Modulus (GPa) = -116.56474 35.28816 -40.63829
#
# Velocity S-wave (km/s) = -6.93605 3.81631 -4.09540
# Velocity P-wave (km/s) = 6.58193 6.59309 0.27110
#
# Compressibility (1/GPa) = 0.01982020
#
# Stress axis : x y z
#
# Youngs Moduli (GPa) = 66.26246 167.78327 54.64302
#
# Poissons Ratio (x) = 0.04259 0.34641
# Poissons Ratio (y) = 0.01682 0.17336
# Poissons Ratio (z) = 0.42007 0.53232
#
# Static dielectric constant tensor:
#      x y z
#    x 2.039740 0.000000 0.074860 
#    y 0.000000 1.866170 0.000000 
#    z 0.074860 0.000000 1.926880 
# 
# From -- ./inp_files/9606.got.cif
#   From: 2010.05.17/outbox.cif.g08.bks.cpg/sg8_5_cif.got.tgz:9606.got - 2010.06.03 19:46:02.
