data_PCOD9133580
_publ_section_title
;
Structure prediction by ZEFSAII (Michael W. Deem and Ramdas Pophale) SiO2 
 PCOD9133580
Probable space group: C M
;
_chemical_formula_sum "Si O2"
_cell_formula_units_Z 20
_cell_length_a 15.357205
_cell_length_b 11.278180
_cell_length_c 4.916961
_cell_angle_alpha 90.000000
_cell_angle_beta 91.603489
_cell_angle_gamma 90.000000
_cell_volume 851.290662
_symmetry_space_group_name_H-M "C M"
_symmetry_group_IT_number 8
_symmetry_cell_setting 'monoclinic'
loop_
_space_group_symop_operation_xyz
x,y,z
x,-y,z
1/2+x,1/2+y,z
1/2+x,1/2-y,z
loop_
_atom_site_type_symbol
_atom_site_label
_atom_site_fract_x
_atom_site_fract_y
_atom_site_fract_z
Si Si1 0.654780 0.257545 0.519230
Si Si2 0.588995 0.000000 0.387422
Si Si3 0.835306 0.724672 0.822016
Si Si4 0.959726 0.500000 0.872509
Si Si5 0.884738 0.138687 0.305777
Si Si6 0.566359 0.362677 0.009333
O O1 0.645378 0.118636 0.443043
O O2 0.743914 0.298885 0.667306
O O3 0.636016 0.332173 0.247888
O O4 0.583045 0.284243 0.746322
O O5 0.507992 0.000000 0.588653
O O6 0.539169 0.000000 0.094644
O O7 0.895828 0.612692 0.890001
O O8 0.883083 0.807519 0.604197
O O9 0.818520 0.795330 0.098951
O O10 0.975958 0.158292 0.158851
O O11 0.867504 0.000000 0.318887
O O12 0.570031 0.500000 0.926570
#
# Coordination Sequence:
#
# PCOD9133580 Si02
#       6
#     4   2   4   2   4   4
#     4  12  26  44  70 104 144 181 236 294 352 414
#     4  12  26  46  74 100 141 192 237 284 352 434
#     4  12  26  44  70 104 144 181 236 294 352 414
#     4  12  26  46  74 100 141 192 237 284 352 434
#     4  11  24  44  72 100 138 182 232 286 350 425
#     4  11  24  44  72 100 138 182 232 286 350 425
#
# _framework density 23.493735999999998
#
# number of rings (size 3 to 8) (size 9 to 14) (size 15 to 20)
#    0.000    0.400    0.000    9.600    5.600    3.200 
#    0.000    0.000    0.000    0.000    0.000    0.000 
#    0.000    0.000    0.000    0.000    0.000    0.000 
#
# Total GULP energy -56050.648070 kJ/mol
# GULP energy per Si atom -5605.064807 kJ/mol
# Density = 2.344026 g / cm^3
# Si number density = 23.493736 Si / 1000 Ang^3
#
#
#
# Elastic Constant Matrix: (Units=GPa)
#
#
# Indices 1 2 3 4 5 6 
#
# 1 45.1237 -6.4901 -7.3410 0.0000 10.1036 0.0000
# 2 -6.4901 92.8099 10.3853 0.0000 -4.5720 0.0000
# 3 -7.3410 10.3853 103.7700 0.0000 8.6403 0.0000
# 4 0.0000 0.0000 0.0000 25.2893 0.0000 5.5966
# 5 10.1036 -4.5720 8.6403 0.0000 43.6490 0.0000
# 6 0.0000 0.0000 0.0000 5.5966 0.0000 21.7733
#
#
#
# Elastic Compliance Matrix: (Units=1/GPa)
#
#
# Indices 1 2 3 4 5 6 
#
# 1 0.023971 0.001158 0.002066 0.000000 -0.005836 0.000000
# 2 0.001158 0.011035 -0.001115 0.000000 0.001109 0.000000
# 3 0.002066 -0.001115 0.010111 0.000000 -0.002596 0.000000
# 4 0.000000 0.000000 0.000000 0.041927 0.000000 -0.010777
# 5 -0.005836 0.001109 -0.002596 0.000000 0.024891 0.000000
# 6 0.000000 0.000000 0.000000 -0.010777 0.000000 0.048698
#
#
# Mechanical properties :
#
#
# Convention : Reuss Voigt Hill
#
# Bulk Modulus (GPa) = 20.27018 26.09022 23.18020
# Shear Modulus (GPa) = 28.92516 34.48562 31.70539
#
# Velocity S-wave (km/s) = 3.51263 3.83543 3.67757
# Velocity P-wave (km/s) = 5.00980 5.54466 5.28400
#
# Compressibility (1/GPa) = 0.04933356
#
# Stress axis : x y z
#
# Youngs Moduli (GPa) = 41.71764 90.62060 98.90615
#
# Poissons Ratio (x) = -0.10490 -0.20433
# Poissons Ratio (y) = -0.04829 0.11026
# Poissons Ratio (z) = -0.08618 0.10102
#
# Static dielectric constant tensor:
#      x y z
#    x 1.978220 0.000000 0.014550 
#    y 0.000000 1.847340 0.000000 
#    z 0.014550 0.000000 1.820440 
# 
# From -- ./inp_files/3711.got.cif
#   From: 2010.05.17/outbox.cif.g08.bks.cpg/sg8_2_cif.got.tgz:3711.got - 2010.06.03 19:46:02.
