data_PCOD9133616
_publ_section_title
;
Structure prediction by ZEFSAII (Michael W. Deem and Ramdas Pophale) SiO2 
 PCOD9133616
Probable space group: C M
;
_chemical_formula_sum "Si O2"
_cell_formula_units_Z 28
_cell_length_a 9.807730
_cell_length_b 30.379479
_cell_length_c 4.878720
_cell_angle_alpha 90.000000
_cell_angle_beta 123.378043
_cell_angle_gamma 90.000000
_cell_volume 1213.868809
_symmetry_space_group_name_H-M "C M"
_symmetry_group_IT_number 8
_symmetry_cell_setting 'monoclinic'
loop_
_space_group_symop_operation_xyz
x,y,z
x,-y,z
1/2+x,1/2+y,z
1/2+x,1/2-y,z
loop_
_atom_site_type_symbol
_atom_site_label
_atom_site_fract_x
_atom_site_fract_y
_atom_site_fract_z
Si Si1 0.366431 0.500000 0.936471
Si Si2 0.595198 0.500000 0.700455
Si Si3 0.293437 0.596349 0.749864
Si Si4 0.784128 0.590296 0.961323
Si Si5 0.353102 0.728304 0.049653
Si Si6 0.463455 0.120003 0.681345
Si Si7 0.469974 0.364216 0.421662
Si Si8 0.474234 0.220403 0.667942
O O1 0.528682 0.500000 0.934353
O O2 0.272303 0.543929 0.741326
O O3 0.437116 0.500000 0.324018
O O4 0.700384 0.544140 0.795351
O O5 0.345339 0.618165 0.519727
O O6 0.136836 0.617237 0.722315
O O7 0.442262 0.606249 0.122183
O O8 0.943749 0.595844 0.948134
O O9 0.650143 0.627171 0.733732
O O10 0.836536 0.597965 0.330648
O O11 0.430988 0.684994 0.276544
O O12 0.368166 0.766181 0.291333
O O13 0.441809 0.744960 0.874867
O O14 0.162783 0.720835 0.785484
O O15 0.430791 0.171116 0.703753
#
# Coordination Sequence:
#
# PCOD9133616 Si02
#       8
#     2   2   4   4   4   4   4   4
#     4  12  22  44  74 106 142 190 254 294 346 426
#     4  12  24  46  70 110 148 184 246 304 350 420
#     4  12  24  46  74 104 140 195 238 298 357 420
#     4  12  26  45  75 106 145 194 236 296 362 433
#     4  12  28  47  75 103 144 184 241 299 358 432
#     4  12  28  47  71 105 152 186 237 303 369 425
#     4  12  25  47  73 104 139 194 241 285 362 436
#     4  12  28  49  70 106 141 186 237 304 360 427
#
# _framework density 23.066745999999998
#
# number of rings (size 3 to 8) (size 9 to 14) (size 15 to 20)
#    0.000    0.000    4.286    5.143    8.000    1.143 
#    0.000    0.000    0.000    0.000    0.000    0.000 
#    0.000    0.000    0.000    0.000    0.000    0.000 
#
# Total GULP energy -78384.066557 kJ/mol
# GULP energy per Si atom -5598.861897 kJ/mol
# Density = 2.301425 g / cm^3
# Si number density = 23.066746 Si / 1000 Ang^3
#
#
#
# Elastic Constant Matrix: (Units=GPa)
#
#
# Indices 1 2 3 4 5 6 
#
# 1 94.3751 26.5592 6.0467 0.0000 -7.9433 0.0000
# 2 26.5592 104.2102 -4.3149 0.0000 0.5964 0.0000
# 3 6.0467 -4.3149 58.1330 0.0000 -11.6191 0.0000
# 4 0.0000 0.0000 0.0000 75.0185 0.0000 -5.6325
# 5 -7.9433 0.5964 -11.6191 0.0000 35.7151 0.0000
# 6 0.0000 0.0000 0.0000 -5.6325 0.0000 33.1009
#
#
#
# Elastic Compliance Matrix: (Units=1/GPa)
#
#
# Indices 1 2 3 4 5 6 
#
# 1 0.011710 -0.003038 -0.000976 0.000000 0.002338 0.000000
# 2 -0.003038 0.010414 0.000983 0.000000 -0.000530 0.000000
# 3 -0.000976 0.000983 0.018535 0.000000 0.005796 0.000000
# 4 0.000000 0.000000 0.000000 0.013503 0.000000 0.002298
# 5 0.002338 -0.000530 0.005796 0.000000 0.030414 0.000000
# 6 0.000000 0.000000 0.000000 0.002298 0.000000 0.030602
#
#
# Mechanical properties :
#
#
# Convention : Reuss Voigt Hill
#
# Bulk Modulus (GPa) = 28.90482 34.81114 31.85798
# Shear Modulus (GPa) = 37.65834 43.99538 40.82686
#
# Velocity S-wave (km/s) = 4.04490 4.37201 4.21163
# Velocity P-wave (km/s) = 5.86286 6.37261 6.12305
#
# Compressibility (1/GPa) = 0.03459631
#
# Stress axis : x y z
#
# Youngs Moduli (GPa) = 85.39440 96.02384 53.95203
#
# Poissons Ratio (x) = 0.29175 0.05268
# Poissons Ratio (y) = 0.25946 -0.05304
# Poissons Ratio (z) = 0.08338 -0.09440
#
# Static dielectric constant tensor:
#      x y z
#    x 1.846900 0.000000 0.016860 
#    y 0.000000 1.846730 0.000000 
#    z 0.016860 0.000000 1.830400 
# 
# From -- ./inp_files/2041.got.cif
#   From: 2010.05.17/outbox.cif.g08.bks.cpg/sg8_2_cif.got.tgz:2041.got - 2010.06.03 19:46:02.
