data_PCOD9133188
_publ_section_title
;
Structure prediction by ZEFSAII (Michael W. Deem and Ramdas Pophale) SiO2 
 PCOD9133188
Probable space group: C M
;
_chemical_formula_sum "Si O2"
_cell_formula_units_Z 28
_cell_length_a 5.006014
_cell_length_b 23.421494
_cell_length_c 12.624666
_cell_angle_alpha 90.000000
_cell_angle_beta 102.671535
_cell_angle_gamma 90.000000
_cell_volume 1444.168178
_symmetry_space_group_name_H-M "C M"
_symmetry_group_IT_number 8
_symmetry_cell_setting 'monoclinic'
loop_
_space_group_symop_operation_xyz
x,y,z
x,-y,z
1/2+x,1/2+y,z
1/2+x,1/2-y,z
loop_
_atom_site_type_symbol
_atom_site_label
_atom_site_fract_x
_atom_site_fract_y
_atom_site_fract_z
Si Si1 0.423680 0.712886 0.070950
Si Si2 0.229019 0.500000 0.127150
Si Si3 0.802021 0.066663 0.580810
Si Si4 0.312540 0.000000 0.277305
Si Si5 0.511589 0.287224 0.326913
Si Si6 0.686581 0.097869 0.955292
Si Si7 0.240542 0.097606 0.444760
Si Si8 0.623985 0.566477 0.818716
O O1 0.710688 0.734524 0.049954
O O2 0.467423 0.698817 0.198909
O O3 0.297722 0.658590 0.002718
O O4 0.551909 0.500000 0.177219
O O5 0.078719 0.500000 0.226904
O O6 0.150323 0.555479 0.051858
O O7 0.005985 0.071896 0.499519
O O8 0.966589 0.085348 0.699287
O O9 0.524316 0.100445 0.533769
O O10 0.724197 0.000000 0.588643
O O11 0.296880 0.055136 0.351552
O O12 0.225329 0.265220 0.348115
O O13 0.635146 0.341747 0.395011
O O14 0.397919 0.100540 0.869887
O O15 0.912460 0.071254 0.896895
O O16 0.704670 0.500000 0.810970
#
# Coordination Sequence:
#
# PCOD9133188 Si02
#       8
#     4   2   4   2   4   4   4   4
#     4  10  22  40  62  87 117 162 209 242 286 356
#     4  12  24  36  55  90 127 154 184 238 312 364
#     4  11  22  39  62  90 122 158 204 247 299 367
#     4  12  24  36  55  90 127 154 184 238 312 364
#     4  10  22  40  62  87 117 162 209 242 286 356
#     4  12  22  40  62  89 124 158 198 251 304 356
#     4  12  22  40  62  89 124 158 198 251 304 356
#     4  11  22  39  62  90 122 158 204 247 299 367
#
# _framework density 19.388323
#
# number of rings (size 3 to 8) (size 9 to 14) (size 15 to 20)
#    0.000    0.857    2.857    5.143    0.000    5.714 
#    0.000    0.000    0.000   17.143    0.000    0.000 
#    0.000    0.000    0.000    0.000    0.000    0.000 
#
# Total GULP energy -78324.565674 kJ/mol
# GULP energy per Si atom -5594.611834 kJ/mol
# Density = 1.934419 g / cm^3
# Si number density = 19.388323 Si / 1000 Ang^3
#
#
#
# Elastic Constant Matrix: (Units=GPa)
#
#
# Indices 1 2 3 4 5 6 
#
# 1 73.3105 -2.0283 11.8259 0.0000 21.1093 0.0000
# 2 -2.0283 64.6989 46.3267 0.0000 18.6651 0.0000
# 3 11.8259 46.3267 79.5215 0.0000 32.6566 0.0000
# 4 0.0000 0.0000 0.0000 22.3008 0.0000 19.0338
# 5 21.1093 18.6651 32.6566 0.0000 42.7735 0.0000
# 6 0.0000 0.0000 0.0000 19.0338 0.0000 23.9226
#
#
#
# Elastic Compliance Matrix: (Units=1/GPa)
#
#
# Indices 1 2 3 4 5 6 
#
# 1 0.016518 0.003819 -0.000946 0.000000 -0.009096 0.000000
# 2 0.003819 0.027404 -0.015802 0.000000 -0.001779 0.000000
# 3 -0.000946 -0.015802 0.027530 0.000000 -0.013656 0.000000
# 4 0.000000 0.000000 0.000000 0.139728 0.000000 -0.111173
# 5 -0.009096 -0.001779 -0.013656 0.000000 0.039070 0.000000
# 6 0.000000 0.000000 0.000000 -0.111173 0.000000 0.130255
#
#
# Mechanical properties :
#
#
# Convention : Reuss Voigt Hill
#
# Bulk Modulus (GPa) = 21.93266 36.64217 29.28741
# Shear Modulus (GPa) = 11.86069 28.55982 20.21025
#
# Velocity S-wave (km/s) = 2.47603 3.84219 3.23211
# Velocity P-wave (km/s) = 4.41714 6.21477 5.39140
#
# Compressibility (1/GPa) = 0.04559411
#
# Stress axis : x y z
#
# Youngs Moduli (GPa) = 60.53961 36.49084 36.32423
#
# Poissons Ratio (x) = -0.13937 0.03436
# Poissons Ratio (y) = -0.23123 0.57401
# Poissons Ratio (z) = 0.05727 0.57664
#
# Static dielectric constant tensor:
#      x y z
#    x 1.664800 0.000000 0.008570 
#    y 0.000000 1.647430 0.000000 
#    z 0.008570 0.000000 1.673590 
# 
# From -- ./inp_files/18107.got.cif
#   From: 2010.05.17/outbox.cif.g08.bks.cpg/sg8_10_cif.got.tgz:18107.got - 2010.06.03 19:46:02.
