data_PCOD9133705
_publ_section_title
;
Structure prediction by ZEFSAII (Michael W. Deem and Ramdas Pophale) SiO2 
 PCOD9133705
Probable space group: C M
;
_chemical_formula_sum "Si O2"
_cell_formula_units_Z 16
_cell_length_a 15.000000
_cell_length_b 9.000000
_cell_length_c 12.000000
_cell_angle_alpha 90.000000
_cell_angle_beta 90.000000
_cell_angle_gamma 90.000000
_cell_volume 1620.000000
_symmetry_space_group_name_H-M "C M"
_symmetry_group_IT_number 8
_symmetry_cell_setting 'monoclinic'
loop_
_space_group_symop_operation_xyz
x,y,z
x,-y,z
1/2+x,1/2+y,z
1/2+x,1/2-y,z
loop_
_atom_site_type_symbol
_atom_site_label
_atom_site_fract_x
_atom_site_fract_y
_atom_site_fract_z
Si Si1 0.332370 0.672847 0.269760
Si Si2 0.375286 0.824486 0.052986
Si Si3 0.620924 0.672423 0.836172
Si Si4 0.797085 0.175389 0.834595
Si Si5 0.134878 0.670554 0.307913
Si Si6 0.454661 0.320078 0.684905
Si Si7 0.486755 0.321687 0.438255
Si Si8 0.066305 0.827116 0.089685
O O1 0.347698 0.500000 0.234604
O O2 0.323194 0.777870 0.163710
O O3 0.239130 0.674978 0.332784
O O4 0.412495 0.723578 0.348248
O O5 0.469195 0.741856 0.069612
O O6 0.386841 0.000000 0.044456
O O7 0.326274 0.761150 0.945349
O O8 0.640746 0.500000 0.807655
O O9 0.698091 0.782561 0.802626
O O10 0.530669 0.716552 0.774093
O O11 0.611955 0.679663 0.969386
O O12 0.861594 0.225628 0.736287
O O13 0.808227 0.000000 0.854327
O O14 0.104426 0.500000 0.310686
O O15 0.114787 0.735208 0.185422
O O16 0.080357 0.766974 0.394071
O O17 0.454326 0.500000 0.678456
O O18 0.469936 0.262438 0.561569
O O19 0.483671 0.500000 0.441053
O O20 0.059571 0.000000 0.123468
#
# Coordination Sequence:
#
# PCOD9133705 Si02
#       8
#     4   4   4   4   4   4   4   4
#     4  10  22  39  60  87 121 158 196 238 295 355
#     4  12  23  36  60  91 122 153 194 243 295 352
#     4  10  21  39  61  88 121 155 195 244 294 350
#     4  11  22  39  62  89 121 157 197 240 293 355
#     4  11  23  38  58  89 123 153 194 249 295 346
#     4   9  20  40  62  84 115 158 204 244 292 350
#     4  10  21  40  64  84 112 161 206 243 293 352
#     4  11  21  37  61  86 119 159 194 235 297 360
#
# _framework density 9.8765429999999999
#
# number of rings (size 3 to 8) (size 9 to 14) (size 15 to 20)
#    0.000    1.500    2.500    3.000    0.000    5.000 
#    0.000    3.125    0.000    0.000    0.000    0.000 
#    0.000    0.000    0.000    0.000    0.000    0.000 
#
# Total GULP energy -89320.358936 kJ/mol
# GULP energy per Si atom -5582.522433 kJ/mol
# Density = 0.985406 g / cm^3
# Si number density = 9.876543 Si / 1000 Ang^3
#
#
#
# Elastic Constant Matrix: (Units=GPa)
#
#
# Indices 1 2 3 4 5 6 
#
# 1 46.3468 -12.4716 -13.8367 0.0000 -30.7138 0.0000
# 2 -12.4716 -17.0326 -4.3035 0.0000 0.7262 0.0000
# 3 -13.8367 -4.3035 48.6791 0.0000 -37.7385 0.0000
# 4 0.0000 0.0000 0.0000 -12.6607 0.0000 2.6625
# 5 -30.7138 0.7262 -37.7385 0.0000 -8.1508 0.0000
# 6 0.0000 0.0000 0.0000 2.6625 0.0000 24.3556
#
#
#
# Elastic Compliance Matrix: (Units=1/GPa)
#
#
# Indices 1 2 3 4 5 6 
#
# 1 0.010516 -0.006593 -0.006268 0.000000 -0.011189 0.000000
# 2 -0.006593 -0.053902 0.001939 0.000000 0.011065 0.000000
# 3 -0.006268 0.001939 0.008144 0.000000 -0.013915 0.000000
# 4 0.000000 0.000000 0.000000 -0.077210 0.000000 0.008440
# 5 -0.011189 0.011065 -0.013915 0.000000 -0.015109 0.000000
# 6 0.000000 0.000000 0.000000 0.008440 0.000000 0.040136
#
#
# Mechanical properties :
#
#
# Convention : Reuss Voigt Hill
#
# Bulk Modulus (GPa) = -17.51718 1.86331 -7.82694
# Shear Modulus (GPa) = -59.09624 7.94915 -25.57355
#
# Velocity S-wave (km/s) = -5.47562 2.00823 -3.60204
# Velocity P-wave (km/s) = 6.99027 2.51449 4.61201
#
# Compressibility (1/GPa) = -0.05708680
#
# Stress axis : x y z
#
# Youngs Moduli (GPa) = 95.09579 -18.55234 122.78345
#
# Poissons Ratio (x) = -0.12232 0.76966
# Poissons Ratio (y) = 0.62697 -0.23806
# Poissons Ratio (z) = 0.59610 0.03597
#
# Static dielectric constant tensor:
#      x y z
#    x 1.712960 0.000000 -0.045140 
#    y 0.000000 1.669910 0.000000 
#    z -0.045140 0.000000 1.691830 
# 
# From -- ./inp_files/21385.got.cif
#   From: 2010.05.17/outbox.ucp.g08.bks.cvg/sg8_11_cif.got.tgz:21385.got - 2010.06.11 13:00:03.
