data_PCOD9133599
_publ_section_title
;
Structure prediction by ZEFSAII (Michael W. Deem and Ramdas Pophale) SiO2 
 PCOD9133599
Probable space group: C M
;
_chemical_formula_sum "Si O2"
_cell_formula_units_Z 32
_cell_length_a 9.027430
_cell_length_b 15.687802
_cell_length_c 22.948732
_cell_angle_alpha 90.000000
_cell_angle_beta 28.589741
_cell_angle_gamma 90.000000
_cell_volume 1555.243189
_symmetry_space_group_name_H-M "C M"
_symmetry_group_IT_number 8
_symmetry_cell_setting 'monoclinic'
loop_
_space_group_symop_operation_xyz
x,y,z
x,-y,z
1/2+x,1/2+y,z
1/2+x,1/2-y,z
loop_
_atom_site_type_symbol
_atom_site_label
_atom_site_fract_x
_atom_site_fract_y
_atom_site_fract_z
Si Si1 0.210310 0.739830 0.270250
Si Si2 0.732123 0.595940 0.092352
Si Si3 0.329533 0.097289 0.602099
Si Si4 0.085827 0.249187 0.438895
Si Si5 0.545992 0.096997 0.109392
Si Si6 0.744551 0.655707 0.862839
Si Si7 0.631336 0.843071 0.848416
Si Si8 0.142755 0.404453 0.618842
O O1 0.465561 0.666539 0.181231
O O2 0.006659 0.735471 0.399052
O O3 0.369103 0.831356 0.207053
O O4 0.951575 0.730615 0.310248
O O5 0.603635 0.500000 0.139380
O O6 0.936706 0.608761 0.079967
O O7 0.945451 0.606014 0.961978
O O8 0.510249 0.166236 0.501261
O O9 0.428450 0.106984 0.635536
O O10 0.965597 0.115898 0.721674
O O11 0.399602 0.000000 0.560567
O O12 0.895798 0.169802 0.529148
O O13 0.470685 0.000000 0.152577
O O14 0.911698 0.112979 0.987555
O O15 0.685814 0.749194 0.856165
O O16 0.934186 0.661781 0.857329
O O17 0.940335 0.605817 0.746698
O O18 0.275598 0.500000 0.570263
#
# Coordination Sequence:
#
# PCOD9133599 Si02
#       8
#     4   4   4   4   4   4   4   4
#     4  12  26  45  69  98 134 180 231 278 330 392
#     4  11  25  46  71 102 137 177 223 279 341 401
#     4  11  25  46  72 101 136 179 224 277 340 404
#     4  12  26  45  69  98 134 180 231 278 330 392
#     4  11  25  46  72 101 136 179 224 277 340 404
#     4  12  25  42  71 104 137 175 221 277 345 404
#     4  12  25  42  71 104 137 175 221 277 345 404
#     4  11  25  46  71 102 137 177 223 279 341 401
#
# _framework density 20.575558999999998
#
# number of rings (size 3 to 8) (size 9 to 14) (size 15 to 20)
#    0.000    0.500    5.000    3.000    3.500    6.000 
#    0.000    0.000    0.000    0.000    0.000    0.000 
#    0.000    0.000    0.000    0.000    0.000    0.000 
#
# Total GULP energy -89511.978229 kJ/mol
# GULP energy per Si atom -5594.498639 kJ/mol
# Density = 2.052873 g / cm^3
# Si number density = 20.575559 Si / 1000 Ang^3
#
#
#
# Elastic Constant Matrix: (Units=GPa)
#
#
# Indices 1 2 3 4 5 6 
#
# 1 113.3968 72.8090 39.3743 0.1729 1.3308 -0.0268
# 2 72.8090 153.9620 41.7673 0.0345 -12.4685 -0.0023
# 3 39.3743 41.7673 77.3951 0.6106 -12.0838 -0.1202
# 4 0.1729 0.0345 0.6106 -18.1514 -0.0026 7.5147
# 5 1.3308 -12.4685 -12.0838 -0.0026 41.9965 -0.0077
# 6 -0.0268 -0.0023 -0.1202 7.5147 -0.0077 27.2025
#
#
#
# Elastic Compliance Matrix: (Units=1/GPa)
#
#
# Indices 1 2 3 4 5 6 
#
# 1 0.014140 -0.005705 -0.004658 -0.000032 -0.003482 0.000001
# 2 -0.005705 0.009962 -0.002076 -0.000100 0.002541 0.000014
# 3 -0.004658 -0.002076 0.017102 0.000499 0.004452 -0.000066
# 4 -0.000032 -0.000100 0.000499 -0.049423 0.000114 0.013655
# 5 -0.003482 0.002541 0.004452 0.000114 0.025957 -0.000008
# 6 0.000001 0.000014 -0.000066 0.013655 -0.000008 0.032989
#
#
# Mechanical properties :
#
#
# Convention : Reuss Voigt Hill
#
# Bulk Modulus (GPa) = 61.25533 72.51725 66.88629
# Shear Modulus (GPa) = 61.69126 22.92975 42.31050
#
# Velocity S-wave (km/s) = 5.48159 3.34191 4.53962
# Velocity P-wave (km/s) = 8.36059 7.08604 7.74956
#
# Compressibility (1/GPa) = 0.01632511
#
# Stress axis : x y z
#
# Youngs Moduli (GPa) = 70.72073 100.37988 58.47245
#
# Poissons Ratio (x) = 0.57269 0.27238
# Poissons Ratio (y) = 0.40348 0.12140
# Poissons Ratio (z) = 0.32943 0.20841
#
# Static dielectric constant tensor:
#      x y z
#    x 1.703320 0.000000 -0.001030 
#    y 0.000000 1.727400 -0.000010 
#    z -0.001030 -0.000010 1.700570 
# 
# From -- ./inp_files/18886.got.cif
#   From: 2010.05.17/outbox.cif.g08.bks.cpg/sg8_10_cif.got.tgz:18886.got - 2010.06.03 19:46:02.
