data_PCOD9133561
_publ_section_title
;
Structure prediction by ZEFSAII (Michael W. Deem and Ramdas Pophale) SiO2 
 PCOD9133561
Probable space group: C M
;
_chemical_formula_sum "Si O2"
_cell_formula_units_Z 24
_cell_length_a 13.654924
_cell_length_b 13.435844
_cell_length_c 7.611515
_cell_angle_alpha 90.000000
_cell_angle_beta 49.107632
_cell_angle_gamma 90.000000
_cell_volume 1055.633253
_symmetry_space_group_name_H-M "C M"
_symmetry_group_IT_number 8
_symmetry_cell_setting 'monoclinic'
loop_
_space_group_symop_operation_xyz
x,y,z
x,-y,z
1/2+x,1/2+y,z
1/2+x,1/2-y,z
loop_
_atom_site_type_symbol
_atom_site_label
_atom_site_fract_x
_atom_site_fract_y
_atom_site_fract_z
Si Si1 0.873430 0.500000 0.814710
Si Si2 0.801627 0.284510 0.291946
Si Si3 0.575127 0.271938 0.123804
Si Si4 0.822410 0.203213 0.891689
Si Si5 0.715905 0.500000 0.371002
Si Si6 0.556161 0.816088 0.516421
Si Si7 0.100112 0.000000 0.024630
Si Si8 0.937240 0.000000 0.851854
O O1 0.755679 0.500000 0.812907
O O2 0.970982 0.408372 0.673788
O O3 0.792298 0.500000 0.093118
O O4 0.761619 0.394657 0.398681
O O5 0.688205 0.204987 0.465684
O O6 0.943444 0.253321 0.181891
O O7 0.804525 0.278768 0.076141
O O8 0.580334 0.193618 0.280659
O O9 0.713818 0.238503 0.879884
O O10 0.575144 0.392151 0.146961
O O11 0.963938 0.221913 0.650080
O O12 0.840771 0.093083 0.943370
O O13 0.558914 0.500000 0.571445
O O14 0.012259 0.000000 0.951531
#
# Coordination Sequence:
#
# PCOD9133561 Si02
#       8
#     2   4   4   4   2   4   2   2
#     4  12  24  44  70 102 145 187 235 291 358 413
#     4  11  24  43  67 101 140 184 237 288 346 420
#     4  11  26  43  72 103 144 178 242 289 351 421
#     4  11  23  44  67 100 140 182 231 293 340 411
#     4  12  24  41  72  99 138 195 235 279 353 430
#     4  11  24  41  70 101 139 182 232 292 348 412
#     4  12  24  45  73  99 138 195 229 284 352 430
#     4  12  26  42  77 102 141 191 237 282 367 413
#
# _framework density 22.735168000000002
#
# number of rings (size 3 to 8) (size 9 to 14) (size 15 to 20)
#    0.000    0.667    6.667    1.000    2.333    5.333 
#    0.000    0.000    0.000    0.000    0.000    0.000 
#    0.000    0.000    0.000    0.000    0.000    0.000 
#
# Total GULP energy -66831.801309 kJ/mol
# GULP energy per Si atom -5569.316776 kJ/mol
# Density = 2.268342 g / cm^3
# Si number density = 22.735168 Si / 1000 Ang^3
#
#
#
# Elastic Constant Matrix: (Units=GPa)
#
#
# Indices 1 2 3 4 5 6 
#
# 1 141.6249 47.6237 37.1160 0.0000 -50.8176 0.0000
# 2 47.6237 167.7792 36.7578 0.0000 -20.4808 0.0000
# 3 37.1160 36.7578 59.8906 0.0000 -19.0974 0.0000
# 4 0.0000 0.0000 0.0000 42.3997 0.0000 -19.9762
# 5 -50.8176 -20.4808 -19.0974 0.0000 42.2806 0.0000
# 6 0.0000 0.0000 0.0000 -19.9762 0.0000 33.1658
#
#
#
# Elastic Compliance Matrix: (Units=1/GPa)
#
#
# Indices 1 2 3 4 5 6 
#
# 1 0.013338 -0.001436 -0.002914 0.000000 0.014019 0.000000
# 2 -0.001436 0.007143 -0.003436 0.000000 0.000182 0.000000
# 3 -0.002914 -0.003436 0.022155 0.000000 0.004840 0.000000
# 4 0.000000 0.000000 0.000000 0.032930 0.000000 0.019834
# 5 0.014019 0.000182 0.004840 0.000000 0.042775 0.000000
# 6 0.000000 0.000000 0.000000 0.019834 0.000000 0.042098
#
#
# Mechanical properties :
#
#
# Convention : Reuss Voigt Hill
#
# Bulk Modulus (GPa) = 36.95006 68.03217 52.49112
# Shear Modulus (GPa) = 27.02232 40.08903 33.55568
#
# Velocity S-wave (km/s) = 3.45130 4.20373 3.84596
# Velocity P-wave (km/s) = 5.67183 7.31782 6.54676
#
# Compressibility (1/GPa) = 0.02706355
#
# Stress axis : x y z
#
# Youngs Moduli (GPa) = 74.97496 140.00083 45.13596
#
# Poissons Ratio (x) = 0.20106 0.13153
# Poissons Ratio (y) = 0.10768 0.15508
# Poissons Ratio (z) = 0.21849 0.48102
#
# Static dielectric constant tensor:
#      x y z
#    x 1.950650 0.000000 -0.069600 
#    y 0.000000 1.817450 0.000000 
#    z -0.069600 0.000000 2.070010 
# 
# From -- ./inp_files/13208.got.cif
#   From: 2010.05.17/outbox.cif.g08.bks.cpg/sg8_7_cif.got.tgz:13208.got - 2010.06.03 19:46:02.
