data_PCOD9133552
_publ_section_title
;
Structure prediction by ZEFSAII (Michael W. Deem and Ramdas Pophale) SiO2 
 PCOD9133552
Probable space group: C M
;
_chemical_formula_sum "Si O2"
_cell_formula_units_Z 20
_cell_length_a 13.843404
_cell_length_b 9.787817
_cell_length_c 18.572961
_cell_angle_alpha 90.000000
_cell_angle_beta 22.892188
_cell_angle_gamma 90.000000
_cell_volume 978.943523
_symmetry_space_group_name_H-M "C M"
_symmetry_group_IT_number 8
_symmetry_cell_setting 'monoclinic'
loop_
_space_group_symop_operation_xyz
x,y,z
x,-y,z
1/2+x,1/2+y,z
1/2+x,1/2-y,z
loop_
_atom_site_type_symbol
_atom_site_label
_atom_site_fract_x
_atom_site_fract_y
_atom_site_fract_z
Si Si1 0.077618 0.000000 0.840138
Si Si2 0.621321 0.000000 0.728277
Si Si3 0.657609 0.000000 0.484753
Si Si4 0.223278 0.500000 0.826014
Si Si5 0.367952 0.704972 0.453969
Si Si6 0.180572 0.000000 0.605310
Si Si7 0.425399 0.733678 0.053572
Si Si8 0.534469 0.500000 0.093447
O O1 0.374564 0.000000 0.652240
O O2 0.045249 0.000000 0.776137
O O3 0.966865 0.135350 0.955401
O O4 0.660598 0.000000 0.785473
O O5 0.763227 0.127935 0.595627
O O6 0.328639 0.000000 0.909670
O O7 0.712443 0.867232 0.496855
O O8 0.857621 0.000000 0.283911
O O9 0.504159 0.500000 0.657544
O O10 0.115034 0.358107 0.929304
O O11 0.658044 0.693030 0.237550
O O12 0.336112 0.863672 0.490833
O O13 0.468597 0.631827 0.090542
#
# Coordination Sequence:
#
# PCOD9133552 Si02
#       8
#     2   2   2   2   4   2   4   2
#     4  11  23  44  64  87 128 175 207 247 312 385
#     4  11  23  44  64  87 128 175 207 247 312 385
#     4  11  23  43  68  91 123 173 213 244 306 390
#     4  12  24  39  62  94 124 158 208 269 313 349
#     4  11  23  41  64  94 126 163 208 256 309 373
#     4  12  24  39  62  94 124 158 208 269 313 349
#     4  11  23  41  64  94 126 163 208 256 309 373
#     4  11  23  43  68  91 123 173 213 244 306 390
#
# _framework density 20.430188000000001
#
# number of rings (size 3 to 8) (size 9 to 14) (size 15 to 20)
#    0.000    0.800    0.000   10.800    0.000    3.200 
#    0.000    3.000    0.000    0.000    0.000    0.000 
#    0.000    0.000    0.000    0.000    0.000    0.000 
#
# Total GULP energy -55898.434201 kJ/mol
# GULP energy per Si atom -5589.843420 kJ/mol
# Density = 2.038369 g / cm^3
# Si number density = 20.430188 Si / 1000 Ang^3
#
#
#
# Elastic Constant Matrix: (Units=GPa)
#
#
# Indices 1 2 3 4 5 6 
#
# 1 76.0581 8.2315 2.1748 -0.0063 4.8955 -0.0009
# 2 8.2315 110.1509 -0.5198 -0.0027 13.3998 0.0049
# 3 2.1748 -0.5198 82.1055 -0.0042 -7.5312 -0.0072
# 4 -0.0063 -0.0027 -0.0042 83.4924 0.0045 3.2822
# 5 4.8955 13.3998 -7.5312 0.0045 38.2430 0.0050
# 6 -0.0009 0.0049 -0.0072 3.2822 0.0050 -6.1727
#
#
#
# Elastic Compliance Matrix: (Units=1/GPa)
#
#
# Indices 1 2 3 4 5 6 
#
# 1 0.013348 -0.000815 -0.000498 0.000001 -0.001521 -0.000003
# 2 -0.000815 0.009537 -0.000219 0.000000 -0.003281 0.000005
# 3 -0.000498 -0.000219 0.012429 0.000001 0.002588 -0.000012
# 4 0.000001 0.000000 0.000001 0.011732 -0.000002 0.006238
# 5 -0.001521 -0.003281 0.002588 -0.000002 0.028002 0.000016
# 6 -0.000003 0.000005 -0.000012 0.006238 0.000016 -0.158686
#
#
# Mechanical properties :
#
#
# Convention : Reuss Voigt Hill
#
# Bulk Modulus (GPa) = 31.00753 32.00972 31.50862
# Shear Modulus (GPa) = -71.60954 40.34107 -15.63423
#
# Velocity S-wave (km/s) = -5.92680 4.44845 -2.76932
# Velocity P-wave (km/s) = 5.62367 6.48743 2.28704
#
# Compressibility (1/GPa) = 0.03225023
#
# Stress axis : x y z
#
# Youngs Moduli (GPa) = 74.91649 104.85050 80.45924
#
# Poissons Ratio (x) = 0.08543 0.04009
# Poissons Ratio (y) = 0.06104 0.01762
# Poissons Ratio (z) = 0.03733 0.02296
#
# Static dielectric constant tensor:
#      x y z
#    x 1.707700 0.000000 0.023630 
#    y 0.000000 1.626830 -0.000010 
#    z 0.023630 -0.000010 1.702430 
# 
# From -- ./inp_files/14378.got.cif
#   From: 2010.05.17/outbox.cif.g08.bks.cpg/sg8_8_cif.got.tgz:14378.got - 2010.06.03 19:46:02.
