data_PCOD9133063
_publ_section_title
;
Structure prediction by ZEFSAII (Michael W. Deem and Ramdas Pophale) SiO2 
 PCOD9133063
Probable space group: C M
;
_chemical_formula_sum "Si O2"
_cell_formula_units_Z 20
_cell_length_a 4.991852
_cell_length_b 21.204985
_cell_length_c 7.304673
_cell_angle_alpha 90.000000
_cell_angle_beta 68.796779
_cell_angle_gamma 90.000000
_cell_volume 720.871325
_symmetry_space_group_name_H-M "C M"
_symmetry_group_IT_number 8
_symmetry_cell_setting 'monoclinic'
loop_
_space_group_symop_operation_xyz
x,y,z
x,-y,z
1/2+x,1/2+y,z
1/2+x,1/2-y,z
loop_
_atom_site_type_symbol
_atom_site_label
_atom_site_fract_x
_atom_site_fract_y
_atom_site_fract_z
Si Si1 0.536690 0.705723 0.966470
Si Si2 0.260845 0.073559 0.987617
Si Si3 0.415319 0.096149 0.356611
Si Si4 0.270709 0.570447 0.612315
Si Si5 0.199472 0.218082 0.502294
O O1 0.265273 0.752281 0.020659
O O2 0.531908 0.631903 0.031901
O O3 0.638929 0.702158 0.728732
O O4 0.524639 0.100787 0.798053
O O5 0.174870 0.000000 0.958810
O O6 0.380919 0.069934 0.163777
O O7 0.656501 0.071192 0.432293
O O8 0.417523 0.170935 0.353290
O O9 0.103273 0.086943 0.531282
O O10 0.261808 0.500000 0.686880
O O11 0.395558 0.280410 0.475663
#
# Coordination Sequence:
#
# PCOD9133063 Si02
#       5
#     4   4   4   4   4
#     4  10  23  43  72 102 141 187 239 293 357 426
#     4  11  26  47  75 111 146 191 243 296 361 435
#     4  12  25  45  72 102 142 188 241 291 356 429
#     4  11  25  45  68 100 144 188 233 296 355 416
#     4  10  21  40  69  99 137 186 237 292 354 424
#
# _framework density 27.744199999999999
#
# number of rings (size 3 to 8) (size 9 to 14) (size 15 to 20)
#    0.000    1.200    2.000    3.000    5.600    4.800 
#    0.000    5.000    0.000    0.000    0.000    0.000 
#    0.000    0.000    0.000    0.000    0.000    0.000 
#
# Total GULP energy -55948.589657 kJ/mol
# GULP energy per Si atom -5594.858966 kJ/mol
# Density = 2.768105 g / cm^3
# Si number density = 27.744200 Si / 1000 Ang^3
#
#
#
# Elastic Constant Matrix: (Units=GPa)
#
#
# Indices 1 2 3 4 5 6 
#
# 1 162.4098 46.0801 13.5193 0.0000 29.1852 0.0000
# 2 46.0801 128.8081 19.4912 0.0000 2.9808 0.0000
# 3 13.5193 19.4912 87.1905 0.0000 -7.5826 0.0000
# 4 0.0000 0.0000 0.0000 18.0648 0.0000 -8.5739
# 5 29.1852 2.9808 -7.5826 0.0000 28.3194 0.0000
# 6 0.0000 0.0000 0.0000 -8.5739 0.0000 16.9580
#
#
#
# Elastic Compliance Matrix: (Units=1/GPa)
#
#
# Indices 1 2 3 4 5 6 
#
# 1 0.008669 -0.002659 -0.001538 0.000000 -0.009066 0.000000
# 2 -0.002659 0.008902 -0.001455 0.000000 0.001413 0.000000
# 3 -0.001538 -0.001455 0.012475 0.000000 0.005078 0.000000
# 4 0.000000 0.000000 0.000000 0.072834 0.000000 0.036825
# 5 -0.009066 0.001413 0.005078 0.000000 0.045866 0.000000
# 6 0.000000 0.000000 0.000000 0.036825 0.000000 0.077588
#
#
# Mechanical properties :
#
#
# Convention : Reuss Voigt Hill
#
# Bulk Modulus (GPa) = 53.35641 59.62107 56.48874
# Shear Modulus (GPa) = 20.50160 32.62295 26.56227
#
# Velocity S-wave (km/s) = 2.72131 3.43278 3.09754
# Velocity P-wave (km/s) = 5.39883 6.10313 5.76175
#
# Compressibility (1/GPa) = 0.01874189
#
# Stress axis : x y z
#
# Youngs Moduli (GPa) = 115.35660 112.33390 80.16329
#
# Poissons Ratio (x) = 0.29865 0.12331
# Poissons Ratio (y) = 0.30669 0.11663
# Poissons Ratio (z) = 0.17744 0.16343
#
# Static dielectric constant tensor:
#      x y z
#    x 2.166200 0.000000 -0.060150 
#    y 0.000000 2.259980 0.000000 
#    z -0.060150 0.000000 2.132780 
# 
# From -- ./inp_files/6702.got.cif
#   From: 2010.05.17/outbox.cif.g08.bks.cpg/sg8_4_cif.got.tgz:6702.got - 2010.06.03 19:46:02.
