data_PCOD9133191
_publ_section_title
;
Structure prediction by ZEFSAII (Michael W. Deem and Ramdas Pophale) SiO2 
 PCOD9133191
Probable space group: C M
;
_chemical_formula_sum "Si O2"
_cell_formula_units_Z 28
_cell_length_a 14.409831
_cell_length_b 9.477507
_cell_length_c 11.910274
_cell_angle_alpha 90.000000
_cell_angle_beta 53.077275
_cell_angle_gamma 90.000000
_cell_volume 1300.361594
_symmetry_space_group_name_H-M "C M"
_symmetry_group_IT_number 8
_symmetry_cell_setting 'monoclinic'
loop_
_space_group_symop_operation_xyz
x,y,z
x,-y,z
1/2+x,1/2+y,z
1/2+x,1/2-y,z
loop_
_atom_site_type_symbol
_atom_site_label
_atom_site_fract_x
_atom_site_fract_y
_atom_site_fract_z
Si Si1 0.555830 0.346084 0.606550
Si Si2 0.400108 0.340561 0.131503
Si Si3 0.779198 0.159273 0.823403
Si Si4 0.648448 0.752283 0.304963
Si Si5 0.428758 0.162585 0.328625
Si Si6 0.314432 0.156087 0.006989
Si Si7 0.728201 0.832760 0.607107
O O1 0.593406 0.500000 0.623051
O O2 0.417826 0.343324 0.704680
O O3 0.601566 0.325965 0.447523
O O4 0.609356 0.220606 0.639460
O O5 0.445432 0.500000 0.094808
O O6 0.260483 0.345225 0.256645
O O7 0.448304 0.244708 0.197054
O O8 0.403739 0.259226 0.009000
O O9 0.727029 0.196214 0.740906
O O10 0.741737 0.000000 0.883490
O O11 0.764182 0.269290 0.933675
O O12 0.544560 0.831931 0.319223
O O13 0.708019 0.650104 0.171671
O O14 0.329222 0.244950 0.470577
O O15 0.395403 0.000000 0.330850
O O16 0.361129 0.000000 0.951973
O O17 0.747973 0.000000 0.577905
#
# Coordination Sequence:
#
# PCOD9133191 Si02
#       7
#     4   4   4   4   4   4   4
#     4  11  22  41  67  93 123 161 206 258 309 364
#     4  10  22  40  62  89 123 160 201 252 305 364
#     4  10  23  43  63  87 125 169 206 253 310 366
#     4  10  23  39  65  92 122 161 202 256 304 365
#     4  12  23  37  62  95 126 161 205 258 309 365
#     4  10  22  41  66  92 123 164 206 255 308 366
#     4  11  23  39  61  92 126 164 206 254 309 366
#
# _framework density 21.532473
#
# number of rings (size 3 to 8) (size 9 to 14) (size 15 to 20)
#    0.857    0.571    2.857    2.571    0.000    4.000 
#    2.571    0.000    0.000    0.000    0.000    0.000 
#    0.000    0.000    0.000    0.000    0.000    0.000 
#
# Total GULP energy -78160.249825 kJ/mol
# GULP energy per Si atom -5582.874988 kJ/mol
# Density = 2.148346 g / cm^3
# Si number density = 21.532473 Si / 1000 Ang^3
#
#
#
# Elastic Constant Matrix: (Units=GPa)
#
#
# Indices 1 2 3 4 5 6 
#
# 1 76.1829 19.9544 12.4651 0.0000 24.9792 0.0000
# 2 19.9544 150.0386 44.9938 0.0000 39.4156 0.0000
# 3 12.4651 44.9938 60.7169 0.0000 27.4345 0.0000
# 4 0.0000 0.0000 0.0000 11.5184 0.0000 -16.4768
# 5 24.9792 39.4156 27.4345 0.0000 36.5781 0.0000
# 6 0.0000 0.0000 0.0000 -16.4768 0.0000 -14.9613
#
#
#
# Elastic Compliance Matrix: (Units=1/GPa)
#
#
# Indices 1 2 3 4 5 6 
#
# 1 0.017259 0.000773 0.002399 0.000000 -0.014418 0.000000
# 2 0.000773 0.009874 -0.003675 0.000000 -0.008411 0.000000
# 3 0.002399 -0.003675 0.026700 0.000000 -0.017704 0.000000
# 4 0.000000 0.000000 0.000000 0.033711 0.000000 -0.037125
# 5 -0.014418 -0.008411 -0.017704 0.000000 0.059527 0.000000
# 6 0.000000 0.000000 0.000000 -0.037125 0.000000 -0.025953
#
#
# Mechanical properties :
#
#
# Convention : Reuss Voigt Hill
#
# Bulk Modulus (GPa) = 18.93004 49.08499 34.00752
# Shear Modulus (GPa) = 35.78259 20.59539 28.18899
#
# Velocity S-wave (km/s) = 4.08094 3.09606 3.62213
# Velocity P-wave (km/s) = 5.56919 5.96876 5.77243
#
# Compressibility (1/GPa) = 0.05282609
#
# Stress axis : x y z
#
# Youngs Moduli (GPa) = 57.94135 101.27689 37.45307
#
# Poissons Ratio (x) = -0.07829 -0.08984
# Poissons Ratio (y) = -0.04479 0.13764
# Poissons Ratio (z) = -0.13898 0.37220
#
# Static dielectric constant tensor:
#      x y z
#    x 1.782190 0.000000 -0.016950 
#    y 0.000000 1.790490 0.000000 
#    z -0.016950 0.000000 1.775470 
# 
# From -- ./inp_files/21462.got.cif
#   From: 2010.05.17/outbox.cif.g08.bks.cpg/sg8_11_cif.got.tgz:21462.got - 2010.06.03 19:46:02.
