data_PCOD9133276
_publ_section_title
;
Structure prediction by ZEFSAII (Michael W. Deem and Ramdas Pophale) SiO2 
 PCOD9133276
Probable space group: C M
;
_chemical_formula_sum "Si O2"
_cell_formula_units_Z 32
_cell_length_a 8.811246
_cell_length_b 19.167750
_cell_length_c 11.958590
_cell_angle_alpha 90.000000
_cell_angle_beta 50.441031
_cell_angle_gamma 90.000000
_cell_volume 1557.132784
_symmetry_space_group_name_H-M "C M"
_symmetry_group_IT_number 8
_symmetry_cell_setting 'monoclinic'
loop_
_space_group_symop_operation_xyz
x,y,z
x,-y,z
1/2+x,1/2+y,z
1/2+x,1/2-y,z
loop_
_atom_site_type_symbol
_atom_site_label
_atom_site_fract_x
_atom_site_fract_y
_atom_site_fract_z
Si Si1 0.219230 0.804941 0.711230
Si Si2 0.035327 0.832673 0.143525
Si Si3 0.274116 0.420482 0.414662
Si Si4 0.308211 0.698082 0.037625
Si Si5 0.362169 0.080487 0.475868
Si Si6 0.092829 0.337522 0.693337
Si Si7 0.486698 0.918630 0.171762
Si Si8 0.374116 0.079735 0.973443
O O1 0.241600 0.865876 0.608891
O O2 0.228601 0.729605 0.647890
O O3 0.395630 0.814744 0.717749
O O4 0.007330 0.804324 0.871556
O O5 0.931889 0.864044 0.300401
O O6 0.869904 0.808031 0.136867
O O7 0.187009 0.769325 0.082777
O O8 0.159906 0.896455 0.032627
O O9 0.349303 0.500000 0.378792
O O10 0.194159 0.397000 0.571915
O O11 0.086573 0.417374 0.418310
O O12 0.169590 0.633053 0.075385
O O13 0.369764 0.098768 0.340641
O O14 0.294667 0.000000 0.519670
O O15 0.029445 0.370125 0.841117
O O16 0.546267 0.000000 0.155586
O O17 0.373234 0.912211 0.107804
O O18 0.415898 0.000000 0.925880
#
# Coordination Sequence:
#
# PCOD9133276 Si02
#       8
#     4   4   4   4   4   4   4   4
#     4  11  23  42  64  93 130 167 213 264 321 382
#     4  12  24  40  65  95 128 170 215 271 318 384
#     4  10  22  42  66  96 130 166 218 265 317 385
#     4  12  23  40  64  97 130 169 218 265 321 387
#     4   9  20  42  67  95 127 166 213 264 318 380
#     4  11  24  42  65  95 126 174 210 269 321 380
#     4  10  23  42  66  94 130 169 213 269 324 381
#     4  11  23  42  65  93 129 171 216 267 324 379
#
# _framework density 20.550592000000002
#
# number of rings (size 3 to 8) (size 9 to 14) (size 15 to 20)
#    0.000    1.250    3.750    1.500    3.500    1.500 
#    2.250    0.000    0.000    0.000    0.000    0.000 
#    0.000    0.000    0.000    0.000    0.000    0.000 
#
# Total GULP energy -89383.957178 kJ/mol
# GULP energy per Si atom -5586.497324 kJ/mol
# Density = 2.050382 g / cm^3
# Si number density = 20.550592 Si / 1000 Ang^3
#
#
#
# Elastic Constant Matrix: (Units=GPa)
#
#
# Indices 1 2 3 4 5 6 
#
# 1 44.5968 38.5430 10.5931 0.0000 6.6320 0.0000
# 2 38.5430 107.7655 40.2041 0.0000 5.6001 0.0000
# 3 10.5931 40.2041 80.3307 0.0000 12.8341 0.0000
# 4 0.0000 0.0000 0.0000 37.5545 0.0000 1.2472
# 5 6.6320 5.6001 12.8341 0.0000 30.2477 0.0000
# 6 0.0000 0.0000 0.0000 1.2472 0.0000 26.2127
#
#
#
# Elastic Compliance Matrix: (Units=1/GPa)
#
#
# Indices 1 2 3 4 5 6 
#
# 1 0.033768 -0.012867 0.002992 0.000000 -0.006291 0.000000
# 2 -0.012867 0.016315 -0.006905 0.000000 0.002730 0.000000
# 3 0.002992 -0.006905 0.016531 0.000000 -0.006392 0.000000
# 4 0.000000 0.000000 0.000000 0.026670 0.000000 -0.001269
# 5 -0.006291 0.002730 -0.006392 0.000000 0.036646 0.000000
# 6 0.000000 0.000000 0.000000 -0.001269 0.000000 0.038210
#
#
# Mechanical properties :
#
#
# Convention : Reuss Voigt Hill
#
# Bulk Modulus (GPa) = 30.25298 45.70816 37.98057
# Shear Modulus (GPa) = 23.50520 28.35984 25.93252
#
# Velocity S-wave (km/s) = 3.38564 3.71887 3.55616
# Velocity P-wave (km/s) = 5.48056 6.38201 5.94839
#
# Compressibility (1/GPa) = 0.03305459
#
# Stress axis : x y z
#
# Youngs Moduli (GPa) = 29.61375 61.29174 60.49215
#
# Poissons Ratio (x) = 0.78861 -0.18097
# Poissons Ratio (y) = 0.38103 0.41770
# Poissons Ratio (z) = -0.08859 0.42322
#
# Static dielectric constant tensor:
#      x y z
#    x 1.737200 0.000000 0.002850 
#    y 0.000000 1.715240 0.000000 
#    z 0.002850 0.000000 1.726740 
# 
# From -- ./inp_files/19247.got.cif
#   From: 2010.05.17/outbox.cif.g08.bks.cpg/sg8_10_cif.got.tgz:19247.got - 2010.06.03 19:46:02.
