data_PCOD9133661
_publ_section_title
;
Structure prediction by ZEFSAII (Michael W. Deem and Ramdas Pophale) SiO2 
 PCOD9133661
Probable space group: C M
;
_chemical_formula_sum "Si O2"
_cell_formula_units_Z 16
_cell_length_a 21.000000
_cell_length_b 9.000000
_cell_length_c 15.000000
_cell_angle_alpha 90.000000
_cell_angle_beta 140.000000
_cell_angle_gamma 90.000000
_cell_volume 1822.302873
_symmetry_space_group_name_H-M "C M"
_symmetry_group_IT_number 8
_symmetry_cell_setting 'monoclinic'
loop_
_space_group_symop_operation_xyz
x,y,z
x,-y,z
1/2+x,1/2+y,z
1/2+x,1/2-y,z
loop_
_atom_site_type_symbol
_atom_site_label
_atom_site_fract_x
_atom_site_fract_y
_atom_site_fract_z
Si Si1 0.233780 0.178879 0.430940
Si Si2 0.376675 0.820866 0.753460
Si Si3 0.092571 0.821340 0.959075
Si Si4 0.901642 0.169251 0.260097
Si Si5 0.330986 0.821915 0.909165
Si Si6 0.706756 0.170379 0.925113
Si Si7 0.020251 0.677181 0.237357
Si Si8 0.760995 0.819927 0.267281
O O1 0.303172 0.214537 0.591623
O O2 0.122513 0.238473 0.328521
O O3 0.267824 0.253943 0.374084
O O4 0.233183 0.000000 0.420390
O O5 0.481718 0.738806 0.855068
O O6 0.335563 0.784201 0.808935
O O7 0.392695 0.000000 0.769467
O O8 0.130107 0.765056 0.902053
O O9 0.097308 0.000000 0.969419
O O10 0.167058 0.750115 0.113100
O O11 0.857754 0.213516 0.309441
O O12 0.977143 0.273011 0.287441
O O13 0.940635 0.000000 0.307044
O O14 0.804382 0.166266 0.092710
O O15 0.244834 0.741610 0.873623
O O16 0.317754 0.000000 0.902904
O O17 0.435643 0.786742 0.071911
O O18 0.672755 0.000000 0.876954
O O19 0.035754 0.500000 0.251385
O O20 0.749922 0.000000 0.257611
#
# Coordination Sequence:
#
# PCOD9133661 Si02
#       8
#     4   4   4   4   4   4   4   4
#     4  11  23  37  54  77 108 146 186 226 267 317
#     4  10  22  39  55  75 109 148 183 224 272 317
#     4  11  21  34  57  85 110 139 179 223 266 321
#     4   8  16  31  52  78 106 135 169 214 267 320
#     4   9  18  34  56  80 105 137 177 220 268 321
#     4   9  17  31  53  81 111 138 169 217 271 319
#     4  10  19  32  55  82 107 137 174 220 271 323
#     4  10  20  36  58  82 110 142 177 222 272 320
#
# _framework density 8.7800989999999999
#
# number of rings (size 3 to 8) (size 9 to 14) (size 15 to 20)
#    0.000    2.250    0.000    4.125    0.000    6.500 
#    0.000    1.250    0.000    1.500    0.000    0.000 
#    0.000    0.000    0.000    0.000    0.000    0.000 
#
# Total GULP energy -89259.821311 kJ/mol
# GULP energy per Si atom -5578.738832 kJ/mol
# Density = 0.876012 g / cm^3
# Si number density = 8.780099 Si / 1000 Ang^3
#
#
#
# Elastic Constant Matrix: (Units=GPa)
#
#
# Indices 1 2 3 4 5 6 
#
# 1 155.8263 58.6173 55.1993 0.0000 -34.7167 0.0000
# 2 58.6173 89.0112 37.1769 0.0000 -14.3007 0.0000
# 3 55.1993 37.1769 74.8180 0.0000 -26.2933 0.0000
# 4 0.0000 0.0000 0.0000 24.0570 0.0000 -1.1266
# 5 -34.7167 -14.3007 -26.2933 0.0000 23.4598 0.0000
# 6 0.0000 0.0000 0.0000 -1.1266 0.0000 38.8198
#
#
#
# Elastic Compliance Matrix: (Units=1/GPa)
#
#
# Indices 1 2 3 4 5 6 
#
# 1 0.011636 -0.004933 -0.001879 0.000000 0.012106 0.000000
# 2 -0.004933 0.016290 -0.005825 0.000000 -0.003898 0.000000
# 3 -0.001879 -0.005825 0.025443 0.000000 0.022184 0.000000
# 4 0.000000 0.000000 0.000000 0.041625 0.000000 0.001208
# 5 0.012106 -0.003898 0.022184 0.000000 0.083028 0.000000
# 6 0.000000 0.000000 0.000000 0.001208 0.000000 0.025795
#
#
# Mechanical properties :
#
#
# Convention : Reuss Voigt Hill
#
# Bulk Modulus (GPa) = 35.59429 69.07140 52.33285
# Shear Modulus (GPa) = 20.96836 28.51144 24.73990
#
# Velocity S-wave (km/s) = 3.45930 4.03381 3.75755
# Velocity P-wave (km/s) = 6.02242 7.81761 6.97798
#
# Compressibility (1/GPa) = 0.02809439
#
# Stress axis : x y z
#
# Youngs Moduli (GPa) = 85.94234 61.38920 39.30389
#
# Poissons Ratio (x) = 0.30282 0.07386
# Poissons Ratio (y) = 0.42393 0.22894
# Poissons Ratio (z) = 0.16150 0.35759
#
# Static dielectric constant tensor:
#      x y z
#    x 1.609210 0.000000 -0.005660 
#    y 0.000000 1.595560 0.000000 
#    z -0.005660 0.000000 1.576270 
# 
# From -- ./inp_files/23901.got.cif
#   From: 2010.05.17/outbox.ucp.g08.bks.cvg/sg8_12_cif.got.tgz:23901.got - 2010.06.11 13:00:03.
