data_PCOD9133656
_publ_section_title
;
Structure prediction by ZEFSAII (Michael W. Deem and Ramdas Pophale) SiO2 
 PCOD9133656
Probable space group: C M
;
_chemical_formula_sum "Si O2"
_cell_formula_units_Z 16
_cell_length_a 21.000000
_cell_length_b 9.000000
_cell_length_c 12.000000
_cell_angle_alpha 90.000000
_cell_angle_beta 50.000000
_cell_angle_gamma 90.000000
_cell_volume 1737.388797
_symmetry_space_group_name_H-M "C M"
_symmetry_group_IT_number 8
_symmetry_cell_setting 'monoclinic'
loop_
_space_group_symop_operation_xyz
x,y,z
x,-y,z
1/2+x,1/2+y,z
1/2+x,1/2-y,z
loop_
_atom_site_type_symbol
_atom_site_label
_atom_site_fract_x
_atom_site_fract_y
_atom_site_fract_z
Si Si1 0.506380 0.170414 0.785460
Si Si2 0.008008 0.829817 0.125780
Si Si3 0.877005 0.668843 0.121025
Si Si4 0.241838 0.673197 0.385828
Si Si5 0.571734 0.324512 0.519814
Si Si6 0.139215 0.831319 0.791930
Si Si7 0.490281 0.680385 0.392172
Si Si8 0.804027 0.822193 0.562331
O O1 0.501417 0.274003 0.684691
O O2 0.581861 0.230837 0.776737
O O3 0.523107 0.000000 0.735968
O O4 0.423995 0.176842 0.951583
O O5 0.945011 0.722557 0.133875
O O6 0.022920 0.781463 0.233997
O O7 0.972556 0.000000 0.166292
O O8 0.091462 0.834536 0.961838
O O9 0.850872 0.500000 0.172559
O O10 0.800342 0.777432 0.219662
O O11 0.225464 0.500000 0.404384
O O12 0.156594 0.759052 0.470354
O O13 0.289781 0.709167 0.446887
O O14 0.578755 0.500000 0.507947
O O15 0.546658 0.263322 0.427942
O O16 0.229075 0.762337 0.703916
O O17 0.142469 0.000000 0.743571
O O18 0.489816 0.500000 0.400229
O O19 0.394118 0.726625 0.502220
O O20 0.796747 0.000000 0.584737
#
# Coordination Sequence:
#
# PCOD9133656 Si02
#       8
#     4   4   4   4   4   4   4   4
#     4  10  20  35  53  77 112 147 177 220 276 321
#     4   9  17  34  55  77 108 144 179 216 270 325
#     4  10  20  33  54  83 110 138 180 229 270 313
#     4  11  21  35  57  81 110 144 179 223 273 322
#     4  11  22  36  57  81 109 145 185 223 263 323
#     4  10  19  30  53  84 109 136 178 228 266 313
#     4   9  19  37  57  77 105 145 182 216 267 324
#     4  10  19  34  56  78 107 143 178 219 269 321
#
# _framework density 9.2092220000000005
#
# number of rings (size 3 to 8) (size 9 to 14) (size 15 to 20)
#    0.000    2.000    2.500    1.875    0.000    2.500 
#    0.000    3.750    0.000    4.500    0.000    0.000 
#    0.000    0.000    0.000    0.000    0.000    0.000 
#
# Total GULP energy -89163.625269 kJ/mol
# GULP energy per Si atom -5572.726579 kJ/mol
# Density = 0.918826 g / cm^3
# Si number density = 9.209222 Si / 1000 Ang^3
#
#
#
# Elastic Constant Matrix: (Units=GPa)
#
#
# Indices 1 2 3 4 5 6 
#
# 1 -28.6401 2.0693 19.7738 0.0000 -11.8679 0.0000
# 2 2.0693 19.1633 15.5913 0.0000 -13.3701 0.0000
# 3 19.7738 15.5913 66.5122 0.0000 -6.3866 0.0000
# 4 0.0000 0.0000 0.0000 22.2135 0.0000 -7.9817
# 5 -11.8679 -13.3701 -6.3866 0.0000 11.4711 0.0000
# 6 0.0000 0.0000 0.0000 -7.9817 0.0000 14.3828
#
#
#
# Elastic Compliance Matrix: (Units=1/GPa)
#
#
# Indices 1 2 3 4 5 6 
#
# 1 -0.008659 -0.046174 0.007787 0.000000 -0.058441 0.000000
# 2 -0.046174 0.149735 -0.009721 0.000000 0.121339 0.000000
# 3 0.007787 -0.009721 0.015514 0.000000 0.005363 0.000000
# 4 0.000000 0.000000 0.000000 0.056230 0.000000 0.031205
# 5 -0.058441 0.121339 0.005363 0.000000 0.171124 0.000000
# 6 0.000000 0.000000 0.000000 0.031205 0.000000 0.086845
#
#
# Mechanical properties :
#
#
# Convention : Reuss Voigt Hill
#
# Bulk Modulus (GPa) = 16.56391 14.65603 15.60997
# Shear Modulus (GPa) = 8.51601 10.92023 9.71812
#
# Velocity S-wave (km/s) = 2.15260 2.43759 2.29951
# Velocity P-wave (km/s) = 3.89755 3.98710 3.94258
#
# Compressibility (1/GPa) = 0.06037223
#
# Stress axis : x y z
#
# Youngs Moduli (GPa) = -115.48174 6.67846 64.45936
#
# Poissons Ratio (x) = 0.30837 -0.50191
# Poissons Ratio (y) = -5.33223 0.62663
# Poissons Ratio (z) = 0.89920 0.06492
#
# Static dielectric constant tensor:
#      x y z
#    x 1.615980 0.000000 0.009570 
#    y 0.000000 1.645680 0.000000 
#    z 0.009570 0.000000 1.716330 
# 
# From -- ./inp_files/23705.got.cif
#   From: 2010.05.17/outbox.ucp.g08.bks.cvg/sg8_12_cif.got.tgz:23705.got - 2010.06.11 13:00:03.
