data_PCOD9133806
_publ_section_title
;
Structure prediction by ZEFSAII (Michael W. Deem and Ramdas Pophale) SiO2 
 PCOD9133806
Probable space group: C C
;
_chemical_formula_sum "Si O2"
_cell_formula_units_Z 32
_cell_length_a 17.511785
_cell_length_b 9.759655
_cell_length_c 14.143293
_cell_angle_alpha 90.000000
_cell_angle_beta 36.106046
_cell_angle_gamma 90.000000
_cell_volume 1424.420820
_symmetry_space_group_name_H-M "C C"
_symmetry_group_IT_number 9
_symmetry_cell_setting 'monoclinic'
loop_
_space_group_symop_operation_xyz
x,y,z
x,-y,1/2+z
1/2+x,1/2+y,z
1/2+x,1/2-y,1/2+z
loop_
_atom_site_type_symbol
_atom_site_label
_atom_site_fract_x
_atom_site_fract_y
_atom_site_fract_z
Si Si1 0.054270 0.881814 0.121210
Si Si2 0.603548 0.677237 0.070100
Si Si3 0.340748 0.957583 0.051248
Si Si4 0.069792 0.362886 0.930337
Si Si5 0.062043 0.075861 0.838291
Si Si6 0.793544 0.220313 0.939725
Si Si7 0.859265 0.277612 0.431653
Si Si8 0.281609 0.511152 0.609296
O O1 0.052438 0.923028 0.234469
O O2 0.914344 0.813419 0.250675
O O3 0.078257 0.028143 0.048159
O O4 0.172973 0.776283 0.000016
O O5 0.481947 0.706270 0.260158
O O6 0.599273 0.803968 0.002777
O O7 0.744803 0.674491 0.975928
O O8 0.423069 0.907924 0.057832
O O9 0.332350 0.837617 0.979304
O O10 0.407122 0.088421 0.938233
O O11 0.195608 0.000922 0.224744
O O12 0.087205 0.230241 0.846055
O O13 0.169896 0.475401 0.794431
O O14 0.922306 0.027276 0.011451
O O15 0.762042 0.086745 0.035823
O O16 0.791946 0.166121 0.565877
#
# Coordination Sequence:
#
# PCOD9133806 Si02
#       8
#     4   4   4   4   4   4   4   4
#     4  10  18  38  61 100 127 175 225 298 322 418
#     4  12  27  40  60 110 150 169 228 310 366 391
#     4  11  20  38  67  98 122 183 238 278 329 438
#     4  12  23  38  68 100 135 178 229 283 352 423
#     4  10  18  36  61  90 124 166 236 273 318 420
#     4  10  16  35  68  91 122 164 246 262 334 405
#     4  12  24  43  66 103 142 180 236 298 350 417
#     4  11  20  38  67  98 122 183 238 278 329 438
#
# _framework density 22.465271000000001
#
# number of rings (size 3 to 8) (size 9 to 14) (size 15 to 20)
#    0.000    1.000   10.000    0.750    3.500    0.000 
#    0.000    0.000    0.000    9.000    0.000    0.000 
#    0.000    0.000    0.000    0.000    0.000    0.000 
#
# Total GULP energy -89391.301179 kJ/mol
# GULP energy per Si atom -5586.956324 kJ/mol
# Density = 2.241414 g / cm^3
# Si number density = 22.465271 Si / 1000 Ang^3
#
#
#
# Elastic Constant Matrix: (Units=GPa)
#
#
# Indices 1 2 3 4 5 6 
#
# 1 30.1414 -9.5260 2.0371 0.0000 -8.0274 0.0000
# 2 -9.5260 62.7318 -15.2883 0.0000 10.5668 0.0000
# 3 2.0371 -15.2883 62.8339 0.0000 -22.8518 0.0000
# 4 0.0000 0.0000 0.0000 26.7244 0.0000 0.2935
# 5 -8.0274 10.5668 -22.8518 0.0000 29.4329 0.0000
# 6 0.0000 0.0000 0.0000 0.2935 0.0000 17.9136
#
#
#
# Elastic Compliance Matrix: (Units=1/GPa)
#
#
# Indices 1 2 3 4 5 6 
#
# 1 0.037539 0.004741 0.004237 0.000000 0.011826 0.000000
# 2 0.004741 0.017892 0.003252 0.000000 -0.002606 0.000000
# 3 0.004237 0.003252 0.023082 0.000000 0.017909 0.000000
# 4 0.000000 0.000000 0.000000 0.037426 0.000000 -0.000613
# 5 0.011826 -0.002606 0.017909 0.000000 0.052041 0.000000
# 6 0.000000 0.000000 0.000000 -0.000613 0.000000 0.055834
#
#
# Mechanical properties :
#
#
# Convention : Reuss Voigt Hill
#
# Bulk Modulus (GPa) = 9.71117 12.23920 10.97519
# Shear Modulus (GPa) = 21.39706 26.71314 24.05510
#
# Velocity S-wave (km/s) = 3.08953 3.45205 3.27581
# Velocity P-wave (km/s) = 4.13026 4.62047 4.38223
#
# Compressibility (1/GPa) = 0.10297416
#
# Stress axis : x y z
#
# Youngs Moduli (GPa) = 26.63930 55.89003 43.32343
#
# Poissons Ratio (x) = -0.26498 -0.18358
# Poissons Ratio (y) = -0.12630 -0.14089
# Poissons Ratio (z) = -0.11288 -0.18176
#
# Static dielectric constant tensor:
#      x y z
#    x 1.853260 0.000000 0.004230 
#    y 0.000000 1.824220 0.000000 
#    z 0.004230 0.000000 1.865990 
# 
# From -- ./inp_files/31227.got.cif
#   From: 2010.05.17/outbox.cif.g08.bks.cpg/sg9_16_cif.got.tgz:31227.got - 2010.06.03 20:04:27.
