data_PCOD9133585
_publ_section_title
;
Structure prediction by ZEFSAII (Michael W. Deem and Ramdas Pophale) SiO2 
 PCOD9133585
Probable space group: C M
;
_chemical_formula_sum "Si O2"
_cell_formula_units_Z 24
_cell_length_a 9.798028
_cell_length_b 17.556447
_cell_length_c 8.604175
_cell_angle_alpha 90.000000
_cell_angle_beta 44.001842
_cell_angle_gamma 90.000000
_cell_volume 1028.182652
_symmetry_space_group_name_H-M "C M"
_symmetry_group_IT_number 8
_symmetry_cell_setting 'monoclinic'
loop_
_space_group_symop_operation_xyz
x,y,z
x,-y,z
1/2+x,1/2+y,z
1/2+x,1/2-y,z
loop_
_atom_site_type_symbol
_atom_site_label
_atom_site_fract_x
_atom_site_fract_y
_atom_site_fract_z
Si Si1 0.878420 0.000000 0.977620
Si Si2 0.957784 0.500000 0.996267
Si Si3 0.212428 0.248868 0.112311
Si Si4 0.064691 0.000000 0.484172
Si Si5 0.302536 0.000000 0.766695
Si Si6 0.397276 0.368168 0.407945
Si Si7 0.116831 0.328306 0.879445
Si Si8 0.611068 0.109355 0.373382
O O1 0.977301 0.000000 0.727671
O O2 0.730135 0.068671 0.137111
O O3 0.069537 0.000000 0.933330
O O4 0.798514 0.500000 0.266039
O O5 0.072573 0.419658 0.915228
O O6 0.857931 0.500000 0.904895
O O7 0.073424 0.177651 0.187721
O O8 0.221105 0.297058 0.947545
O O9 0.413409 0.215794 0.015852
O O10 0.111650 0.302829 0.324654
O O11 0.988085 0.927057 0.453956
O O12 0.406589 0.928416 0.592919
O O13 0.255032 0.405465 0.400103
O O14 0.256806 0.312846 0.619683
#
# Coordination Sequence:
#
# PCOD9133585 Si02
#       8
#     2   2   4   2   2   4   4   4
#     4  11  27  45  75 107 143 185 248 313 360 436
#     4  12  24  47  75 107 144 195 252 301 369 439
#     4  12  28  47  71 111 151 192 243 302 369 448
#     4  12  25  47  74 106 144 192 251 308 367 437
#     4  11  24  45  78 102 137 194 243 302 370 436
#     4  12  25  47  75 102 147 193 243 299 375 433
#     4  12  28  47  77 107 150 197 246 305 370 440
#     4  11  25  48  71 108 142 187 244 303 369 436
#
# _framework density 23.342157
#
# number of rings (size 3 to 8) (size 9 to 14) (size 15 to 20)
#    0.000    0.333    5.000    3.500    4.667    2.000 
#    0.000    0.000    0.000    0.000    0.000    0.000 
#    0.000    0.000    0.000    0.000    0.000    0.000 
#
# Total GULP energy -67147.115714 kJ/mol
# GULP energy per Si atom -5595.592976 kJ/mol
# Density = 2.328903 g / cm^3
# Si number density = 23.342157 Si / 1000 Ang^3
#
#
#
# Elastic Constant Matrix: (Units=GPa)
#
#
# Indices 1 2 3 4 5 6 
#
# 1 57.9279 18.2758 -2.8890 0.0000 11.3128 0.0000
# 2 18.2758 88.3153 10.4404 0.0000 -2.0571 0.0000
# 3 -2.8890 10.4404 97.7795 0.0000 6.8906 0.0000
# 4 0.0000 0.0000 0.0000 17.2425 0.0000 8.5366
# 5 11.3128 -2.0571 6.8906 0.0000 47.2215 0.0000
# 6 0.0000 0.0000 0.0000 8.5366 0.0000 16.6642
#
#
#
# Elastic Compliance Matrix: (Units=1/GPa)
#
#
# Indices 1 2 3 4 5 6 
#
# 1 0.019709 -0.004364 0.001409 0.000000 -0.005117 0.000000
# 2 -0.004364 0.012456 -0.001587 0.000000 0.001820 0.000000
# 3 0.001409 -0.001587 0.010576 0.000000 -0.001950 0.000000
# 4 0.000000 0.000000 0.000000 0.077703 0.000000 -0.039805
# 5 -0.005117 0.001820 -0.001950 0.000000 0.022767 0.000000
# 6 0.000000 0.000000 0.000000 -0.039805 0.000000 0.080400
#
#
# Mechanical properties :
#
#
# Convention : Reuss Voigt Hill
#
# Bulk Modulus (GPa) = 29.71234 32.85300 31.28267
# Shear Modulus (GPa) = 20.49896 30.77202 25.63549
#
# Velocity S-wave (km/s) = 2.96665 3.63478 3.31758
# Velocity P-wave (km/s) = 4.94887 5.63211 5.30151
#
# Compressibility (1/GPa) = 0.03365605
#
# Stress axis : x y z
#
# Youngs Moduli (GPa) = 50.73716 80.28105 94.55722
#
# Poissons Ratio (x) = 0.35038 -0.13323
# Poissons Ratio (y) = 0.22144 0.15008
# Poissons Ratio (z) = -0.07149 0.12742
#
# Static dielectric constant tensor:
#      x y z
#    x 1.863940 0.000000 0.019860 
#    y 0.000000 1.926600 0.000000 
#    z 0.019860 0.000000 1.875150 
# 
# From -- ./inp_files/8684.got.cif
#   From: 2010.05.17/outbox.cif.g08.bks.cpg/sg8_5_cif.got.tgz:8684.got - 2010.06.03 19:46:02.
