data_PCOD9133265
_publ_section_title
;
Structure prediction by ZEFSAII (Michael W. Deem and Ramdas Pophale) SiO2 
 PCOD9133265
Probable space group: C M
;
_chemical_formula_sum "Si O2"
_cell_formula_units_Z 30
_cell_length_a 16.060006
_cell_length_b 18.708131
_cell_length_c 17.346460
_cell_angle_alpha 90.000000
_cell_angle_beta 163.906734
_cell_angle_gamma 90.000000
_cell_volume 1444.717394
_symmetry_space_group_name_H-M "C M"
_symmetry_group_IT_number 8
_symmetry_cell_setting 'monoclinic'
loop_
_space_group_symop_operation_xyz
x,y,z
x,-y,z
1/2+x,1/2+y,z
1/2+x,1/2-y,z
loop_
_atom_site_type_symbol
_atom_site_label
_atom_site_fract_x
_atom_site_fract_y
_atom_site_fract_z
Si Si1 0.143970 0.263134 0.670220
Si Si2 0.398731 0.419335 0.115079
Si Si3 0.298419 0.262746 0.218664
Si Si4 0.746907 0.500000 0.130389
Si Si5 0.129291 0.799630 0.827103
Si Si6 0.304631 0.576654 0.849562
Si Si7 0.525563 0.860285 0.305864
Si Si8 0.303176 0.156881 0.589787
O O1 0.164668 0.348761 0.699473
O O2 0.860656 0.248910 0.364243
O O3 0.149420 0.222930 0.756414
O O4 0.442263 0.235872 0.890564
O O5 0.468705 0.500000 0.201093
O O6 0.390698 0.415415 0.015313
O O7 0.062920 0.398381 0.843960
O O8 0.652069 0.368424 0.375352
O O9 0.420748 0.196115 0.277896
O O10 0.509886 0.328209 0.380522
O O11 0.585769 0.560655 0.044180
O O12 0.891082 0.436522 0.205851
O O13 0.884227 0.861134 0.623422
O O14 0.991255 0.729282 0.744963
O O15 0.420293 0.825161 0.131645
O O16 0.125416 0.500000 0.682817
#
# Coordination Sequence:
#
# PCOD9133265 Si02
#       8
#     4   4   4   2   4   4   4   4
#     4  12  22  40  61  93 123 164 210 264 305 366
#     4  11  22  39  57  90 126 163 200 233 310 388
#     4  11  23  37  62  92 122 154 213 259 316 357
#     4  10  22  42  64  92 140 160 204 250 318 400
#     4  11  24  39  64  86 129 166 215 254 304 365
#     4   9  21  36  57  94 133 167 188 241 313 384
#     4  11  23  42  59  96 124 170 203 251 315 386
#     4  11  22  37  60  86 126 163 200 256 301 373
#
# _framework density 20.765305999999999
#
# number of rings (size 3 to 8) (size 9 to 14) (size 15 to 20)
#    0.400    0.800    2.667    5.200    1.867    0.533 
#    1.200    0.000    0.000    0.000   34.667    0.000 
#    0.000    0.000    0.000    0.000    0.000    0.000 
#
# Total GULP energy -83505.477824 kJ/mol
# GULP energy per Si atom -5567.031855 kJ/mol
# Density = 2.071804 g / cm^3
# Si number density = 20.765306 Si / 1000 Ang^3
#
#
#
# Elastic Constant Matrix: (Units=GPa)
#
#
# Indices 1 2 3 4 5 6 
#
# 1 67.1835 26.7607 -2.2059 0.0699 -2.7227 0.0376
# 2 26.7607 76.5113 7.6901 0.0180 1.5419 -0.0042
# 3 -2.2059 7.6901 64.4243 0.0007 5.2710 -0.0123
# 4 0.0699 0.0180 0.0007 11.4941 0.0532 1.4185
# 5 -2.7227 1.5419 5.2710 0.0532 23.8254 0.0395
# 6 0.0376 -0.0042 -0.0123 1.4185 0.0395 27.2664
#
#
#
# Elastic Compliance Matrix: (Units=1/GPa)
#
#
# Indices 1 2 3 4 5 6 
#
# 1 0.017515 -0.006287 0.001174 -0.000104 0.002149 -0.000022
# 2 -0.006287 0.015492 -0.001959 0.000019 -0.001288 0.000011
# 3 0.001174 -0.001959 0.016066 0.000009 -0.003293 0.000010
# 4 -0.000104 0.000019 0.000009 0.087565 -0.000203 -0.004555
# 5 0.002149 -0.001288 -0.003293 -0.000203 0.043030 -0.000056
# 6 -0.000022 0.000011 0.000010 -0.004555 -0.000056 0.036912
#
#
# Mechanical properties :
#
#
# Convention : Reuss Voigt Hill
#
# Bulk Modulus (GPa) = 28.63022 30.28988 29.46005
# Shear Modulus (GPa) = 20.62997 24.24214 22.43606
#
# Velocity S-wave (km/s) = 3.15538 3.42048 3.29060
# Velocity P-wave (km/s) = 5.20506 5.49709 5.35307
#
# Compressibility (1/GPa) = 0.03492813
#
# Stress axis : x y z
#
# Youngs Moduli (GPa) = 57.09474 64.54989 62.24479
#
# Poissons Ratio (x) = 0.40585 -0.07310
# Poissons Ratio (y) = 0.35897 0.12195
# Poissons Ratio (z) = -0.06705 0.12646
#
# Static dielectric constant tensor:
#      x y z
#    x 1.772400 0.000010 0.013160 
#    y 0.000010 1.742250 -0.000060 
#    z 0.013160 -0.000060 1.766140 
# 
# From -- ./inp_files/27057.got.cif
#   From: 2010.05.17/outbox.cif.g08.bks.cpg/sg8_14_cif.got.tgz:27057.got - 2010.06.03 19:46:02.
