data_PCOD9133798
_publ_section_title
;
Structure prediction by ZEFSAII (Michael W. Deem and Ramdas Pophale) SiO2 
 PCOD9133798
Probable space group: C C
;
_chemical_formula_sum "Si O2"
_cell_formula_units_Z 32
_cell_length_a 11.949246
_cell_length_b 9.795619
_cell_length_c 15.130311
_cell_angle_alpha 90.000000
_cell_angle_beta 130.715521
_cell_angle_gamma 90.000000
_cell_volume 1342.348210
_symmetry_space_group_name_H-M "C C"
_symmetry_group_IT_number 9
_symmetry_cell_setting 'monoclinic'
loop_
_space_group_symop_operation_xyz
x,y,z
x,-y,1/2+z
1/2+x,1/2+y,z
1/2+x,1/2-y,1/2+z
loop_
_atom_site_type_symbol
_atom_site_label
_atom_site_fract_x
_atom_site_fract_y
_atom_site_fract_z
Si Si1 0.551120 0.030055 0.051990
Si Si2 0.844654 0.288428 0.348316
Si Si3 0.800666 0.259734 0.127519
Si Si4 0.554090 0.458363 0.995177
Si Si5 0.997268 0.954734 0.652819
Si Si6 0.701515 0.873067 0.990444
Si Si7 0.554075 0.127913 0.245240
Si Si8 0.049939 0.133048 0.837136
O O1 0.680256 0.140272 0.090091
O O2 0.525719 0.039962 0.144126
O O3 0.612606 0.896447 0.035040
O O4 0.403556 0.078545 0.926950
O O5 0.871465 0.297729 0.257969
O O6 0.676637 0.238978 0.273257
O O7 0.939141 0.166052 0.439574
O O8 0.706820 0.387215 0.043917
O O9 0.923630 0.192019 0.129646
O O10 0.580419 0.524825 0.104054
O O11 0.483244 0.560560 0.888279
O O12 0.859429 0.059429 0.575809
O O13 0.074825 0.010255 0.781221
O O14 0.621786 0.948446 0.864925
O O15 0.687931 0.716274 0.951917
O O16 0.454274 0.241816 0.244650
#
# Coordination Sequence:
#
# PCOD9133798 Si02
#       8
#     4   4   4   4   4   4   4   4
#     4   9  18  34  57  82 112 144 200 249 286 370
#     4  10  16  34  57  80 105 154 196 238 300 357
#     4   9  20  33  56  89 111 154 205 244 300 370
#     4  11  20  35  62  85 118 153 202 251 296 373
#     4  11  19  37  63  80 120 162 197 250 312 362
#     4   9  21  35  55  88 113 147 200 247 294 361
#     4   9  19  33  56  84 107 152 193 237 305 356
#     4  10  21  37  58  86 118 154 197 248 305 365
#
# _framework density 23.838822
#
# number of rings (size 3 to 8) (size 9 to 14) (size 15 to 20)
#    0.750    1.500    2.500    2.250    0.000    0.000 
#    2.250    2.500    2.750    0.000    0.000    0.000 
#    0.000    0.000    0.000    0.000    0.000    0.000 
#
# Total GULP energy -89083.272613 kJ/mol
# GULP energy per Si atom -5567.704538 kJ/mol
# Density = 2.378456 g / cm^3
# Si number density = 23.838822 Si / 1000 Ang^3
#
#
#
# Elastic Constant Matrix: (Units=GPa)
#
#
# Indices 1 2 3 4 5 6 
#
# 1 47.7888 33.9038 16.1718 0.0000 -5.2589 0.0000
# 2 33.9038 50.0184 21.4531 0.0000 -3.5951 0.0000
# 3 16.1718 21.4531 92.9117 0.0000 -24.2749 0.0000
# 4 0.0000 0.0000 0.0000 23.9685 0.0000 2.9222
# 5 -5.2589 -3.5951 -24.2749 0.0000 28.0262 0.0000
# 6 0.0000 0.0000 0.0000 2.9222 0.0000 23.3238
#
#
#
# Elastic Compliance Matrix: (Units=1/GPa)
#
#
# Indices 1 2 3 4 5 6 
#
# 1 0.040793 -0.027510 0.000426 0.000000 0.004495 0.000000
# 2 -0.027510 0.040835 -0.005972 0.000000 -0.005097 0.000000
# 3 0.000426 -0.005972 0.015366 0.000000 0.012623 0.000000
# 4 0.000000 0.000000 0.000000 0.042369 0.000000 -0.005308
# 5 0.004495 -0.005097 0.012623 0.000000 0.046804 0.000000
# 6 0.000000 0.000000 0.000000 -0.005308 0.000000 0.043540
#
#
# Mechanical properties :
#
#
# Convention : Reuss Voigt Hill
#
# Bulk Modulus (GPa) = 32.38204 37.08627 34.73416
# Shear Modulus (GPa) = 16.33390 23.00971 19.67181
#
# Velocity S-wave (km/s) = 2.62044 3.11017 2.87575
# Velocity P-wave (km/s) = 4.77167 5.33745 5.06247
#
# Compressibility (1/GPa) = 0.03088131
#
# Stress axis : x y z
#
# Youngs Moduli (GPa) = 24.51400 24.48880 65.08048
#
# Poissons Ratio (x) = 0.67370 -0.02773
# Poissons Ratio (y) = 0.67439 0.38866
# Poissons Ratio (z) = -0.01045 0.14625
#
# Static dielectric constant tensor:
#      x y z
#    x 2.102720 0.000000 -0.005430 
#    y 0.000000 1.971530 0.000000 
#    z -0.005430 0.000000 2.006110 
# 
# From -- ./inp_files/25805.got.cif
#   From: 2010.05.17/outbox.cif.g08.bks.cpg/sg9_13_cif.got.tgz:25805.got - 2010.06.03 20:04:27.
