data_PCOD9133215
_publ_section_title
;
Structure prediction by ZEFSAII (Michael W. Deem and Ramdas Pophale) SiO2 
 PCOD9133215
Probable space group: C M
;
_chemical_formula_sum "Si O2"
_cell_formula_units_Z 20
_cell_length_a 19.246041
_cell_length_b 9.650128
_cell_length_c 11.926089
_cell_angle_alpha 90.000000
_cell_angle_beta 155.323678
_cell_angle_gamma 90.000000
_cell_volume 924.741306
_symmetry_space_group_name_H-M "C M"
_symmetry_group_IT_number 8
_symmetry_cell_setting 'monoclinic'
loop_
_space_group_symop_operation_xyz
x,y,z
x,-y,z
1/2+x,1/2+y,z
1/2+x,1/2-y,z
loop_
_atom_site_type_symbol
_atom_site_label
_atom_site_fract_x
_atom_site_fract_y
_atom_site_fract_z
Si Si1 0.419860 0.346510 0.673810
Si Si2 0.790957 0.655056 0.789986
Si Si3 0.614307 0.336795 0.292693
Si Si4 0.697023 0.157962 0.044660
Si Si5 0.040051 0.773904 0.614121
O O1 0.410008 0.500000 0.709981
O O2 0.252241 0.259052 0.435631
O O3 0.475840 0.360527 0.626790
O O4 0.566527 0.243390 0.929795
O O5 0.865583 0.500000 0.892055
O O6 0.671371 0.672843 0.506924
O O7 0.675561 0.664422 0.730418
O O8 0.934039 0.770422 0.006989
O O9 0.622335 0.500000 0.273241
O O10 0.869137 0.243013 0.295585
O O11 0.715401 0.000000 0.108440
O O12 0.624422 0.153845 0.811321
#
# Coordination Sequence:
#
# PCOD9133215 Si02
#       5
#     4   4   4   4   4
#     4  10  23  42  68  97 128 169 215 266 321 381
#     4  11  24  45  67  93 131 174 213 263 322 382
#     4  11  26  44  66  95 131 172 216 263 321 384
#     4  10  22  40  65  96 130 165 209 265 317 374
#     4  10  23  41  70  95 128 166 217 263 319 379
#
# _framework density 21.627672
#
# number of rings (size 3 to 8) (size 9 to 14) (size 15 to 20)
#    1.200    0.400    0.000    4.200    2.800    4.800 
#    0.000    0.000    0.000    0.000    0.000    0.000 
#    0.000    0.000    0.000    0.000    0.000    0.000 
#
# Total GULP energy -55679.141471 kJ/mol
# GULP energy per Si atom -5567.914147 kJ/mol
# Density = 2.157845 g / cm^3
# Si number density = 21.627672 Si / 1000 Ang^3
#
#
#
# Elastic Constant Matrix: (Units=GPa)
#
#
# Indices 1 2 3 4 5 6 
#
# 1 69.6587 20.2929 5.9215 0.0000 5.3328 0.0000
# 2 20.2929 109.3007 46.0249 0.0000 -10.6850 0.0000
# 3 5.9215 46.0249 121.3257 0.0000 2.3190 0.0000
# 4 0.0000 0.0000 0.0000 -34.5120 0.0000 -92.1970
# 5 5.3328 -10.6850 2.3190 0.0000 31.5070 0.0000
# 6 0.0000 0.0000 0.0000 -92.1970 0.0000 -117.6433
#
#
#
# Elastic Compliance Matrix: (Units=1/GPa)
#
#
# Indices 1 2 3 4 5 6 
#
# 1 0.015636 -0.003564 0.000664 0.000000 -0.003904 0.000000
# 2 -0.003564 0.012229 -0.004562 0.000000 0.005086 0.000000
# 3 0.000664 -0.004562 0.009986 0.000000 -0.002395 0.000000
# 4 0.000000 0.000000 0.000000 0.026495 0.000000 -0.020764
# 5 -0.003904 0.005086 -0.002395 0.000000 0.034301 0.000000
# 6 0.000000 0.000000 0.000000 -0.020764 0.000000 0.007773
#
#
# Mechanical properties :
#
#
# Convention : Reuss Voigt Hill
#
# Bulk Modulus (GPa) = 43.61855 49.41817 46.51836
# Shear Modulus (GPa) = 38.76302 -8.92660 14.91821
#
# Velocity S-wave (km/s) = 4.23814 -2.03380 2.62920
# Velocity P-wave (km/s) = 6.64536 4.16941 5.54729
#
# Compressibility (1/GPa) = 0.02292602
#
# Stress axis : x y z
#
# Youngs Moduli (GPa) = 63.95297 81.77154 100.13606
#
# Poissons Ratio (x) = 0.29145 -0.06644
# Poissons Ratio (y) = 0.22794 0.45686
# Poissons Ratio (z) = -0.04243 0.37308
#
# Static dielectric constant tensor:
#      x y z
#    x 1.825090 0.000000 -0.061210 
#    y 0.000000 1.904940 0.000000 
#    z -0.061210 0.000000 1.863200 
# 
# From -- ./inp_files/15908.got.cif
#   From: 2010.05.17/outbox.cif.g08.bks.cpg/sg8_8_cif.got.tgz:15908.got - 2010.06.03 19:46:02.
