data_PCOD9133463
_publ_section_title
;
Structure prediction by ZEFSAII (Michael W. Deem and Ramdas Pophale) SiO2 
 PCOD9133463
Probable space group: C M
;
_chemical_formula_sum "Si O2"
_cell_formula_units_Z 18
_cell_length_a 10.562377
_cell_length_b 7.516214
_cell_length_c 9.584113
_cell_angle_alpha 90.000000
_cell_angle_beta 104.396072
_cell_angle_gamma 90.000000
_cell_volume 736.982686
_symmetry_space_group_name_H-M "C M"
_symmetry_group_IT_number 8
_symmetry_cell_setting 'monoclinic'
loop_
_space_group_symop_operation_xyz
x,y,z
x,-y,z
1/2+x,1/2+y,z
1/2+x,1/2-y,z
loop_
_atom_site_type_symbol
_atom_site_label
_atom_site_fract_x
_atom_site_fract_y
_atom_site_fract_z
Si Si1 0.829520 0.291655 0.862110
Si Si2 0.192164 0.205150 0.368320
Si Si3 0.401303 0.784631 0.197357
Si Si4 0.429265 0.500000 0.668220
Si Si5 0.088959 0.300604 0.625090
O O1 0.864692 0.500000 0.854133
O O2 0.400032 0.343382 0.777731
O O3 0.678017 0.270396 0.775907
O O4 0.854420 0.241442 0.028666
O O5 0.294069 0.273077 0.281606
O O6 0.181677 0.304689 0.513341
O O7 0.046551 0.215555 0.264728
O O8 0.224733 0.000000 0.409493
O O9 0.408278 0.000000 0.209440
O O10 0.478731 0.656584 0.573200
O O11 0.043083 0.500000 0.635541
#
# Coordination Sequence:
#
# PCOD9133463 Si02
#       5
#     4   4   4   2   4
#     4  11  25  47  74 107 144 190 241 303 360 434
#     4  11  25  46  72 105 147 191 242 300 364 434
#     4  10  26  46  71 106 146 189 239 301 365 432
#     4  12  26  46  74 106 142 194 246 294 372 418
#     4  12  26  46  73 106 145 192 241 304 359 434
#
# _framework density 24.423909999999999
#
# number of rings (size 3 to 8) (size 9 to 14) (size 15 to 20)
#    0.000    0.889    3.333    1.333    7.778    1.778 
#    0.000    0.000    0.000    0.000    0.000    0.000 
#    0.000    0.000    0.000    0.000    0.000    0.000 
#
# Total GULP energy -50169.631496 kJ/mol
# GULP energy per Si atom -5574.403500 kJ/mol
# Density = 2.436832 g / cm^3
# Si number density = 24.423910 Si / 1000 Ang^3
#
#
#
# Elastic Constant Matrix: (Units=GPa)
#
#
# Indices 1 2 3 4 5 6 
#
# 1 128.9212 14.3731 54.2504 0.0000 -13.3406 0.0000
# 2 14.3731 171.5200 27.2888 0.0000 -20.8895 0.0000
# 3 54.2504 27.2888 148.4994 0.0000 12.6825 0.0000
# 4 0.0000 0.0000 0.0000 -31.1776 0.0000 -15.0724
# 5 -13.3406 -20.8895 12.6825 0.0000 40.7443 0.0000
# 6 0.0000 0.0000 0.0000 -15.0724 0.0000 12.4197
#
#
#
# Elastic Compliance Matrix: (Units=1/GPa)
#
#
# Indices 1 2 3 4 5 6 
#
# 1 0.009929 0.000397 -0.004105 0.000000 0.004732 0.000000
# 2 0.000397 0.006556 -0.001693 0.000000 0.004018 0.000000
# 3 -0.004105 -0.001693 0.008972 0.000000 -0.005005 0.000000
# 4 0.000000 0.000000 0.000000 -0.020215 0.000000 -0.024532
# 5 0.004732 0.004018 -0.005005 0.000000 0.029711 0.000000
# 6 0.000000 0.000000 0.000000 -0.024532 0.000000 0.050745
#
#
# Mechanical properties :
#
#
# Convention : Reuss Voigt Hill
#
# Bulk Modulus (GPa) = 68.22912 71.19613 69.71262
# Shear Modulus (GPa) = 49.31713 27.93249 38.62481
#
# Velocity S-wave (km/s) = 4.49844 3.38546 3.98104
# Velocity P-wave (km/s) = 7.41467 6.67048 7.05240
#
# Compressibility (1/GPa) = 0.01465650
#
# Stress axis : x y z
#
# Youngs Moduli (GPa) = 100.71197 152.53992 111.45684
#
# Poissons Ratio (x) = -0.06061 0.45749
# Poissons Ratio (y) = -0.04002 0.18870
# Poissons Ratio (z) = 0.41338 0.25825
#
# Static dielectric constant tensor:
#      x y z
#    x 2.076550 0.000000 0.037930 
#    y 0.000000 1.903020 0.000000 
#    z 0.037930 0.000000 1.894340 
# 
# From -- ./inp_files/9641.got.cif
#   From: 2010.05.17/outbox.cif.g08.bks.cpg/sg8_5_cif.got.tgz:9641.got - 2010.06.03 19:46:02.
