data_PCOD9133827
_publ_section_title
;
Structure prediction by ZEFSAII (Michael W. Deem and Ramdas Pophale) SiO2 
 PCOD9133827
Probable space group: C C
;
_chemical_formula_sum "Si O2"
_cell_formula_units_Z 24
_cell_length_a 10.448351
_cell_length_b 17.709564
_cell_length_c 8.816148
_cell_angle_alpha 90.000000
_cell_angle_beta 148.299739
_cell_angle_gamma 90.000000
_cell_volume 857.209528
_symmetry_space_group_name_H-M "C C"
_symmetry_group_IT_number 9
_symmetry_cell_setting 'monoclinic'
loop_
_space_group_symop_operation_xyz
x,y,z
x,-y,1/2+z
1/2+x,1/2+y,z
1/2+x,1/2-y,1/2+z
loop_
_atom_site_type_symbol
_atom_site_label
_atom_site_fract_x
_atom_site_fract_y
_atom_site_fract_z
Si Si1 0.185030 0.940379 0.957650
Si Si2 0.863897 0.191456 0.042676
Si Si3 0.917836 0.949033 0.976204
Si Si4 0.558555 0.930535 0.073382
Si Si5 0.201429 0.289031 0.715493
Si Si6 0.904286 0.712484 0.294376
O O1 0.092074 0.855383 0.837170
O O2 0.001659 0.002935 0.703747
O O3 0.155501 0.948883 0.107095
O O4 0.420394 0.946340 0.091264
O O5 0.707109 0.201979 0.036589
O O6 0.917550 0.261379 0.986438
O O7 0.766671 0.129686 0.824832
O O8 0.808775 0.866574 0.891950
O O9 0.700430 0.994490 0.673222
O O10 0.403161 0.879201 0.798513
O O11 0.919293 0.271285 0.466751
O O12 0.652356 0.749088 0.981885
#
# Coordination Sequence:
#
# PCOD9133827 Si02
#       6
#     4   4   4   4   4   4
#     4  10  21  40  62  93 131 175 217 270 332 397
#     4   9  19  32  56  97 124 161 209 275 333 386
#     4  10  25  40  64  97 129 174 226 269 340 404
#     4  10  20  35  60  89 136 170 206 268 333 393
#     4  11  24  38  63  95 130 170 222 284 336 394
#     4  10  17  29  53  87 124 158 200 260 326 376
#
# _framework density 27.997824999999999
#
# number of rings (size 3 to 8) (size 9 to 14) (size 15 to 20)
#    0.000    2.000    1.667    2.000    9.333    2.667 
#    0.000    0.000    0.000    6.000    0.000    0.000 
#    0.000    0.000    0.000    0.000    0.000    0.000 
#
# Total GULP energy -67127.881801 kJ/mol
# GULP energy per Si atom -5593.990150 kJ/mol
# Density = 2.793410 g / cm^3
# Si number density = 27.997825 Si / 1000 Ang^3
#
#
#
# Elastic Constant Matrix: (Units=GPa)
#
#
# Indices 1 2 3 4 5 6 
#
# 1 109.3847 0.6481 19.4179 0.0000 34.4501 -0.0001
# 2 0.6481 132.7556 16.5338 -0.0001 3.8982 0.0000
# 3 19.4179 16.5338 91.4629 0.0003 13.9956 0.0001
# 4 0.0000 -0.0001 0.0003 38.8338 0.0001 13.0727
# 5 34.4501 3.8982 13.9956 0.0001 55.3951 0.0000
# 6 -0.0001 0.0000 0.0001 13.0727 0.0000 27.5046
#
#
#
# Elastic Compliance Matrix: (Units=1/GPa)
#
#
# Indices 1 2 3 4 5 6 
#
# 1 0.011554 0.000327 -0.001466 0.000000 -0.006838 0.000000
# 2 0.000327 0.007717 -0.001405 0.000000 -0.000392 0.000000
# 3 -0.001466 -0.001405 0.011800 0.000000 -0.001971 0.000000
# 4 0.000000 0.000000 0.000000 0.030656 0.000000 -0.014570
# 5 -0.006838 -0.000392 -0.001971 0.000000 0.022830 0.000000
# 6 0.000000 0.000000 0.000000 -0.014570 0.000000 0.043283
#
#
# Mechanical properties :
#
#
# Convention : Reuss Voigt Hill
#
# Bulk Modulus (GPa) = 38.48410 45.20031 41.84220
# Shear Modulus (GPa) = 35.31364 44.14692 39.73028
#
# Velocity S-wave (km/s) = 3.55533 3.97520 3.77111
# Velocity P-wave (km/s) = 5.53435 6.10319 5.82572
#
# Compressibility (1/GPa) = 0.02598476
#
# Stress axis : x y z
#
# Youngs Moduli (GPa) = 86.55081 129.57611 84.74527
#
# Poissons Ratio (x) = -0.04236 0.12421
# Poissons Ratio (y) = -0.02830 0.11903
# Poissons Ratio (z) = 0.12686 0.18200
#
# Static dielectric constant tensor:
#      x y z
#    x 2.184740 0.000000 0.022880 
#    y 0.000000 2.173860 0.000000 
#    z 0.022880 0.000000 2.370060 
# 
# From -- ./inp_files/1568.got.cif
#   From: 2010.05.17/outbox.cif.g08.bks.cpg/sg9_1_cif.got.tgz:1568.got - 2010.06.03 20:04:27.
