data_PCOD9133828
_publ_section_title
;
Structure prediction by ZEFSAII (Michael W. Deem and Ramdas Pophale) SiO2 
 PCOD9133828
Probable space group: C C
;
_chemical_formula_sum "Si O2"
_cell_formula_units_Z 32
_cell_length_a 10.928586
_cell_length_b 15.587074
_cell_length_c 8.818941
_cell_angle_alpha 90.000000
_cell_angle_beta 81.083912
_cell_angle_gamma 90.000000
_cell_volume 1484.106945
_symmetry_space_group_name_H-M "C C"
_symmetry_group_IT_number 9
_symmetry_cell_setting 'monoclinic'
loop_
_space_group_symop_operation_xyz
x,y,z
x,-y,1/2+z
1/2+x,1/2+y,z
1/2+x,1/2-y,1/2+z
loop_
_atom_site_type_symbol
_atom_site_label
_atom_site_fract_x
_atom_site_fract_y
_atom_site_fract_z
Si Si1 0.261660 0.338640 0.364140
Si Si2 0.732520 0.037275 0.426975
Si Si3 0.975056 0.534411 0.070486
Si Si4 0.651166 0.300837 0.454968
Si Si5 0.871130 0.186948 0.552203
Si Si6 0.343560 0.907138 0.292903
Si Si7 0.022296 0.257099 0.260443
Si Si8 0.647466 0.834758 0.696224
O O1 0.272795 0.440475 0.387579
O O2 0.139760 0.315371 0.287044
O O3 0.229689 0.303499 0.537711
O O4 0.372482 0.307440 0.234055
O O5 0.818108 0.093182 0.520002
O O6 0.721291 0.092052 0.275293
O O7 0.593831 0.027303 0.522377
O O8 0.866459 0.482186 0.170709
O O9 0.028093 0.615923 0.151576
O O10 0.924768 0.565397 0.921195
O O11 0.771327 0.256544 0.511417
O O12 0.704552 0.386929 0.370987
O O13 0.555275 0.302697 0.611130
O O14 0.616800 0.236693 0.325850
O O15 0.985910 0.206556 0.420672
O O16 0.410805 0.819142 0.229073
#
# Coordination Sequence:
#
# PCOD9133828 Si02
#       8
#     4   4   4   4   4   4   4   4
#     4  10  17  30  52  80 109 138 189 239 277 333
#     4  10  17  30  51  82 114 143 179 234 282 336
#     4  11  19  31  59  89 113 141 193 239 289 334
#     4   9  21  35  54  77 119 153 186 230 292 348
#     4   9  19  31  53  79 108 153 184 225 289 339
#     4  11  20  35  57  88 113 151 192 240 292 343
#     4  10  18  36  54  76 112 156 187 223 288 353
#     4  10  17  30  52  85 114 143 180 242 289 328
#
# _framework density 21.561786999999999
#
# number of rings (size 3 to 8) (size 9 to 14) (size 15 to 20)
#    0.000    2.000    3.750    3.750    0.000    0.000 
#    0.000    8.750    2.750    0.000    0.000    0.000 
#    0.000    0.000    0.000    0.000    0.000    0.000 
#
# Total GULP energy -89273.199324 kJ/mol
# GULP energy per Si atom -5579.574958 kJ/mol
# Density = 2.151271 g / cm^3
# Si number density = 21.561787 Si / 1000 Ang^3
#
#
#
# Elastic Constant Matrix: (Units=GPa)
#
#
# Indices 1 2 3 4 5 6 
#
# 1 22.5624 16.6535 15.9815 0.0000 -11.8591 0.0000
# 2 16.6535 51.4308 33.3185 0.0000 -17.5436 0.0000
# 3 15.9815 33.3185 158.2713 0.0000 -35.0033 0.0000
# 4 0.0000 0.0000 0.0000 31.3617 0.0000 -5.0226
# 5 -11.8591 -17.5436 -35.0033 0.0000 27.4643 0.0000
# 6 0.0000 0.0000 0.0000 -5.0226 0.0000 24.2175
#
#
#
# Elastic Compliance Matrix: (Units=1/GPa)
#
#
# Indices 1 2 3 4 5 6 
#
# 1 0.065064 -0.014942 0.000944 0.000000 0.019754 0.000000
# 2 -0.014942 0.028962 -0.002679 0.000000 0.008635 0.000000
# 3 0.000944 -0.002679 0.009049 0.000000 0.010230 0.000000
# 4 0.000000 0.000000 0.000000 0.032981 0.000000 0.006840
# 5 0.019754 0.008635 0.010230 0.000000 0.063495 0.000000
# 6 0.000000 0.000000 0.000000 0.006840 0.000000 0.042711
#
#
# Mechanical properties :
#
#
# Convention : Reuss Voigt Hill
#
# Bulk Modulus (GPa) = 14.34221 40.46350 27.40286
# Shear Modulus (GPa) = 16.73047 27.69611 22.21329
#
# Velocity S-wave (km/s) = 2.78858 3.58788 3.21318
# Velocity P-wave (km/s) = 4.12727 5.99757 5.14807
#
# Compressibility (1/GPa) = 0.06972424
#
# Stress axis : x y z
#
# Youngs Moduli (GPa) = 15.36947 34.52742 110.50612
#
# Poissons Ratio (x) = 0.51589 -0.10436
# Poissons Ratio (y) = 0.22964 0.29600
# Poissons Ratio (z) = -0.01451 0.09249
#
# Static dielectric constant tensor:
#      x y z
#    x 1.811560 0.000000 -0.045040 
#    y 0.000000 1.805440 0.000000 
#    z -0.045040 0.000000 1.861490 
# 
# From -- ./inp_files/7880.got.cif
#   From: 2010.05.17/outbox.cif.g08.bks.cpg/sg9_4_cif.got.tgz:7880.got - 2010.06.03 20:04:27.
