data_PCOD9133449
_publ_section_title
;
Structure prediction by ZEFSAII (Michael W. Deem and Ramdas Pophale) SiO2 
 PCOD9133449
Probable space group: C M
;
_chemical_formula_sum "Si O2"
_cell_formula_units_Z 26
_cell_length_a 9.682285
_cell_length_b 20.219093
_cell_length_c 9.403477
_cell_angle_alpha 90.000000
_cell_angle_beta 45.118904
_cell_angle_gamma 90.000000
_cell_volume 1304.404864
_symmetry_space_group_name_H-M "C M"
_symmetry_group_IT_number 8
_symmetry_cell_setting 'monoclinic'
loop_
_space_group_symop_operation_xyz
x,y,z
x,-y,z
1/2+x,1/2+y,z
1/2+x,1/2-y,z
loop_
_atom_site_type_symbol
_atom_site_label
_atom_site_fract_x
_atom_site_fract_y
_atom_site_fract_z
Si Si1 0.607920 0.616676 0.972730
Si Si2 0.951147 0.862166 0.399387
Si Si3 0.427877 0.716093 0.901002
Si Si4 0.027864 0.650535 0.670653
Si Si5 0.019598 0.706742 0.358124
Si Si6 0.146362 0.123340 0.541399
Si Si7 0.073289 0.000000 0.798254
O O1 0.571190 0.686469 0.918381
O O2 0.839317 0.604085 0.800013
O O3 0.506710 0.558685 0.959016
O O4 0.531795 0.621092 0.186353
O O5 0.726812 0.883508 0.573949
O O6 0.950200 0.782427 0.415480
O O7 0.089933 0.889563 0.420682
O O8 0.472017 0.790470 0.820372
O O9 0.477032 0.670698 0.729621
O O10 0.213937 0.706783 0.121463
O O11 0.060586 0.680604 0.488226
O O12 0.847786 0.662940 0.415262
O O13 0.146220 0.058034 0.634944
#
# Coordination Sequence:
#
# PCOD9133449 Si02
#       7
#     4   4   4   4   4   4   2
#     4  11  24  42  66  95 133 176 217 267 317 398
#     4  12  23  37  67 106 129 160 217 279 336 378
#     4  11  22  36  64 100 135 166 207 264 334 391
#     4  12  21  38  65 101 134 166 211 269 335 389
#     4  12  21  38  66 104 134 168 207 265 346 389
#     4  11  25  43  65  95 137 173 214 272 320 390
#     4  10  24  50  66  82 134 194 220 250 326 388
#
# _framework density 19.932462000000001
#
# number of rings (size 3 to 8) (size 9 to 14) (size 15 to 20)
#    0.000    0.615    9.231    0.000    0.000    1.846 
#    0.000    7.692    0.000    0.000    0.000    0.000 
#    0.000    0.000    0.000    0.000    0.000    0.000 
#
# Total GULP energy -72386.233072 kJ/mol
# GULP energy per Si atom -5568.171775 kJ/mol
# Density = 1.988709 g / cm^3
# Si number density = 19.932462 Si / 1000 Ang^3
#
#
#
# Elastic Constant Matrix: (Units=GPa)
#
#
# Indices 1 2 3 4 5 6 
#
# 1 96.6434 1.3214 41.3485 0.0000 10.0366 0.0000
# 2 1.3214 27.7889 2.5427 0.0000 9.2995 0.0000
# 3 41.3485 2.5427 112.7147 0.0000 9.6236 0.0000
# 4 0.0000 0.0000 0.0000 5.4703 0.0000 4.1651
# 5 10.0366 9.2995 9.6236 0.0000 39.9435 0.0000
# 6 0.0000 0.0000 0.0000 4.1651 0.0000 -3.8373
#
#
#
# Elastic Compliance Matrix: (Units=1/GPa)
#
#
# Indices 1 2 3 4 5 6 
#
# 1 0.012446 0.000545 -0.004391 0.000000 -0.002196 0.000000
# 2 0.000545 0.039051 -0.000299 0.000000 -0.009157 0.000000
# 3 -0.004391 -0.000299 0.010607 0.000000 -0.001383 0.000000
# 4 0.000000 0.000000 0.000000 0.100089 0.000000 0.108637
# 5 -0.002196 -0.009157 -0.001383 0.000000 0.028052 0.000000
# 6 0.000000 0.000000 0.000000 0.108637 0.000000 -0.142683
#
#
# Mechanical properties :
#
#
# Convention : Reuss Voigt Hill
#
# Bulk Modulus (GPa) = 18.58196 36.39692 27.48944
# Shear Modulus (GPa) = 67.75816 21.11093 44.43455
#
# Velocity S-wave (km/s) = 5.83675 3.25795 4.72662
# Velocity P-wave (km/s) = 7.40042 5.69667 6.60372
#
# Compressibility (1/GPa) = 0.05381564
#
# Stress axis : x y z
#
# Youngs Moduli (GPa) = 80.34388 25.60736 94.27343
#
# Poissons Ratio (x) = -0.01395 0.41392
# Poissons Ratio (y) = -0.04378 0.02819
# Poissons Ratio (z) = 0.35276 0.00766
#
# Static dielectric constant tensor:
#      x y z
#    x 1.763740 0.000000 -0.011550 
#    y 0.000000 1.646810 0.000000 
#    z -0.011550 0.000000 1.699790 
# 
# From -- ./inp_files/8768.got.cif
#   From: 2010.05.17/outbox.cif.g08.bks.cpg/sg8_5_cif.got.tgz:8768.got - 2010.06.03 19:46:02.
