data_PCOD9133939
_publ_section_title
;
Structure prediction by ZEFSAII (Michael W. Deem and Ramdas Pophale) SiO2 
 PCOD9133939
Probable space group: C C
;
_chemical_formula_sum "Si O2"
_cell_formula_units_Z 32
_cell_length_a 13.936042
_cell_length_b 19.574749
_cell_length_c 8.352350
_cell_angle_alpha 90.000000
_cell_angle_beta 34.321486
_cell_angle_gamma 90.000000
_cell_volume 1284.685962
_symmetry_space_group_name_H-M "C C"
_symmetry_group_IT_number 9
_symmetry_cell_setting 'monoclinic'
loop_
_space_group_symop_operation_xyz
x,y,z
x,-y,1/2+z
1/2+x,1/2+y,z
1/2+x,1/2-y,1/2+z
loop_
_atom_site_type_symbol
_atom_site_label
_atom_site_fract_x
_atom_site_fract_y
_atom_site_fract_z
Si Si1 0.977000 0.885548 0.832120
Si Si2 0.219770 0.501985 0.265406
Si Si3 0.395573 0.787907 0.796752
Si Si4 0.888233 0.274626 0.436197
Si Si5 0.743817 0.766698 0.819513
Si Si6 0.120280 0.597787 0.152375
Si Si7 0.523700 0.360379 0.101169
Si Si8 0.004681 0.106909 0.958045
O O1 0.084714 0.895064 0.522305
O O2 0.898757 0.808490 0.945565
O O3 0.819197 0.939244 0.039390
O O4 0.077907 0.893035 0.859261
O O5 0.104700 0.558826 0.339675
O O6 0.107775 0.463864 0.546836
O O7 0.379712 0.543101 0.114857
O O8 0.361292 0.803914 0.653873
O O9 0.502535 0.843368 0.747975
O O10 0.517488 0.721421 0.610630
O O11 0.253046 0.765716 0.127537
O O12 0.771009 0.280890 0.439209
O O13 0.065205 0.299060 0.114456
O O14 0.888538 0.824528 0.618491
O O15 0.319862 0.620810 0.881989
O O16 0.603561 0.388911 0.154521
#
# Coordination Sequence:
#
# PCOD9133939 Si02
#       8
#     4   4   4   4   4   4   4   4
#     4   9  17  33  49  78 114 150 190 244 300 357
#     4  10  18  31  53  84 116 151 204 257 304 355
#     4  10  22  36  57  86 127 161 203 262 318 374
#     4  10  23  37  61  89 129 166 205 257 318 380
#     4  10  23  38  59  94 124 165 205 258 322 381
#     4  10  20  32  57  85 118 157 197 265 312 362
#     4   8  18  32  48  76 113 146 189 234 307 364
#     4   9  17  31  50  78 117 144 191 253 297 353
#
# _framework density 24.908809999999999
#
# number of rings (size 3 to 8) (size 9 to 14) (size 15 to 20)
#    0.000    2.500    1.250    0.000   14.000    0.000 
#    0.000    0.000    0.000    0.000    6.500    0.000 
#    0.000    0.000    0.000    0.000    0.000    0.000 
#
# Total GULP energy -89195.208833 kJ/mol
# GULP energy per Si atom -5574.700552 kJ/mol
# Density = 2.485212 g / cm^3
# Si number density = 24.908810 Si / 1000 Ang^3
#
#
#
# Elastic Constant Matrix: (Units=GPa)
#
#
# Indices 1 2 3 4 5 6 
#
# 1 118.5637 50.2745 53.0024 -0.0001 57.5788 0.0000
# 2 50.2745 83.9634 13.7845 0.0002 11.2855 0.0000
# 3 53.0024 13.7845 94.8804 -0.0002 36.0279 -0.0001
# 4 -0.0001 0.0002 -0.0002 27.4800 0.0002 -2.2340
# 5 57.5788 11.2855 36.0279 0.0002 56.6858 0.0000
# 6 0.0000 0.0000 -0.0001 -2.2340 0.0000 33.9850
#
#
#
# Elastic Compliance Matrix: (Units=1/GPa)
#
#
# Indices 1 2 3 4 5 6 
#
# 1 0.025523 -0.011738 -0.004739 0.000000 -0.020576 0.000000
# 2 -0.011738 0.017728 0.001047 0.000000 0.007728 0.000000
# 3 -0.004739 0.001047 0.014876 0.000000 -0.004850 0.000000
# 4 0.000000 0.000000 0.000000 0.036586 0.000000 0.002405
# 5 -0.020576 0.007728 -0.004850 0.000000 0.040084 0.000000
# 6 0.000000 0.000000 0.000000 0.002405 0.000000 0.029583
#
#
# Mechanical properties :
#
#
# Convention : Reuss Voigt Hill
#
# Bulk Modulus (GPa) = 36.67577 59.05892 47.86735
# Shear Modulus (GPa) = 24.47032 35.65323 30.06178
#
# Velocity S-wave (km/s) = 3.13772 3.78742 3.47778
# Velocity P-wave (km/s) = 5.28044 6.54886 5.94856
#
# Compressibility (1/GPa) = 0.02726596
#
# Stress axis : x y z
#
# Youngs Moduli (GPa) = 39.18105 56.40847 67.22072
#
# Poissons Ratio (x) = 0.66215 0.31857
# Poissons Ratio (y) = 0.45992 -0.07039
# Poissons Ratio (z) = 0.18569 -0.05907
#
# Static dielectric constant tensor:
#      x y z
#    x 2.106310 0.000000 0.070410 
#    y 0.000000 2.036200 0.000000 
#    z 0.070410 0.000000 2.100740 
# 
# From -- ./inp_files/10013.got.cif
#   From: 2010.05.17/outbox.cif.g08.bks.cpg/sg9_6_cif.got.tgz:10013.got - 2010.06.03 20:04:27.
