data_PCOD9133638
_publ_section_title
;
Structure prediction by ZEFSAII (Michael W. Deem and Ramdas Pophale) SiO2 
 PCOD9133638
Probable space group: C M
;
_chemical_formula_sum "Si O2"
_cell_formula_units_Z 14
_cell_length_a 7.097117
_cell_length_b 13.936422
_cell_length_c 6.839834
_cell_angle_alpha 90.000000
_cell_angle_beta 39.706612
_cell_angle_gamma 90.000000
_cell_volume 432.197453
_symmetry_space_group_name_H-M "C M"
_symmetry_group_IT_number 8
_symmetry_cell_setting 'monoclinic'
loop_
_space_group_symop_operation_xyz
x,y,z
x,-y,z
1/2+x,1/2+y,z
1/2+x,1/2-y,z
loop_
_atom_site_type_symbol
_atom_site_label
_atom_site_fract_x
_atom_site_fract_y
_atom_site_fract_z
Si Si1 0.617350 0.355303 0.224520
Si Si2 0.272837 0.840132 0.725917
Si Si3 0.109488 0.340772 0.153165
Si Si4 0.072243 0.500000 0.595022
O O1 0.464940 0.243365 0.444683
O O2 0.321951 0.415606 0.469189
O O3 0.864570 0.372022 0.191759
O O4 0.795822 0.417237 0.894805
O O5 0.165419 0.770493 0.998927
O O6 0.959371 0.862015 0.872910
O O7 0.516459 0.912367 0.420024
#
# Coordination Sequence:
#
# PCOD9133638 Si02
#       4
#     4   4   4   2
#     4  12  28  52  79 118 152 206 256 326 371 474
#     4  12  28  52  75 115 158 200 254 325 374 463
#     4  12  29  48  87 107 154 207 267 302 396 445
#     4  12  28  52  78 116 164 196 258 320 394 450
#
# _framework density 32.392603000000001
#
# number of rings (size 3 to 8) (size 9 to 14) (size 15 to 20)
#    0.000    0.000    5.714    0.857   12.000    2.286 
#    0.000    0.000    0.000    0.000    0.000    0.000 
#    0.000    0.000    0.000    0.000    0.000    0.000 
#
# Total GULP energy -38987.167927 kJ/mol
# GULP energy per Si atom -5569.595418 kJ/mol
# Density = 3.231888 g / cm^3
# Si number density = 32.392603 Si / 1000 Ang^3
#
#
#
# Elastic Constant Matrix: (Units=GPa)
#
#
# Indices 1 2 3 4 5 6 
#
# 1 363.7910 79.5022 102.2443 0.0025 -42.7455 0.0019
# 2 79.5022 340.9419 69.1119 0.0007 -22.9001 0.0004
# 3 102.2443 69.1119 331.2616 0.0055 0.5149 0.0040
# 4 0.0025 0.0007 0.0055 64.4834 -0.0030 -60.5406
# 5 -42.7455 -22.9001 0.5149 -0.0030 124.3381 -0.0023
# 6 0.0019 0.0004 0.0040 -60.5406 -0.0023 -41.6497
#
#
#
# Elastic Compliance Matrix: (Units=1/GPa)
#
#
# Indices 1 2 3 4 5 6 
#
# 1 0.003230 -0.000503 -0.000893 0.000000 0.001021 0.000000
# 2 -0.000503 0.003182 -0.000509 0.000000 0.000415 0.000000
# 3 -0.000893 -0.000509 0.003401 0.000000 -0.000415 0.000000
# 4 0.000000 0.000000 0.000000 0.006558 0.000000 -0.009533
# 5 0.001021 0.000415 -0.000415 0.000000 0.008472 0.000000
# 6 0.000000 0.000000 0.000000 -0.009533 0.000000 -0.010153
#
#
# Mechanical properties :
#
#
# Convention : Reuss Voigt Hill
#
# Bulk Modulus (GPa) = 166.64047 170.85682 168.74864
# Shear Modulus (GPa) = 243.88297 81.77676 162.82986
#
# Velocity S-wave (km/s) = 8.68638 5.02994 7.09766
# Velocity P-wave (km/s) = 12.33531 9.30558 10.92597
#
# Compressibility (1/GPa) = 0.00600094
#
# Stress axis : x y z
#
# Youngs Moduli (GPa) = 309.59869 314.31665 293.99821
#
# Poissons Ratio (x) = 0.15825 0.26268
# Poissons Ratio (y) = 0.15587 0.14965
# Poissons Ratio (z) = 0.27662 0.15999
#
# Static dielectric constant tensor:
#      x y z
#    x 2.324520 0.000010 0.406960 
#    y 0.000010 -0.493680 0.000000 
#    z 0.406960 0.000000 2.514060 
# 
# From -- ./inp_files/1097.got.cif
#   From: 2010.05.17/outbox.cif.g08.bks.cpg/sg8_1_cif.got.tgz:1097.got - 2010.06.03 19:46:02.
