data_PCOD9133541
_publ_section_title
;
Structure prediction by ZEFSAII (Michael W. Deem and Ramdas Pophale) SiO2 
 PCOD9133541
Probable space group: C M
;
_chemical_formula_sum "Si O2"
_cell_formula_units_Z 32
_cell_length_a 25.888247
_cell_length_b 7.446847
_cell_length_c 26.932478
_cell_angle_alpha 90.000000
_cell_angle_beta 16.319011
_cell_angle_gamma 90.000000
_cell_volume 1458.931072
_symmetry_space_group_name_H-M "C M"
_symmetry_group_IT_number 8
_symmetry_cell_setting 'monoclinic'
loop_
_space_group_symop_operation_xyz
x,y,z
x,-y,z
1/2+x,1/2+y,z
1/2+x,1/2-y,z
loop_
_atom_site_type_symbol
_atom_site_label
_atom_site_fract_x
_atom_site_fract_y
_atom_site_fract_z
Si Si1 0.037360 0.292851 0.096160
Si Si2 0.570120 0.280027 0.675246
Si Si3 0.943615 0.280378 0.381345
Si Si4 0.967796 0.207893 0.664841
Si Si5 0.850349 0.781817 0.669072
Si Si6 0.455374 0.210275 0.068008
Si Si7 0.664033 0.780287 0.081873
Si Si8 0.582050 0.208228 0.359209
O O1 0.976384 0.500000 0.158265
O O2 0.043342 0.216375 0.146042
O O3 0.934542 0.213196 0.143173
O O4 0.252801 0.291128 0.880382
O O5 0.570353 0.500000 0.673104
O O6 0.741735 0.223272 0.549789
O O7 0.575699 0.217187 0.612639
O O8 0.374470 0.226163 0.878688
O O9 0.939640 0.500000 0.386115
O O10 0.083054 0.226373 0.209167
O O11 0.006073 0.215505 0.377705
O O12 0.964732 0.282495 0.612002
O O13 0.024525 0.000000 0.607829
O O14 0.936292 0.725924 0.538011
O O15 0.855348 0.000000 0.665225
O O16 0.639999 0.720365 0.871324
O O17 0.274597 0.220403 0.202105
O O18 0.493732 0.000000 0.041134
O O19 0.661091 0.000000 0.082829
O O20 0.116977 0.500000 0.317678
#
# Coordination Sequence:
#
# PCOD9133541 Si02
#       8
#     4   4   4   4   4   4   4   4
#     4   7  11  22  43  71  95 112 141 192 249 295
#     4   8  13  23  40  62  89 117 145 187 243 292
#     4   9  18  28  37  57  91 129 162 187 224 282
#     4   7  11  22  43  71  95 112 141 192 249 295
#     4   9  18  34  55  76  98 126 162 205 249 291
#     4   9  18  34  55  76  98 126 162 205 249 291
#     4   8  13  23  40  62  89 117 145 187 243 292
#     4  11  23  34  45  69 105 139 170 201 234 282
#
# _framework density 21.933869000000001
#
# number of rings (size 3 to 8) (size 9 to 14) (size 15 to 20)
#    0.000    3.500    0.000    3.375    0.000    2.500 
#    0.000    6.250    0.000    0.000    0.000    7.000 
#    0.000    4.000    0.000    0.000    0.000    0.000 
#
# Total GULP energy -89214.075999 kJ/mol
# GULP energy per Si atom -5575.879750 kJ/mol
# Density = 2.188395 g / cm^3
# Si number density = 21.933869 Si / 1000 Ang^3
#
#
#
# Elastic Constant Matrix: (Units=GPa)
#
#
# Indices 1 2 3 4 5 6 
#
# 1 248.7847 -2.0964 97.2287 -0.0332 3.8101 0.0133
# 2 -2.0964 59.8710 -8.1139 -0.0242 -2.2294 0.0063
# 3 97.2287 -8.1139 107.7001 -0.0786 1.8751 0.0240
# 4 -0.0332 -0.0242 -0.0786 21.7309 0.0101 -6.9286
# 5 3.8101 -2.2294 1.8751 0.0101 36.5145 -0.0026
# 6 0.0133 0.0063 0.0240 -6.9286 -0.0026 14.3422
#
#
#
# Elastic Compliance Matrix: (Units=1/GPa)
#
#
# Indices 1 2 3 4 5 6 
#
# 1 0.006234 -0.000564 -0.005664 -0.000012 -0.000394 -0.000002
# 2 -0.000564 0.016960 0.001769 0.000025 0.001003 0.000002
# 3 -0.005664 0.001769 0.014532 0.000047 -0.000047 0.000003
# 4 -0.000012 0.000025 0.000047 0.054396 -0.000013 0.026278
# 5 -0.000394 0.001003 -0.000047 -0.000013 0.027491 -0.000001
# 6 -0.000002 0.000002 0.000003 0.026278 -0.000001 0.082419
#
#
# Mechanical properties :
#
#
# Convention : Reuss Voigt Hill
#
# Bulk Modulus (GPa) = 34.71029 65.59918 50.15473
# Shear Modulus (GPa) = 22.67028 36.47334 29.57181
#
# Velocity S-wave (km/s) = 3.21841 4.08226 3.67580
# Velocity P-wave (km/s) = 5.44704 7.22444 6.39776
#
# Compressibility (1/GPa) = 0.02880990
#
# Stress axis : x y z
#
# Youngs Moduli (GPa) = 160.40245 58.96228 68.81213
#
# Poissons Ratio (x) = 0.03325 0.38974
# Poissons Ratio (y) = 0.09046 -0.12176
# Poissons Ratio (z) = 0.90849 -0.10433
#
# Static dielectric constant tensor:
#      x y z
#    x 1.815580 -0.000010 0.000370 
#    y -0.000010 1.899430 0.000010 
#    z 0.000370 0.000010 1.777850 
# 
# From -- ./inp_files/16107.got.cif
#   From: 2010.05.17/outbox.cif.g08.bks.cpg/sg8_9_cif.got.tgz:16107.got - 2010.06.03 19:46:02.
