data_PCOD9133086
_publ_section_title
;
Structure prediction by ZEFSAII (Michael W. Deem and Ramdas Pophale) SiO2 
 PCOD9133086
Probable space group: C M
;
_chemical_formula_sum "Si O2"
_cell_formula_units_Z 20
_cell_length_a 9.873496
_cell_length_b 14.089503
_cell_length_c 7.607522
_cell_angle_alpha 90.000000
_cell_angle_beta 129.370394
_cell_angle_gamma 90.000000
_cell_volume 818.132909
_symmetry_space_group_name_H-M "C M"
_symmetry_group_IT_number 8
_symmetry_cell_setting 'monoclinic'
loop_
_space_group_symop_operation_xyz
x,y,z
x,-y,z
1/2+x,1/2+y,z
1/2+x,1/2-y,z
loop_
_atom_site_type_symbol
_atom_site_label
_atom_site_fract_x
_atom_site_fract_y
_atom_site_fract_z
Si Si1 0.564140 0.386097 0.284180
Si Si2 0.683856 0.892074 0.524558
Si Si3 0.189298 0.387794 0.109945
Si Si4 0.317631 0.203156 0.781708
Si Si5 0.777781 0.612585 0.125951
O O1 0.567129 0.500000 0.288898
O O2 0.689877 0.348047 0.538785
O O3 0.015075 0.332803 0.913174
O O4 0.367206 0.355643 0.164416
O O5 0.729698 0.000000 0.613711
O O6 0.718110 0.880148 0.344184
O O7 0.474211 0.878844 0.366374
O O8 0.160550 0.500000 0.050001
O O9 0.284654 0.313417 0.716029
O O10 0.143865 0.145353 0.164475
O O11 0.268119 0.166748 0.934808
O O12 0.751488 0.500000 0.068769
#
# Coordination Sequence:
#
# PCOD9133086 Si02
#       5
#     4   4   4   4   4
#     4  10  21  41  73 111 148 185 231 291 360 434
#     4   9  20  42  71 103 144 191 243 301 356 418
#     4   9  20  43  73 107 145 185 235 295 358 432
#     4  11  21  41  76 102 140 198 244 288 356 426
#     4   9  20  43  73 107 145 185 235 295 358 432
#
# _framework density 24.445906000000001
#
# number of rings (size 3 to 8) (size 9 to 14) (size 15 to 20)
#    0.000    2.400    0.000    3.000    0.000    1.600 
#    0.000   22.000    0.000   48.000    0.000    0.000 
#    0.000    0.000    0.000    0.000    0.000    0.000 
#
# Total GULP energy -56131.272900 kJ/mol
# GULP energy per Si atom -5613.127290 kJ/mol
# Density = 2.439027 g / cm^3
# Si number density = 24.445906 Si / 1000 Ang^3
#
#
#
# Elastic Constant Matrix: (Units=GPa)
#
#
# Indices 1 2 3 4 5 6 
#
# 1 254.2393 87.2949 113.1265 0.0000 10.7064 0.0000
# 2 87.2949 147.3363 107.1574 0.0000 13.7001 0.0000
# 3 113.1265 107.1574 163.5783 0.0000 21.7092 0.0000
# 4 0.0000 0.0000 0.0000 61.8410 0.0000 8.4881
# 5 10.7064 13.7001 21.7092 0.0000 6.4587 0.0000
# 6 0.0000 0.0000 0.0000 8.4881 0.0000 10.8551
#
#
#
# Elastic Compliance Matrix: (Units=1/GPa)
#
#
# Indices 1 2 3 4 5 6 
#
# 1 0.005925 -0.000966 -0.004393 0.000000 0.006993 0.000000
# 2 -0.000966 0.013134 -0.008035 0.000000 0.000751 0.000000
# 3 -0.004393 -0.008035 0.020196 0.000000 -0.043555 0.000000
# 4 0.000000 0.000000 0.000000 0.018115 0.000000 -0.014165
# 5 0.006993 0.000751 -0.043555 0.000000 0.288043 0.000000
# 6 0.000000 0.000000 0.000000 -0.014165 0.000000 0.103199
#
#
# Mechanical properties :
#
#
# Convention : Reuss Voigt Hill
#
# Bulk Modulus (GPa) = 80.21768 131.14573 105.68171
# Shear Modulus (GPa) = 10.42634 33.00264 21.71449
#
# Velocity S-wave (km/s) = 2.06744 3.67826 2.98361
# Velocity P-wave (km/s) = 6.21166 8.47368 7.42926
#
# Compressibility (1/GPa) = 0.01246608
#
# Stress axis : x y z
#
# Youngs Moduli (GPa) = 168.77138 76.13977 49.51544
#
# Poissons Ratio (x) = 0.07353 0.21753
# Poissons Ratio (y) = 0.16298 0.39788
# Poissons Ratio (z) = 0.74143 0.61182
#
# Static dielectric constant tensor:
#      x y z
#    x 1.931870 0.000000 -0.009290 
#    y 0.000000 1.947570 0.000000 
#    z -0.009290 0.000000 1.863660 
# 
# From -- ./inp_files/12558.got.cif
#   From: 2010.05.17/outbox.cif.g08.bks.cpg/sg8_7_cif.got.tgz:12558.got - 2010.06.03 19:46:02.
