data_PCOD9133584
_publ_section_title
;
Structure prediction by ZEFSAII (Michael W. Deem and Ramdas Pophale) SiO2 
 PCOD9133584
Probable space group: C M
;
_chemical_formula_sum "Si O2"
_cell_formula_units_Z 16
_cell_length_a 5.398113
_cell_length_b 27.073057
_cell_length_c 5.023829
_cell_angle_alpha 90.000000
_cell_angle_beta 123.145653
_cell_angle_gamma 90.000000
_cell_volume 614.733042
_symmetry_space_group_name_H-M "C M"
_symmetry_group_IT_number 8
_symmetry_cell_setting 'monoclinic'
loop_
_space_group_symop_operation_xyz
x,y,z
x,-y,z
1/2+x,1/2+y,z
1/2+x,1/2-y,z
loop_
_atom_site_type_symbol
_atom_site_label
_atom_site_fract_x
_atom_site_fract_y
_atom_site_fract_z
Si Si1 0.545351 0.500000 0.608561
Si Si2 0.358148 0.717483 0.587225
Si Si3 0.448034 0.000000 0.228077
Si Si4 0.946473 0.586040 0.631659
Si Si5 0.437850 0.346904 0.145161
O O1 0.742387 0.548925 0.678882
O O2 0.260704 0.500000 0.256986
O O3 0.600966 0.500000 0.959476
O O4 0.594968 0.752447 0.575421
O O5 0.485893 0.686439 0.911204
O O6 0.276668 0.681273 0.294580
O O7 0.517139 0.050200 0.429467
O O8 0.233203 0.607629 0.938679
O O9 0.748237 0.632601 0.432021
#
# Coordination Sequence:
#
# PCOD9133584 Si02
#       5
#     2   4   2   4   4
#     4  11  24  45  74 103 165 198 254 315 386 459
#     4  12  29  56  81 117 160 209 263 342 419 474
#     4  11  24  45  74 103 165 198 254 315 386 459
#     4  11  27  46  71 120 148 210 257 320 385 463
#     4  12  28  49  86 114 158 204 272 323 390 492
#
# _framework density 26.027560000000001
#
# number of rings (size 3 to 8) (size 9 to 14) (size 15 to 20)
#    0.000    0.500    0.000    6.000   10.500    8.000 
#    0.000    0.000    0.000    0.000    0.000    0.000 
#    0.000    0.000    0.000    0.000    0.000    0.000 
#
# Total GULP energy -44719.859577 kJ/mol
# GULP energy per Si atom -5589.982447 kJ/mol
# Density = 2.596832 g / cm^3
# Si number density = 26.027560 Si / 1000 Ang^3
#
#
#
# Elastic Constant Matrix: (Units=GPa)
#
#
# Indices 1 2 3 4 5 6 
#
# 1 132.8663 36.9144 28.0021 0.0000 -26.4591 0.0000
# 2 36.9144 104.4734 8.4021 0.0000 -17.5911 0.0000
# 3 28.0021 8.4021 84.8080 0.0000 -2.6311 0.0000
# 4 0.0000 0.0000 0.0000 38.3575 0.0000 5.1163
# 5 -26.4591 -17.5911 -2.6311 0.0000 48.2437 0.0000
# 6 0.0000 0.0000 0.0000 5.1163 0.0000 4.0054
#
#
#
# Elastic Compliance Matrix: (Units=1/GPa)
#
#
# Indices 1 2 3 4 5 6 
#
# 1 0.009649 -0.002470 -0.002810 0.000000 0.004238 0.000000
# 2 -0.002470 0.010899 -0.000183 0.000000 0.002609 0.000000
# 3 -0.002810 -0.000183 0.012709 0.000000 -0.000915 0.000000
# 4 0.000000 0.000000 0.000000 0.031425 0.000000 -0.040140
# 5 0.004238 0.002609 -0.000915 0.000000 0.023954 0.000000
# 6 0.000000 0.000000 0.000000 -0.040140 0.000000 0.300939
#
#
# Mechanical properties :
#
#
# Convention : Reuss Voigt Hill
#
# Bulk Modulus (GPa) = 44.78145 52.08723 48.43434
# Shear Modulus (GPa) = 12.25663 34.70993 23.48328
#
# Velocity S-wave (km/s) = 2.17240 3.65579 3.00700
# Velocity P-wave (km/s) = 4.85131 6.15431 5.54124
#
# Compressibility (1/GPa) = 0.02233067
#
# Stress axis : x y z
#
# Youngs Moduli (GPa) = 103.64177 91.75518 78.68545
#
# Poissons Ratio (x) = 0.22661 0.22108
# Poissons Ratio (y) = 0.25596 0.01443
# Poissons Ratio (z) = 0.29120 0.01682
#
# Static dielectric constant tensor:
#      x y z
#    x 2.224470 0.000000 -0.115290 
#    y 0.000000 2.048040 0.000000 
#    z -0.115290 0.000000 2.224490 
# 
# From -- ./inp_files/406.got.cif
#   From: 2010.05.17/outbox.cif.g08.bks.cpg/sg8_1_cif.got.tgz:406.got - 2010.06.03 19:46:02.
