data_PCOD9133755
_publ_section_title
;
Structure prediction by ZEFSAII (Michael W. Deem and Ramdas Pophale) SiO2 
 PCOD9133755
Probable space group: C C
;
_chemical_formula_sum "Si O2"
_cell_formula_units_Z 24
_cell_length_a 17.701450
_cell_length_b 9.255951
_cell_length_c 5.597732
_cell_angle_alpha 90.000000
_cell_angle_beta 112.834445
_cell_angle_gamma 90.000000
_cell_volume 845.276127
_symmetry_space_group_name_H-M "C C"
_symmetry_group_IT_number 9
_symmetry_cell_setting 'monoclinic'
loop_
_space_group_symop_operation_xyz
x,y,z
x,-y,1/2+z
1/2+x,1/2+y,z
1/2+x,1/2-y,1/2+z
loop_
_atom_site_type_symbol
_atom_site_label
_atom_site_fract_x
_atom_site_fract_y
_atom_site_fract_z
Si Si1 0.312450 0.678400 0.040130
Si Si2 0.467814 0.991089 0.501726
Si Si3 0.673209 0.522555 0.080289
Si Si4 0.373695 0.350155 0.114510
Si Si5 0.551209 0.316225 0.170560
Si Si6 0.140010 0.411298 0.227341
O O1 0.330983 0.505990 0.079233
O O2 0.338732 0.730767 0.335825
O O3 0.359944 0.723823 0.855750
O O4 0.216711 0.692341 0.874096
O O5 0.541197 0.109540 0.603051
O O6 0.422983 0.995376 0.697505
O O7 0.520175 0.841494 0.564447
O O8 0.717953 0.492245 0.886259
O O9 0.621418 0.667456 0.957812
O O10 0.598302 0.403956 0.019214
O O11 0.467827 0.383660 0.168401
O O12 0.152857 0.513416 0.483267
#
# Coordination Sequence:
#
# PCOD9133755 Si02
#       6
#     4   4   4   4   4   4
#     4  10  16  27  42  73  96 123 150 204 280 296
#     4  10  24  34  52  69 105 158 173 210 238 321
#     4   8  18  28  48  66  98 130 156 222 242 310
#     4  10  18  22  45  66  99 121 144 209 250 322
#     4  10  20  33  48  76 109 135 177 198 280 312
#     4  10  16  32  45  66  99 131 170 205 248 315
#
# _framework density 28.393089
#
# number of rings (size 3 to 8) (size 9 to 14) (size 15 to 20)
#    1.000    1.333    3.333    2.000    4.667    0.000 
#    0.000    0.000    0.000    0.000    0.000    0.000 
#    5.000    0.000    0.000    0.000    0.000    0.000 
#
# Total GULP energy -66977.864154 kJ/mol
# GULP energy per Si atom -5581.488680 kJ/mol
# Density = 2.832847 g / cm^3
# Si number density = 28.393089 Si / 1000 Ang^3
#
#
#
# Elastic Constant Matrix: (Units=GPa)
#
#
# Indices 1 2 3 4 5 6 
#
# 1 88.4997 12.1141 66.2697 0.0000 -1.9438 0.0000
# 2 12.1141 76.3392 8.7511 0.0000 -7.5157 0.0000
# 3 66.2697 8.7511 257.5941 0.0000 -41.5978 0.0000
# 4 0.0000 0.0000 0.0000 26.6260 0.0000 2.9473
# 5 -1.9438 -7.5157 -41.5978 0.0000 64.7990 0.0000
# 6 0.0000 0.0000 0.0000 2.9473 0.0000 22.8424
#
#
#
# Elastic Compliance Matrix: (Units=1/GPa)
#
#
# Indices 1 2 3 4 5 6 
#
# 1 0.014580 -0.002085 -0.004070 0.000000 -0.002417 0.000000
# 2 -0.002085 0.013561 0.000357 0.000000 0.001739 0.000000
# 3 -0.004070 0.000357 0.005471 0.000000 0.003432 0.000000
# 4 0.000000 0.000000 0.000000 0.038102 0.000000 -0.004916
# 5 -0.002417 0.001739 0.003432 0.000000 0.017764 0.000000
# 6 0.000000 0.000000 0.000000 -0.004916 0.000000 0.044413
#
#
# Mechanical properties :
#
#
# Convention : Reuss Voigt Hill
#
# Bulk Modulus (GPa) = 45.42570 66.30030 55.86300
# Shear Modulus (GPa) = 32.71696 45.20667 38.96182
#
# Velocity S-wave (km/s) = 3.39822 3.99453 3.70838
# Velocity P-wave (km/s) = 5.60631 6.68406 6.16877
#
# Compressibility (1/GPa) = 0.02201397
#
# Stress axis : x y z
#
# Youngs Moduli (GPa) = 68.58831 73.74278 182.77274
#
# Poissons Ratio (x) = 0.15375 0.74396
# Poissons Ratio (y) = 0.14301 -0.06517
# Poissons Ratio (z) = 0.27918 -0.02629
#
# Static dielectric constant tensor:
#      x y z
#    x 2.126620 0.000000 -0.070890 
#    y 0.000000 2.432630 0.000000 
#    z -0.070890 0.000000 2.282180 
# 
# From -- ./inp_files/2878.got.cif
#   From: 2010.05.17/outbox.cif.g08.bks.cpg/sg9_2_cif.got.tgz:2878.got - 2010.06.03 20:04:27.
