data_PCOD9133441
_publ_section_title
;
Structure prediction by ZEFSAII (Michael W. Deem and Ramdas Pophale) SiO2 
 PCOD9133441
Probable space group: C M
;
_chemical_formula_sum "Si O2"
_cell_formula_units_Z 20
_cell_length_a 5.100140
_cell_length_b 26.464995
_cell_length_c 6.785119
_cell_angle_alpha 90.000000
_cell_angle_beta 75.081957
_cell_angle_gamma 90.000000
_cell_volume 884.954906
_symmetry_space_group_name_H-M "C M"
_symmetry_group_IT_number 8
_symmetry_cell_setting 'monoclinic'
loop_
_space_group_symop_operation_xyz
x,y,z
x,-y,z
1/2+x,1/2+y,z
1/2+x,1/2-y,z
loop_
_atom_site_type_symbol
_atom_site_label
_atom_site_fract_x
_atom_site_fract_y
_atom_site_fract_z
Si Si1 0.526940 0.166365 0.644700
Si Si2 0.292856 0.500000 0.489536
Si Si3 0.641464 0.097351 0.267992
Si Si4 0.702124 0.500000 0.765373
Si Si5 0.451773 0.733654 0.460679
Si Si6 0.710421 0.400276 0.012882
O O1 0.495578 0.132276 0.457198
O O2 0.407085 0.222079 0.633243
O O3 0.849072 0.181235 0.570365
O O4 0.393642 0.137621 0.848892
O O5 0.261206 0.548840 0.358815
O O6 0.552249 0.500000 0.582679
O O7 0.025853 0.500000 0.677407
O O8 0.412828 0.084426 0.151408
O O9 0.918391 0.122478 0.130876
O O10 0.633460 0.449462 0.898326
O O11 0.750640 0.745168 0.334459
#
# Coordination Sequence:
#
# PCOD9133441 Si02
#       6
#     4   2   4   2   4   4
#     4  10  24  45  70  92 144 171 230 268 352 368
#     4  12  24  46  72  95 139 182 214 277 338 390
#     4  12  27  42  70 103 136 177 226 273 334 405
#     4  12  24  46  72  95 139 182 214 277 338 390
#     4   8  20  38  70  88 130 176 218 276 328 388
#     4  12  27  42  70 103 136 177 226 273 334 405
#
# _framework density 22.600017999999999
#
# number of rings (size 3 to 8) (size 9 to 14) (size 15 to 20)
#    1.200    0.000    2.000    3.600    5.600    0.000 
#    0.000    6.000    0.000    0.000    0.000    0.000 
#    0.000    0.000    0.000    0.000    0.000    0.000 
#
# Total GULP energy -55706.753159 kJ/mol
# GULP energy per Si atom -5570.675316 kJ/mol
# Density = 2.254858 g / cm^3
# Si number density = 22.600018 Si / 1000 Ang^3
#
#
#
# Elastic Constant Matrix: (Units=GPa)
#
#
# Indices 1 2 3 4 5 6 
#
# 1 118.8874 -10.4396 13.4726 0.0000 11.6653 0.0000
# 2 -10.4396 80.6564 26.8754 0.0000 15.7268 0.0000
# 3 13.4726 26.8754 69.8121 0.0000 6.7887 0.0000
# 4 0.0000 0.0000 0.0000 -25.6431 0.0000 8.2508
# 5 11.6653 15.7268 6.7887 0.0000 42.7719 0.0000
# 6 0.0000 0.0000 0.0000 8.2508 0.0000 31.2186
#
#
#
# Elastic Compliance Matrix: (Units=1/GPa)
#
#
# Indices 1 2 3 4 5 6 
#
# 1 0.009227 0.002626 -0.002492 0.000000 -0.003087 0.000000
# 2 0.002626 0.015847 -0.006065 0.000000 -0.005581 0.000000
# 3 -0.002492 -0.006065 0.017121 0.000000 0.000192 0.000000
# 4 0.000000 0.000000 0.000000 -0.035941 0.000000 0.009499
# 5 -0.003087 -0.005581 0.000192 0.000000 0.026243 0.000000
# 6 0.000000 0.000000 0.000000 0.009499 0.000000 0.029522
#
#
# Mechanical properties :
#
#
# Convention : Reuss Voigt Hill
#
# Bulk Modulus (GPa) = 32.96479 36.57474 34.76976
# Shear Modulus (GPa) = 59.52972 25.63266 42.58119
#
# Velocity S-wave (km/s) = 5.13787 3.37142 4.34536
# Velocity P-wave (km/s) = 7.05796 5.60125 6.37137
#
# Compressibility (1/GPa) = 0.03033539
#
# Stress axis : x y z
#
# Youngs Moduli (GPa) = 108.37546 63.10264 58.40746
#
# Poissons Ratio (x) = -0.16573 0.14553
# Poissons Ratio (y) = -0.28464 0.35423
# Poissons Ratio (z) = 0.27003 0.38271
#
# Static dielectric constant tensor:
#      x y z
#    x 2.168530 0.000000 -0.004550 
#    y 0.000000 1.883370 0.000000 
#    z -0.004550 0.000000 1.826990 
# 
# From -- ./inp_files/587.got.cif
#   From: 2010.05.17/outbox.cif.g08.bks.cpg/sg8_1_cif.got.tgz:587.got - 2010.06.03 19:46:02.
