data_PCOD9133803
_publ_section_title
;
Structure prediction by ZEFSAII (Michael W. Deem and Ramdas Pophale) SiO2 
 PCOD9133803
Probable space group: C C
;
_chemical_formula_sum "Si O2"
_cell_formula_units_Z 32
_cell_length_a 16.370844
_cell_length_b 8.497378
_cell_length_c 18.999041
_cell_angle_alpha 90.000000
_cell_angle_beta 139.648320
_cell_angle_gamma 90.000000
_cell_volume 1711.245519
_symmetry_space_group_name_H-M "C C"
_symmetry_group_IT_number 9
_symmetry_cell_setting 'monoclinic'
loop_
_space_group_symop_operation_xyz
x,y,z
x,-y,1/2+z
1/2+x,1/2+y,z
1/2+x,1/2-y,1/2+z
loop_
_atom_site_type_symbol
_atom_site_label
_atom_site_fract_x
_atom_site_fract_y
_atom_site_fract_z
Si Si1 0.445270 0.275713 0.613490
Si Si2 0.351621 0.639645 0.847256
Si Si3 0.939762 0.573270 0.477198
Si Si4 0.608458 0.013088 0.771990
Si Si5 0.589447 0.529308 0.092946
Si Si6 0.221210 0.688522 0.627665
Si Si7 0.491653 0.228015 0.082296
Si Si8 0.273040 0.564753 0.508695
O O1 0.395144 0.158403 0.519808
O O2 0.512862 0.160891 0.712684
O O3 0.548792 0.379774 0.638376
O O4 0.337361 0.395093 0.566129
O O5 0.369038 0.827039 0.871938
O O6 0.231439 0.576898 0.811187
O O7 0.327153 0.618833 0.748828
O O8 0.472578 0.557616 0.961955
O O9 0.933626 0.389007 0.485695
O O10 0.087970 0.612117 0.564132
O O11 0.548756 0.878159 0.682793
O O12 0.656020 0.955317 0.878803
O O13 0.702467 0.626155 0.131960
O O14 0.593715 0.346657 0.115399
O O15 0.240959 0.649848 0.559963
O O16 0.379520 0.334780 0.038484
#
# Coordination Sequence:
#
# PCOD9133803 Si02
#       8
#     4   4   4   4   4   4   4   4
#     4   8  16  34  57  81 105 150 198 226 272 361
#     4  10  16  35  62  76 106 160 194 228 289 344
#     4   9  18  34  59  82 104 147 203 227 275 363
#     4  11  18  36  63  82 116 158 195 242 290 336
#     4   9  18  34  56  85 111 144 199 234 276 362
#     4  10  20  36  57  80 113 155 184 239 300 340
#     4  10  20  34  56  91 114 143 206 242 270 364
#     4  11  22  37  56  89 123 147 191 252 294 334
#
# _framework density 18.699829000000001
#
# number of rings (size 3 to 8) (size 9 to 14) (size 15 to 20)
#    0.000    2.500    7.500    0.000    0.000    3.000 
#    0.000    3.750    0.000    0.000    0.000    0.000 
#    0.000    0.000    0.000    0.000    0.000    0.000 
#
# Total GULP energy -89082.129661 kJ/mol
# GULP energy per Si atom -5567.633104 kJ/mol
# Density = 1.865727 g / cm^3
# Si number density = 18.699829 Si / 1000 Ang^3
#
#
#
# Elastic Constant Matrix: (Units=GPa)
#
#
# Indices 1 2 3 4 5 6 
#
# 1 35.1964 20.6534 13.2820 0.0000 -17.3087 0.0000
# 2 20.6534 111.6566 27.3396 0.0000 -10.0771 0.0000
# 3 13.2820 27.3396 104.5352 0.0000 -18.4548 0.0000
# 4 0.0000 0.0000 0.0000 27.2196 0.0000 4.2241
# 5 -17.3087 -10.0771 -18.4548 0.0000 24.3497 0.0000
# 6 0.0000 0.0000 0.0000 4.2241 0.0000 22.5404
#
#
#
# Elastic Compliance Matrix: (Units=1/GPa)
#
#
# Indices 1 2 3 4 5 6 
#
# 1 0.047308 -0.006168 0.001257 0.000000 0.032028 0.000000
# 2 -0.006168 0.010494 -0.002272 0.000000 -0.001763 0.000000
# 3 0.001257 -0.002272 0.011536 0.000000 0.008696 0.000000
# 4 0.000000 0.000000 0.000000 0.037839 0.000000 -0.007091
# 5 0.032028 -0.001763 0.008696 0.000000 0.069696 0.000000
# 6 0.000000 0.000000 0.000000 -0.007091 0.000000 0.045694
#
#
# Mechanical properties :
#
#
# Convention : Reuss Voigt Hill
#
# Bulk Modulus (GPa) = 18.19140 41.54867 29.87004
# Shear Modulus (GPa) = 19.58812 27.49614 23.54213
#
# Velocity S-wave (km/s) = 3.24003 3.83873 3.55202
# Velocity P-wave (km/s) = 4.87301 6.47416 5.72979
#
# Compressibility (1/GPa) = 0.05497102
#
# Stress axis : x y z
#
# Youngs Moduli (GPa) = 21.13820 95.29162 86.68527
#
# Poissons Ratio (x) = 0.58773 -0.10892
# Poissons Ratio (y) = 0.13037 0.19697
# Poissons Ratio (z) = -0.02656 0.21653
#
# Static dielectric constant tensor:
#      x y z
#    x 1.636220 0.000000 0.003030 
#    y 0.000000 1.696330 0.000000 
#    z 0.003030 0.000000 1.689900 
# 
# From -- ./inp_files/21161.got.cif
#   From: 2010.05.17/outbox.cif.g08.bks.cpg/sg9_11_cif.got.tgz:21161.got - 2010.06.03 20:04:27.
