data_PCOD9133637
_publ_section_title
;
Structure prediction by ZEFSAII (Michael W. Deem and Ramdas Pophale) SiO2 
 PCOD9133637
Probable space group: C M
;
_chemical_formula_sum "Si O2"
_cell_formula_units_Z 20
_cell_length_a 7.581919
_cell_length_b 22.120402
_cell_length_c 5.075724
_cell_angle_alpha 90.000000
_cell_angle_beta 88.583830
_cell_angle_gamma 90.000000
_cell_volume 851.015521
_symmetry_space_group_name_H-M "C M"
_symmetry_group_IT_number 8
_symmetry_cell_setting 'monoclinic'
loop_
_space_group_symop_operation_xyz
x,y,z
x,-y,z
1/2+x,1/2+y,z
1/2+x,1/2-y,z
loop_
_atom_site_type_symbol
_atom_site_label
_atom_site_fract_x
_atom_site_fract_y
_atom_site_fract_z
Si Si1 0.295020 0.000000 0.501350
Si Si2 0.417575 0.711098 0.309267
Si Si3 0.919237 0.297492 0.808112
Si Si4 0.734183 0.875345 0.959937
Si Si5 0.607427 0.624065 0.648127
Si Si6 0.037763 0.500000 0.994460
O O1 0.180395 0.059657 0.557339
O O2 0.378495 0.000000 0.208803
O O3 0.454467 0.000000 0.706247
O O4 0.391008 0.753898 0.560719
O O5 0.573749 0.666928 0.397095
O O6 0.442211 0.754337 0.058516
O O7 0.266720 0.665008 0.218622
O O8 0.752591 0.342082 0.820253
O O9 0.092449 0.338870 0.791382
O O10 0.921443 0.880986 0.806009
O O11 0.654146 0.940234 0.027745
#
# Coordination Sequence:
#
# PCOD9133637 Si02
#       6
#     2   4   4   4   4   2
#     4  12  31  55  82 109 156 210 262 330 393 452
#     4  12  28  47  80 121 158 208 250 322 386 472
#     4  12  28  49  78 117 170 198 252 316 400 458
#     4  12  29  51  84 116 157 207 266 319 386 468
#     4  12  29  51  84 116 157 207 266 319 386 468
#     4  12  31  55  82 109 156 210 262 330 393 452
#
# _framework density 23.501332999999999
#
# number of rings (size 3 to 8) (size 9 to 14) (size 15 to 20)
#    0.000    0.000    4.000    3.000   14.000    0.800 
#    0.000    0.000    0.000    0.000    0.000    0.000 
#    0.000    0.000    0.000    0.000    0.000    0.000 
#
# Total GULP energy -56081.122377 kJ/mol
# GULP energy per Si atom -5608.112238 kJ/mol
# Density = 2.344784 g / cm^3
# Si number density = 23.501333 Si / 1000 Ang^3
#
#
#
# Elastic Constant Matrix: (Units=GPa)
#
#
# Indices 1 2 3 4 5 6 
#
# 1 143.3133 84.5834 34.0478 0.0000 10.9731 0.0000
# 2 84.5834 217.6563 46.3496 0.0000 -2.3836 0.0000
# 3 34.0478 46.3496 111.5400 0.0000 -8.9721 0.0000
# 4 0.0000 0.0000 0.0000 -2.6815 0.0000 25.4540
# 5 10.9731 -2.3836 -8.9721 0.0000 40.5596 0.0000
# 6 0.0000 0.0000 0.0000 25.4540 0.0000 64.4265
#
#
#
# Elastic Compliance Matrix: (Units=1/GPa)
#
#
# Indices 1 2 3 4 5 6 
#
# 1 0.009660 -0.003408 -0.001791 0.000000 -0.003210 0.000000
# 2 -0.003408 0.006244 -0.001477 0.000000 0.000962 0.000000
# 3 -0.001791 -0.001477 0.010342 0.000000 0.002685 0.000000
# 4 0.000000 0.000000 0.000000 -0.078505 0.000000 0.031016
# 5 -0.003210 0.000962 0.002685 0.000000 0.026174 0.000000
# 6 0.000000 0.000000 0.000000 0.031016 0.000000 0.003267
#
#
# Mechanical properties :
#
#
# Convention : Reuss Voigt Hill
#
# Bulk Modulus (GPa) = 77.55239 89.16347 83.35793
# Shear Modulus (GPa) = -967.50305 40.96282 -463.27011
#
# Velocity S-wave (km/s) = -20.31191 4.17945 -14.05535
# Velocity P-wave (km/s) = 22.73824 7.83023 15.09495
#
# Compressibility (1/GPa) = 0.01289451
#
# Stress axis : x y z
#
# Youngs Moduli (GPa) = 103.51657 160.15969 96.69498
#
# Poissons Ratio (x) = 0.54580 0.17317
# Poissons Ratio (y) = 0.35277 0.14281
# Poissons Ratio (z) = 0.18539 0.23654
#
# Static dielectric constant tensor:
#      x y z
#    x 1.939890 0.000000 -0.015860 
#    y 0.000000 1.837130 0.000000 
#    z -0.015860 0.000000 1.877050 
# 
# From -- ./inp_files/1326.got.cif
#   From: 2010.05.17/outbox.cif.g08.bks.cpg/sg8_1_cif.got.tgz:1326.got - 2010.06.03 19:46:02.
