data_PCOD9133339
_publ_section_title
;
Structure prediction by ZEFSAII (Michael W. Deem and Ramdas Pophale) SiO2 
 PCOD9133339
Probable space group: C M
;
_chemical_formula_sum "Si O2"
_cell_formula_units_Z 22
_cell_length_a 7.344519
_cell_length_b 26.808243
_cell_length_c 4.908621
_cell_angle_alpha 90.000000
_cell_angle_beta 65.174980
_cell_angle_gamma 90.000000
_cell_volume 877.168314
_symmetry_space_group_name_H-M "C M"
_symmetry_group_IT_number 8
_symmetry_cell_setting 'monoclinic'
loop_
_space_group_symop_operation_xyz
x,y,z
x,-y,z
1/2+x,1/2+y,z
1/2+x,1/2-y,z
loop_
_atom_site_type_symbol
_atom_site_label
_atom_site_fract_x
_atom_site_fract_y
_atom_site_fract_z
Si Si1 0.820590 0.144684 0.519350
Si Si2 0.733846 0.000000 0.156359
Si Si3 0.516306 0.404615 0.922461
Si Si4 0.068750 0.263389 0.606019
Si Si5 0.863207 0.692702 0.228687
Si Si6 0.957916 0.406262 0.417782
O O1 0.894004 0.116957 0.741752
O O2 0.752932 0.201640 0.597914
O O3 0.621650 0.117865 0.519848
O O4 0.987332 0.135273 0.182667
O O5 0.559330 0.043711 0.248347
O O6 0.907050 0.044052 0.072044
O O7 0.745977 0.413657 0.700074
O O8 0.156863 0.208353 0.507867
O O9 0.024783 0.284209 0.334949
O O10 0.895548 0.279255 0.924338
O O11 0.909080 0.634411 0.214532
#
# Coordination Sequence:
#
# PCOD9133339 Si02
#       6
#     4   2   4   4   4   4
#     4  10  24  43  66  98 140 169 235 277 334 400
#     4  10  22  46  68 100 138 170 230 288 340 396
#     4  11  24  42  72  97 129 188 219 282 345 409
#     4  11  23  42  63  98 136 179 218 284 325 402
#     4  11  25  40  68  97 137 177 225 272 343 394
#     4  10  24  45  69 101 137 177 229 284 337 410
#
# _framework density 25.080704000000001
#
# number of rings (size 3 to 8) (size 9 to 14) (size 15 to 20)
#    0.000    1.455    0.000    4.909    5.091    8.727 
#    0.000    3.636    0.000    0.000    0.000    0.000 
#    0.000    0.000    0.000    0.000    0.000    0.000 
#
# Total GULP energy -61331.158262 kJ/mol
# GULP energy per Si atom -5575.559842 kJ/mol
# Density = 2.502362 g / cm^3
# Si number density = 25.080704 Si / 1000 Ang^3
#
#
#
# Elastic Constant Matrix: (Units=GPa)
#
#
# Indices 1 2 3 4 5 6 
#
# 1 83.2810 13.3686 19.7763 0.0000 -12.3425 0.0000
# 2 13.3686 165.3826 45.9123 0.0000 -10.4907 0.0000
# 3 19.7763 45.9123 128.1892 0.0000 -9.7554 0.0000
# 4 0.0000 0.0000 0.0000 -5.6839 0.0000 -26.5761
# 5 -12.3425 -10.4907 -9.7554 0.0000 64.5973 0.0000
# 6 0.0000 0.0000 0.0000 -26.5761 0.0000 33.5647
#
#
#
# Elastic Compliance Matrix: (Units=1/GPa)
#
#
# Indices 1 2 3 4 5 6 
#
# 1 0.012785 -0.000440 -0.001653 0.000000 0.002122 0.000000
# 2 -0.000440 0.006764 -0.002304 0.000000 0.000666 0.000000
# 3 -0.001653 -0.002304 0.008931 0.000000 0.000659 0.000000
# 4 0.000000 0.000000 0.000000 -0.037416 0.000000 -0.029626
# 5 0.002122 0.000666 0.000659 0.000000 0.016094 0.000000
# 6 0.000000 0.000000 0.000000 -0.029626 0.000000 0.006336
#
#
# Mechanical properties :
#
#
# Convention : Reuss Voigt Hill
#
# Bulk Modulus (GPa) = 50.79755 59.44081 55.11918
# Shear Modulus (GPa) = 173.30440 38.34866 105.82653
#
# Velocity S-wave (km/s) = 8.32158 3.91450 6.50277
# Velocity P-wave (km/s) = 10.61269 6.64698 8.85470
#
# Compressibility (1/GPa) = 0.01968599
#
# Stress axis : x y z
#
# Youngs Moduli (GPa) = 78.21530 147.84044 111.96458
#
# Poissons Ratio (x) = 0.06503 0.18512
# Poissons Ratio (y) = 0.03441 0.25797
# Poissons Ratio (z) = 0.12932 0.34063
#
# Static dielectric constant tensor:
#      x y z
#    x 2.042150 0.000000 -0.056080 
#    y 0.000000 1.962220 0.000000 
#    z -0.056080 0.000000 1.997860 
# 
# From -- ./inp_files/1797.got.cif
#   From: 2010.05.17/outbox.cif.g08.bks.cpg/sg8_1_cif.got.tgz:1797.got - 2010.06.03 19:46:02.
