data_PCOD9133969
_publ_section_title
;
Structure prediction by ZEFSAII (Michael W. Deem and Ramdas Pophale) SiO2 
 PCOD9133969
Probable space group: C C
;
_chemical_formula_sum "Si O2"
_cell_formula_units_Z 28
_cell_length_a 13.092427
_cell_length_b 6.834474
_cell_length_c 13.550591
_cell_angle_alpha 90.000000
_cell_angle_beta 118.625297
_cell_angle_gamma 90.000000
_cell_volume 1064.302272
_symmetry_space_group_name_H-M "C C"
_symmetry_group_IT_number 9
_symmetry_cell_setting 'monoclinic'
loop_
_space_group_symop_operation_xyz
x,y,z
x,-y,1/2+z
1/2+x,1/2+y,z
1/2+x,1/2-y,1/2+z
loop_
_atom_site_type_symbol
_atom_site_label
_atom_site_fract_x
_atom_site_fract_y
_atom_site_fract_z
Si Si1 0.394530 0.106486 0.436240
Si Si2 0.722496 0.460754 0.698885
Si Si3 0.182860 0.121070 0.470852
Si Si4 0.513739 0.554529 0.224150
Si Si5 0.361242 0.337009 0.992832
Si Si6 0.805173 0.117902 0.256220
Si Si7 0.649553 0.949849 0.023784
O O1 0.339339 0.118588 0.301785
O O2 0.390782 0.883377 0.475900
O O3 0.528491 0.155648 0.487189
O O4 0.300102 0.193186 0.468685
O O5 0.714574 0.488345 0.579082
O O6 0.612231 0.359342 0.698400
O O7 0.726862 0.689706 0.737462
O O8 0.125183 0.322956 0.481755
O O9 0.096586 0.010269 0.356400
O O10 0.448852 0.406789 0.119232
O O11 0.408946 0.672092 0.227713
O O12 0.360227 0.445529 0.885661
O O13 0.233004 0.366415 0.977946
O O14 0.727125 0.967256 0.158847
#
# Coordination Sequence:
#
# PCOD9133969 Si02
#       7
#     4   4   4   4   4   4   4
#     4  10  21  38  58  85 117 152 194 238 288 345
#     4   9  18  34  55  80 111 149 189 231 282 338
#     4  10  20  37  59  84 117 155 194 239 289 343
#     4  10  18  32  58  84 108 148 194 232 282 340
#     4  10  20  37  59  84 117 155 194 239 289 343
#     4   9  18  34  55  80 111 149 189 231 282 338
#     4  10  21  38  58  85 117 152 194 238 288 345
#
# _framework density 26.308312999999998
#
# number of rings (size 3 to 8) (size 9 to 14) (size 15 to 20)
#    0.000    2.286    0.000    4.286    0.000    1.143 
#    0.000   15.714    0.000    0.000    0.000    0.000 
#    0.000    0.000    0.000    0.000    0.000    0.000 
#
# Total GULP energy -78253.828074 kJ/mol
# GULP energy per Si atom -5589.559148 kJ/mol
# Density = 2.624843 g / cm^3
# Si number density = 26.308313 Si / 1000 Ang^3
#
#
#
# Elastic Constant Matrix: (Units=GPa)
#
#
# Indices 1 2 3 4 5 6 
#
# 1 187.3280 23.6433 59.8446 0.0000 10.1877 0.0000
# 2 23.6433 53.1787 47.7249 0.0000 -6.0276 0.0000
# 3 59.8446 47.7249 239.6802 0.0000 1.6727 0.0000
# 4 0.0000 0.0000 0.0000 44.7965 0.0000 -5.3801
# 5 10.1877 -6.0276 1.6727 0.0000 37.5629 0.0000
# 6 0.0000 0.0000 0.0000 -5.3801 0.0000 25.7118
#
#
#
# Elastic Compliance Matrix: (Units=1/GPa)
#
#
# Indices 1 2 3 4 5 6 
#
# 1 0.006037 -0.001897 -0.001117 0.000000 -0.001892 0.000000
# 2 -0.001897 0.024071 -0.004351 0.000000 0.004571 0.000000
# 3 -0.001117 -0.004351 0.005322 0.000000 -0.000632 0.000000
# 4 0.000000 0.000000 0.000000 0.022899 0.000000 0.004792
# 5 -0.001892 0.004571 -0.000632 0.000000 0.027897 0.000000
# 6 0.000000 0.000000 0.000000 0.004792 0.000000 0.039895
#
#
# Mechanical properties :
#
#
# Convention : Reuss Voigt Hill
#
# Bulk Modulus (GPa) = 48.30671 82.51249 65.40960
# Shear Modulus (GPa) = 33.84100 44.87918 39.36009
#
# Velocity S-wave (km/s) = 3.59043 4.13473 3.87215
# Velocity P-wave (km/s) = 5.96572 7.36386 6.70135
#
# Compressibility (1/GPa) = 0.02070106
#
# Stress axis : x y z
#
# Youngs Moduli (GPa) = 165.63990 41.54403 187.90423
#
# Poissons Ratio (x) = 0.07879 0.20981
# Poissons Ratio (y) = 0.31414 0.81763
# Poissons Ratio (z) = 0.18495 0.18077
#
# Static dielectric constant tensor:
#      x y z
#    x 2.002520 0.000000 0.006990 
#    y 0.000000 2.140710 0.000000 
#    z 0.006990 0.000000 2.074410 
# 
# From -- ./inp_files/16286.got.cif
#   From: 2010.05.17/outbox.cif.g08.bks.cpg/sg9_9_cif.got.tgz:16286.got - 2010.06.03 20:04:27.
