data_PCOD9133525
_publ_section_title
;
Structure prediction by ZEFSAII (Michael W. Deem and Ramdas Pophale) SiO2 
 PCOD9133525
Probable space group: C M
;
_chemical_formula_sum "Si O2"
_cell_formula_units_Z 26
_cell_length_a 28.322748
_cell_length_b 7.632502
_cell_length_c 10.818813
_cell_angle_alpha 90.000000
_cell_angle_beta 29.852099
_cell_angle_gamma 90.000000
_cell_volume 1164.137765
_symmetry_space_group_name_H-M "C M"
_symmetry_group_IT_number 8
_symmetry_cell_setting 'monoclinic'
loop_
_space_group_symop_operation_xyz
x,y,z
x,-y,z
1/2+x,1/2+y,z
1/2+x,1/2-y,z
loop_
_atom_site_type_symbol
_atom_site_label
_atom_site_fract_x
_atom_site_fract_y
_atom_site_fract_z
Si Si1 0.817780 0.314222 0.426370
Si Si2 0.463144 0.796463 0.427090
Si Si3 0.673825 0.214056 0.247126
Si Si4 0.692109 0.795971 0.932485
Si Si5 0.955177 0.289020 0.725392
Si Si6 0.906397 0.000000 0.354473
Si Si7 0.272283 0.699492 0.270924
O O1 0.868757 0.500000 0.309402
O O2 0.742975 0.305298 0.708528
O O3 0.885548 0.152732 0.297037
O O4 0.761942 0.293012 0.424577
O O5 0.429397 0.747215 0.641884
O O6 0.428957 0.656447 0.406066
O O7 0.436567 0.000000 0.461528
O O8 0.578731 0.794917 0.173259
O O9 0.563573 0.263252 0.500197
O O10 0.723267 0.276293 0.259466
O O11 0.679178 0.000000 0.231517
O O12 0.713212 0.268203 0.023233
O O13 0.727706 0.000000 0.837824
O O14 0.950323 0.500000 0.748195
O O15 0.882750 0.205513 0.984204
O O16 0.238902 0.500000 0.360967
#
# Coordination Sequence:
#
# PCOD9133525 Si02
#       7
#     4   4   4   4   4   2   4
#     4  12  26  43  62  91 131 172 219 266 320 383
#     4   9  21  39  67 100 131 165 210 264 326 379
#     4   8  18  37  67  93 122 168 209 255 326 379
#     4   9  18  41  67  97 131 164 209 267 316 387
#     4   9  19  39  63  95 130 162 210 263 314 390
#     4  12  24  42  64  94 130 172 212 274 312 394
#     4  11  22  40  63  90 128 173 214 266 321 379
#
# _framework density 22.334126000000001
#
# number of rings (size 3 to 8) (size 9 to 14) (size 15 to 20)
#    0.000    2.154    1.538    2.769    4.308    0.000 
#    2.769    2.308    0.000    0.000    0.000    0.000 
#    0.000    0.000    0.000    0.000    0.000    0.000 
#
# Total GULP energy -72424.166615 kJ/mol
# GULP energy per Si atom -5571.089740 kJ/mol
# Density = 2.228329 g / cm^3
# Si number density = 22.334126 Si / 1000 Ang^3
#
#
#
# Elastic Constant Matrix: (Units=GPa)
#
#
# Indices 1 2 3 4 5 6 
#
# 1 141.1291 50.2666 64.1627 0.0000 50.0742 0.0000
# 2 50.2666 128.0074 8.5232 0.0000 13.5257 0.0000
# 3 64.1627 8.5232 38.3989 0.0000 4.0633 0.0000
# 4 0.0000 0.0000 0.0000 21.6356 0.0000 -1.5780
# 5 50.0742 13.5257 4.0633 0.0000 17.1118 0.0000
# 6 0.0000 0.0000 0.0000 -1.5780 0.0000 23.1639
#
#
#
# Elastic Compliance Matrix: (Units=1/GPa)
#
#
# Indices 1 2 3 4 5 6 
#
# 1 -0.012741 0.000357 0.017741 0.000000 0.032789 0.000000
# 2 0.000357 0.008569 -0.001715 0.000000 -0.007412 0.000000
# 3 0.017741 -0.001715 0.002184 0.000000 -0.051077 0.000000
# 4 0.000000 0.000000 0.000000 0.046451 0.000000 0.003164
# 5 0.032789 -0.007412 -0.051077 0.000000 -0.019524 0.000000
# 6 0.000000 0.000000 0.000000 0.003164 0.000000 0.043386
#
#
# Mechanical properties :
#
#
# Convention : Reuss Voigt Hill
#
# Bulk Modulus (GPa) = 32.49017 61.49337 46.99177
# Shear Modulus (GPa) = 109.12474 24.68778 66.90626
#
# Velocity S-wave (km/s) = 6.99758 3.32834 5.47923
# Velocity P-wave (km/s) = 8.93684 6.50873 7.81763
#
# Compressibility (1/GPa) = 0.03077854
#
# Stress axis : x y z
#
# Youngs Moduli (GPa) = -78.48675 116.69894 457.81348
#
# Poissons Ratio (x) = -0.04171 -8.12188
# Poissons Ratio (y) = 0.02805 0.78509
# Poissons Ratio (z) = 1.39240 0.20012
#
# Static dielectric constant tensor:
#      x y z
#    x 1.855770 0.000000 -0.046860 
#    y 0.000000 1.825820 0.000000 
#    z -0.046860 0.000000 1.864730 
# 
# From -- ./inp_files/17298.got.cif
#   From: 2010.05.17/outbox.cif.g08.bks.cpg/sg8_9_cif.got.tgz:17298.got - 2010.06.03 19:46:02.
