data_PCOD9133775
_publ_section_title
;
Structure prediction by ZEFSAII (Michael W. Deem and Ramdas Pophale) SiO2 
 PCOD9133775
Probable space group: C C
;
_chemical_formula_sum "Si O2"
_cell_formula_units_Z 24
_cell_length_a 31.471655
_cell_length_b 6.866634
_cell_length_c 5.228223
_cell_angle_alpha 90.000000
_cell_angle_beta 70.120556
_cell_angle_gamma 90.000000
_cell_volume 1062.514605
_symmetry_space_group_name_H-M "C C"
_symmetry_group_IT_number 9
_symmetry_cell_setting 'monoclinic'
loop_
_space_group_symop_operation_xyz
x,y,z
x,-y,1/2+z
1/2+x,1/2+y,z
1/2+x,1/2-y,1/2+z
loop_
_atom_site_type_symbol
_atom_site_label
_atom_site_fract_x
_atom_site_fract_y
_atom_site_fract_z
Si Si1 0.027980 0.371371 0.697010
Si Si2 0.938496 0.124027 0.850083
Si Si3 0.848945 0.368561 0.120488
Si Si4 0.618337 0.704065 0.666304
Si Si5 0.654921 0.737799 0.092904
Si Si6 0.750427 0.369771 0.235555
O O1 0.032445 0.469460 0.411569
O O2 0.067666 0.214039 0.664849
O O3 0.979168 0.272829 0.816266
O O4 0.890345 0.225682 0.990829
O O5 0.942404 0.044538 0.554400
O O6 0.851507 0.535952 0.896444
O O7 0.799299 0.275020 0.182318
O O8 0.621326 0.800923 0.937734
O O9 0.639567 0.490016 0.662570
O O10 0.648975 0.810298 0.391995
O O11 0.705651 0.751192 0.887106
O O12 0.748598 0.542723 0.453499
#
# Coordination Sequence:
#
# PCOD9133775 Si02
#       6
#     4   4   4   4   4   4
#     4  12  26  44  63  89 129 167 205 253 320 375
#     4  12  26  43  67  92 123 159 211 262 312 370
#     4  10  21  38  65  92 125 158 206 252 319 362
#     4  10  20  31  58  81 126 150 199 249 299 338
#     4  10  17  32  55  94 117 149 206 256 279 344
#     4  10  16  30  54  92 116 155 199 256 285 353
#
# _framework density 22.587927000000001
#
# number of rings (size 3 to 8) (size 9 to 14) (size 15 to 20)
#    0.000    1.333    3.333    4.000    4.667    0.000 
#    0.000    0.000    0.000    6.000    0.000    0.000 
#    0.000    0.000    0.000    0.000    0.000    0.000 
#
# Total GULP energy -67051.343642 kJ/mol
# GULP energy per Si atom -5587.611970 kJ/mol
# Density = 2.253652 g / cm^3
# Si number density = 22.587927 Si / 1000 Ang^3
#
#
#
# Elastic Constant Matrix: (Units=GPa)
#
#
# Indices 1 2 3 4 5 6 
#
# 1 123.2067 9.0832 16.2799 0.0000 -26.8723 0.0000
# 2 9.0832 44.6481 -11.4434 0.0000 -10.7168 0.0000
# 3 16.2799 -11.4434 101.7517 0.0000 4.5368 0.0000
# 4 0.0000 0.0000 0.0000 13.0984 0.0000 -11.8171
# 5 -26.8723 -10.7168 4.5368 0.0000 52.2385 0.0000
# 6 0.0000 0.0000 0.0000 -11.8171 0.0000 24.5766
#
#
#
# Elastic Compliance Matrix: (Units=1/GPa)
#
#
# Indices 1 2 3 4 5 6 
#
# 1 0.009503 -0.001264 -0.001876 0.000000 0.004792 0.000000
# 2 -0.001264 0.024347 0.002757 0.000000 0.004105 0.000000
# 3 -0.001876 0.002757 0.010497 0.000000 -0.001311 0.000000
# 4 0.000000 0.000000 0.000000 0.134836 0.000000 0.064833
# 5 0.004792 0.004105 -0.001311 0.000000 0.022564 0.000000
# 6 0.000000 0.000000 0.000000 0.064833 0.000000 0.071862
#
#
# Mechanical properties :
#
#
# Convention : Reuss Voigt Hill
#
# Bulk Modulus (GPa) = 22.94618 33.04955 27.99787
# Shear Modulus (GPa) = 17.30702 35.02850 26.16776
#
# Velocity S-wave (km/s) = 2.77105 3.94224 3.40734
# Velocity P-wave (km/s) = 4.51873 5.94853 5.28223
#
# Compressibility (1/GPa) = 0.04358023
#
# Stress axis : x y z
#
# Youngs Moduli (GPa) = 105.23325 41.07362 95.26907
#
# Poissons Ratio (x) = 0.05191 0.17874
# Poissons Ratio (y) = 0.13300 -0.26269
# Poissons Ratio (z) = 0.19744 -0.11325
#
# Static dielectric constant tensor:
#      x y z
#    x 1.825160 0.000000 0.019370 
#    y 0.000000 2.506030 0.000000 
#    z 0.019370 0.000000 1.873670 
# 
# From -- ./inp_files/3423.got.cif
#   From: 2010.05.17/outbox.cif.g08.bks.cpg/sg9_2_cif.got.tgz:3423.got - 2010.06.03 20:04:27.
