data_PCOD9133117
_publ_section_title
;
Structure prediction by ZEFSAII (Michael W. Deem and Ramdas Pophale) SiO2 
 PCOD9133117
Probable space group: C M
;
_chemical_formula_sum "Si O2"
_cell_formula_units_Z 24
_cell_length_a 8.822938
_cell_length_b 18.555498
_cell_length_c 9.383335
_cell_angle_alpha 90.000000
_cell_angle_beta 45.502570
_cell_angle_gamma 90.000000
_cell_volume 1095.731785
_symmetry_space_group_name_H-M "C M"
_symmetry_group_IT_number 8
_symmetry_cell_setting 'monoclinic'
loop_
_space_group_symop_operation_xyz
x,y,z
x,-y,z
1/2+x,1/2+y,z
1/2+x,1/2-y,z
loop_
_atom_site_type_symbol
_atom_site_label
_atom_site_fract_x
_atom_site_fract_y
_atom_site_fract_z
Si Si1 0.788491 0.000000 0.046360
Si Si2 0.792274 0.843116 0.023045
Si Si3 0.163029 0.380378 0.805645
Si Si4 0.586397 0.752511 0.668159
Si Si5 0.921159 0.000000 0.514897
Si Si6 0.067630 0.500000 0.495450
Si Si7 0.392675 0.000000 0.079475
Si Si8 0.447427 0.842302 0.495766
O O1 0.706674 0.000000 0.260674
O O2 0.898933 0.077155 0.954391
O O3 0.574818 0.000000 0.085384
O O4 0.662259 0.844488 0.960726
O O5 0.945960 0.777230 0.891811
O O6 0.648438 0.837806 0.257008
O O7 0.184743 0.325290 0.664141
O O8 0.365087 0.432429 0.651345
O O9 0.953664 0.430620 0.944521
O O10 0.470104 0.782363 0.605108
O O11 0.747486 0.686676 0.536542
O O12 0.736667 0.000000 0.514187
O O13 0.156758 0.000000 0.296295
O O14 0.942035 0.423453 0.564421
#
# Coordination Sequence:
#
# PCOD9133117 Si02
#       8
#     2   4   4   4   2   2   2   4
#     4   8  19  43  63  92 130 172 223 271 331 407
#     4  10  23  43  67  94 137 173 223 280 334 402
#     4  10  22  41  62  99 134 162 231 283 322 410
#     4  12  24  43  66 100 133 182 219 280 345 402
#     4  11  21  40  70  95 131 177 230 279 339 400
#     4  10  21  45  63 100 136 168 232 282 324 403
#     4   9  21  40  68  93 121 185 219 278 336 396
#     4  11  26  44  70  97 140 183 227 280 341 404
#
# _framework density 21.903172000000001
#
# number of rings (size 3 to 8) (size 9 to 14) (size 15 to 20)
#    0.000    1.667    3.333    0.500    2.333    6.000 
#    6.000    0.000    0.000    0.000    0.000    0.000 
#    0.000    0.000    0.000    0.000    0.000    0.000 
#
# Total GULP energy -66836.725446 kJ/mol
# GULP energy per Si atom -5569.727121 kJ/mol
# Density = 2.185332 g / cm^3
# Si number density = 21.903172 Si / 1000 Ang^3
#
#
#
# Elastic Constant Matrix: (Units=GPa)
#
#
# Indices 1 2 3 4 5 6 
#
# 1 37.5927 24.8380 8.0026 0.0000 5.9521 0.0000
# 2 24.8380 93.6515 22.8823 0.0000 -10.2251 0.0000
# 3 8.0026 22.8823 91.4737 0.0000 -12.4150 0.0000
# 4 0.0000 0.0000 0.0000 36.2849 0.0000 5.7405
# 5 5.9521 -10.2251 -12.4150 0.0000 35.6917 0.0000
# 6 0.0000 0.0000 0.0000 5.7405 0.0000 13.8646
#
#
#
# Elastic Compliance Matrix: (Units=1/GPa)
#
#
# Indices 1 2 3 4 5 6 
#
# 1 0.034966 -0.009834 -0.001861 0.000000 -0.009296 0.000000
# 2 -0.009834 0.014335 -0.002042 0.000000 0.005036 0.000000
# 3 -0.001861 -0.002042 0.012142 0.000000 0.003949 0.000000
# 4 0.000000 0.000000 0.000000 0.029492 0.000000 -0.012211
# 5 -0.009296 0.005036 0.003949 0.000000 0.032384 0.000000
# 6 0.000000 0.000000 0.000000 -0.012211 0.000000 0.077182
#
#
# Mechanical properties :
#
#
# Convention : Reuss Voigt Hill
#
# Bulk Modulus (GPa) = 29.43824 37.12929 33.28377
# Shear Modulus (GPa) = 20.89456 28.30124 24.59790
#
# Velocity S-wave (km/s) = 3.09196 3.59849 3.35480
# Velocity P-wave (km/s) = 5.12019 5.85268 5.49864
#
# Compressibility (1/GPa) = 0.03396942
#
# Stress axis : x y z
#
# Youngs Moduli (GPa) = 28.59904 69.76007 82.36139
#
# Poissons Ratio (x) = 0.68602 0.15325
# Poissons Ratio (y) = 0.28124 0.16818
# Poissons Ratio (z) = 0.05321 0.14245
#
# Static dielectric constant tensor:
#      x y z
#    x 1.848940 0.000000 0.005470 
#    y 0.000000 1.881460 0.000000 
#    z 0.005470 0.000000 1.785340 
# 
# From -- ./inp_files/4216.got.cif
#   From: 2010.05.17/outbox.cif.g08.bks.cpg/sg8_3_cif.got.tgz:4216.got - 2010.06.03 19:46:02.
