data_PCOD9133213
_publ_section_title
;
Structure prediction by ZEFSAII (Michael W. Deem and Ramdas Pophale) SiO2 
 PCOD9133213
Probable space group: C M
;
_chemical_formula_sum "Si O2"
_cell_formula_units_Z 28
_cell_length_a 8.060741
_cell_length_b 21.476885
_cell_length_c 8.992842
_cell_angle_alpha 90.000000
_cell_angle_beta 128.530606
_cell_angle_gamma 90.000000
_cell_volume 1217.875680
_symmetry_space_group_name_H-M "C M"
_symmetry_group_IT_number 8
_symmetry_cell_setting 'monoclinic'
loop_
_space_group_symop_operation_xyz
x,y,z
x,-y,z
1/2+x,1/2+y,z
1/2+x,1/2-y,z
loop_
_atom_site_type_symbol
_atom_site_label
_atom_site_fract_x
_atom_site_fract_y
_atom_site_fract_z
Si Si1 0.580480 0.291111 0.890530
Si Si2 0.706020 0.834967 0.121283
Si Si3 0.184679 0.569983 0.548693
Si Si4 0.591404 0.232726 0.622099
Si Si5 0.484170 0.887453 0.725447
Si Si6 0.927859 0.678190 0.253617
Si Si7 0.003893 0.072036 0.465712
O O1 0.618111 0.294364 0.735009
O O2 0.329504 0.292488 0.754076
O O3 0.705893 0.228081 0.018576
O O4 0.690096 0.336266 0.068041
O O5 0.561669 0.813939 0.178934
O O6 0.896031 0.875422 0.299201
O O7 0.580325 0.881592 0.942364
O O8 0.117267 0.500000 0.479898
O O9 0.401381 0.579140 0.575236
O O10 0.153375 0.581028 0.707204
O O11 0.022720 0.618914 0.388766
O O12 0.455994 0.183262 0.643560
O O13 0.482125 0.233226 0.401466
O O14 0.256134 0.919257 0.600428
O O15 0.953867 0.000000 0.393368
#
# Coordination Sequence:
#
# PCOD9133213 Si02
#       7
#     4   4   4   4   4   4   4
#     4  11  22  40  60  95 133 179 228 272 342 405
#     4  10  23  40  65  97 133 174 228 279 331 408
#     4   9  20  41  66  98 132 173 226 278 335 402
#     4  10  24  38  60  92 129 176 226 274 337 401
#     4  10  22  41  64  95 133 174 224 284 333 399
#     4  10  22  40  65  94 133 181 219 282 334 397
#     4  10  22  42  69  97 132 179 226 277 344 398
#
# _framework density 22.990850999999999
#
# number of rings (size 3 to 8) (size 9 to 14) (size 15 to 20)
#    0.000    2.000    1.429    0.429    2.000   11.429 
#    0.000    1.429    0.000    7.714    0.000    0.000 
#    0.000    0.000    0.000    0.000    0.000    0.000 
#
# Total GULP energy -78044.533348 kJ/mol
# GULP energy per Si atom -5574.609525 kJ/mol
# Density = 2.293852 g / cm^3
# Si number density = 22.990851 Si / 1000 Ang^3
#
#
#
# Elastic Constant Matrix: (Units=GPa)
#
#
# Indices 1 2 3 4 5 6 
#
# 1 97.0315 14.1324 66.1284 0.0000 -6.6590 0.0000
# 2 14.1324 80.6217 12.9016 0.0000 -0.4665 0.0000
# 3 66.1284 12.9016 143.3664 0.0000 -14.2180 0.0000
# 4 0.0000 0.0000 0.0000 16.4522 0.0000 2.4440
# 5 -6.6590 -0.4665 -14.2180 0.0000 44.5295 0.0000
# 6 0.0000 0.0000 0.0000 2.4440 0.0000 25.9015
#
#
#
# Elastic Compliance Matrix: (Units=1/GPa)
#
#
# Indices 1 2 3 4 5 6 
#
# 1 0.015224 -0.001568 -0.006875 0.000000 0.000065 0.000000
# 2 -0.001568 0.012749 -0.000448 0.000000 -0.000244 0.000000
# 3 -0.006875 -0.000448 0.010414 0.000000 0.002292 0.000000
# 4 0.000000 0.000000 0.000000 0.061646 0.000000 -0.005817
# 5 0.000065 -0.000244 0.002292 0.000000 0.023196 0.000000
# 6 0.000000 0.000000 0.000000 -0.005817 0.000000 0.039157
#
#
# Mechanical properties :
#
#
# Convention : Reuss Voigt Hill
#
# Bulk Modulus (GPa) = 48.53251 56.37162 52.45207
# Shear Modulus (GPa) = 26.73292 32.56711 29.65002
#
# Velocity S-wave (km/s) = 3.41363 3.76776 3.59506
# Velocity P-wave (km/s) = 6.05743 6.59548 6.33217
#
# Compressibility (1/GPa) = 0.02060474
#
# Stress axis : x y z
#
# Youngs Moduli (GPa) = 65.68630 78.43876 96.02739
#
# Poissons Ratio (x) = 0.12300 0.66014
# Poissons Ratio (y) = 0.10301 0.04303
# Poissons Ratio (z) = 0.45156 0.03515
#
# Static dielectric constant tensor:
#      x y z
#    x 1.921960 0.000000 -0.028720 
#    y 0.000000 1.979270 0.000000 
#    z -0.028720 0.000000 1.894140 
# 
# From -- ./inp_files/9237.got.cif
#   From: 2010.05.17/outbox.cif.g08.bks.cpg/sg8_5_cif.got.tgz:9237.got - 2010.06.03 19:46:02.
