data_PCOD9133913
_publ_section_title
;
Structure prediction by ZEFSAII (Michael W. Deem and Ramdas Pophale) SiO2 
 PCOD9133913
Probable space group: C C
;
_chemical_formula_sum "Si O2"
_cell_formula_units_Z 28
_cell_length_a 9.693236
_cell_length_b 23.654634
_cell_length_c 9.191522
_cell_angle_alpha 90.000000
_cell_angle_beta 30.714465
_cell_angle_gamma 90.000000
_cell_volume 1076.438725
_symmetry_space_group_name_H-M "C C"
_symmetry_group_IT_number 9
_symmetry_cell_setting 'monoclinic'
loop_
_space_group_symop_operation_xyz
x,y,z
x,-y,1/2+z
1/2+x,1/2+y,z
1/2+x,1/2-y,1/2+z
loop_
_atom_site_type_symbol
_atom_site_label
_atom_site_fract_x
_atom_site_fract_y
_atom_site_fract_z
Si Si1 0.183160 0.099295 0.431390
Si Si2 0.830786 0.780576 0.038216
Si Si3 0.043421 0.211964 0.669433
Si Si4 0.216469 0.400826 0.884804
Si Si5 0.852786 0.789226 0.691949
Si Si6 0.625872 0.029210 0.912547
Si Si7 0.289400 0.902493 0.509614
O O1 0.161113 0.148419 0.573712
O O2 0.239125 0.124827 0.216061
O O3 0.911140 0.062061 0.666355
O O4 0.434917 0.056619 0.210732
O O5 0.511159 0.775441 0.345823
O O6 0.935090 0.795111 0.102089
O O7 0.892766 0.807581 0.826737
O O8 0.276333 0.259250 0.479014
O O9 0.269419 0.351534 0.715801
O O10 0.132192 0.462215 0.905734
O O11 0.497751 0.416595 0.711241
O O12 0.971535 0.379722 0.212032
O O13 0.129287 0.759968 0.395178
O O14 0.479633 0.047132 0.895367
#
# Coordination Sequence:
#
# PCOD9133913 Si02
#       7
#     4   4   4   4   4   4   4
#     4  10  19  36  47  70 114 133 174 239 248 300
#     4   8  15  23  34  56  88 120 158 185 210 284
#     4  10  18  26  43  67  94 140 177 201 253 310
#     4  12  21  36  59  75 109 158 173 220 288 304
#     4  10  20  32  45  75 108 138 176 209 252 338
#     4  10  22  36  52  77 105 146 190 228 259 320
#     4  10  21  35  54  76 106 145 186 220 266 314
#
# _framework density 26.011697999999999
#
# number of rings (size 3 to 8) (size 9 to 14) (size 15 to 20)
#    0.857    1.143    1.429    3.429    0.000    4.571 
#    0.000    0.000    0.000    0.000    0.000    0.000 
#    0.000   22.857    0.000    0.000    0.000    0.000 
#
# Total GULP energy -77967.305716 kJ/mol
# GULP energy per Si atom -5569.093265 kJ/mol
# Density = 2.595249 g / cm^3
# Si number density = 26.011698 Si / 1000 Ang^3
#
#
#
# Elastic Constant Matrix: (Units=GPa)
#
#
# Indices 1 2 3 4 5 6 
#
# 1 38.6177 8.3494 27.3949 0.0000 4.0559 0.0000
# 2 8.3494 163.5895 60.4562 0.0000 2.4272 0.0000
# 3 27.3949 60.4562 192.6170 0.0000 -3.9432 0.0000
# 4 0.0000 0.0000 0.0000 11.2027 0.0000 -1.9850
# 5 4.0559 2.4272 -3.9432 0.0000 37.1938 0.0000
# 6 0.0000 0.0000 0.0000 -1.9850 0.0000 12.1911
#
#
#
# Elastic Compliance Matrix: (Units=1/GPa)
#
#
# Indices 1 2 3 4 5 6 
#
# 1 0.029288 0.000143 -0.004285 0.000000 -0.003657 0.000000
# 2 0.000143 0.006933 -0.002211 0.000000 -0.000702 0.000000
# 3 -0.004285 -0.002211 0.006522 0.000000 0.001303 0.000000
# 4 0.000000 0.000000 0.000000 0.091916 0.000000 0.014966
# 5 -0.003657 -0.000702 0.001303 0.000000 0.027469 0.000000
# 6 0.000000 0.000000 0.000000 0.014966 0.000000 0.084464
#
#
# Mechanical properties :
#
#
# Convention : Reuss Voigt Hill
#
# Bulk Modulus (GPa) = 33.29252 65.24725 49.26988
# Shear Modulus (GPa) = 18.56600 32.02577 25.29589
#
# Velocity S-wave (km/s) = 2.67452 3.51266 3.12185
# Velocity P-wave (km/s) = 4.72908 6.44903 5.65483
#
# Compressibility (1/GPa) = 0.03003678
#
# Stress axis : x y z
#
# Youngs Moduli (GPa) = 34.14372 144.23781 153.33454
#
# Poissons Ratio (x) = -0.02064 0.65708
# Poissons Ratio (y) = -0.00489 0.33899
# Poissons Ratio (z) = 0.14632 0.31888
#
# Static dielectric constant tensor:
#      x y z
#    x 2.201470 0.000000 0.052810 
#    y 0.000000 2.269070 0.000000 
#    z 0.052810 0.000000 2.102890 
# 
# From -- ./inp_files/26165.got.cif
#   From: 2010.05.17/outbox.cif.g08.bks.cpg/sg9_14_cif.got.tgz:26165.got - 2010.06.03 20:04:27.
