data_PCOD9133535
_publ_section_title
;
Structure prediction by ZEFSAII (Michael W. Deem and Ramdas Pophale) SiO2 
 PCOD9133535
Probable space group: C M
;
_chemical_formula_sum "Si O2"
_cell_formula_units_Z 24
_cell_length_a 7.267954
_cell_length_b 17.611420
_cell_length_c 8.262048
_cell_angle_alpha 90.000000
_cell_angle_beta 77.734306
_cell_angle_gamma 90.000000
_cell_volume 1033.393428
_symmetry_space_group_name_H-M "C M"
_symmetry_group_IT_number 8
_symmetry_cell_setting 'monoclinic'
loop_
_space_group_symop_operation_xyz
x,y,z
x,-y,z
1/2+x,1/2+y,z
1/2+x,1/2-y,z
loop_
_atom_site_type_symbol
_atom_site_label
_atom_site_fract_x
_atom_site_fract_y
_atom_site_fract_z
Si Si1 0.921950 0.175017 0.263860
Si Si2 0.766275 0.832759 0.797642
Si Si3 0.150751 0.163086 0.882505
Si Si4 0.961717 0.588713 0.660987
Si Si5 0.782166 0.655034 0.372770
Si Si6 0.111072 0.412661 0.141111
O O1 0.845690 0.259040 0.317291
O O2 0.746791 0.121092 0.255593
O O3 0.061095 0.150044 0.380528
O O4 0.052516 0.174440 0.076036
O O5 0.981516 0.854034 0.789702
O O6 0.745970 0.742373 0.812416
O O7 0.654819 0.868446 0.669191
O O8 0.659202 0.864772 0.974673
O O9 0.312882 0.100676 0.836023
O O10 0.993340 0.500000 0.624393
O O11 0.857257 0.629331 0.532013
O O12 0.897431 0.600790 0.230810
O O13 0.154624 0.500000 0.105095
#
# Coordination Sequence:
#
# PCOD9133535 Si02
#       6
#     4   4   4   4   4   4
#     4  11  23  43  73  99 129 177 236 276 324 402
#     4  11  22  42  72  98 129 179 228 278 330 398
#     4  11  22  42  74 100 127 176 232 279 327 401
#     4  12  29  44  64 103 144 178 219 278 347 401
#     4  12  24  43  70  97 137 183 222 273 334 404
#     4  11  24  42  69 103 136 171 225 286 338 390
#
# _framework density 23.224457000000001
#
# number of rings (size 3 to 8) (size 9 to 14) (size 15 to 20)
#    0.000    0.667    5.000    3.000    2.333    6.000 
#    0.000    0.000    0.000    0.000    0.000    0.000 
#    0.000    0.000    0.000    0.000    0.000    0.000 
#
# Total GULP energy -67206.786493 kJ/mol
# GULP energy per Si atom -5600.565541 kJ/mol
# Density = 2.317160 g / cm^3
# Si number density = 23.224457 Si / 1000 Ang^3
#
#
#
# Elastic Constant Matrix: (Units=GPa)
#
#
# Indices 1 2 3 4 5 6 
#
# 1 108.3225 -20.5900 9.1346 0.0000 28.4776 0.0000
# 2 -20.5900 63.6410 7.3643 0.0000 5.4669 0.0000
# 3 9.1346 7.3643 73.3692 0.0000 19.8795 0.0000
# 4 0.0000 0.0000 0.0000 -24.0801 0.0000 -33.1973
# 5 28.4776 5.4669 19.8795 0.0000 48.6301 0.0000
# 6 0.0000 0.0000 0.0000 -33.1973 0.0000 -4.6136
#
#
#
# Elastic Compliance Matrix: (Units=1/GPa)
#
#
# Indices 1 2 3 4 5 6 
#
# 1 0.012098 0.004558 0.000106 0.000000 -0.007640 0.000000
# 2 0.004558 0.017686 -0.001215 0.000000 -0.004161 0.000000
# 3 0.000106 -0.001215 0.015427 0.000000 -0.006232 0.000000
# 4 0.000000 0.000000 0.000000 0.004656 0.000000 -0.033500
# 5 -0.007640 -0.004161 -0.006232 0.000000 0.028053 0.000000
# 6 0.000000 0.000000 0.000000 -0.033500 0.000000 0.024300
#
#
# Mechanical properties :
#
#
# Convention : Reuss Voigt Hill
#
# Bulk Modulus (GPa) = 19.19063 26.35006 22.77035
# Shear Modulus (GPa) = 44.36939 20.61552 32.49245
#
# Velocity S-wave (km/s) = 4.37562 2.98260 3.74446
# Velocity P-wave (km/s) = 5.81456 4.81992 5.34045
#
# Compressibility (1/GPa) = 0.05210875
#
# Stress axis : x y z
#
# Youngs Moduli (GPa) = 82.66032 56.54242 64.82122
#
# Poissons Ratio (x) = -0.25772 -0.00690
# Poissons Ratio (y) = -0.37677 0.07878
# Poissons Ratio (z) = -0.00880 0.06872
#
# Static dielectric constant tensor:
#      x y z
#    x 1.851340 0.000000 -0.009540 
#    y 0.000000 1.837160 0.000000 
#    z -0.009540 0.000000 1.997220 
# 
# From -- ./inp_files/8160.got.cif
#   From: 2010.05.17/outbox.cif.g08.bks.cpg/sg8_5_cif.got.tgz:8160.got - 2010.06.03 19:46:02.
