data_PCOD9133306
_publ_section_title
;
Structure prediction by ZEFSAII (Michael W. Deem and Ramdas Pophale) SiO2 
 PCOD9133306
Probable space group: C M
;
_chemical_formula_sum "Si O2"
_cell_formula_units_Z 28
_cell_length_a 10.072325
_cell_length_b 22.414029
_cell_length_c 5.736819
_cell_angle_alpha 90.000000
_cell_angle_beta 74.562624
_cell_angle_gamma 90.000000
_cell_volume 1248.425658
_symmetry_space_group_name_H-M "C M"
_symmetry_group_IT_number 8
_symmetry_cell_setting 'monoclinic'
loop_
_space_group_symop_operation_xyz
x,y,z
x,-y,z
1/2+x,1/2+y,z
1/2+x,1/2-y,z
loop_
_atom_site_type_symbol
_atom_site_label
_atom_site_fract_x
_atom_site_fract_y
_atom_site_fract_z
Si Si1 0.794720 0.153204 0.993610
Si Si2 0.224582 0.568917 0.644803
Si Si3 0.093992 0.680667 0.454807
Si Si4 0.554335 0.697632 0.630730
Si Si5 0.996342 0.893551 0.285616
Si Si6 0.299742 0.066932 0.117209
Si Si7 0.317638 0.872127 0.615196
O O1 0.712066 0.101628 0.897795
O O2 0.898649 0.192697 0.793607
O O3 0.685229 0.191758 0.185577
O O4 0.901862 0.119530 0.110588
O O5 0.183498 0.500000 0.650616
O O6 0.144822 0.615506 0.515683
O O7 0.388456 0.574784 0.511333
O O8 0.114788 0.736254 0.614505
O O9 0.931074 0.677586 0.503660
O O10 0.543368 0.669554 0.376141
O O11 0.663879 0.654009 0.701045
O O12 0.133345 0.930167 0.176857
O O13 0.326636 0.088514 0.372047
O O14 0.352089 0.000000 0.072304
O O15 0.349661 0.101219 0.858373
#
# Coordination Sequence:
#
# PCOD9133306 Si02
#       7
#     4   4   4   4   4   4   4
#     4  10  22  43  67  97 132 179 230 281 352 406
#     4  10  23  42  65  98 136 178 233 285 347 419
#     4  11  27  43  67 101 133 186 223 291 357 418
#     4  10  23  44  68  96 138 172 235 287 347 423
#     4   9  20  41  66 101 128 177 231 290 335 405
#     4  11  23  44  70 101 141 186 234 286 352 416
#     4  11  26  45  67 108 136 184 232 292 350 419
#
# _framework density 22.428246000000001
#
# number of rings (size 3 to 8) (size 9 to 14) (size 15 to 20)
#    0.000    1.714    1.429    0.857    8.000    7.429 
#    0.000    0.000    0.000    0.000    0.000    0.000 
#    0.000    0.000    0.000    0.000    0.000    0.000 
#
# Total GULP energy -78044.733145 kJ/mol
# GULP energy per Si atom -5574.623796 kJ/mol
# Density = 2.237720 g / cm^3
# Si number density = 22.428246 Si / 1000 Ang^3
#
#
#
# Elastic Constant Matrix: (Units=GPa)
#
#
# Indices 1 2 3 4 5 6 
#
# 1 43.7772 8.0442 18.3901 0.0000 -10.1166 0.0000
# 2 8.0442 109.5977 34.2915 0.0000 -13.0618 0.0000
# 3 18.3901 34.2915 93.5697 0.0000 -11.8201 0.0000
# 4 0.0000 0.0000 0.0000 14.7064 0.0000 -0.4229
# 5 -10.1166 -13.0618 -11.8201 0.0000 31.0362 0.0000
# 6 0.0000 0.0000 0.0000 -0.4229 0.0000 13.6081
#
#
#
# Elastic Compliance Matrix: (Units=1/GPa)
#
#
# Indices 1 2 3 4 5 6 
#
# 1 0.026249 0.000277 -0.004376 0.000000 0.007007 0.000000
# 2 0.000277 0.010590 -0.003531 0.000000 0.003203 0.000000
# 3 -0.004376 -0.003531 0.013104 0.000000 0.002078 0.000000
# 4 0.000000 0.000000 0.000000 0.068058 0.000000 0.002115
# 5 0.007007 0.003203 0.002078 0.000000 0.036644 0.000000
# 6 0.000000 0.000000 0.000000 0.002115 0.000000 0.073551
#
#
# Mechanical properties :
#
#
# Convention : Reuss Voigt Hill
#
# Bulk Modulus (GPa) = 28.83094 40.93289 34.88191
# Shear Modulus (GPa) = 19.60654 24.28474 21.94564
#
# Velocity S-wave (km/s) = 2.95988 3.29412 3.13146
# Velocity P-wave (km/s) = 4.95619 5.72351 5.35361
#
# Compressibility (1/GPa) = 0.03468496
#
# Stress axis : x y z
#
# Youngs Moduli (GPa) = 38.09635 94.42469 76.31363
#
# Poissons Ratio (x) = -0.02620 0.33392
# Poissons Ratio (y) = -0.01057 0.26948
# Poissons Ratio (z) = 0.16669 0.33343
#
# Static dielectric constant tensor:
#      x y z
#    x 1.811880 0.000000 0.016410 
#    y 0.000000 1.835640 0.000000 
#    z 0.016410 0.000000 1.920760 
# 
# From -- ./inp_files/2912.got.cif
#   From: 2010.05.17/outbox.cif.g08.bks.cpg/sg8_2_cif.got.tgz:2912.got - 2010.06.03 19:46:02.
