data_PCOD9133614
_publ_section_title
;
Structure prediction by ZEFSAII (Michael W. Deem and Ramdas Pophale) SiO2 
 PCOD9133614
Probable space group: C M
;
_chemical_formula_sum "Si O2"
_cell_formula_units_Z 22
_cell_length_a 21.830084
_cell_length_b 10.088891
_cell_length_c 13.490997
_cell_angle_alpha 90.000000
_cell_angle_beta 160.444007
_cell_angle_gamma 90.000000
_cell_volume 994.568741
_symmetry_space_group_name_H-M "C M"
_symmetry_group_IT_number 8
_symmetry_cell_setting 'monoclinic'
loop_
_space_group_symop_operation_xyz
x,y,z
x,-y,z
1/2+x,1/2+y,z
1/2+x,1/2-y,z
loop_
_atom_site_type_symbol
_atom_site_label
_atom_site_fract_x
_atom_site_fract_y
_atom_site_fract_z
Si Si1 0.023170 0.500000 0.474481
Si Si2 0.126176 0.000000 0.577427
Si Si3 0.268646 0.500000 0.171855
Si Si4 0.417648 0.500000 0.061451
Si Si5 0.762961 0.156840 0.516064
Si Si6 0.883883 0.500000 0.471129
Si Si7 0.710884 0.220595 0.654341
Si Si8 0.660205 0.764067 0.149470
O O1 0.227042 0.500000 0.833574
O O2 0.038166 0.633332 0.432215
O O3 0.884970 0.500000 0.352614
O O4 0.952760 0.000000 0.386746
O O5 0.225686 0.858615 0.734839
O O6 0.068609 0.000000 0.373497
O O7 0.254925 0.370665 0.221516
O O8 0.085318 0.500000 0.825618
O O9 0.384907 0.626935 0.943050
O O10 0.692066 0.225152 0.508166
O O11 0.647316 0.174488 0.239781
O O12 0.778468 0.000000 0.559875
O O13 0.964082 0.219997 0.808271
O O14 0.778889 0.631773 0.341891
#
# Coordination Sequence:
#
# PCOD9133614 Si02
#       8
#     2   2   2   2   4   2   4   4
#     4   8  18  42  61  85 129 168 202 267 329 367
#     4  12  22  40  69  95 128 174 211 272 331 385
#     4  12  24  42  64 101 139 163 227 278 313 398
#     4   8  20  40  57  90 129 163 209 254 332 372
#     4  12  24  46  67  97 137 170 224 275 323 396
#     4  12  22  44  65  95 135 174 229 265 321 404
#     4   9  22  39  66  93 123 169 216 263 328 381
#     4  12  27  40  72  95 130 186 214 269 337 377
#
# _framework density 22.120139000000002
#
# number of rings (size 3 to 8) (size 9 to 14) (size 15 to 20)
#    1.091    0.000    6.364    1.091    2.545    1.455 
#    0.000    1.818    0.000    0.000    0.000    0.000 
#    0.000    0.000    0.000    0.000    0.000    0.000 
#
# Total GULP energy -61360.198771 kJ/mol
# GULP energy per Si atom -5578.199888 kJ/mol
# Density = 2.206979 g / cm^3
# Si number density = 22.120139 Si / 1000 Ang^3
#
#
#
# Elastic Constant Matrix: (Units=GPa)
#
#
# Indices 1 2 3 4 5 6 
#
# 1 97.9155 44.6532 -0.1879 0.0000 -5.6029 0.0000
# 2 44.6532 172.0202 17.6140 0.0000 13.3386 0.0000
# 3 -0.1879 17.6140 46.6802 0.0000 -15.4216 0.0000
# 4 0.0000 0.0000 0.0000 0.5108 0.0000 -3.8743
# 5 -5.6029 13.3386 -15.4216 0.0000 19.8001 0.0000
# 6 0.0000 0.0000 0.0000 -3.8743 0.0000 38.3509
#
#
#
# Elastic Compliance Matrix: (Units=1/GPa)
#
#
# Indices 1 2 3 4 5 6 
#
# 1 0.013089 -0.004857 0.005642 0.000000 0.011370 0.000000
# 2 -0.004857 0.008924 -0.007846 0.000000 -0.013497 0.000000
# 3 0.005642 -0.007846 0.035922 -0.000001 0.034861 0.000000
# 4 0.000000 0.000000 -0.000001 8.376999 -0.000002 0.846260
# 5 0.011370 -0.013497 0.034861 -0.000002 0.089966 0.000000
# 6 0.000000 0.000000 0.000000 0.846260 0.000000 0.111566
#
#
# Mechanical properties :
#
#
# Convention : Reuss Voigt Hill
#
# Bulk Modulus (GPa) = 22.82411 48.97494 35.89953
# Shear Modulus (GPa) = 0.57702 28.70147 14.63925
#
# Velocity S-wave (km/s) = 0.51130 3.60603 2.57535
# Velocity P-wave (km/s) = 3.26944 6.28700 5.01077
#
# Compressibility (1/GPa) = 0.04381331
#
# Stress axis : x y z
#
# Youngs Moduli (GPa) = 76.39805 112.05702 27.83777
#
# Poissons Ratio (x) = 0.54427 -0.15705
# Poissons Ratio (y) = 0.37107 0.21841
# Poissons Ratio (z) = -0.43102 0.87919
#
# Static dielectric constant tensor:
#      x y z
#    x 1.789620 0.000000 0.000780 
#    y 0.000000 1.865050 0.000000 
#    z 0.000780 0.000000 1.815410 
# 
# From -- ./inp_files/28172.got.cif
#   From: 2010.05.17/outbox.cif.g08.bks.cpg/sg8_15_cif.got.tgz:28172.got - 2010.06.03 19:46:02.
