data_PCOD9133812
_publ_section_title
;
Structure prediction by ZEFSAII (Michael W. Deem and Ramdas Pophale) SiO2 
 PCOD9133812
Probable space group: C C
;
_chemical_formula_sum "Si O2"
_cell_formula_units_Z 32
_cell_length_a 21.460976
_cell_length_b 8.566120
_cell_length_c 11.657933
_cell_angle_alpha 90.000000
_cell_angle_beta 137.189369
_cell_angle_gamma 90.000000
_cell_volume 1456.445127
_symmetry_space_group_name_H-M "C C"
_symmetry_group_IT_number 9
_symmetry_cell_setting 'monoclinic'
loop_
_space_group_symop_operation_xyz
x,y,z
x,-y,1/2+z
1/2+x,1/2+y,z
1/2+x,1/2-y,1/2+z
loop_
_atom_site_type_symbol
_atom_site_label
_atom_site_fract_x
_atom_site_fract_y
_atom_site_fract_z
Si Si1 0.532310 0.783474 0.410680
Si Si2 0.795570 0.605858 0.020168
Si Si3 0.147675 0.307062 0.946929
Si Si4 0.332475 0.252277 0.629972
Si Si5 0.733092 0.757149 0.730356
Si Si6 0.247726 0.396039 0.309946
Si Si7 0.486344 0.151890 0.380281
Si Si8 0.574139 0.124850 0.724504
O O1 0.434890 0.717175 0.314897
O O2 0.624794 0.726043 0.593348
O O3 0.552812 0.769709 0.304000
O O4 0.519937 0.970958 0.408815
O O5 0.703089 0.680930 0.947496
O O6 0.811802 0.428299 0.076697
O O7 0.887020 0.685162 0.194772
O O8 0.789130 0.626296 0.873976
O O9 0.223545 0.359476 0.145238
O O10 0.061563 0.251945 0.908589
O O11 0.104041 0.450727 0.812053
O O12 0.263232 0.288782 0.640326
O O13 0.327088 0.332921 0.498499
O O14 0.751629 0.917955 0.821005
O O15 0.160830 0.331161 0.264279
O O16 0.490891 0.152946 0.523858
#
# Coordination Sequence:
#
# PCOD9133812 Si02
#       8
#     4   4   4   4   4   4   4   4
#     4  10  20  39  64  92 126 178 220 270 318 403
#     4  11  25  39  65  99 137 172 215 282 346 384
#     4  10  19  36  65  93 124 167 219 272 327 383
#     4  11  27  41  64 103 135 170 226 282 342 384
#     4  12  23  45  68  93 136 177 230 270 332 407
#     4  11  20  40  70  92 126 174 228 272 317 404
#     4   9  20  35  62  97 122 170 231 266 316 405
#     4  10  16  37  66  93 120 166 231 266 308 392
#
# _framework density 21.971305999999998
#
# number of rings (size 3 to 8) (size 9 to 14) (size 15 to 20)
#    0.000    1.500    6.250    0.000    3.500    6.000 
#    0.000    2.500    0.000    0.000    0.000    0.000 
#    0.000    0.000    0.000    0.000    0.000    0.000 
#
# Total GULP energy -89095.411749 kJ/mol
# GULP energy per Si atom -5568.463234 kJ/mol
# Density = 2.192130 g / cm^3
# Si number density = 21.971306 Si / 1000 Ang^3
#
#
#
# Elastic Constant Matrix: (Units=GPa)
#
#
# Indices 1 2 3 4 5 6 
#
# 1 61.2419 13.5724 42.7564 0.0000 0.2856 0.0000
# 2 13.5724 14.7301 22.5123 0.0000 3.9477 0.0000
# 3 42.7564 22.5123 139.7934 0.0000 5.3680 0.0000
# 4 0.0000 0.0000 0.0000 28.3295 0.0000 -5.8558
# 5 0.2856 3.9477 5.3680 0.0000 37.6047 0.0000
# 6 0.0000 0.0000 0.0000 -5.8558 0.0000 19.8131
#
#
#
# Elastic Compliance Matrix: (Units=1/GPa)
#
#
# Indices 1 2 3 4 5 6 
#
# 1 0.022802 -0.014287 -0.004750 0.000000 0.002005 0.000000
# 2 -0.014287 0.101114 -0.011573 0.000000 -0.008854 0.000000
# 3 -0.004750 -0.011573 0.010479 0.000000 -0.000245 0.000000
# 4 0.000000 0.000000 0.000000 0.037596 0.000000 0.011111
# 5 0.002005 -0.008854 -0.000245 0.000000 0.027542 0.000000
# 6 0.000000 0.000000 0.000000 0.011111 0.000000 0.053756
#
#
# Mechanical properties :
#
#
# Convention : Reuss Voigt Hill
#
# Bulk Modulus (GPa) = 13.66621 41.49417 27.58019
# Shear Modulus (GPa) = 14.75353 26.27775 20.51564
#
# Velocity S-wave (km/s) = 2.59413 3.46208 3.05904
# Velocity P-wave (km/s) = 3.89951 5.90829 5.00570
#
# Compressibility (1/GPa) = 0.07317319
#
# Stress axis : x y z
#
# Youngs Moduli (GPa) = 43.85555 9.88984 95.42444
#
# Poissons Ratio (x) = 0.14130 0.45329
# Poissons Ratio (y) = 0.62658 1.10439
# Poissons Ratio (z) = 0.20833 0.11446
#
# Static dielectric constant tensor:
#      x y z
#    x 1.844780 0.000000 -0.017020 
#    y 0.000000 1.813990 0.000000 
#    z -0.017020 0.000000 1.933710 
# 
# From -- ./inp_files/20052.got.cif
#   From: 2010.05.17/outbox.cif.g08.bks.cpg/sg9_11_cif.got.tgz:20052.got - 2010.06.03 20:04:27.
