data_PCOD9133834
_publ_section_title
;
Structure prediction by ZEFSAII (Michael W. Deem and Ramdas Pophale) SiO2 
 PCOD9133834
Probable space group: C C
;
_chemical_formula_sum "Si O2"
_cell_formula_units_Z 28
_cell_length_a 13.674717
_cell_length_b 17.595488
_cell_length_c 5.295792
_cell_angle_alpha 90.000000
_cell_angle_beta 83.484232
_cell_angle_gamma 90.000000
_cell_volume 1266.007357
_symmetry_space_group_name_H-M "C C"
_symmetry_group_IT_number 9
_symmetry_cell_setting 'monoclinic'
loop_
_space_group_symop_operation_xyz
x,y,z
x,-y,1/2+z
1/2+x,1/2+y,z
1/2+x,1/2-y,1/2+z
loop_
_atom_site_type_symbol
_atom_site_label
_atom_site_fract_x
_atom_site_fract_y
_atom_site_fract_z
Si Si1 0.222600 0.102376 0.350670
Si Si2 0.084037 0.666463 0.829642
Si Si3 0.129637 0.130506 0.876951
Si Si4 0.627758 0.042571 0.458875
Si Si5 0.739669 0.241936 0.108059
Si Si6 0.444990 0.898075 0.758604
Si Si7 0.460018 0.266755 0.528075
O O1 0.168457 0.082451 0.628201
O O2 0.240230 0.193228 0.389226
O O3 0.333442 0.073313 0.280537
O O4 0.153459 0.091540 0.132314
O O5 0.142849 0.624643 0.586968
O O6 0.025921 0.739993 0.746871
O O7 0.159381 0.683950 0.031165
O O8 0.000477 0.612206 0.975423
O O9 0.198374 0.206559 0.845690
O O10 0.020768 0.165122 0.883160
O O11 0.511163 0.051653 0.426532
O O12 0.662639 0.013610 0.174100
O O13 0.848307 0.211899 0.124193
O O14 0.451410 0.811594 0.870290
#
# Coordination Sequence:
#
# PCOD9133834 Si02
#       7
#     4   4   4   4   4   4   4
#     4   9  19  29  47  69  98 132 173 196 240 302
#     4  11  19  34  53  74 105 144 170 207 264 300
#     4  10  17  31  42  68 105 136 169 202 231 289
#     4  11  23  37  51  73 101 133 174 222 261 305
#     4   9  19  29  47  71 101 138 176 195 242 304
#     4  10  19  32  54  70  99 139 172 205 256 300
#     4  10  18  30  46  75 105 146 168 203 238 306
#
# _framework density 22.116773999999999
#
# number of rings (size 3 to 8) (size 9 to 14) (size 15 to 20)
#    0.857    1.143    4.286    0.857    2.000    0.000 
#    0.000    0.000    0.000    0.000    0.000    0.000 
#    0.000    6.857    0.000    0.000    0.000    0.000 
#
# Total GULP energy -77957.021257 kJ/mol
# GULP energy per Si atom -5568.358661 kJ/mol
# Density = 2.206643 g / cm^3
# Si number density = 22.116774 Si / 1000 Ang^3
#
#
#
# Elastic Constant Matrix: (Units=GPa)
#
#
# Indices 1 2 3 4 5 6 
#
# 1 85.4703 6.6183 11.9554 0.0000 -14.3489 0.0000
# 2 6.6183 51.6122 4.2669 0.0000 0.5403 0.0000
# 3 11.9554 4.2669 113.0412 0.0000 13.8833 0.0000
# 4 0.0000 0.0000 0.0000 -12.6762 0.0000 -6.8425
# 5 -14.3489 0.5403 13.8833 0.0000 26.1034 0.0000
# 6 0.0000 0.0000 0.0000 -6.8425 0.0000 3.6065
#
#
#
# Elastic Compliance Matrix: (Units=1/GPa)
#
#
# Indices 1 2 3 4 5 6 
#
# 1 0.013659 -0.001640 -0.002470 0.000000 0.008856 0.000000
# 2 -0.001640 0.019633 -0.000435 0.000000 -0.001076 0.000000
# 3 -0.002470 -0.000435 0.009939 0.000000 -0.006635 0.000000
# 4 0.000000 0.000000 0.000000 -0.038974 0.000000 -0.073944
# 5 0.008856 -0.001076 -0.006635 0.000000 0.046729 0.000000
# 6 0.000000 0.000000 0.000000 -0.073944 0.000000 0.136987
#
#
# Mechanical properties :
#
#
# Convention : Reuss Voigt Hill
#
# Bulk Modulus (GPa) = 29.29173 32.86721 31.07947
# Shear Modulus (GPa) = 23.98724 18.55895 21.27310
#
# Velocity S-wave (km/s) = 3.29686 2.89992 3.10474
# Velocity P-wave (km/s) = 5.26927 5.10938 5.18994
#
# Compressibility (1/GPa) = 0.03413933
#
# Stress axis : x y z
#
# Youngs Moduli (GPa) = 73.20997 50.93512 100.61440
#
# Poissons Ratio (x) = 0.08354 0.24856
# Poissons Ratio (y) = 0.12007 0.04381
# Poissons Ratio (z) = 0.18086 0.02218
#
# Static dielectric constant tensor:
#      x y z
#    x 1.785720 0.000000 -0.034510 
#    y 0.000000 1.915060 0.000000 
#    z -0.034510 0.000000 1.889330 
# 
# From -- ./inp_files/1898.got.cif
#   From: 2010.05.17/outbox.cif.g08.bks.cpg/sg9_1_cif.got.tgz:1898.got - 2010.06.03 20:04:27.
