data_PCOD9133418
_publ_section_title
;
Structure prediction by ZEFSAII (Michael W. Deem and Ramdas Pophale) SiO2 
 PCOD9133418
Probable space group: C M
;
_chemical_formula_sum "Si O2"
_cell_formula_units_Z 24
_cell_length_a 8.528408
_cell_length_b 23.926717
_cell_length_c 5.124070
_cell_angle_alpha 90.000000
_cell_angle_beta 101.302953
_cell_angle_gamma 90.000000
_cell_volume 1025.321451
_symmetry_space_group_name_H-M "C M"
_symmetry_group_IT_number 8
_symmetry_cell_setting 'monoclinic'
loop_
_space_group_symop_operation_xyz
x,y,z
x,-y,z
1/2+x,1/2+y,z
1/2+x,1/2-y,z
loop_
_atom_site_type_symbol
_atom_site_label
_atom_site_fract_x
_atom_site_fract_y
_atom_site_fract_z
Si Si1 0.596200 0.809273 0.613810
Si Si2 0.864544 0.619052 0.837685
Si Si3 0.527028 0.000000 0.839628
Si Si4 0.255113 0.210532 0.448869
Si Si5 0.565144 0.653775 0.027704
Si Si6 0.751213 0.000000 0.417862
Si Si7 0.864120 0.878074 0.465144
O O1 0.523428 0.841365 0.843747
O O2 0.437838 0.783321 0.430630
O O3 0.712857 0.756158 0.652760
O O4 0.686265 0.854207 0.461732
O O5 0.759472 0.648407 0.575176
O O6 0.923406 0.556263 0.828457
O O7 0.735358 0.622353 0.028084
O O8 0.662707 0.000000 0.109210
O O9 0.614145 0.000000 0.590977
O O10 0.135603 0.211106 0.168616
O O11 0.441886 0.634091 0.211139
O O12 0.464923 0.650284 0.730728
O O13 0.854671 0.055491 0.489953
#
# Coordination Sequence:
#
# PCOD9133418 Si02
#       7
#     4   4   2   4   4   2   4
#     4  10  23  49  76 110 149 207 252 319 372 464
#     4  10  26  47  78 111 152 207 255 318 380 457
#     4  12  26  48  81 111 160 196 265 309 386 460
#     4  10  23  49  73 110 147 201 255 309 384 442
#     4  12  26  49  71 111 154 195 256 317 380 456
#     4  12  26  48  75 119 146 206 251 321 384 464
#     4  12  26  47  77 108 157 196 253 321 385 453
#
# _framework density 23.407295000000001
#
# number of rings (size 3 to 8) (size 9 to 14) (size 15 to 20)
#    1.000    0.000    3.333    2.000    4.667    1.333 
#   12.000    0.833    0.000    0.000    0.000    0.000 
#    0.000    0.000    0.000    0.000    0.000    0.000 
#
# Total GULP energy -66838.662145 kJ/mol
# GULP energy per Si atom -5569.888512 kJ/mol
# Density = 2.335402 g / cm^3
# Si number density = 23.407295 Si / 1000 Ang^3
#
#
#
# Elastic Constant Matrix: (Units=GPa)
#
#
# Indices 1 2 3 4 5 6 
#
# 1 146.9599 40.1987 42.1732 0.0000 -38.0893 0.0000
# 2 40.1987 97.0662 42.0189 0.0000 9.3520 0.0000
# 3 42.1732 42.0189 99.5194 0.0000 -21.2081 0.0000
# 4 0.0000 0.0000 0.0000 17.4669 0.0000 -4.0177
# 5 -38.0893 9.3520 -21.2081 0.0000 40.3540 0.0000
# 6 0.0000 0.0000 0.0000 -4.0177 0.0000 31.0983
#
#
#
# Elastic Compliance Matrix: (Units=1/GPa)
#
#
# Indices 1 2 3 4 5 6 
#
# 1 0.011680 -0.006220 0.000375 0.000000 0.012663 0.000000
# 2 -0.006220 0.017603 -0.007789 0.000000 -0.014044 0.000000
# 3 0.000375 -0.007789 0.015359 0.000000 0.010231 0.000000
# 4 0.000000 0.000000 0.000000 0.059005 0.000000 0.007623
# 5 0.012663 -0.014044 0.010231 0.000000 0.045365 0.000000
# 6 0.000000 0.000000 0.000000 0.007623 0.000000 0.033141
#
#
# Mechanical properties :
#
#
# Convention : Reuss Voigt Hill
#
# Bulk Modulus (GPa) = 57.55889 65.81412 61.68651
# Shear Modulus (GPa) = 23.23293 32.39417 27.81355
#
# Velocity S-wave (km/s) = 3.15390 3.72416 3.45083
# Velocity P-wave (km/s) = 6.15681 6.83158 6.50295
#
# Compressibility (1/GPa) = 0.01737351
#
# Stress axis : x y z
#
# Youngs Moduli (GPa) = 85.61366 56.80820 65.11052
#
# Poissons Ratio (x) = 0.35333 -0.02441
# Poissons Ratio (y) = 0.53249 0.50718
# Poissons Ratio (z) = -0.03209 0.44251
#
# Static dielectric constant tensor:
#      x y z
#    x 1.974330 0.000000 0.008960 
#    y 0.000000 1.861810 0.000000 
#    z 0.008960 0.000000 1.951870 
# 
# From -- ./inp_files/1603.got.cif
#   From: 2010.05.17/outbox.cif.g08.bks.cpg/sg8_1_cif.got.tgz:1603.got - 2010.06.03 19:46:02.
