data_PCOD9133847
_publ_section_title
;
Structure prediction by ZEFSAII (Michael W. Deem and Ramdas Pophale) SiO2 
 PCOD9133847
Probable space group: C C
;
_chemical_formula_sum "Si O2"
_cell_formula_units_Z 32
_cell_length_a 9.107008
_cell_length_b 16.402367
_cell_length_c 11.165391
_cell_angle_alpha 90.000000
_cell_angle_beta 54.975150
_cell_angle_gamma 90.000000
_cell_volume 1365.805153
_symmetry_space_group_name_H-M "C C"
_symmetry_group_IT_number 9
_symmetry_cell_setting 'monoclinic'
loop_
_space_group_symop_operation_xyz
x,y,z
x,-y,1/2+z
1/2+x,1/2+y,z
1/2+x,1/2-y,1/2+z
loop_
_atom_site_type_symbol
_atom_site_label
_atom_site_fract_x
_atom_site_fract_y
_atom_site_fract_z
Si Si1 0.423310 0.730861 0.415450
Si Si2 0.807974 0.336283 0.064520
Si Si3 0.062529 0.618922 0.168229
Si Si4 0.688361 0.874109 0.881237
Si Si5 0.450441 0.287205 0.301382
Si Si6 0.330797 0.505463 0.493123
Si Si7 0.201661 0.648810 0.719790
Si Si8 0.183042 0.083602 0.381132
O O1 0.320157 0.700899 0.345107
O O2 0.275876 0.714628 0.587365
O O3 0.511385 0.818483 0.355788
O O4 0.580095 0.664930 0.378416
O O5 0.645994 0.324144 0.231406
O O6 0.863730 0.256025 0.957945
O O7 0.731472 0.396630 0.996705
O O8 0.994380 0.363978 0.035217
O O9 0.128274 0.615139 0.274764
O O10 0.233474 0.579918 0.027548
O O11 0.000265 0.711681 0.187409
O O12 0.877639 0.570598 0.231222
O O13 0.795689 0.949041 0.885150
O O14 0.331526 0.343368 0.272577
O O15 0.228142 0.562735 0.640305
O O16 0.538495 0.512610 0.430280
#
# Coordination Sequence:
#
# PCOD9133847 Si02
#       8
#     4   4   4   4   4   4   4   4
#     4  10  17  32  56  80 106 141 180 235 276 316
#     4  10  17  32  56  80 106 141 180 235 276 316
#     4  10  20  36  54  78 112 148 183 223 282 341
#     4   8  20  36  52  76 114 144 170 230 300 312
#     4  10  17  33  57  82 105 140 192 225 270 325
#     4  10  20  36  54  78 112 148 183 223 282 341
#     4  10  17  33  57  82 105 140 192 225 270 325
#     4   8  16  34  54  68 108 144 180 220 288 318
#
# _framework density 23.429404999999999
#
# number of rings (size 3 to 8) (size 9 to 14) (size 15 to 20)
#    0.000    3.000    5.000    0.000    0.000    4.000 
#    4.500    8.750    0.000    0.000    0.000    0.000 
#    0.000    0.000    0.000    0.000    0.000    0.000 
#
# Total GULP energy -89188.306337 kJ/mol
# GULP energy per Si atom -5574.269146 kJ/mol
# Density = 2.337608 g / cm^3
# Si number density = 23.429405 Si / 1000 Ang^3
#
#
#
# Elastic Constant Matrix: (Units=GPa)
#
#
# Indices 1 2 3 4 5 6 
#
# 1 144.0147 13.4314 17.4213 0.0000 -17.1598 0.0000
# 2 13.4314 47.9254 8.5242 0.0000 5.6225 0.0000
# 3 17.4213 8.5242 54.3416 0.0000 -3.6962 0.0000
# 4 0.0000 0.0000 0.0000 35.8554 0.0000 -10.4995
# 5 -17.1598 5.6225 -3.6962 0.0000 28.0048 0.0000
# 6 0.0000 0.0000 0.0000 -10.4995 0.0000 11.6001
#
#
#
# Elastic Compliance Matrix: (Units=1/GPa)
#
#
# Indices 1 2 3 4 5 6 
#
# 1 0.008017 -0.002531 -0.001821 0.000000 0.005180 0.000000
# 2 -0.002531 0.022922 -0.003232 0.000000 -0.006579 0.000000
# 3 -0.001821 -0.003232 0.019637 0.000000 0.002125 0.000000
# 4 0.000000 0.000000 0.000000 0.037948 0.000000 0.034347
# 5 0.005180 -0.006579 0.002125 0.000000 0.040484 0.000000
# 6 0.000000 0.000000 0.000000 0.034347 0.000000 0.117294
#
#
# Mechanical properties :
#
#
# Convention : Reuss Voigt Hill
#
# Bulk Modulus (GPa) = 28.24102 36.11505 32.17804
# Shear Modulus (GPa) = 18.29679 28.88570 23.59125
#
# Velocity S-wave (km/s) = 2.79755 3.51505 3.17662
# Velocity P-wave (km/s) = 4.74498 5.64996 5.21713
#
# Compressibility (1/GPa) = 0.03540949
#
# Stress axis : x y z
#
# Youngs Moduli (GPa) = 124.73033 43.62677 50.92337
#
# Poissons Ratio (x) = 0.11041 0.09273
# Poissons Ratio (y) = 0.31566 0.16457
# Poissons Ratio (z) = 0.22712 0.14099
#
# Static dielectric constant tensor:
#      x y z
#    x 1.861680 0.000000 -0.049750 
#    y 0.000000 1.999460 0.000000 
#    z -0.049750 0.000000 1.992580 
# 
# From -- ./inp_files/15105.got.cif
#   From: 2010.05.17/outbox.cif.g08.bks.cpg/sg9_8_cif.got.tgz:15105.got - 2010.06.03 20:04:27.
