data_PCOD9133139
_publ_section_title
;
Structure prediction by ZEFSAII (Michael W. Deem and Ramdas Pophale) SiO2 
 PCOD9133139
Probable space group: C M
;
_chemical_formula_sum "Si O2"
_cell_formula_units_Z 32
_cell_length_a 32.749130
_cell_length_b 7.749083
_cell_length_c 12.762520
_cell_angle_alpha 90.000000
_cell_angle_beta 26.708162
_cell_angle_gamma 90.000000
_cell_volume 1455.674535
_symmetry_space_group_name_H-M "C M"
_symmetry_group_IT_number 8
_symmetry_cell_setting 'monoclinic'
loop_
_space_group_symop_operation_xyz
x,y,z
x,-y,z
1/2+x,1/2+y,z
1/2+x,1/2-y,z
loop_
_atom_site_type_symbol
_atom_site_label
_atom_site_fract_x
_atom_site_fract_y
_atom_site_fract_z
Si Si1 0.496230 0.709155 0.330000
Si Si2 0.798887 0.799961 0.457137
Si Si3 0.295817 0.291506 0.700166
Si Si4 0.045631 0.293916 0.611896
Si Si5 0.222190 0.711395 0.083576
Si Si6 0.491334 0.800458 0.960957
Si Si7 0.108293 0.799691 0.883349
Si Si8 0.418778 0.291938 0.719703
O O1 0.504632 0.500000 0.312369
O O2 0.398215 0.746883 0.503065
O O3 0.486674 0.770521 0.471225
O O4 0.572594 0.776145 0.075769
O O5 0.785217 0.727864 0.606496
O O6 0.700297 0.785806 0.632036
O O7 0.824949 0.000000 0.405725
O O8 0.882459 0.710635 0.209190
O O9 0.286968 0.500000 0.717248
O O10 0.230114 0.230125 0.944153
O O11 0.056671 0.500000 0.595984
O O12 0.133904 0.226683 0.347783
O O13 0.031450 0.225413 0.761529
O O14 0.957945 0.262324 0.740828
O O15 0.220676 0.500000 0.085673
O O16 0.316466 0.762479 0.924631
O O17 0.529257 0.714267 0.978854
O O18 0.518055 0.000000 0.907935
O O19 0.128796 0.000000 0.851707
O O20 0.418539 0.500000 0.716179
#
# Coordination Sequence:
#
# PCOD9133139 Si02
#       8
#     4   4   4   4   4   4   4   4
#     4   8  15  31  55  83 117 150 184 231 286 347
#     4  11  22  37  60  89 116 153 199 244 296 354
#     4   8  14  29  55  83 112 145 184 229 283 346
#     4  10  22  38  58  83 114 150 191 239 287 339
#     4   8  16  33  56  81 111 147 183 227 282 340
#     4  11  24  42  58  81 119 161 205 248 288 341
#     4  11  22  38  60  87 120 157 194 241 297 351
#     4   9  18  34  58  85 113 149 190 229 279 346
#
# _framework density 21.982938000000001
#
# number of rings (size 3 to 8) (size 9 to 14) (size 15 to 20)
#    0.000    2.500    1.250    2.625    1.750    2.000 
#    0.000    2.500    0.000    0.000    0.000    0.000 
#    0.000    0.000    0.000    0.000    0.000    0.000 
#
# Total GULP energy -89325.336297 kJ/mol
# GULP energy per Si atom -5582.833519 kJ/mol
# Density = 2.193290 g / cm^3
# Si number density = 21.982938 Si / 1000 Ang^3
#
#
#
# Elastic Constant Matrix: (Units=GPa)
#
#
# Indices 1 2 3 4 5 6 
#
# 1 37.8563 -0.1059 13.4795 0.0000 12.5870 0.0000
# 2 -0.1059 39.2153 1.4129 0.0000 4.6289 0.0000
# 3 13.4795 1.4129 107.9750 0.0000 12.6165 0.0000
# 4 0.0000 0.0000 0.0000 13.5109 0.0000 -3.0425
# 5 12.5870 4.6289 12.6165 0.0000 28.7093 0.0000
# 6 0.0000 0.0000 0.0000 -3.0425 0.0000 18.9395
#
#
#
# Elastic Compliance Matrix: (Units=1/GPa)
#
#
# Indices 1 2 3 4 5 6 
#
# 1 0.031638 0.001717 -0.002445 0.000000 -0.013073 0.000000
# 2 0.001717 0.026091 0.000025 0.000000 -0.004970 0.000000
# 3 -0.002445 0.000025 0.009953 0.000000 -0.003306 0.000000
# 4 0.000000 0.000000 0.000000 0.076792 0.000000 0.012336
# 5 -0.013073 -0.004970 -0.003306 0.000000 0.042818 0.000000
# 6 0.000000 0.000000 0.000000 0.012336 0.000000 0.054781
#
#
# Mechanical properties :
#
#
# Convention : Reuss Voigt Hill
#
# Bulk Modulus (GPa) = 15.08857 23.84663 19.46760
# Shear Modulus (GPa) = 18.82743 23.58261 21.20502
#
# Velocity S-wave (km/s) = 2.92970 3.27887 3.10919
# Velocity P-wave (km/s) = 4.28052 5.02056 4.66524
#
# Compressibility (1/GPa) = 0.06627534
#
# Stress axis : x y z
#
# Youngs Moduli (GPa) = 31.60789 38.32784 100.47691
#
# Poissons Ratio (x) = -0.06580 0.24562
# Poissons Ratio (y) = -0.05426 -0.00252
# Poissons Ratio (z) = 0.07727 -0.00096
#
# Static dielectric constant tensor:
#      x y z
#    x 1.789930 0.000000 0.010680 
#    y 0.000000 1.813630 0.000000 
#    z 0.010680 0.000000 1.812710 
# 
# From -- ./inp_files/21573.got.cif
#   From: 2010.05.17/outbox.cif.g08.bks.cpg/sg8_11_cif.got.tgz:21573.got - 2010.06.03 19:46:02.
