data_PCOD9133142
_publ_section_title
;
Structure prediction by ZEFSAII (Michael W. Deem and Ramdas Pophale) SiO2 
 PCOD9133142
Probable space group: C M
;
_chemical_formula_sum "Si O2"
_cell_formula_units_Z 32
_cell_length_a 9.380655
_cell_length_b 11.155768
_cell_length_c 25.924761
_cell_angle_alpha 90.000000
_cell_angle_beta 148.842859
_cell_angle_gamma 90.000000
_cell_volume 1403.663261
_symmetry_space_group_name_H-M "C M"
_symmetry_group_IT_number 8
_symmetry_cell_setting 'monoclinic'
loop_
_space_group_symop_operation_xyz
x,y,z
x,-y,z
1/2+x,1/2+y,z
1/2+x,1/2-y,z
loop_
_atom_site_type_symbol
_atom_site_label
_atom_site_fract_x
_atom_site_fract_y
_atom_site_fract_z
Si Si1 0.459300 0.364316 0.119960
Si Si2 0.817342 0.373895 0.816548
Si Si3 0.185031 0.626732 0.622256
Si Si4 0.338314 0.626732 0.855481
Si Si5 0.420345 0.865185 0.433271
Si Si6 0.206004 0.126105 0.661190
Si Si7 0.102999 0.134815 0.044466
Si Si8 0.564043 0.135684 0.357777
O O1 0.350123 0.500000 0.097954
O O2 0.501442 0.354704 0.071446
O O3 0.761672 0.357553 0.238868
O O4 0.285459 0.251284 0.087095
O O5 0.945770 0.500000 0.872939
O O6 0.960771 0.250622 0.874542
O O7 0.761673 0.376614 0.738869
O O8 0.501272 0.372873 0.739676
O O9 0.059281 0.500000 0.600453
O O10 0.152638 0.630826 0.550272
O O11 0.062575 0.750621 0.603195
O O12 0.464064 0.500000 0.877284
O O13 0.022073 0.627127 0.738060
O O14 0.370706 0.630826 0.927465
O O15 0.521902 0.854704 0.406290
O O16 0.237885 0.748716 0.390641
O O17 0.286537 0.000000 0.395669
O O18 0.077575 0.000000 0.604798
O O19 0.236807 0.000000 0.082067
O O20 0.673220 0.000000 0.379783
#
# Coordination Sequence:
#
# PCOD9133142 Si02
#       8
#     4   4   4   4   4   4   4   4
#     4  10  22  40  62  88 117 151 191 237 290 347
#     4   9  18  32  53  75 102 143 184 224 274 329
#     4   9  19  34  49  75 109 141 182 230 277 327
#     4   9  19  34  49  75 109 141 182 230 277 327
#     4  10  22  38  59  87 119 152 191 240 287 341
#     4   9  18  32  53  75 102 143 184 224 274 329
#     4  10  22  38  59  87 119 152 191 240 287 341
#     4  10  22  40  62  88 117 151 191 237 290 347
#
# _framework density 22.797491999999998
#
# number of rings (size 3 to 8) (size 9 to 14) (size 15 to 20)
#    0.000    2.500    0.000    0.750    3.500    3.000 
#    0.000    0.000    0.000    0.000    0.000    0.000 
#    0.000    0.000    0.000    0.000    0.000    0.000 
#
# Total GULP energy -89191.294570 kJ/mol
# GULP energy per Si atom -5574.455911 kJ/mol
# Density = 2.274560 g / cm^3
# Si number density = 22.797492 Si / 1000 Ang^3
#
#
#
# Elastic Constant Matrix: (Units=GPa)
#
#
# Indices 1 2 3 4 5 6 
#
# 1 39.6668 75.5052 4.6976 0.0000 -4.9788 0.0000
# 2 75.5052 318.3717 49.2831 0.0000 0.4029 0.0000
# 3 4.6976 49.2831 91.1628 -0.0001 -1.5388 0.0000
# 4 0.0000 0.0000 -0.0001 22.7971 0.0000 -5.9161
# 5 -4.9788 0.4029 -1.5388 0.0000 24.6780 0.0000
# 6 0.0000 0.0000 0.0000 -5.9161 0.0000 31.4370
#
#
#
# Elastic Compliance Matrix: (Units=1/GPa)
#
#
# Indices 1 2 3 4 5 6 
#
# 1 0.049815 -0.012504 0.004370 0.000000 0.010527 0.000000
# 2 -0.012504 0.006567 -0.002953 0.000000 -0.002814 0.000000
# 3 0.004370 -0.002953 0.012370 0.000000 0.001701 0.000000
# 4 0.000000 0.000000 0.000000 0.046117 0.000000 0.008679
# 5 0.010527 -0.002814 0.001701 0.000000 0.042798 0.000000
# 6 0.000000 0.000000 0.000000 0.008679 0.000000 0.033443
#
#
# Mechanical properties :
#
#
# Convention : Reuss Voigt Hill
#
# Bulk Modulus (GPa) = 21.46949 78.68591 50.07770
# Shear Modulus (GPa) = 21.85225 37.09680 29.47452
#
# Velocity S-wave (km/s) = 3.09938 4.03827 3.59957
# Velocity P-wave (km/s) = 4.71658 7.50557 6.26816
#
# Compressibility (1/GPa) = 0.04657772
#
# Stress axis : x y z
#
# Youngs Moduli (GPa) = 20.07432 152.27222 80.84377
#
# Poissons Ratio (x) = 1.90401 -0.35333
# Poissons Ratio (y) = 0.25101 0.23877
# Poissons Ratio (z) = -0.08773 0.44973
#
# Static dielectric constant tensor:
#      x y z
#    x 1.856870 0.000000 0.027870 
#    y 0.000000 1.922460 0.000000 
#    z 0.027870 0.000000 1.849040 
# 
# From -- ./inp_files/25852.got.cif
#   From: 2010.05.17/outbox.cif.g08.bks.cpg/sg8_13_cif.got.tgz:25852.got - 2010.06.03 19:46:02.
