data_PCOD9133187
_publ_section_title
;
Structure prediction by ZEFSAII (Michael W. Deem and Ramdas Pophale) SiO2 
 PCOD9133187
Probable space group: C M
;
_chemical_formula_sum "Si O2"
_cell_formula_units_Z 32
_cell_length_a 15.344482
_cell_length_b 8.545347
_cell_length_c 23.147138
_cell_angle_alpha 90.000000
_cell_angle_beta 148.372375
_cell_angle_gamma 90.000000
_cell_volume 1591.618661
_symmetry_space_group_name_H-M "C M"
_symmetry_group_IT_number 8
_symmetry_cell_setting 'monoclinic'
loop_
_space_group_symop_operation_xyz
x,y,z
x,-y,z
1/2+x,1/2+y,z
1/2+x,1/2-y,z
loop_
_atom_site_type_symbol
_atom_site_label
_atom_site_fract_x
_atom_site_fract_y
_atom_site_fract_z
Si Si1 0.283710 0.685069 0.930700
Si Si2 0.278721 0.188927 0.803657
Si Si3 0.143826 0.684536 0.158032
Si Si4 0.974549 0.812645 0.553056
Si Si5 0.881797 0.682341 0.195167
Si Si6 0.642003 0.186580 0.969423
Si Si7 0.905945 0.313842 0.387004
Si Si8 0.149942 0.184795 0.425712
O O1 0.318713 0.500000 0.948400
O O2 0.228944 0.743519 0.837390
O O3 0.452112 0.772662 0.044350
O O4 0.150992 0.712749 0.906212
O O5 0.148936 0.233136 0.680817
O O6 0.280405 0.000000 0.808040
O O7 0.466645 0.241049 0.895942
O O8 0.168428 0.500000 0.161889
O O9 0.240531 0.780522 0.163158
O O10 0.235423 0.733216 0.268731
O O11 0.948357 0.735832 0.475828
O O12 0.827287 0.760586 0.512886
O O13 0.970378 0.000000 0.543950
O O14 0.924898 0.500000 0.219584
O O15 0.797730 0.732973 0.088232
O O16 0.038423 0.780346 0.305860
O O17 0.656019 0.000000 0.988076
O O18 0.888472 0.500000 0.372827
O O19 0.048426 0.257714 0.422245
O O20 0.164626 0.000000 0.442787
#
# Coordination Sequence:
#
# PCOD9133187 Si02
#       8
#     4   4   4   4   4   4   4   4
#     4  11  23  38  61  93 126 163 210 258 310 374
#     4  10  23  44  66  88 124 169 211 260 315 371
#     4  11  21  37  61  89 128 168 205 255 317 377
#     4  11  24  43  66  94 127 169 217 264 314 378
#     4  11  21  36  61  93 127 162 205 260 315 375
#     4  10  22  40  61  89 125 165 205 252 314 378
#     4  11  23  41  64  94 128 165 211 264 319 377
#     4  11  23  41  64  92 127 169 210 261 320 378
#
# _framework density 20.105318
#
# number of rings (size 3 to 8) (size 9 to 14) (size 15 to 20)
#    0.000    1.250    1.250    6.750    1.750    3.000 
#    0.000    1.250    0.000    0.000    0.000    0.000 
#    0.000    0.000    0.000    0.000    0.000    0.000 
#
# Total GULP energy -89472.351921 kJ/mol
# GULP energy per Si atom -5592.021995 kJ/mol
# Density = 2.005956 g / cm^3
# Si number density = 20.105318 Si / 1000 Ang^3
#
#
#
# Elastic Constant Matrix: (Units=GPa)
#
#
# Indices 1 2 3 4 5 6 
#
# 1 53.0620 8.5111 11.3275 0.0000 -22.4471 0.0000
# 2 8.5111 51.9114 6.2437 0.0000 -8.5503 0.0000
# 3 11.3275 6.2437 65.7502 0.0001 -18.3553 0.0000
# 4 0.0000 0.0000 0.0001 26.9085 0.0000 -5.8049
# 5 -22.4471 -8.5503 -18.3553 0.0000 32.2753 0.0000
# 6 0.0000 0.0000 0.0000 -5.8049 0.0000 29.2405
#
#
#
# Elastic Compliance Matrix: (Units=1/GPa)
#
#
# Indices 1 2 3 4 5 6 
#
# 1 0.026826 -0.001406 0.000733 0.000000 0.018702 0.000000
# 2 -0.001406 0.020230 -0.000542 0.000000 0.004073 0.000000
# 3 0.000733 -0.000542 0.018112 0.000000 0.010667 0.000000
# 4 0.000000 0.000000 0.000000 0.038826 0.000000 0.007708
# 5 0.018702 0.004073 0.010667 0.000000 0.051136 0.000000
# 6 0.000000 0.000000 0.000000 0.007708 0.000000 0.035729
#
#
# Mechanical properties :
#
#
# Convention : Reuss Voigt Hill
#
# Bulk Modulus (GPa) = 15.93917 24.76537 20.35227
# Shear Modulus (GPa) = 23.34242 27.32762 25.33502
#
# Velocity S-wave (km/s) = 3.41105 3.69076 3.55366
# Velocity P-wave (km/s) = 4.84342 5.52330 5.19450
#
# Compressibility (1/GPa) = 0.06273853
#
# Stress axis : x y z
#
# Youngs Moduli (GPa) = 37.27661 49.43104 55.21187
#
# Poissons Ratio (x) = 0.06951 -0.04045
# Poissons Ratio (y) = 0.05242 0.02991
# Poissons Ratio (z) = -0.02731 0.02678
#
# Static dielectric constant tensor:
#      x y z
#    x 1.720560 0.000000 -0.001100 
#    y 0.000000 1.679570 0.000000 
#    z -0.001100 0.000000 1.694410 
# 
# From -- ./inp_files/31989.got.cif
#   From: 2010.05.17/outbox.cif.g08.bks.cpg/sg8_16_cif.got.tgz:31989.got - 2010.06.03 19:46:02.
