data_PCOD9133102
_publ_section_title
;
Structure prediction by ZEFSAII (Michael W. Deem and Ramdas Pophale) SiO2 
 PCOD9133102
Probable space group: C M
;
_chemical_formula_sum "Si O2"
_cell_formula_units_Z 24
_cell_length_a 8.307400
_cell_length_b 23.174102
_cell_length_c 5.332441
_cell_angle_alpha 90.000000
_cell_angle_beta 97.594981
_cell_angle_gamma 90.000000
_cell_volume 1017.576976
_symmetry_space_group_name_H-M "C M"
_symmetry_group_IT_number 8
_symmetry_cell_setting 'monoclinic'
loop_
_space_group_symop_operation_xyz
x,y,z
x,-y,z
1/2+x,1/2+y,z
1/2+x,1/2-y,z
loop_
_atom_site_type_symbol
_atom_site_label
_atom_site_fract_x
_atom_site_fract_y
_atom_site_fract_z
Si Si1 0.397350 0.322801 0.970260
Si Si2 0.224640 0.168809 0.787559
Si Si3 0.352215 0.066376 0.572080
Si Si4 0.478453 0.145301 0.212291
Si Si5 0.230890 0.728122 0.442525
Si Si6 0.193115 0.432799 0.944576
O O1 0.588038 0.315169 0.960694
O O2 0.319233 0.296415 0.704875
O O3 0.343933 0.390139 0.934094
O O4 0.322291 0.292583 0.204882
O O5 0.229407 0.100842 0.725204
O O6 0.206202 0.206365 0.531560
O O7 0.400224 0.175626 0.954806
O O8 0.350852 0.104853 0.323964
O O9 0.538320 0.070121 0.719957
O O10 0.313507 0.000000 0.528873
O O11 0.558926 0.195074 0.391554
O O12 0.614263 0.098476 0.168253
O O13 0.233058 0.500000 0.983938
#
# Coordination Sequence:
#
# PCOD9133102 Si02
#       6
#     4   4   4   4   4   4
#     4  11  26  46  73 108 148 185 245 308 368 425
#     4  11  28  44  72 108 149 191 244 313 372 433
#     4  10  21  42  72 104 144 195 249 295 361 442
#     4  10  22  45  70 105 141 199 245 300 363 440
#     4  11  27  48  70 104 147 197 243 297 369 448
#     4   9  19  41  71 103 142 193 246 293 359 442
#
# _framework density 23.585439999999998
#
# number of rings (size 3 to 8) (size 9 to 14) (size 15 to 20)
#    0.000    1.667    1.667    0.500    7.000    1.333 
#    0.000    5.000    0.000    0.000    0.000    0.000 
#    0.000    0.000    0.000    0.000    0.000    0.000 
#
# Total GULP energy -66984.396407 kJ/mol
# GULP energy per Si atom -5582.033034 kJ/mol
# Density = 2.353176 g / cm^3
# Si number density = 23.585440 Si / 1000 Ang^3
#
#
#
# Elastic Constant Matrix: (Units=GPa)
#
#
# Indices 1 2 3 4 5 6 
#
# 1 67.7660 45.6245 33.8566 0.0000 -21.0186 0.0000
# 2 45.6245 212.4392 64.5430 0.0000 -1.3154 0.0000
# 3 33.8566 64.5430 127.6712 0.0000 -13.7922 0.0000
# 4 0.0000 0.0000 0.0000 28.5022 0.0000 2.9319
# 5 -21.0186 -1.3154 -13.7922 0.0000 33.5898 0.0000
# 6 0.0000 0.0000 0.0000 2.9319 0.0000 36.7460
#
#
#
# Elastic Compliance Matrix: (Units=1/GPa)
#
#
# Indices 1 2 3 4 5 6 
#
# 1 0.022818 -0.004028 -0.002605 0.000000 0.013051 0.000000
# 2 -0.004028 0.006304 -0.002474 0.000000 -0.003290 0.000000
# 3 -0.002605 -0.002474 0.010032 0.000000 0.002393 0.000000
# 4 0.000000 0.000000 0.000000 0.035375 0.000000 -0.002823
# 5 0.013051 -0.003290 0.002393 0.000000 0.038791 0.000000
# 6 0.000000 0.000000 0.000000 -0.002823 0.000000 0.027439
#
#
# Mechanical properties :
#
#
# Convention : Reuss Voigt Hill
#
# Bulk Modulus (GPa) = 47.75447 77.32496 62.53972
# Shear Modulus (GPa) = 30.12887 37.35774 33.74331
#
# Velocity S-wave (km/s) = 3.57800 3.98418 3.78654
# Velocity P-wave (km/s) = 6.11235 7.34991 6.75951
#
# Compressibility (1/GPa) = 0.02094045
#
# Stress axis : x y z
#
# Youngs Moduli (GPa) = 43.82480 158.63912 99.67660
#
# Poissons Ratio (x) = 0.63906 0.25962
# Poissons Ratio (y) = 0.17654 0.24658
# Poissons Ratio (z) = 0.11415 0.39245
#
# Static dielectric constant tensor:
#      x y z
#    x 1.926060 0.000000 -0.021340 
#    y 0.000000 1.906130 0.000000 
#    z -0.021340 0.000000 1.953480 
# 
# From -- ./inp_files/1596.got.cif
#   From: 2010.05.17/outbox.cif.g08.bks.cpg/sg8_1_cif.got.tgz:1596.got - 2010.06.03 19:46:02.
