data_PCOD9133406
_publ_section_title
;
Structure prediction by ZEFSAII (Michael W. Deem and Ramdas Pophale) SiO2 
 PCOD9133406
Probable space group: C M
;
_chemical_formula_sum "Si O2"
_cell_formula_units_Z 26
_cell_length_a 13.385533
_cell_length_b 15.692596
_cell_length_c 7.486753
_cell_angle_alpha 90.000000
_cell_angle_beta 137.684675
_cell_angle_gamma 90.000000
_cell_volume 1058.704437
_symmetry_space_group_name_H-M "C M"
_symmetry_group_IT_number 8
_symmetry_cell_setting 'monoclinic'
loop_
_space_group_symop_operation_xyz
x,y,z
x,-y,z
1/2+x,1/2+y,z
1/2+x,1/2-y,z
loop_
_atom_site_type_symbol
_atom_site_label
_atom_site_fract_x
_atom_site_fract_y
_atom_site_fract_z
Si Si1 0.254720 0.500000 0.934891
Si Si2 0.458737 0.240751 0.567107
Si Si3 0.471345 0.626466 0.098317
Si Si4 0.973532 0.314769 0.986546
Si Si5 0.734289 0.592506 0.167206
Si Si6 0.158324 0.862493 0.671470
Si Si7 0.753700 0.907682 0.297882
O O1 0.320218 0.574990 0.887233
O O2 0.215890 0.427331 0.039701
O O3 0.503678 0.217020 0.826082
O O4 0.353479 0.167087 0.352992
O O5 0.599565 0.267279 0.636572
O O6 0.364561 0.328562 0.455412
O O7 0.593944 0.604638 0.111545
O O8 0.540793 0.597340 0.380569
O O9 0.460766 0.728596 0.084067
O O10 0.815934 0.360405 0.784041
O O11 0.106614 0.377991 0.207444
O O12 0.803692 0.500000 0.296017
O O13 0.679305 0.595806 0.891080
O O14 0.812519 0.000000 0.438969
#
# Coordination Sequence:
#
# PCOD9133406 Si02
#       7
#     2   4   4   4   4   4   4
#     4  10  24  42  72 102 154 190 242 308 370 440
#     4  12  23  47  70 109 143 193 243 309 366 447
#     4  12  23  45  71 108 140 192 244 299 369 438
#     4  12  25  44  75 105 144 195 244 311 368 437
#     4  12  27  44  71 111 151 188 255 304 368 447
#     4  12  25  43  76  99 145 190 243 300 376 425
#     4  10  23  45  71 104 142 192 241 295 371 439
#
# _framework density 24.558316999999999
#
# number of rings (size 3 to 8) (size 9 to 14) (size 15 to 20)
#    0.462    0.000    6.923    0.923    3.231    1.846 
#    1.385    0.000    0.000    0.000    0.000    0.000 
#    0.000    0.000    0.000    0.000    0.000    0.000 
#
# Total GULP energy -72498.374294 kJ/mol
# GULP energy per Si atom -5576.798023 kJ/mol
# Density = 2.450242 g / cm^3
# Si number density = 24.558317 Si / 1000 Ang^3
#
#
#
# Elastic Constant Matrix: (Units=GPa)
#
#
# Indices 1 2 3 4 5 6 
#
# 1 66.4017 7.4047 -1.2795 0.0000 4.7811 0.0000
# 2 7.4047 166.6209 24.3645 0.0000 13.0054 0.0000
# 3 -1.2795 24.3645 51.0154 0.0000 -11.5464 0.0000
# 4 0.0000 0.0000 0.0000 -13.3526 0.0000 14.0778
# 5 4.7811 13.0054 -11.5464 0.0000 45.6211 0.0000
# 6 0.0000 0.0000 0.0000 14.0778 0.0000 -12.7956
#
#
#
# Elastic Compliance Matrix: (Units=1/GPa)
#
#
# Indices 1 2 3 4 5 6 
#
# 1 0.015233 -0.000630 0.000384 0.000000 -0.001319 0.000000
# 2 -0.000630 0.006828 -0.003928 0.000000 -0.002875 0.000000
# 3 0.000384 -0.003928 0.023052 0.000000 0.006914 0.000000
# 4 0.000000 0.000000 0.000000 0.468210 0.000000 0.515126
# 5 -0.001319 -0.002875 0.006914 0.000000 0.024627 0.000000
# 6 0.000000 0.000000 0.000000 0.515126 0.000000 0.488591
#
#
# Mechanical properties :
#
#
# Convention : Reuss Voigt Hill
#
# Bulk Modulus (GPa) = 27.19883 38.33527 32.76705
# Shear Modulus (GPa) = 4.77490 20.79779 12.78635
#
# Velocity S-wave (km/s) = 1.39590 2.91327 2.28426
# Velocity P-wave (km/s) = 3.70098 5.19230 4.50873
#
# Compressibility (1/GPa) = 0.03676628
#
# Stress axis : x y z
#
# Youngs Moduli (GPa) = 65.64897 146.44835 43.37996
#
# Poissons Ratio (x) = 0.09229 -0.01667
# Poissons Ratio (y) = 0.04137 0.17038
# Poissons Ratio (z) = -0.02523 0.57519
#
# Static dielectric constant tensor:
#      x y z
#    x 1.927660 0.000000 0.008260 
#    y 0.000000 1.985220 0.000000 
#    z 0.008260 0.000000 2.001060 
# 
# From -- ./inp_files/13358.got.cif
#   From: 2010.05.17/outbox.cif.g08.bks.cpg/sg8_7_cif.got.tgz:13358.got - 2010.06.03 19:46:02.
