data_PCOD9133592
_publ_section_title
;
Structure prediction by ZEFSAII (Michael W. Deem and Ramdas Pophale) SiO2 
 PCOD9133592
Probable space group: C M
;
_chemical_formula_sum "Si O2"
_cell_formula_units_Z 26
_cell_length_a 13.819821
_cell_length_b 14.406630
_cell_length_c 7.446001
_cell_angle_alpha 90.000000
_cell_angle_beta 47.012534
_cell_angle_gamma 90.000000
_cell_volume 1084.436058
_symmetry_space_group_name_H-M "C M"
_symmetry_group_IT_number 8
_symmetry_cell_setting 'monoclinic'
loop_
_space_group_symop_operation_xyz
x,y,z
x,-y,z
1/2+x,1/2+y,z
1/2+x,1/2-y,z
loop_
_atom_site_type_symbol
_atom_site_label
_atom_site_fract_x
_atom_site_fract_y
_atom_site_fract_z
Si Si1 0.832041 0.500000 0.094820
Si Si2 0.045407 0.500000 0.135497
Si Si3 0.117160 0.708330 0.087985
Si Si4 0.896342 0.208695 0.604952
Si Si5 0.048682 0.898244 0.964953
Si Si6 0.649466 0.645764 0.462210
Si Si7 0.064237 0.500000 0.540368
Si Si8 0.268255 0.345832 0.390473
O O1 0.916902 0.500000 0.171926
O O2 0.740528 0.588654 0.216215
O O3 0.923599 0.500000 0.809262
O O4 0.047678 0.500000 0.348676
O O5 0.104844 0.603838 0.023888
O O6 0.276402 0.725641 0.897205
O O7 0.080336 0.800737 0.021576
O O8 0.000266 0.714158 0.389849
O O9 0.824521 0.165223 0.521423
O O10 0.002939 0.145326 0.567789
O O11 0.136776 0.896674 0.675631
O O12 0.066512 0.000000 0.032111
O O13 0.892391 0.886603 0.123851
O O14 0.715838 0.745676 0.400403
O O15 0.146761 0.413492 0.512035
#
# Coordination Sequence:
#
# PCOD9133592 Si02
#       8
#     2   2   4   4   4   4   2   4
#     4  12  28  51  73 123 153 210 267 341 402 489
#     4  12  28  51  84 115 166 215 273 328 423 488
#     4  11  26  51  77 115 155 211 265 341 401 488
#     4  11  26  46  76 111 160 209 269 333 404 487
#     4  11  24  49  76 106 156 206 269 331 404 479
#     4  12  27  45  76 107 159 209 266 335 410 475
#     4  12  28  50  83 116 161 215 264 339 409 489
#     4  11  25  48  72 113 153 209 267 332 399 480
#
# _framework density 23.975595999999999
#
# number of rings (size 3 to 8) (size 9 to 14) (size 15 to 20)
#    0.000    0.615    3.077    3.692    6.462    2.462 
#    5.538    0.000    0.000    0.000    0.000    0.000 
#    0.000    0.000    0.000    0.000    0.000    0.000 
#
# Total GULP energy -72525.015436 kJ/mol
# GULP energy per Si atom -5578.847341 kJ/mol
# Density = 2.392103 g / cm^3
# Si number density = 23.975596 Si / 1000 Ang^3
#
#
#
# Elastic Constant Matrix: (Units=GPa)
#
#
# Indices 1 2 3 4 5 6 
#
# 1 93.4717 26.2468 13.4321 0.0000 -0.8607 0.0000
# 2 26.2468 194.8147 47.3511 0.0000 -6.6091 0.0000
# 3 13.4321 47.3511 125.1384 0.0000 -38.1013 0.0000
# 4 0.0000 0.0000 0.0000 29.7097 0.0000 -16.1915
# 5 -0.8607 -6.6091 -38.1013 0.0000 33.6807 0.0000
# 6 0.0000 0.0000 0.0000 -16.1915 0.0000 -2.1341
#
#
#
# Elastic Compliance Matrix: (Units=1/GPa)
#
#
# Indices 1 2 3 4 5 6 
#
# 1 0.011204 -0.001288 -0.001075 0.000000 -0.001183 0.000000
# 2 -0.001288 0.005891 -0.002668 0.000000 -0.001895 0.000000
# 3 -0.001075 -0.002668 0.013650 0.000000 0.014890 0.000000
# 4 0.000000 0.000000 0.000000 0.006555 0.000000 -0.049733
# 5 -0.001183 -0.001895 0.014890 0.000000 0.046133 0.000000
# 6 0.000000 0.000000 0.000000 -0.049733 0.000000 -0.091255
#
#
# Mechanical properties :
#
#
# Convention : Reuss Voigt Hill
#
# Bulk Modulus (GPa) = 48.35147 65.27607 56.81377
# Shear Modulus (GPa) = 547.45199 34.01092 290.73145
#
# Velocity S-wave (km/s) = 15.12722 3.77047 11.02382
# Velocity P-wave (km/s) = 18.03666 6.80003 13.63014
#
# Compressibility (1/GPa) = 0.02068189
#
# Stress axis : x y z
#
# Youngs Moduli (GPa) = 89.25556 169.75776 73.26181
#
# Poissons Ratio (x) = 0.21869 0.07878
# Poissons Ratio (y) = 0.11498 0.19543
# Poissons Ratio (z) = 0.09598 0.45285
#
# Static dielectric constant tensor:
#      x y z
#    x 1.920000 0.000000 0.046530 
#    y 0.000000 1.923150 0.000000 
#    z 0.046530 0.000000 1.955910 
# 
# From -- ./inp_files/13352.got.cif
#   From: 2010.05.17/outbox.cif.g08.bks.cpg/sg8_7_cif.got.tgz:13352.got - 2010.06.03 19:46:02.
