data_PCOD9133504
_publ_section_title
;
Structure prediction by ZEFSAII (Michael W. Deem and Ramdas Pophale) SiO2 
 PCOD9133504
Probable space group: C M
;
_chemical_formula_sum "Si O2"
_cell_formula_units_Z 12
_cell_length_a 9.998089
_cell_length_b 9.264591
_cell_length_c 9.354000
_cell_angle_alpha 90.000000
_cell_angle_beta 29.568229
_cell_angle_gamma 90.000000
_cell_volume 427.555266
_symmetry_space_group_name_H-M "C M"
_symmetry_group_IT_number 8
_symmetry_cell_setting 'monoclinic'
loop_
_space_group_symop_operation_xyz
x,y,z
x,-y,z
1/2+x,1/2+y,z
1/2+x,1/2-y,z
loop_
_atom_site_type_symbol
_atom_site_label
_atom_site_fract_x
_atom_site_fract_y
_atom_site_fract_z
Si Si1 0.436950 0.246745 0.854950
Si Si2 0.601108 0.500000 0.255461
Si Si3 0.846861 0.000000 0.767742
Si Si4 0.691357 0.000000 0.423414
Si Si5 0.302876 0.000000 0.544555
O O1 0.249079 0.357965 0.939520
O O2 0.653251 0.351222 0.730408
O O3 0.576209 0.141616 0.610482
O O4 0.268644 0.145764 0.116066
O O5 0.347804 0.500000 0.598306
O O6 0.502792 0.500000 0.181677
O O7 0.175818 0.000000 0.500752
O O8 0.591102 0.000000 0.354303
#
# Coordination Sequence:
#
# PCOD9133504 Si02
#       5
#     4   2   2   2   2
#     4   8  22  45  65 101 140 182 232 279 344 431
#     4  11  21  44  78  99 132 196 228 282 363 404
#     4   8  21  44  74  92 146 183 230 282 343 426
#     4  11  21  40  74 102 140 174 236 299 340 399
#     4   8  21  46  70  91 154 177 216 309 332 401
#
# _framework density 28.066547
#
# number of rings (size 3 to 8) (size 9 to 14) (size 15 to 20)
#    2.000    0.667    0.000    0.000    4.667    0.000 
#   12.000   11.667    7.333    0.000    0.000    0.000 
#    0.000    0.000    0.000    0.000    0.000    0.000 
#
# Total GULP energy -33521.849209 kJ/mol
# GULP energy per Si atom -5586.974868 kJ/mol
# Density = 2.800267 g / cm^3
# Si number density = 28.066547 Si / 1000 Ang^3
#
#
#
# Elastic Constant Matrix: (Units=GPa)
#
#
# Indices 1 2 3 4 5 6 
#
# 1 155.7751 25.4187 27.1815 -0.0059 -4.7643 0.0019
# 2 25.4187 199.8289 32.4625 -0.0061 21.6992 0.0030
# 3 27.1815 32.4625 55.0770 -0.0166 8.9874 0.0069
# 4 -0.0059 -0.0061 -0.0166 28.9068 0.0067 2.8610
# 5 -4.7643 21.6992 8.9874 0.0067 51.0310 -0.0023
# 6 0.0019 0.0030 0.0069 2.8610 -0.0023 16.5116
#
#
#
# Elastic Compliance Matrix: (Units=1/GPa)
#
#
# Indices 1 2 3 4 5 6 
#
# 1 0.007155 -0.000508 -0.003476 -0.000001 0.001496 0.000001
# 2 -0.000508 0.005742 -0.002808 0.000000 -0.001994 0.000000
# 3 -0.003476 -0.002808 0.022018 0.000013 -0.003008 -0.000011
# 4 -0.000001 0.000000 0.000013 0.035198 -0.000007 -0.006099
# 5 0.001496 -0.001994 -0.003008 -0.000007 0.021113 0.000006
# 6 0.000001 0.000000 -0.000011 -0.006099 0.000006 0.061620
#
#
# Mechanical properties :
#
#
# Convention : Reuss Voigt Hill
#
# Bulk Modulus (GPa) = 46.88095 64.53403 55.70749
# Shear Modulus (GPa) = 28.81208 40.99778 34.90493
#
# Velocity S-wave (km/s) = 3.20748 3.82610 3.53037
# Velocity P-wave (km/s) = 5.51878 6.52395 6.04230
#
# Compressibility (1/GPa) = 0.02133063
#
# Stress axis : x y z
#
# Youngs Moduli (GPa) = 139.76965 174.16702 45.41809
#
# Poissons Ratio (x) = 0.08846 0.15786
# Poissons Ratio (y) = 0.07099 0.12754
# Poissons Ratio (z) = 0.48580 0.48907
#
# Static dielectric constant tensor:
#      x y z
#    x 2.139780 0.000000 -0.104770 
#    y 0.000000 2.108280 0.000000 
#    z -0.104770 0.000000 2.148400 
# 
# From -- ./inp_files/2097.got.cif
#   From: 2010.05.17/outbox.cif.g08.bks.cpg/sg8_2_cif.got.tgz:2097.got - 2010.06.03 19:46:02.
