data_PCOD9133845
_publ_section_title
;
Structure prediction by ZEFSAII (Michael W. Deem and Ramdas Pophale) SiO2 
 PCOD9133845
Probable space group: C C
;
_chemical_formula_sum "Si O2"
_cell_formula_units_Z 28
_cell_length_a 16.050680
_cell_length_b 11.103682
_cell_length_c 9.606764
_cell_angle_alpha 90.000000
_cell_angle_beta 51.838399
_cell_angle_gamma 90.000000
_cell_volume 1346.201047
_symmetry_space_group_name_H-M "C C"
_symmetry_group_IT_number 9
_symmetry_cell_setting 'monoclinic'
loop_
_space_group_symop_operation_xyz
x,y,z
x,-y,1/2+z
1/2+x,1/2+y,z
1/2+x,1/2-y,1/2+z
loop_
_atom_site_type_symbol
_atom_site_label
_atom_site_fract_x
_atom_site_fract_y
_atom_site_fract_z
Si Si1 0.971940 0.408364 0.396520
Si Si2 0.737497 0.794916 0.867006
Si Si3 0.881611 0.922257 0.925696
Si Si4 0.785071 0.717654 0.220272
Si Si5 0.585321 0.026474 0.057009
Si Si6 0.760813 0.824486 0.526484
Si Si7 0.098060 0.168452 0.222891
O O1 0.858889 0.384345 0.578166
O O2 0.983834 0.496669 0.255777
O O3 0.051055 0.445714 0.437336
O O4 0.018048 0.281206 0.299183
O O5 0.844988 0.844365 0.827966
O O6 0.748285 0.770936 0.692940
O O7 0.659850 0.909238 0.969525
O O8 0.683284 0.687145 0.011045
O O9 0.008818 0.934110 0.809866
O O10 0.831463 0.054793 0.969207
O O11 0.823785 0.845216 0.109509
O O12 0.802351 0.734223 0.365794
O O13 0.667266 0.684911 0.290836
O O14 0.651876 0.127611 0.068717
#
# Coordination Sequence:
#
# PCOD9133845 Si02
#       7
#     4   4   4   4   4   4   4
#     4  10  19  33  56  82 107 145 184 228 275 328
#     4   9  18  30  52  81 107 138 180 229 267 321
#     4   9  18  32  55  79 108 146 180 222 275 329
#     4  10  20  34  55  81 115 145 183 225 284 331
#     4  10  17  32  55  81 107 138 189 229 271 317
#     4  11  18  32  57  85 106 134 189 236 261 318
#     4   9  18  35  52  79 112 144 175 221 283 328
#
# _framework density 20.799268999999999
#
# number of rings (size 3 to 8) (size 9 to 14) (size 15 to 20)
#    0.000    2.286    2.857    2.571    0.000    0.000 
#    2.571    1.429    9.429    0.000    0.000    0.000 
#    0.000    0.000    0.000    0.000    0.000    0.000 
#
# Total GULP energy -78033.967342 kJ/mol
# GULP energy per Si atom -5573.854810 kJ/mol
# Density = 2.075193 g / cm^3
# Si number density = 20.799269 Si / 1000 Ang^3
#
#
#
# Elastic Constant Matrix: (Units=GPa)
#
#
# Indices 1 2 3 4 5 6 
#
# 1 80.6288 8.5858 32.1624 0.0000 0.8102 0.0000
# 2 8.5858 11.0083 9.0743 0.0000 -5.9017 0.0000
# 3 32.1624 9.0743 93.8925 0.0000 23.1361 0.0000
# 4 0.0000 0.0000 0.0000 8.7988 0.0000 1.1977
# 5 0.8102 -5.9017 23.1361 0.0000 46.2481 0.0000
# 6 0.0000 0.0000 0.0000 1.1977 0.0000 21.2563
#
#
#
# Elastic Compliance Matrix: (Units=1/GPa)
#
#
# Indices 1 2 3 4 5 6 
#
# 1 0.015053 -0.007173 -0.004759 0.000000 0.001202 0.000000
# 2 -0.007173 0.121091 -0.014924 0.000000 0.023044 0.000000
# 3 -0.004759 -0.014924 0.016164 0.000000 -0.009908 0.000000
# 4 0.000000 0.000000 0.000000 0.114530 0.000000 -0.006453
# 5 0.001202 0.023044 -0.009908 0.000000 0.029498 0.000000
# 6 0.000000 0.000000 0.000000 -0.006453 0.000000 0.047409
#
#
# Mechanical properties :
#
#
# Convention : Reuss Voigt Hill
#
# Bulk Modulus (GPa) = 10.14240 31.68605 20.91423
# Shear Modulus (GPa) = 11.61918 24.30779 17.96348
#
# Velocity S-wave (km/s) = 2.36611 3.42231 2.94200
# Velocity P-wave (km/s) = 3.51447 5.55730 4.64947
#
# Compressibility (1/GPa) = 0.09859600
#
# Stress axis : x y z
#
# Youngs Moduli (GPa) = 66.43366 8.25823 61.86443
#
# Poissons Ratio (x) = 0.05923 0.29442
# Poissons Ratio (y) = 0.47651 0.92328
# Poissons Ratio (z) = 0.31617 0.12325
#
# Static dielectric constant tensor:
#      x y z
#    x 1.752300 0.000000 -0.032430 
#    y 0.000000 1.769390 0.000000 
#    z -0.032430 0.000000 1.798570 
# 
# From -- ./inp_files/7330.got.cif
#   From: 2010.05.17/outbox.cif.g08.bks.cpg/sg9_4_cif.got.tgz:7330.got - 2010.06.03 20:04:27.
