data_PCOD9133019
_publ_section_title
;
Structure prediction by ZEFSAII (Michael W. Deem and Ramdas Pophale) SiO2 
 PCOD9133019
Probable space group: C M
;
_chemical_formula_sum "Si O2"
_cell_formula_units_Z 32
_cell_length_a 13.237330
_cell_length_b 16.236341
_cell_length_c 11.311665
_cell_angle_alpha 90.000000
_cell_angle_beta 144.127461
_cell_angle_gamma 90.000000
_cell_volume 1424.626074
_symmetry_space_group_name_H-M "C M"
_symmetry_group_IT_number 8
_symmetry_cell_setting 'monoclinic'
loop_
_space_group_symop_operation_xyz
x,y,z
x,-y,z
1/2+x,1/2+y,z
1/2+x,1/2-y,z
loop_
_atom_site_type_symbol
_atom_site_label
_atom_site_fract_x
_atom_site_fract_y
_atom_site_fract_z
Si Si1 0.554560 0.905693 0.798160
Si Si2 0.717900 0.149427 0.717074
Si Si3 0.593930 0.364059 0.094467
Si Si4 0.138909 0.328792 0.107309
Si Si5 0.794692 0.331023 0.901273
Si Si6 0.423675 0.904030 0.264434
Si Si7 0.477913 0.596907 0.489595
Si Si8 0.661271 0.400767 0.423149
O O1 0.634895 0.901340 0.745510
O O2 0.359649 0.871486 0.610279
O O3 0.549791 0.000000 0.834010
O O4 0.664836 0.856082 0.997448
O O5 0.747758 0.240419 0.804240
O O6 0.583679 0.139257 0.483112
O O7 0.907364 0.116608 0.863320
O O8 0.628558 0.268197 0.106926
O O9 0.760017 0.407888 0.198129
O O10 0.578780 0.377767 0.220404
O O11 0.295409 0.360525 0.334224
O O12 0.953310 0.363169 0.971442
O O13 0.621102 0.382883 0.721861
O O14 0.864835 0.346273 0.099456
O O15 0.463527 0.000000 0.268629
O O16 0.449974 0.500000 0.453551
O O17 0.561066 0.627850 0.444334
O O18 0.665956 0.500000 0.432802
#
# Coordination Sequence:
#
# PCOD9133019 Si02
#       8
#     4   4   4   4   4   4   4   4
#     4  11  21  40  69  99 131 168 219 280 336 391
#     4  11  25  44  70 100 131 180 228 280 337 401
#     4  11  24  43  65 100 136 176 224 279 338 402
#     4  11  24  42  67  99 133 178 223 280 336 404
#     4  11  26  46  67  96 140 180 225 279 334 407
#     4  12  26  45  69  99 141 183 223 279 340 407
#     4  11  23  41  69  99 131 177 228 280 337 401
#     4  10  21  39  68  98 129 170 218 277 336 387
#
# _framework density 22.462032000000001
#
# number of rings (size 3 to 8) (size 9 to 14) (size 15 to 20)
#    0.000    1.000    2.500    3.750    0.000    8.500 
#    0.000    0.000    0.000    0.000    0.000    0.000 
#    0.000    0.000    0.000    0.000    0.000    0.000 
#
# Total GULP energy -89467.125837 kJ/mol
# GULP energy per Si atom -5591.695365 kJ/mol
# Density = 2.241091 g / cm^3
# Si number density = 22.462032 Si / 1000 Ang^3
#
#
#
# Elastic Constant Matrix: (Units=GPa)
#
#
# Indices 1 2 3 4 5 6 
#
# 1 18.3552 10.5128 45.9842 0.0000 2.8619 0.0000
# 2 10.5128 67.6379 34.9761 0.0000 4.4051 0.0000
# 3 45.9842 34.9761 193.3371 0.0000 8.3535 0.0000
# 4 0.0000 0.0000 0.0000 77.8238 0.0000 29.7458
# 5 2.8619 4.4051 8.3535 0.0000 49.7600 0.0000
# 6 0.0000 0.0000 0.0000 29.7458 0.0000 34.1206
#
#
#
# Elastic Compliance Matrix: (Units=1/GPa)
#
#
# Indices 1 2 3 4 5 6 
#
# 1 0.136472 -0.004783 -0.031502 0.000000 -0.002137 0.000000
# 2 -0.004783 0.016523 -0.001813 0.000000 -0.000883 0.000000
# 3 -0.031502 -0.001813 0.013002 0.000000 -0.000210 0.000000
# 4 0.000000 0.000000 0.000000 0.019271 0.000000 -0.016800
# 5 -0.002137 -0.000883 -0.000210 0.000000 0.020333 0.000000
# 6 0.000000 0.000000 0.000000 -0.016800 0.000000 0.043954
#
#
# Mechanical properties :
#
#
# Convention : Reuss Voigt Hill
#
# Bulk Modulus (GPa) = 11.13563 51.36405 31.24984
# Shear Modulus (GPa) = 14.05740 44.86468 29.46104
#
# Velocity S-wave (km/s) = 2.50437 4.47403 3.62552
# Velocity P-wave (km/s) = 3.65114 7.04315 5.60967
#
# Compressibility (1/GPa) = 0.08980187
#
# Stress axis : x y z
#
# Youngs Moduli (GPa) = 7.32750 60.52077 76.91143
#
# Poissons Ratio (x) = 0.28945 2.42283
# Poissons Ratio (y) = 0.03504 0.13948
# Poissons Ratio (z) = 0.23083 0.10975
#
# Static dielectric constant tensor:
#      x y z
#    x 1.849660 0.000000 0.001210 
#    y 0.000000 1.832470 0.000000 
#    z 0.001210 0.000000 1.844680 
# 
# From -- ./inp_files/22396.got.cif
#   From: 2010.05.17/outbox.cif.g08.bks.cpg/sg8_12_cif.got.tgz:22396.got - 2010.06.03 19:46:02.
