data_PCOD9133962
_publ_section_title
;
Structure prediction by ZEFSAII (Michael W. Deem and Ramdas Pophale) SiO2 
 PCOD9133962
Probable space group: C C
;
_chemical_formula_sum "Si O2"
_cell_formula_units_Z 32
_cell_length_a 14.073216
_cell_length_b 6.945298
_cell_length_c 12.761659
_cell_angle_alpha 90.000000
_cell_angle_beta 112.436454
_cell_angle_gamma 90.000000
_cell_volume 1152.937915
_symmetry_space_group_name_H-M "C C"
_symmetry_group_IT_number 9
_symmetry_cell_setting 'monoclinic'
loop_
_space_group_symop_operation_xyz
x,y,z
x,-y,1/2+z
1/2+x,1/2+y,z
1/2+x,1/2-y,1/2+z
loop_
_atom_site_type_symbol
_atom_site_label
_atom_site_fract_x
_atom_site_fract_y
_atom_site_fract_z
Si Si1 0.171290 0.187513 0.247260
Si Si2 0.675607 0.851205 0.709506
Si Si3 0.027502 0.301517 0.343644
Si Si4 0.456881 0.896929 0.527235
Si Si5 0.987439 0.846806 0.512251
Si Si6 0.305773 0.216608 0.136222
Si Si7 0.357049 0.376953 0.636698
Si Si8 0.620137 0.769511 0.903106
O O1 0.186797 0.419616 0.236893
O O2 0.129413 0.184143 0.348175
O O3 0.078899 0.109082 0.134172
O O4 0.273904 0.114789 0.231371
O O5 0.558665 0.826140 0.627627
O O6 0.750058 0.807736 0.642648
O O7 0.681896 0.732595 0.820806
O O8 0.963789 0.272835 0.423978
O O9 0.066161 0.523130 0.361289
O O10 0.944379 0.261115 0.218991
O O11 0.364754 0.891594 0.569669
O O12 0.472580 0.117325 0.505353
O O13 0.035887 0.875485 0.417664
O O14 0.880699 0.909829 0.522668
O O15 0.370435 0.407685 0.186616
O O16 0.203093 0.287040 0.031408
#
# Coordination Sequence:
#
# PCOD9133962 Si02
#       8
#     4   4   4   4   4   4   4   4
#     4   7  14  29  49  71  95 132 175 206 243 309
#     4   9  17  31  50  73 103 137 174 211 253 310
#     4   9  16  30  55  76  97 135 184 217 248 308
#     4  10  19  33  52  78 107 139 174 218 264 315
#     4   8  16  31  52  73 101 138 176 210 255 312
#     4  10  19  32  54  82 107 134 175 226 269 304
#     4  10  18  32  54  80 105 136 175 222 267 313
#     4   9  17  34  56  77 101 143 185 212 251 327
#
# _framework density 27.755182000000001
#
# number of rings (size 3 to 8) (size 9 to 14) (size 15 to 20)
#    0.000    3.000    0.000    3.750    0.000    0.000 
#    0.000   10.000    0.000    7.500    0.000    0.000 
#    0.000    0.000    0.000    0.000    0.000    0.000 
#
# Total GULP energy -89301.579426 kJ/mol
# GULP energy per Si atom -5581.348714 kJ/mol
# Density = 2.769201 g / cm^3
# Si number density = 27.755182 Si / 1000 Ang^3
#
#
#
# Elastic Constant Matrix: (Units=GPa)
#
#
# Indices 1 2 3 4 5 6 
#
# 1 129.7232 17.5601 67.0516 0.0000 -64.6687 0.0000
# 2 17.5601 79.5003 8.8107 0.0000 -20.5456 0.0000
# 3 67.0516 8.8107 155.6806 0.0000 -69.6733 0.0000
# 4 0.0000 0.0000 0.0000 27.0434 0.0000 -26.6845
# 5 -64.6687 -20.5456 -69.6733 0.0000 89.6275 0.0000
# 6 0.0000 0.0000 0.0000 -26.6845 0.0000 32.1737
#
#
#
# Elastic Compliance Matrix: (Units=1/GPa)
#
#
# Indices 1 2 3 4 5 6 
#
# 1 0.012487 -0.000659 -0.002111 0.000000 0.007218 0.000000
# 2 -0.000659 0.013496 0.001061 0.000000 0.003443 0.000000
# 3 -0.002111 0.001061 0.010274 0.000000 0.006707 0.000000
# 4 0.000000 0.000000 0.000000 0.203605 0.000000 0.168868
# 5 0.007218 0.003443 0.006707 0.000000 0.022368 0.000000
# 6 0.000000 0.000000 0.000000 0.168868 0.000000 0.171139
#
#
# Mechanical properties :
#
#
# Convention : Reuss Voigt Hill
#
# Bulk Modulus (GPa) = 30.45015 61.30542 45.87779
# Shear Modulus (GPa) = 11.16735 47.86770 29.51753
#
# Velocity S-wave (km/s) = 2.00805 4.15738 3.26467
# Velocity P-wave (km/s) = 4.04613 6.72168 5.54762
#
# Compressibility (1/GPa) = 0.03284056
#
# Stress axis : x y z
#
# Youngs Moduli (GPa) = 80.08249 74.09409 97.33268
#
# Poissons Ratio (x) = 0.04882 0.20542
# Poissons Ratio (y) = 0.05276 -0.10326
# Poissons Ratio (z) = 0.16901 -0.07860
#
# Static dielectric constant tensor:
#      x y z
#    x 2.236120 0.000000 -0.113080 
#    y 0.000000 2.234860 0.000000 
#    z -0.113080 0.000000 2.305180 
# 
# From -- ./inp_files/25384.got.cif
#   From: 2010.05.17/outbox.cif.g08.bks.cpg/sg9_13_cif.got.tgz:25384.got - 2010.06.03 20:04:27.
