data_PCOD9133288
_publ_section_title
;
Structure prediction by ZEFSAII (Michael W. Deem and Ramdas Pophale) SiO2 
 PCOD9133288
Probable space group: C M
;
_chemical_formula_sum "Si O2"
_cell_formula_units_Z 24
_cell_length_a 5.415556
_cell_length_b 18.330462
_cell_length_c 11.674694
_cell_angle_alpha 90.000000
_cell_angle_beta 119.490790
_cell_angle_gamma 90.000000
_cell_volume 1008.784112
_symmetry_space_group_name_H-M "C M"
_symmetry_group_IT_number 8
_symmetry_cell_setting 'monoclinic'
loop_
_space_group_symop_operation_xyz
x,y,z
x,-y,z
1/2+x,1/2+y,z
1/2+x,1/2-y,z
loop_
_atom_site_type_symbol
_atom_site_label
_atom_site_fract_x
_atom_site_fract_y
_atom_site_fract_z
Si Si1 0.713380 0.585906 0.922540
Si Si2 0.996687 0.332825 0.567702
Si Si3 0.802333 0.681977 0.282433
Si Si4 0.060589 0.914289 0.627521
Si Si5 0.197640 0.343079 0.182277
Si Si6 0.321966 0.288332 0.860050
O O1 0.691023 0.500000 0.938153
O O2 0.437291 0.630030 0.904297
O O3 0.714956 0.598453 0.785826
O O4 0.984995 0.620427 0.044989
O O5 0.242129 0.386859 0.578062
O O6 0.148902 0.286083 0.700827
O O7 0.890755 0.293019 0.429673
O O8 0.736641 0.372923 0.570535
O O9 0.520611 0.633954 0.233805
O O10 0.726206 0.754451 0.192439
O O11 0.052719 0.641695 0.272320
O O12 0.609570 0.757205 0.905021
O O13 0.062538 0.000000 0.604593
#
# Coordination Sequence:
#
# PCOD9133288 Si02
#       6
#     4   4   4   4   4   4
#     4  10  24  47  71 101 142 182 231 285 346 413
#     4  11  22  41  66 103 138 176 226 289 347 408
#     4  10  23  40  66  95 136 176 230 279 340 388
#     4  10  22  42  69 100 137 182 223 283 355 415
#     4  10  23  41  66  92 131 187 224 276 334 400
#     4  11  25  39  69 105 137 169 226 282 347 408
#
# _framework density 23.791017
#
# number of rings (size 3 to 8) (size 9 to 14) (size 15 to 20)
#    0.000    1.667    0.000    3.500    9.333    3.333 
#    0.000   11.667    0.000    0.000    0.000    0.000 
#    0.000    0.000    0.000    0.000    0.000    0.000 
#
# Total GULP energy -67157.507079 kJ/mol
# GULP energy per Si atom -5596.458923 kJ/mol
# Density = 2.373687 g / cm^3
# Si number density = 23.791017 Si / 1000 Ang^3
#
#
#
# Elastic Constant Matrix: (Units=GPa)
#
#
# Indices 1 2 3 4 5 6 
#
# 1 174.7428 40.3120 5.2746 0.0000 -17.3760 0.0000
# 2 40.3120 101.1846 34.8304 0.0000 -9.1501 0.0000
# 3 5.2746 34.8304 104.5296 0.0000 -7.6070 0.0000
# 4 0.0000 0.0000 0.0000 20.1595 0.0000 -3.2344
# 5 -17.3760 -9.1501 -7.6070 0.0000 32.2782 0.0000
# 6 0.0000 0.0000 0.0000 -3.2344 0.0000 24.3744
#
#
#
# Elastic Compliance Matrix: (Units=1/GPa)
#
#
# Indices 1 2 3 4 5 6 
#
# 1 0.006602 -0.002621 0.000758 0.000000 0.002989 0.000000
# 2 -0.002621 0.012378 -0.003907 0.000000 0.001178 0.000000
# 3 0.000758 -0.003907 0.010967 0.000000 0.001885 0.000000
# 4 0.000000 0.000000 0.000000 0.050683 0.000000 0.006725
# 5 0.002989 0.001178 0.001885 0.000000 0.033368 0.000000
# 6 0.000000 0.000000 0.000000 0.006725 0.000000 0.041919
#
#
# Mechanical properties :
#
#
# Convention : Reuss Voigt Hill
#
# Bulk Modulus (GPa) = 54.32388 60.14343 57.23365
# Shear Modulus (GPa) = 28.80303 35.36509 32.08406
#
# Velocity S-wave (km/s) = 3.48324 3.85968 3.67628
# Velocity P-wave (km/s) = 6.24985 6.72292 6.49070
#
# Compressibility (1/GPa) = 0.01840811
#
# Stress axis : x y z
#
# Youngs Moduli (GPa) = 151.47759 80.78716 91.17970
#
# Poissons Ratio (x) = 0.21171 -0.06908
# Poissons Ratio (y) = 0.39696 0.35620
# Poissons Ratio (z) = -0.11476 0.31560
#
# Static dielectric constant tensor:
#      x y z
#    x 1.947630 0.000000 0.021320 
#    y 0.000000 1.879510 0.000000 
#    z 0.021320 0.000000 1.940350 
# 
# From -- ./inp_files/18071.got.cif
#   From: 2010.05.17/outbox.cif.g08.bks.cpg/sg8_10_cif.got.tgz:18071.got - 2010.06.03 19:46:02.
