data_PCOD9133317
_publ_section_title
;
Structure prediction by ZEFSAII (Michael W. Deem and Ramdas Pophale) SiO2 
 PCOD9133317
Probable space group: C M
;
_chemical_formula_sum "Si O2"
_cell_formula_units_Z 32
_cell_length_a 16.250027
_cell_length_b 9.026101
_cell_length_c 10.403783
_cell_angle_alpha 90.000000
_cell_angle_beta 96.969393
_cell_angle_gamma 90.000000
_cell_volume 1514.693262
_symmetry_space_group_name_H-M "C M"
_symmetry_group_IT_number 8
_symmetry_cell_setting 'monoclinic'
loop_
_space_group_symop_operation_xyz
x,y,z
x,-y,z
1/2+x,1/2+y,z
1/2+x,1/2-y,z
loop_
_atom_site_type_symbol
_atom_site_label
_atom_site_fract_x
_atom_site_fract_y
_atom_site_fract_z
Si Si1 0.948570 0.344641 0.152830
Si Si2 0.021459 0.330717 0.444965
Si Si3 0.179374 0.174066 0.377538
Si Si4 0.671438 0.667834 0.075340
Si Si5 0.348516 0.676695 0.496046
Si Si6 0.546283 0.836226 0.904886
Si Si7 0.871041 0.325898 0.760699
Si Si8 0.821272 0.166213 0.007358
O O1 0.898270 0.500000 0.146138
O O2 0.891891 0.202973 0.124277
O O3 0.000203 0.342189 0.290362
O O4 0.003968 0.350543 0.037003
O O5 0.026435 0.500000 0.498032
O O6 0.110508 0.248457 0.458563
O O7 0.939422 0.246323 0.481154
O O8 0.148720 0.181243 0.222194
O O9 0.269888 0.251343 0.406528
O O10 0.188213 0.000000 0.410382
O O11 0.701813 0.500000 0.065779
O O12 0.737550 0.794905 0.062135
O O13 0.606715 0.701917 0.948215
O O14 0.349604 0.500000 0.478937
O O15 0.335858 0.725086 0.641595
O O16 0.470840 0.805782 0.794121
O O17 0.582603 0.000000 0.880954
O O18 0.856053 0.500000 0.734615
O O19 0.834224 0.275940 0.890246
O O20 0.826847 0.000000 0.961968
#
# Coordination Sequence:
#
# PCOD9133317 Si02
#       8
#     4   4   4   4   4   4   4   4
#     4   9  18  34  57  85 120 157 196 245 308 371
#     4  11  22  40  66  95 129 171 216 266 323 382
#     4  11  24  42  65  97 134 172 215 266 322 382
#     4  11  22  36  58  91 128 161 200 253 314 375
#     4  12  26  44  66  94 128 171 221 269 321 383
#     4   9  18  35  60  87 117 153 193 246 305 366
#     4  10  22  44  66  86 118 161 208 259 314 374
#     4  11  22  35  58  89 122 160 205 254 311 377
#
# _framework density 21.126389
#
# number of rings (size 3 to 8) (size 9 to 14) (size 15 to 20)
#    0.000    1.500    1.250    5.250    0.000    8.000 
#    2.250    0.000    0.000    0.000    0.000    0.000 
#    0.000    0.000    0.000    0.000    0.000    0.000 
#
# Total GULP energy -89173.100565 kJ/mol
# GULP energy per Si atom -5573.318785 kJ/mol
# Density = 2.107830 g / cm^3
# Si number density = 21.126389 Si / 1000 Ang^3
#
#
#
# Elastic Constant Matrix: (Units=GPa)
#
#
# Indices 1 2 3 4 5 6 
#
# 1 63.0103 49.4102 -1.9068 0.0000 -11.0288 0.0000
# 2 49.4102 136.3609 13.8372 0.0000 -0.8798 0.0000
# 3 -1.9068 13.8372 37.9911 0.0000 11.9709 0.0000
# 4 0.0000 0.0000 0.0000 27.4108 0.0000 2.9336
# 5 -11.0288 -0.8798 11.9709 0.0000 18.9211 0.0000
# 6 0.0000 0.0000 0.0000 2.9336 0.0000 32.6545
#
#
#
# Elastic Compliance Matrix: (Units=1/GPa)
#
#
# Indices 1 2 3 4 5 6 
#
# 1 0.025613 -0.009196 0.000082 0.000000 0.014450 0.000000
# 2 -0.009196 0.011023 -0.003683 0.000000 -0.002517 0.000000
# 3 0.000082 -0.003683 0.034605 0.000000 -0.022017 0.000000
# 4 0.000000 0.000000 0.000000 0.036836 0.000000 -0.003309
# 5 0.014450 -0.002517 -0.022017 0.000000 0.075087 0.000000
# 6 0.000000 0.000000 0.000000 -0.003309 0.000000 0.030921
#
#
# Mechanical properties :
#
#
# Convention : Reuss Voigt Hill
#
# Bulk Modulus (GPa) = 21.90745 40.00485 30.95615
# Shear Modulus (GPa) = 19.61583 27.53205 23.57394
#
# Velocity S-wave (km/s) = 3.05043 3.61391 3.34406
# Velocity P-wave (km/s) = 4.77484 6.03249 5.44013
#
# Compressibility (1/GPa) = 0.04564657
#
# Stress axis : x y z
#
# Youngs Moduli (GPa) = 39.04218 90.71806 28.89738
#
# Poissons Ratio (x) = 0.83424 -0.00236
# Poissons Ratio (y) = 0.35903 0.10644
# Poissons Ratio (z) = -0.00319 0.33414
#
# Static dielectric constant tensor:
#      x y z
#    x 1.879400 0.000000 0.041070 
#    y 0.000000 1.772620 0.000000 
#    z 0.041070 0.000000 1.769580 
# 
# From -- ./inp_files/22796.got.cif
#   From: 2010.05.17/outbox.cif.g08.bks.cpg/sg8_12_cif.got.tgz:22796.got - 2010.06.03 19:46:02.
