data_PCOD9133437
_publ_section_title
;
Structure prediction by ZEFSAII (Michael W. Deem and Ramdas Pophale) SiO2 
 PCOD9133437
Probable space group: C M
;
_chemical_formula_sum "Si O2"
_cell_formula_units_Z 32
_cell_length_a 15.568947
_cell_length_b 9.015448
_cell_length_c 12.915097
_cell_angle_alpha 90.000000
_cell_angle_beta 108.909348
_cell_angle_gamma 90.000000
_cell_volume 1714.945334
_symmetry_space_group_name_H-M "C M"
_symmetry_group_IT_number 8
_symmetry_cell_setting 'monoclinic'
loop_
_space_group_symop_operation_xyz
x,y,z
x,-y,z
1/2+x,1/2+y,z
1/2+x,1/2-y,z
loop_
_atom_site_type_symbol
_atom_site_label
_atom_site_fract_x
_atom_site_fract_y
_atom_site_fract_z
Si Si1 0.748340 0.178342 0.147610
Si Si2 0.488488 0.676021 0.755085
Si Si3 0.487340 0.172100 0.538417
Si Si4 0.137585 0.680241 0.307831
Si Si5 0.434351 0.179380 0.288557
Si Si6 0.698339 0.173382 0.553253
Si Si7 0.819047 0.676758 0.773733
Si Si8 0.189455 0.178520 0.911376
O O1 0.686500 0.225490 0.221674
O O2 0.848870 0.243529 0.203205
O O3 0.751262 0.000000 0.146621
O O4 0.707141 0.241061 0.025897
O O5 0.479127 0.500000 0.756401
O O6 0.467960 0.730949 0.630926
O O7 0.417702 0.752278 0.803992
O O8 0.591263 0.715982 0.825549
O O9 0.438089 0.216100 0.412655
O O10 0.594842 0.180157 0.554563
O O11 0.465687 0.000000 0.552478
O O12 0.137048 0.500000 0.311676
O O13 0.192175 0.727505 0.432225
O O14 0.032048 0.724603 0.278825
O O15 0.427457 0.000000 0.277487
O O16 0.761965 0.265885 0.653051
O O17 0.726303 0.000000 0.565886
O O18 0.824905 0.500000 0.772792
O O19 0.765097 0.720009 0.856160
O O20 0.192913 0.000000 0.927166
#
# Coordination Sequence:
#
# PCOD9133437 Si02
#       8
#     4   4   4   4   4   4   4   4
#     4  11  23  38  61  89 116 152 202 247 287 345
#     4  11  23  39  60  87 118 155 197 245 300 353
#     4   9  18  34  59  89 122 157 195 239 292 353
#     4   8  18  37  58  84 118 155 190 232 290 348
#     4   9  19  38  60  84 119 159 194 233 290 351
#     4   9  17  34  60  87 120 157 191 236 293 350
#     4  11  23  39  59  87 118 153 199 244 297 357
#     4  10  24  45  61  79 117 160 198 244 297 351
#
# _framework density 18.659486000000001
#
# number of rings (size 3 to 8) (size 9 to 14) (size 15 to 20)
#    0.000    2.250    1.250    2.625    1.750    3.500 
#    0.000    7.500    0.000    0.000    0.000    0.000 
#    0.000    0.000    0.000    0.000    0.000    0.000 
#
# Total GULP energy -89343.465959 kJ/mol
# GULP energy per Si atom -5583.966622 kJ/mol
# Density = 1.861702 g / cm^3
# Si number density = 18.659486 Si / 1000 Ang^3
#
#
#
# Elastic Constant Matrix: (Units=GPa)
#
#
# Indices 1 2 3 4 5 6 
#
# 1 67.8954 21.6524 31.3293 0.0000 -29.1362 0.0000
# 2 21.6524 28.8476 29.4815 0.0000 -10.5107 0.0000
# 3 31.3293 29.4815 88.9876 0.0000 -26.4747 0.0000
# 4 0.0000 0.0000 0.0000 33.7523 0.0000 2.0011
# 5 -29.1362 -10.5107 -26.4747 0.0000 24.3175 0.0000
# 6 0.0000 0.0000 0.0000 2.0011 0.0000 27.2592
#
#
#
# Elastic Compliance Matrix: (Units=1/GPa)
#
#
# Indices 1 2 3 4 5 6 
#
# 1 0.035055 -0.017023 0.005332 0.000000 0.040448 0.000000
# 2 -0.017023 0.061187 -0.018456 0.000000 -0.014042 0.000000
# 3 0.005332 -0.018456 0.022189 0.000000 0.022569 0.000000
# 4 0.000000 0.000000 0.000000 0.029757 0.000000 -0.002184
# 5 0.040448 -0.014042 0.022569 0.000000 0.108087 0.000000
# 6 0.000000 0.000000 0.000000 -0.002184 0.000000 0.036845
#
#
# Mechanical properties :
#
#
# Convention : Reuss Voigt Hill
#
# Bulk Modulus (GPa) = 17.20070 38.96189 28.08130
# Shear Modulus (GPa) = 13.41227 23.95030 18.68129
#
# Velocity S-wave (km/s) = 2.68394 3.58655 3.16756
# Velocity P-wave (km/s) = 4.34084 6.17065 5.33478
#
# Compressibility (1/GPa) = 0.05813717
#
# Stress axis : x y z
#
# Youngs Moduli (GPa) = 28.52692 16.34333 45.06694
#
# Poissons Ratio (x) = 0.27821 -0.24029
# Poissons Ratio (y) = 0.48561 0.83175
# Poissons Ratio (z) = -0.15210 0.30163
#
# Static dielectric constant tensor:
#      x y z
#    x 1.651580 0.000000 -0.006730 
#    y 0.000000 1.621720 0.000000 
#    z -0.006730 0.000000 1.619570 
# 
# From -- ./inp_files/21602.got.cif
#   From: 2010.05.17/outbox.cif.g08.bks.cpg/sg8_11_cif.got.tgz:21602.got - 2010.06.03 19:46:02.
