data_PCOD9133783
_publ_section_title
;
Structure prediction by ZEFSAII (Michael W. Deem and Ramdas Pophale) SiO2 
 PCOD9133783
Probable space group: C C
;
_chemical_formula_sum "Si O2"
_cell_formula_units_Z 32
_cell_length_a 10.356248
_cell_length_b 24.256508
_cell_length_c 5.830463
_cell_angle_alpha 90.000000
_cell_angle_beta 117.063229
_cell_angle_gamma 90.000000
_cell_volume 1304.277844
_symmetry_space_group_name_H-M "C C"
_symmetry_group_IT_number 9
_symmetry_cell_setting 'monoclinic'
loop_
_space_group_symop_operation_xyz
x,y,z
x,-y,1/2+z
1/2+x,1/2+y,z
1/2+x,1/2-y,1/2+z
loop_
_atom_site_type_symbol
_atom_site_label
_atom_site_fract_x
_atom_site_fract_y
_atom_site_fract_z
Si Si1 0.991210 0.432877 0.563880
Si Si2 0.984697 0.564398 0.561829
Si Si3 0.454105 0.778967 0.706342
Si Si4 0.472070 0.372340 0.545000
Si Si5 0.743151 0.196752 0.723157
Si Si6 0.612690 0.276039 0.947972
Si Si7 0.723237 0.362522 0.405509
Si Si8 0.652867 0.468665 0.829079
O O1 0.011951 0.498394 0.580739
O O2 0.040005 0.412341 0.351374
O O3 0.822346 0.414644 0.428090
O O4 0.040947 0.414583 0.859300
O O5 0.807324 0.564233 0.430899
O O6 0.371957 0.721252 0.672532
O O7 0.520091 0.770120 0.507966
O O8 0.331622 0.824696 0.642825
O O9 0.589814 0.793602 0.976168
O O10 0.305385 0.362201 0.347538
O O11 0.575493 0.378024 0.407873
O O12 0.519821 0.425121 0.728925
O O13 0.522503 0.315717 0.708302
O O14 0.732916 0.239789 0.922024
O O15 0.685641 0.320202 0.174716
O O16 0.645771 0.500013 0.572114
#
# Coordination Sequence:
#
# PCOD9133783 Si02
#       8
#     4   4   4   4   4   4   4   4
#     4  10  19  30  52  84 121 155 200 251 327 377
#     4  10  16  32  51  81 125 156 190 266 321 381
#     4  12  24  42  61  90 131 172 218 276 322 403
#     4  12  25  39  68  97 132 180 220 278 350 406
#     4  12  24  45  60  94 132 172 226 272 333 409
#     4  12  23  39  66  89 135 172 217 272 336 400
#     4  12  23  37  60  93 125 167 212 262 328 403
#     4  12  22  38  60  98 135 170 225 289 343 405
#
# _framework density 24.534651
#
# number of rings (size 3 to 8) (size 9 to 14) (size 15 to 20)
#    0.000    0.500    8.750    1.500    1.750    0.000 
#    0.000    0.000    0.000    0.000    6.500    0.000 
#    0.000    0.000    0.000    0.000    0.000    0.000 
#
# Total GULP energy -89258.367057 kJ/mol
# GULP energy per Si atom -5578.647941 kJ/mol
# Density = 2.447881 g / cm^3
# Si number density = 24.534651 Si / 1000 Ang^3
#
#
#
# Elastic Constant Matrix: (Units=GPa)
#
#
# Indices 1 2 3 4 5 6 
#
# 1 73.0768 15.0067 49.4465 0.0000 -4.6891 0.0000
# 2 15.0067 65.1375 21.3844 0.0000 -4.3370 0.0000
# 3 49.4465 21.3844 141.7966 0.0000 -19.2807 0.0000
# 4 0.0000 0.0000 0.0000 28.6354 0.0000 8.0268
# 5 -4.6891 -4.3370 -19.2807 0.0000 44.3604 0.0000
# 6 0.0000 0.0000 0.0000 8.0268 0.0000 15.6365
#
#
#
# Elastic Compliance Matrix: (Units=1/GPa)
#
#
# Indices 1 2 3 4 5 6 
#
# 1 0.018249 -0.002248 -0.006156 0.000000 -0.000966 0.000000
# 2 -0.002248 0.016441 -0.001604 0.000000 0.000673 0.000000
# 3 -0.006156 -0.001604 0.009917 0.000000 0.003503 0.000000
# 4 0.000000 0.000000 0.000000 0.040792 0.000000 -0.020940
# 5 -0.000966 0.000673 0.003503 0.000000 0.024029 0.000000
# 6 0.000000 0.000000 0.000000 -0.020940 0.000000 0.074702
#
#
# Mechanical properties :
#
#
# Convention : Reuss Voigt Hill
#
# Bulk Modulus (GPa) = 40.66404 50.18734 45.42569
# Shear Modulus (GPa) = 23.54666 30.67135 27.10900
#
# Velocity S-wave (km/s) = 3.10131 3.53954 3.32765
# Velocity P-wave (km/s) = 5.42534 6.09956 5.77230
#
# Compressibility (1/GPa) = 0.02459175
#
# Stress axis : x y z
#
# Youngs Moduli (GPa) = 54.79651 60.82193 100.83320
#
# Poissons Ratio (x) = 0.13671 0.62075
# Poissons Ratio (y) = 0.12316 0.16177
# Poissons Ratio (z) = 0.33734 0.09758
#
# Static dielectric constant tensor:
#      x y z
#    x 1.892420 0.000000 -0.034540 
#    y 0.000000 2.006460 0.000000 
#    z -0.034540 0.000000 2.101290 
# 
# From -- ./inp_files/1314.got.cif
#   From: 2010.05.17/outbox.cif.g08.bks.cpg/sg9_1_cif.got.tgz:1314.got - 2010.06.03 20:04:27.
