data_PCOD9133908
_publ_section_title
;
Structure prediction by ZEFSAII (Michael W. Deem and Ramdas Pophale) SiO2 
 PCOD9133908
Probable space group: C C
;
_chemical_formula_sum "Si O2"
_cell_formula_units_Z 28
_cell_length_a 10.916610
_cell_length_b 8.945756
_cell_length_c 14.916963
_cell_angle_alpha 90.000000
_cell_angle_beta 121.191891
_cell_angle_gamma 90.000000
_cell_volume 1246.159334
_symmetry_space_group_name_H-M "C C"
_symmetry_group_IT_number 9
_symmetry_cell_setting 'monoclinic'
loop_
_space_group_symop_operation_xyz
x,y,z
x,-y,1/2+z
1/2+x,1/2+y,z
1/2+x,1/2-y,1/2+z
loop_
_atom_site_type_symbol
_atom_site_label
_atom_site_fract_x
_atom_site_fract_y
_atom_site_fract_z
Si Si1 0.312860 0.941974 0.972080
Si Si2 0.601346 0.747027 0.045866
Si Si3 0.893683 0.028189 0.903467
Si Si4 0.722456 0.962771 0.522231
Si Si5 0.409723 0.822508 0.383419
Si Si6 0.331989 0.814198 0.165323
Si Si7 0.662128 0.252925 0.762461
O O1 0.209958 0.861912 0.860812
O O2 0.342439 0.107470 0.947722
O O3 0.462756 0.851376 0.016178
O O4 0.277972 0.916636 0.063004
O O5 0.656448 0.680535 0.160308
O O6 0.710163 0.866402 0.047102
O O7 0.537989 0.625112 0.954515
O O8 0.772576 0.114103 0.801103
O O9 0.917714 0.856128 0.890732
O O10 0.832541 0.044534 0.981698
O O11 0.566035 0.899934 0.433809
O O12 0.771739 0.850069 0.618848
O O13 0.311012 0.860106 0.259933
O O14 0.503499 0.803447 0.223022
#
# Coordination Sequence:
#
# PCOD9133908 Si02
#       7
#     4   4   4   4   4   4   4
#     4   9  20  38  61  92 122 166 214 260 310 384
#     4   9  20  37  66  88 125 166 207 257 319 371
#     4  11  21  41  62  94 128 161 215 267 304 382
#     4  11  21  42  63  92 127 168 209 259 318 381
#     4  11  24  39  66  94 126 169 217 261 321 378
#     4  11  19  40  68  85 127 177 205 261 330 366
#     4  10  17  39  64  83 125 167 203 253 320 372
#
# _framework density 22.469038000000001
#
# number of rings (size 3 to 8) (size 9 to 14) (size 15 to 20)
#    0.000    1.714    5.714    0.857    0.000    1.143 
#    7.714    0.000    0.000    0.000    0.000    0.000 
#    0.000    0.000    0.000    0.000    0.000    0.000 
#
# Total GULP energy -78203.652695 kJ/mol
# GULP energy per Si atom -5585.975193 kJ/mol
# Density = 2.241790 g / cm^3
# Si number density = 22.469038 Si / 1000 Ang^3
#
#
#
# Elastic Constant Matrix: (Units=GPa)
#
#
# Indices 1 2 3 4 5 6 
#
# 1 39.9849 22.5655 15.0616 0.0000 4.2500 0.0000
# 2 22.5655 112.2265 53.5205 0.0000 -2.3566 0.0000
# 3 15.0616 53.5205 139.9643 0.0000 2.8572 0.0000
# 4 0.0000 0.0000 0.0000 27.0075 0.0000 1.8451
# 5 4.2500 -2.3566 2.8572 0.0000 24.0229 0.0000
# 6 0.0000 0.0000 0.0000 1.8451 0.0000 35.2528
#
#
#
# Elastic Compliance Matrix: (Units=1/GPa)
#
#
# Indices 1 2 3 4 5 6 
#
# 1 0.029063 -0.005533 -0.000898 0.000000 -0.005578 0.000000
# 2 -0.005533 0.012010 -0.004051 0.000000 0.002639 0.000000
# 3 -0.000898 -0.004051 0.008817 0.000000 -0.001287 0.000000
# 4 0.000000 0.000000 0.000000 0.037160 0.000000 -0.001945
# 5 -0.005578 0.002639 -0.001287 0.000000 0.043026 0.000000
# 6 0.000000 0.000000 0.000000 -0.001945 0.000000 0.028468
#
#
# Mechanical properties :
#
#
# Convention : Reuss Voigt Hill
#
# Bulk Modulus (GPa) = 34.57036 52.71900 43.64468
# Shear Modulus (GPa) = 26.43418 30.65852 28.54635
#
# Velocity S-wave (km/s) = 3.43369 3.69789 3.56824
# Velocity P-wave (km/s) = 5.58028 6.46115 6.03680
#
# Compressibility (1/GPa) = 0.02892652
#
# Stress axis : x y z
#
# Youngs Moduli (GPa) = 34.40818 83.26139 113.42134
#
# Poissons Ratio (x) = 0.46065 0.10185
# Poissons Ratio (y) = 0.19037 0.45948
# Poissons Ratio (z) = 0.03090 0.33730
#
# Static dielectric constant tensor:
#      x y z
#    x 1.877440 0.000000 -0.029420 
#    y 0.000000 1.838920 0.000000 
#    z -0.029420 0.000000 1.850340 
# 
# From -- ./inp_files/20781.got.cif
#   From: 2010.05.17/outbox.cif.g08.bks.cpg/sg9_11_cif.got.tgz:20781.got - 2010.06.03 20:04:27.
