data_PCOD9133947
_publ_section_title
;
Structure prediction by ZEFSAII (Michael W. Deem and Ramdas Pophale) SiO2 
 PCOD9133947
Probable space group: C C
;
_chemical_formula_sum "Si O2"
_cell_formula_units_Z 32
_cell_length_a 4.995044
_cell_length_b 18.688930
_cell_length_c 19.488843
_cell_angle_alpha 90.000000
_cell_angle_beta 81.795095
_cell_angle_gamma 90.000000
_cell_volume 1800.700452
_symmetry_space_group_name_H-M "C C"
_symmetry_group_IT_number 9
_symmetry_cell_setting 'monoclinic'
loop_
_space_group_symop_operation_xyz
x,y,z
x,-y,1/2+z
1/2+x,1/2+y,z
1/2+x,1/2-y,1/2+z
loop_
_atom_site_type_symbol
_atom_site_label
_atom_site_fract_x
_atom_site_fract_y
_atom_site_fract_z
Si Si1 0.385880 0.614054 0.213860
Si Si2 0.116919 0.060788 0.495979
Si Si3 0.059226 0.949989 0.838381
Si Si4 0.064318 0.491184 0.560744
Si Si5 0.945466 0.612251 0.668843
Si Si6 0.997126 0.181064 0.603952
Si Si7 0.629171 0.017266 0.773669
Si Si8 0.451190 0.843055 0.630500
O O1 0.457921 0.614097 0.292034
O O2 0.301529 0.529777 0.211536
O O3 0.643546 0.639150 0.161970
O O4 0.128959 0.654825 0.193698
O O5 0.118744 0.136501 0.535766
O O6 0.069386 0.068706 0.417194
O O7 0.868530 0.016855 0.537815
O O8 0.387688 0.016536 0.502245
O O9 0.356099 0.974742 0.802879
O O10 0.840049 0.012862 0.828920
O O11 0.930598 0.537428 0.627523
O O12 0.048362 0.408193 0.579354
O O13 0.190534 0.656264 0.626892
O O14 0.031172 0.589958 0.742267
O O15 0.672943 0.655034 0.663223
O O16 0.995456 0.265819 0.596299
#
# Coordination Sequence:
#
# PCOD9133947 Si02
#       8
#     4   4   4   4   4   4   4   4
#     4  10  19  31  56  81 103 137 175 233 262 315
#     4  10  21  35  53  80 105 144 181 217 266 319
#     4  10  18  33  53  84 101 139 184 229 257 321
#     4  10  19  31  55  76 105 135 177 219 257 317
#     4  10  18  35  51  80 105 135 171 221 282 306
#     4  10  23  33  53  80 117 140 167 225 274 328
#     4  10  18  31  57  82 101 134 176 237 260 308
#     4  12  20  35  54  85 109 138 181 219 280 322
#
# _framework density 17.770862999999999
#
# number of rings (size 3 to 8) (size 9 to 14) (size 15 to 20)
#    0.750    1.000    2.500    3.000    3.500    0.000 
#    0.000    0.000    0.000    9.000    0.000    0.000 
#    0.000    0.000    0.000    0.000    0.000    0.000 
#
# Total GULP energy -89092.370724 kJ/mol
# GULP energy per Si atom -5568.273170 kJ/mol
# Density = 1.773042 g / cm^3
# Si number density = 17.770863 Si / 1000 Ang^3
#
#
#
# Elastic Constant Matrix: (Units=GPa)
#
#
# Indices 1 2 3 4 5 6 
#
# 1 87.9431 17.4155 4.6831 0.0000 13.5429 0.0000
# 2 17.4155 118.0044 30.9951 0.0000 2.4316 0.0000
# 3 4.6831 30.9951 68.8621 0.0000 14.8467 0.0000
# 4 0.0000 0.0000 0.0000 10.6148 0.0000 0.9099
# 5 13.5429 2.4316 14.8467 0.0000 26.1270 0.0000
# 6 0.0000 0.0000 0.0000 0.9099 0.0000 14.8284
#
#
#
# Elastic Compliance Matrix: (Units=1/GPa)
#
#
# Indices 1 2 3 4 5 6 
#
# 1 0.012860 -0.002196 0.001717 0.000000 -0.007437 0.000000
# 2 -0.002196 0.010059 -0.005039 0.000000 0.003065 0.000000
# 3 0.001717 -0.005039 0.019104 0.000000 -0.011277 0.000000
# 4 0.000000 0.000000 0.000000 0.094706 0.000000 -0.005812
# 5 -0.007437 0.003065 -0.011277 0.000000 0.048253 0.000000
# 6 0.000000 0.000000 0.000000 -0.005812 0.000000 0.067795
#
#
# Mechanical properties :
#
#
# Convention : Reuss Voigt Hill
#
# Bulk Modulus (GPa) = 32.27073 42.33300 37.30186
# Shear Modulus (GPa) = 18.23882 25.09512 21.66697
#
# Velocity S-wave (km/s) = 3.20712 3.76193 3.49555
# Velocity P-wave (km/s) = 5.64915 6.53780 6.10965
#
# Compressibility (1/GPa) = 0.03098784
#
# Stress axis : x y z
#
# Youngs Moduli (GPa) = 77.76250 99.41648 52.34375
#
# Poissons Ratio (x) = 0.21829 -0.08989
# Poissons Ratio (y) = 0.17074 0.26376
# Poissons Ratio (z) = -0.13353 0.50096
#
# Static dielectric constant tensor:
#      x y z
#    x 1.628760 0.000000 0.034770 
#    y 0.000000 1.605520 0.000000 
#    z 0.034770 0.000000 1.648950 
# 
# From -- ./inp_files/28801.got.cif
#   From: 2010.05.17/outbox.cif.g08.bks.cpg/sg9_15_cif.got.tgz:28801.got - 2010.06.03 20:04:27.
