data_PCOD9133980
_publ_section_title
;
Structure prediction by ZEFSAII (Michael W. Deem and Ramdas Pophale) SiO2 
 PCOD9133980
Probable space group: C C
;
_chemical_formula_sum "Si O2"
_cell_formula_units_Z 32
_cell_length_a 33.955195
_cell_length_b 6.979356
_cell_length_c 12.191489
_cell_angle_alpha 90.000000
_cell_angle_beta 156.950326
_cell_angle_gamma 90.000000
_cell_volume 1131.207580
_symmetry_space_group_name_H-M "C C"
_symmetry_group_IT_number 9
_symmetry_cell_setting 'monoclinic'
loop_
_space_group_symop_operation_xyz
x,y,z
x,-y,1/2+z
1/2+x,1/2+y,z
1/2+x,1/2-y,1/2+z
loop_
_atom_site_type_symbol
_atom_site_label
_atom_site_fract_x
_atom_site_fract_y
_atom_site_fract_z
Si Si1 0.955370 0.743815 0.529400
Si Si2 0.369696 0.162889 0.770879
Si Si3 0.926514 0.673240 0.685819
Si Si4 0.787894 0.162889 0.287860
Si Si5 0.731076 0.826761 0.872920
Si Si6 0.702220 0.243816 0.529340
Si Si7 0.663395 0.729340 0.160259
Si Si8 0.494195 0.270658 0.398482
O O1 0.938029 0.515472 0.477568
O O2 0.982474 0.770937 0.725393
O O3 0.845850 0.830063 0.215789
O O4 0.023690 0.795732 0.600879
O O5 0.423015 0.256469 0.800767
O O6 0.262928 0.109691 0.442978
O O7 0.328794 0.250000 0.779368
O O8 0.811740 0.669934 0.342949
O O9 0.963231 0.453985 0.799542
O O10 0.734573 0.256467 0.257967
O O11 0.719563 0.984525 0.081176
O O12 0.894662 0.109695 0.615762
O O13 0.675115 0.729065 0.833344
O O14 0.694360 0.046017 0.759202
O O15 0.633900 0.295734 0.457861
O O16 0.578795 0.684457 0.029370
#
# Coordination Sequence:
#
# PCOD9133980 Si02
#       8
#     4   4   4   4   4   4   4   4
#     4   9  18  34  56  74 102 140 179 209 245 317
#     4  10  18  33  54  77 102 139 177 209 252 314
#     4   9  18  33  52  77 101 139 177 208 250 311
#     4  10  18  33  54  77 102 139 177 209 252 314
#     4   9  18  33  52  77 101 139 177 208 250 311
#     4   9  18  34  56  74 102 140 179 209 245 317
#     4  10  20  33  53  82 109 132 167 220 266 299
#     4  10  20  33  53  82 109 132 167 220 266 299
#
# _framework density 28.288354999999999
#
# number of rings (size 3 to 8) (size 9 to 14) (size 15 to 20)
#    0.000    2.500    2.500    0.000    0.000    1.000 
#    0.000    1.250    0.000   13.500    0.000    0.000 
#    0.000    0.000    0.000    0.000    0.000    0.000 
#
# Total GULP energy -89399.108787 kJ/mol
# GULP energy per Si atom -5587.444299 kJ/mol
# Density = 2.822397 g / cm^3
# Si number density = 28.288355 Si / 1000 Ang^3
#
#
#
# Elastic Constant Matrix: (Units=GPa)
#
#
# Indices 1 2 3 4 5 6 
#
# 1 378.3575 44.3929 44.9830 0.0000 -45.5555 0.0000
# 2 44.3929 95.9500 3.8556 0.0000 -22.8769 0.0000
# 3 44.9830 3.8556 104.8936 0.0000 -23.4016 0.0000
# 4 0.0000 0.0000 0.0000 28.6278 0.0000 -12.2069
# 5 -45.5555 -22.8769 -23.4016 0.0000 33.6765 0.0000
# 6 0.0000 0.0000 0.0000 -12.2069 0.0000 31.7962
#
#
#
# Elastic Compliance Matrix: (Units=1/GPa)
#
#
# Indices 1 2 3 4 5 6 
#
# 1 0.003207 -0.000621 -0.000567 0.000000 0.003523 0.000000
# 2 -0.000621 0.012815 0.001834 0.000000 0.009140 0.000000
# 3 -0.000567 0.001834 0.011617 0.000000 0.008552 0.000000
# 4 0.000000 0.000000 0.000000 0.041768 0.000000 0.016035
# 5 0.003523 0.009140 0.008552 0.000000 0.046612 0.000000
# 6 0.000000 0.000000 0.000000 0.016035 0.000000 0.037606
#
#
# Mechanical properties :
#
#
# Convention : Reuss Voigt Hill
#
# Bulk Modulus (GPa) = 34.56322 85.07379 59.81850
# Shear Modulus (GPa) = 30.86855 51.21807 41.04331
#
# Velocity S-wave (km/s) = 3.30693 4.25970 3.81319
# Velocity P-wave (km/s) = 5.17936 7.37105 6.37017
#
# Compressibility (1/GPa) = 0.02893249
#
# Stress axis : x y z
#
# Youngs Moduli (GPa) = 311.77390 78.03387 86.08049
#
# Poissons Ratio (x) = 0.04848 0.04878
# Poissons Ratio (y) = 0.19368 -0.15791
# Poissons Ratio (z) = 0.17667 -0.14315
#
# Static dielectric constant tensor:
#      x y z
#    x 2.305900 0.000000 0.066510 
#    y 0.000000 2.293290 0.000000 
#    z 0.066510 0.000000 2.211580 
# 
# From -- ./inp_files/16428.got.cif
#   From: 2010.05.17/outbox.cif.g08.bks.cpg/sg9_9_cif.got.tgz:16428.got - 2010.06.03 20:04:27.
