data_PCOD9133736
_publ_section_title
;
Structure prediction by ZEFSAII (Michael W. Deem and Ramdas Pophale) SiO2 
 PCOD9133736
Probable space group: C C
;
_chemical_formula_sum "Si O2"
_cell_formula_units_Z 28
_cell_length_a 13.230051
_cell_length_b 13.520841
_cell_length_c 5.747965
_cell_angle_alpha 90.000000
_cell_angle_beta 81.194559
_cell_angle_gamma 90.000000
_cell_volume 1016.085549
_symmetry_space_group_name_H-M "C C"
_symmetry_group_IT_number 9
_symmetry_cell_setting 'monoclinic'
loop_
_space_group_symop_operation_xyz
x,y,z
x,-y,1/2+z
1/2+x,1/2+y,z
1/2+x,1/2-y,1/2+z
loop_
_atom_site_type_symbol
_atom_site_label
_atom_site_fract_x
_atom_site_fract_y
_atom_site_fract_z
Si Si1 0.381240 0.621712 0.645020
Si Si2 0.016036 0.288440 0.608786
Si Si3 0.322999 0.113184 0.938363
Si Si4 0.098998 0.060463 0.085765
Si Si5 0.435621 0.084045 0.490290
Si Si6 0.636646 0.964442 0.484326
Si Si7 0.880337 0.884459 0.648971
O O1 0.492977 0.674049 0.606225
O O2 0.391146 0.504211 0.641430
O O3 0.332342 0.647209 0.412113
O O4 0.335111 0.645741 0.915162
O O5 0.903989 0.332639 0.573517
O O6 0.106563 0.348964 0.456298
O O7 0.013606 0.334377 0.863678
O O8 0.357735 0.147936 0.672504
O O9 0.206755 0.118044 0.044712
O O10 0.358140 0.996996 0.905721
O O11 0.002354 0.134646 0.117318
O O12 0.099018 0.998686 0.333131
O O13 0.523490 0.012450 0.568004
O O14 0.682248 0.991013 0.726261
#
# Coordination Sequence:
#
# PCOD9133736 Si02
#       7
#     4   4   4   4   4   4   4
#     4  10  20  33  51  63  93 124 172 210 237 284
#     4  10  19  27  42  68  94 134 158 194 243 285
#     4  11  18  27  43  71 104 137 151 187 240 302
#     4  12  19  31  52  69  94 133 175 190 232 301
#     4  10  15  26  36  62 101 128 155 168 234 293
#     4   9  15  24  37  53  89 123 144 171 209 286
#     4  10  20  38  47  68  87 133 171 210 241 271
#
# _framework density 27.556733000000001
#
# number of rings (size 3 to 8) (size 9 to 14) (size 15 to 20)
#    0.000    1.714   10.000    0.000    2.000    0.000 
#    0.000    0.000    0.000    0.000    0.000    0.000 
#    0.000    0.000   87.429    0.000    0.000    0.000 
#
# Total GULP energy -77948.334014 kJ/mol
# GULP energy per Si atom -5567.738144 kJ/mol
# Density = 2.749401 g / cm^3
# Si number density = 27.556733 Si / 1000 Ang^3
#
#
#
# Elastic Constant Matrix: (Units=GPa)
#
#
# Indices 1 2 3 4 5 6 
#
# 1 128.1035 16.1283 15.3694 0.0000 -2.1671 0.0000
# 2 16.1283 94.6183 20.3892 0.0000 6.9810 0.0000
# 3 15.3694 20.3892 198.2627 0.0000 13.3911 0.0000
# 4 0.0000 0.0000 0.0000 31.2207 0.0000 7.8323
# 5 -2.1671 6.9810 13.3911 0.0000 34.0354 0.0000
# 6 0.0000 0.0000 0.0000 7.8323 0.0000 6.4760
#
#
#
# Elastic Compliance Matrix: (Units=1/GPa)
#
#
# Indices 1 2 3 4 5 6 
#
# 1 0.008057 -0.001328 -0.000556 0.000000 0.001004 0.000000
# 2 -0.001328 0.011139 -0.000907 0.000000 -0.002013 0.000000
# 3 -0.000556 -0.000907 0.005311 0.000000 -0.001939 0.000000
# 4 0.000000 0.000000 0.000000 0.045981 0.000000 -0.055611
# 5 0.001004 -0.002013 -0.001939 0.000000 0.030621 0.000000
# 6 0.000000 0.000000 0.000000 -0.055611 0.000000 0.221673
#
#
# Mechanical properties :
#
#
# Convention : Reuss Voigt Hill
#
# Bulk Modulus (GPa) = 52.83543 58.30647 55.57095
# Shear Modulus (GPa) = 14.94001 38.95294 26.94648
#
# Velocity S-wave (km/s) = 2.33095 3.76381 3.13046
# Velocity P-wave (km/s) = 5.14387 6.33190 5.76855
#
# Compressibility (1/GPa) = 0.01892670
#
# Stress axis : x y z
#
# Youngs Moduli (GPa) = 124.11539 89.77501 188.28449
#
# Poissons Ratio (x) = 0.11919 0.10466
# Poissons Ratio (y) = 0.16478 0.17071
# Poissons Ratio (z) = 0.06899 0.08140
#
# Static dielectric constant tensor:
#      x y z
#    x 2.126250 0.000000 0.074340 
#    y 0.000000 2.317220 0.000000 
#    z 0.074340 0.000000 2.752630 
# 
# From -- ./inp_files/2898.got.cif
#   From: 2010.05.17/outbox.cif.g08.bks.cpg/sg9_2_cif.got.tgz:2898.got - 2010.06.03 20:04:27.
