data_PCOD9133060
_publ_section_title
;
Structure prediction by ZEFSAII (Michael W. Deem and Ramdas Pophale) SiO2 
 PCOD9133060
Probable space group: C M
;
_chemical_formula_sum "Si O2"
_cell_formula_units_Z 28
_cell_length_a 7.228522
_cell_length_b 23.275199
_cell_length_c 13.194873
_cell_angle_alpha 90.000000
_cell_angle_beta 151.558869
_cell_angle_gamma 90.000000
_cell_volume 1057.275538
_symmetry_space_group_name_H-M "C M"
_symmetry_group_IT_number 8
_symmetry_cell_setting 'monoclinic'
loop_
_space_group_symop_operation_xyz
x,y,z
x,-y,z
1/2+x,1/2+y,z
1/2+x,1/2-y,z
loop_
_atom_site_type_symbol
_atom_site_label
_atom_site_fract_x
_atom_site_fract_y
_atom_site_fract_z
Si Si1 0.284330 0.939168 0.291630
Si Si2 0.141042 0.190659 0.688982
Si Si3 0.660302 0.182874 0.787645
Si Si4 0.126160 0.185498 0.177821
Si Si5 0.680022 0.185987 0.300060
Si Si6 0.419861 0.402552 0.747241
Si Si7 0.086706 0.561047 0.203951
O O1 0.094654 0.877132 0.217195
O O2 0.644408 0.937963 0.540913
O O3 0.430802 0.938270 0.245376
O O4 0.064566 0.000000 0.197606
O O5 0.639936 0.183208 0.411254
O O6 0.162039 0.184107 0.570829
O O7 0.106042 0.147001 0.766404
O O8 0.157788 0.256624 0.729432
O O9 0.685503 0.128887 0.724209
O O10 0.642077 0.184392 0.908230
O O11 0.165988 0.180928 0.066739
O O12 0.149326 0.249363 0.238852
O O13 0.733323 0.126274 0.263149
O O14 0.741649 0.439663 0.957570
O O15 0.313010 0.500000 0.304401
#
# Coordination Sequence:
#
# PCOD9133060 Si02
#       7
#     4   4   4   4   4   4   4
#     4  10  21  40  68  96 129 179 228 269 331 405
#     4  12  23  38  63  98 138 174 221 278 331 399
#     4  12  23  38  63  98 138 174 221 278 331 399
#     4  11  21  40  62  94 131 169 216 276 330 384
#     4  11  21  40  62  94 131 169 216 276 330 384
#     4  12  21  42  66  98 132 178 223 268 345 390
#     4  10  21  40  68  96 129 179 228 269 331 405
#
# _framework density 26.483165
#
# number of rings (size 3 to 8) (size 9 to 14) (size 15 to 20)
#    0.000    0.857    7.143    3.857    0.000    0.000 
#    0.000    0.000    0.000   13.714    0.000    0.000 
#    0.000    0.000    0.000    0.000    0.000    0.000 
#
# Total GULP energy -78118.196915 kJ/mol
# GULP energy per Si atom -5579.871208 kJ/mol
# Density = 2.642289 g / cm^3
# Si number density = 26.483165 Si / 1000 Ang^3
#
#
#
# Elastic Constant Matrix: (Units=GPa)
#
#
# Indices 1 2 3 4 5 6 
#
# 1 125.1725 0.9252 9.6190 0.0000 16.8778 0.0000
# 2 0.9252 237.5584 58.6305 0.0000 -7.8067 0.0000
# 3 9.6190 58.6305 250.1695 0.0000 0.7541 0.0000
# 4 0.0000 0.0000 0.0000 -38.9104 0.0000 81.1175
# 5 16.8778 -7.8067 0.7541 0.0000 58.9332 0.0000
# 6 0.0000 0.0000 0.0000 81.1175 0.0000 -93.2525
#
#
#
# Elastic Compliance Matrix: (Units=1/GPa)
#
#
# Indices 1 2 3 4 5 6 
#
# 1 0.008335 -0.000036 -0.000305 0.000000 -0.002388 0.000000
# 2 -0.000036 0.004490 -0.001053 0.000000 0.000618 0.000000
# 3 -0.000305 -0.001053 0.004256 0.000000 -0.000107 0.000000
# 4 0.000000 0.000000 0.000000 0.031594 0.000000 0.027483
# 5 -0.002388 0.000618 -0.000107 0.000000 0.017735 0.000000
# 6 0.000000 0.000000 0.000000 0.027483 0.000000 0.013183
#
#
# Mechanical properties :
#
#
# Convention : Reuss Voigt Hill
#
# Bulk Modulus (GPa) = 69.96025 83.47220 76.71623
# Shear Modulus (GPa) = 57.37588 21.60244 39.48916
#
# Velocity S-wave (km/s) = 4.65962 2.85915 3.86567
# Velocity P-wave (km/s) = 7.44471 6.51821 6.99681
#
# Compressibility (1/GPa) = 0.01429383
#
# Stress axis : x y z
#
# Youngs Moduli (GPa) = 119.98138 222.72845 234.95935
#
# Poissons Ratio (x) = 0.00795 0.07164
# Poissons Ratio (y) = 0.00428 0.24735
# Poissons Ratio (z) = 0.03658 0.23447
#
# Static dielectric constant tensor:
#      x y z
#    x 2.225770 0.000000 0.255540 
#    y 0.000000 1.929100 0.000000 
#    z 0.255540 0.000000 2.376680 
# 
# From -- ./inp_files/30993.got.cif
#   From: 2010.05.17/outbox.cif.g08.bks.cpg/sg8_16_cif.got.tgz:30993.got - 2010.06.03 19:46:02.
