data_PCOD9133109
_publ_section_title
;
Structure prediction by ZEFSAII (Michael W. Deem and Ramdas Pophale) SiO2 
 PCOD9133109
Probable space group: C M
;
_chemical_formula_sum "Si O2"
_cell_formula_units_Z 30
_cell_length_a 13.621729
_cell_length_b 11.948473
_cell_length_c 25.180192
_cell_angle_alpha 90.000000
_cell_angle_beta 158.944271
_cell_angle_gamma 90.000000
_cell_volume 1472.419914
_symmetry_space_group_name_H-M "C M"
_symmetry_group_IT_number 8
_symmetry_cell_setting 'monoclinic'
loop_
_space_group_symop_operation_xyz
x,y,z
x,-y,z
1/2+x,1/2+y,z
1/2+x,1/2-y,z
loop_
_atom_site_type_symbol
_atom_site_label
_atom_site_fract_x
_atom_site_fract_y
_atom_site_fract_z
Si Si1 0.751370 0.129493 0.521780
Si Si2 0.016422 0.374148 0.515134
Si Si3 0.711046 0.325079 0.057262
Si Si4 0.234688 0.500000 0.846993
Si Si5 0.361170 0.871965 0.844490
Si Si6 0.471538 0.199522 0.780428
Si Si7 0.994716 0.768813 0.297610
Si Si8 0.428159 0.870215 0.049627
O O1 0.540346 0.132514 0.463725
O O2 0.647927 0.204368 0.422008
O O3 0.047481 0.166135 0.693517
O O4 0.784541 0.000000 0.521484
O O5 0.107831 0.500000 0.577117
O O6 0.213045 0.277240 0.636324
O O7 0.712129 0.352070 0.381191
O O8 0.867717 0.355817 0.082171
O O9 0.896748 0.319228 0.203279
O O10 0.453499 0.404828 0.935666
O O11 0.583816 0.201931 0.986056
O O12 0.042736 0.600713 0.775775
O O13 0.419100 0.857273 0.811167
O O14 0.381408 0.000000 0.871132
O O15 0.722577 0.285938 0.915780
O O16 0.732506 0.831835 0.188735
O O17 0.381263 0.000000 0.011922
#
# Coordination Sequence:
#
# PCOD9133109 Si02
#       8
#     4   4   4   2   4   4   4   4
#     4  10  23  41  67  95 136 177 223 280 342 401
#     4  11  24  45  67 100 140 179 229 285 343 409
#     4  11  25  42  68  99 141 178 227 285 340 402
#     4  12  22  44  66 102 132 178 230 286 332 414
#     4  10  21  43  69 101 131 173 229 279 331 408
#     4  11  22  41  71  98 132 178 230 283 340 402
#     4  12  24  43  67 101 137 179 229 280 350 412
#     4  11  24  42  65  96 135 182 227 280 343 405
#
# _framework density 20.374623
#
# number of rings (size 3 to 8) (size 9 to 14) (size 15 to 20)
#    0.000    1.067    4.000    2.400    0.933    1.067 
#    0.000    1.333    4.400    0.000    0.000    0.000 
#    0.000    0.000    0.000    0.000    0.000    0.000 
#
# Total GULP energy -83586.841379 kJ/mol
# GULP energy per Si atom -5572.456092 kJ/mol
# Density = 2.032825 g / cm^3
# Si number density = 20.374623 Si / 1000 Ang^3
#
#
#
# Elastic Constant Matrix: (Units=GPa)
#
#
# Indices 1 2 3 4 5 6 
#
# 1 81.9625 20.1314 31.0774 -0.0012 31.6364 0.0027
# 2 20.1314 104.7611 28.1875 0.0000 12.4633 0.0017
# 3 31.0774 28.1875 57.7772 0.0059 22.6285 0.0030
# 4 -0.0012 0.0000 0.0059 24.8687 -0.0009 20.6658
# 5 31.6364 12.4633 22.6285 -0.0009 37.6972 -0.0006
# 6 0.0027 0.0017 0.0030 20.6658 -0.0006 27.1369
#
#
#
# Elastic Compliance Matrix: (Units=1/GPa)
#
#
# Indices 1 2 3 4 5 6 
#
# 1 0.019257 -0.000849 -0.004869 0.000008 -0.012957 -0.000008
# 2 -0.000849 0.011034 -0.004937 0.000003 0.000028 -0.000003
# 3 -0.004869 -0.004937 0.026272 -0.000013 -0.010052 0.000008
# 4 0.000008 0.000003 -0.000013 0.109518 0.000001 -0.083402
# 5 -0.012957 0.000028 -0.010052 0.000001 0.043426 0.000002
# 6 -0.000008 -0.000003 0.000008 -0.083402 0.000002 0.100364
#
#
# Mechanical properties :
#
#
# Convention : Reuss Voigt Hill
#
# Bulk Modulus (GPa) = 28.36693 44.81038 36.58866
# Shear Modulus (GPa) = 14.58011 28.94753 21.76382
#
# Velocity S-wave (km/s) = 2.67798 3.77339 3.27185
# Velocity P-wave (km/s) = 4.84922 6.40512 5.68070
#
# Compressibility (1/GPa) = 0.03525231
#
# Stress axis : x y z
#
# Youngs Moduli (GPa) = 51.93004 90.63072 38.06265
#
# Poissons Ratio (x) = 0.07694 0.18533
# Poissons Ratio (y) = 0.04408 0.18793
# Poissons Ratio (z) = 0.25284 0.44749
#
# Static dielectric constant tensor:
#      x y z
#    x 1.736890 0.000000 -0.003960 
#    y 0.000000 1.708180 0.000000 
#    z -0.003960 0.000000 1.705770 
# 
# From -- ./inp_files/32921.got.cif
#   From: 2010.05.17/outbox.cif.g08.bks.cpg/sg8_17_cif.got.tgz:32921.got - 2010.06.03 19:46:02.
