data_PCOD9133596
_publ_section_title
;
Structure prediction by ZEFSAII (Michael W. Deem and Ramdas Pophale) SiO2 
 PCOD9133596
Probable space group: C M
;
_chemical_formula_sum "Si O2"
_cell_formula_units_Z 26
_cell_length_a 10.492871
_cell_length_b 7.729252
_cell_length_c 24.721094
_cell_angle_alpha 90.000000
_cell_angle_beta 146.659566
_cell_angle_gamma 90.000000
_cell_volume 1101.935312
_symmetry_space_group_name_H-M "C M"
_symmetry_group_IT_number 8
_symmetry_cell_setting 'monoclinic'
loop_
_space_group_symop_operation_xyz
x,y,z
x,-y,z
1/2+x,1/2+y,z
1/2+x,1/2-y,z
loop_
_atom_site_type_symbol
_atom_site_label
_atom_site_fract_x
_atom_site_fract_y
_atom_site_fract_z
Si Si1 0.256010 0.702804 0.577310
Si Si2 0.841174 0.500000 0.134880
Si Si3 0.252267 0.293881 0.800243
Si Si4 0.236248 0.205674 0.919827
Si Si5 0.428884 0.696204 0.096478
Si Si6 0.295333 0.299101 0.469102
Si Si7 0.426795 0.698179 0.252559
O O1 0.198657 0.500000 0.555409
O O2 0.513921 0.722106 0.691683
O O3 0.252368 0.770413 0.514294
O O4 0.063953 0.787169 0.547515
O O5 0.776296 0.346549 0.067533
O O6 0.931128 0.345803 0.208747
O O7 0.240130 0.500000 0.791748
O O8 0.478335 0.237485 0.846868
O O9 0.271166 0.243568 0.869575
O O10 0.261736 0.000000 0.936613
O O11 0.404872 0.297429 0.022660
O O12 0.380918 0.500000 0.095852
O O13 0.691572 0.755308 0.201645
O O14 0.225373 0.500000 0.444072
O O15 0.143044 0.208902 0.369280
O O16 0.404772 0.500000 0.225176
#
# Coordination Sequence:
#
# PCOD9133596 Si02
#       7
#     4   2   4   4   4   4   4
#     4  11  25  44  69 101 138 181 234 292 354 422
#     4  12  26  48  72 100 144 190 238 294 358 418
#     4  11  25  44  69 100 138 181 234 294 353 421
#     4  11  25  45  70 103 140 184 236 290 354 425
#     4  12  26  46  72 105 144 189 237 297 354 427
#     4  11  25  45  70 103 140 183 236 290 353 426
#     4  12  26  46  72 104 144 189 236 298 353 427
#
# _framework density 23.594851999999999
#
# number of rings (size 3 to 8) (size 9 to 14) (size 15 to 20)
#    0.000    0.615    3.077    3.231    4.308    7.385 
#    0.000    0.000    0.000    0.000    0.000    0.000 
#    0.000    0.000    0.000    0.000    0.000    0.000 
#
# Total GULP energy -72559.910992 kJ/mol
# GULP energy per Si atom -5581.531615 kJ/mol
# Density = 2.354115 g / cm^3
# Si number density = 23.594852 Si / 1000 Ang^3
#
#
#
# Elastic Constant Matrix: (Units=GPa)
#
#
# Indices 1 2 3 4 5 6 
#
# 1 87.2740 14.8514 10.5832 0.0000 -16.9305 0.0000
# 2 14.8514 173.0302 4.9774 0.0000 -12.6919 0.0000
# 3 10.5832 4.9774 84.8349 0.0000 1.9274 0.0000
# 4 0.0000 0.0000 0.0000 38.6855 0.0000 -4.9029
# 5 -16.9305 -12.6919 1.9274 0.0000 40.7691 0.0000
# 6 0.0000 0.0000 0.0000 -4.9029 0.0000 1.1177
#
#
#
# Elastic Compliance Matrix: (Units=1/GPa)
#
#
# Indices 1 2 3 4 5 6 
#
# 1 0.012779 -0.000669 -0.001673 0.000000 0.005178 0.000000
# 2 -0.000669 0.005962 -0.000303 0.000000 0.001593 0.000000
# 3 -0.001673 -0.000303 0.012045 0.000000 -0.001358 0.000000
# 4 0.000000 0.000000 0.000000 0.058214 0.000000 0.255366
# 5 0.005178 0.001593 -0.001358 0.000000 0.027239 0.000000
# 6 0.000000 0.000000 0.000000 0.255366 0.000000 2.014912
#
#
# Mechanical properties :
#
#
# Convention : Reuss Voigt Hill
#
# Bulk Modulus (GPa) = 39.21845 45.10701 42.16273
# Shear Modulus (GPa) = 2.33107 37.09626 19.71367
#
# Velocity S-wave (km/s) = 0.99504 3.96942 2.89365
# Velocity P-wave (km/s) = 4.24003 6.33776 5.39190
#
# Compressibility (1/GPa) = 0.02549820
#
# Stress axis : x y z
#
# Youngs Moduli (GPa) = 78.25161 167.72107 83.02289
#
# Poissons Ratio (x) = 0.11220 0.13887
# Poissons Ratio (y) = 0.05235 0.02512
# Poissons Ratio (z) = 0.13088 0.05074
#
# Static dielectric constant tensor:
#      x y z
#    x 1.989600 0.000000 0.039330 
#    y 0.000000 1.854940 0.000000 
#    z 0.039330 0.000000 1.858780 
# 
# From -- ./inp_files/32788.got.cif
#   From: 2010.05.17/outbox.cif.g08.bks.cpg/sg8_17_cif.got.tgz:32788.got - 2010.06.03 19:46:02.
