data_PCOD9133738
_publ_section_title
;
Structure prediction by ZEFSAII (Michael W. Deem and Ramdas Pophale) SiO2 
 PCOD9133738
Probable space group: C C
;
_chemical_formula_sum "Si O2"
_cell_formula_units_Z 28
_cell_length_a 6.982209
_cell_length_b 19.206910
_cell_length_c 8.206593
_cell_angle_alpha 90.000000
_cell_angle_beta 81.466596
_cell_angle_gamma 90.000000
_cell_volume 1088.375063
_symmetry_space_group_name_H-M "C C"
_symmetry_group_IT_number 9
_symmetry_cell_setting 'monoclinic'
loop_
_space_group_symop_operation_xyz
x,y,z
x,-y,1/2+z
1/2+x,1/2+y,z
1/2+x,1/2-y,1/2+z
loop_
_atom_site_type_symbol
_atom_site_label
_atom_site_fract_x
_atom_site_fract_y
_atom_site_fract_z
Si Si1 0.097780 0.705856 0.689600
Si Si2 0.166010 0.075019 0.984774
Si Si3 0.635955 0.083392 0.903257
Si Si4 0.671586 0.331108 0.177540
Si Si5 0.780753 0.792872 0.849737
Si Si6 0.171272 0.920256 0.863338
Si Si7 0.138699 0.433166 0.770460
O O1 0.195880 0.651644 0.796865
O O2 0.226822 0.736033 0.532219
O O3 0.908601 0.665768 0.642615
O O4 0.997127 0.769731 0.789806
O O5 0.110771 0.087134 0.180657
O O6 0.401165 0.082240 0.947464
O O7 0.103259 0.125889 0.845268
O O8 0.114709 0.996604 0.937858
O O9 0.689118 0.011734 0.809037
O O10 0.704537 0.082450 0.078968
O O11 0.651505 0.248975 0.229904
O O12 0.612836 0.366549 0.015596
O O13 0.736279 0.873596 0.864699
O O14 0.407403 0.923243 0.820549
#
# Coordination Sequence:
#
# PCOD9133738 Si02
#       7
#     4   4   4   4   4   4   4
#     4   9  19  35  50  77 107 148 178 225 277 336
#     4   9  16  25  46  77 100 137 170 240 259 319
#     4   9  18  29  51  80 104 137 192 229 267 329
#     4   9  18  30  46  73 107 138 177 216 283 314
#     4  10  19  34  52  78 112 146 179 226 285 328
#     4  10  15  26  48  72 108 125 188 216 277 305
#     4  10  17  29  51  81 104 141 182 238 272 321
#
# _framework density 25.726426
#
# number of rings (size 3 to 8) (size 9 to 14) (size 15 to 20)
#    0.857    1.714    2.857    0.857    4.000    0.000 
#    2.571    1.429    0.000    0.000    7.429    0.000 
#    0.000    0.000    0.000    0.000    0.000    0.000 
#
# Total GULP energy -78286.208984 kJ/mol
# GULP energy per Si atom -5591.872070 kJ/mol
# Density = 2.566787 g / cm^3
# Si number density = 25.726426 Si / 1000 Ang^3
#
#
#
# Elastic Constant Matrix: (Units=GPa)
#
#
# Indices 1 2 3 4 5 6 
#
# 1 86.4732 11.4812 21.3475 0.0000 11.1084 0.0000
# 2 11.4812 114.7820 34.2644 0.0000 8.0534 0.0000
# 3 21.3475 34.2644 163.4771 0.0000 3.4141 0.0000
# 4 0.0000 0.0000 0.0000 52.8897 0.0000 2.6119
# 5 11.1084 8.0534 3.4141 0.0000 37.7433 0.0000
# 6 0.0000 0.0000 0.0000 2.6119 0.0000 21.8187
#
#
#
# Elastic Compliance Matrix: (Units=1/GPa)
#
#
# Indices 1 2 3 4 5 6 
#
# 1 0.012432 -0.000577 -0.001431 0.000000 -0.003406 0.000000
# 2 -0.000577 0.009446 -0.001869 0.000000 -0.001676 0.000000
# 3 -0.001431 -0.001869 0.006691 0.000000 0.000215 0.000000
# 4 0.000000 0.000000 0.000000 0.019020 0.000000 -0.002277
# 5 -0.003406 -0.001676 0.000215 0.000000 0.027836 0.000000
# 6 0.000000 0.000000 0.000000 -0.002277 0.000000 0.046105
#
#
# Mechanical properties :
#
#
# Convention : Reuss Voigt Hill
#
# Bulk Modulus (GPa) = 48.04719 55.43538 51.74129
# Shear Modulus (GPa) = 36.70474 42.33296 39.51885
#
# Velocity S-wave (km/s) = 3.78131 4.06088 3.92359
# Velocity P-wave (km/s) = 6.14664 6.60170 6.37823
#
# Compressibility (1/GPa) = 0.02081287
#
# Stress axis : x y z
#
# Youngs Moduli (GPa) = 80.43876 105.86978 149.44797
#
# Poissons Ratio (x) = 0.06112 0.21390
# Poissons Ratio (y) = 0.04643 0.27937
# Poissons Ratio (z) = 0.11513 0.19791
#
# Static dielectric constant tensor:
#      x y z
#    x 2.073380 0.000000 -0.025180 
#    y 0.000000 1.994480 0.000000 
#    z -0.025180 0.000000 1.959520 
# 
# From -- ./inp_files/7716.got.cif
#   From: 2010.05.17/outbox.cif.g08.bks.cpg/sg9_4_cif.got.tgz:7716.got - 2010.06.03 20:04:27.
