data_PCOD9133529
_publ_section_title
;
Structure prediction by ZEFSAII (Michael W. Deem and Ramdas Pophale) SiO2 
 PCOD9133529
Probable space group: C M
;
_chemical_formula_sum "Si O2"
_cell_formula_units_Z 26
_cell_length_a 13.345005
_cell_length_b 14.930199
_cell_length_c 7.537167
_cell_angle_alpha 90.000000
_cell_angle_beta 49.539803
_cell_angle_gamma 90.000000
_cell_volume 1142.603334
_symmetry_space_group_name_H-M "C M"
_symmetry_group_IT_number 8
_symmetry_cell_setting 'monoclinic'
loop_
_space_group_symop_operation_xyz
x,y,z
x,-y,z
1/2+x,1/2+y,z
1/2+x,1/2-y,z
loop_
_atom_site_type_symbol
_atom_site_label
_atom_site_fract_x
_atom_site_fract_y
_atom_site_fract_z
Si Si1 0.394700 0.603579 0.240380
Si Si2 0.668396 0.660938 0.358076
Si Si3 0.662507 0.604536 0.744876
Si Si4 0.379272 0.352318 0.647730
Si Si5 0.121197 0.365986 0.367373
Si Si6 0.357331 0.154587 0.832112
Si Si7 0.172867 0.500000 0.024814
O O1 0.422203 0.500000 0.260743
O O2 0.371621 0.660139 0.444152
O O3 0.263634 0.602760 0.272775
O O4 0.520358 0.635343 0.983528
O O5 0.702979 0.658861 0.524494
O O6 0.527919 0.611637 0.507086
O O7 0.633840 0.760176 0.328244
O O8 0.786653 0.630832 0.096998
O O9 0.650886 0.500000 0.709477
O O10 0.766740 0.614972 0.781337
O O11 0.363193 0.261232 0.780002
O O12 0.268977 0.422079 0.830092
O O13 0.005871 0.380167 0.642763
O O14 0.090583 0.421636 0.227962
#
# Coordination Sequence:
#
# PCOD9133529 Si02
#       7
#     4   4   4   4   4   4   2
#     4  11  22  41  68 102 132 178 236 284 334 413
#     4  11  24  46  70 102 137 186 230 286 352 405
#     4  11  26  44  72 100 139 185 240 286 338 419
#     4  11  23  42  73 103 137 185 234 286 342 419
#     4  11  25  43  68 100 142 179 227 292 345 405
#     4  11  25  48  67 101 146 181 228 295 351 402
#     4  12  22  42  70 104 136 186 230 282 338 426
#
# _framework density 22.755056
#
# number of rings (size 3 to 8) (size 9 to 14) (size 15 to 20)
#    0.000    0.923    4.615    1.846    6.462    0.615 
#    2.769    0.000    0.000    0.000    0.000    0.000 
#    0.000    0.000    0.000    0.000    0.000    0.000 
#
# Total GULP energy -72434.105892 kJ/mol
# GULP energy per Si atom -5571.854299 kJ/mol
# Density = 2.270326 g / cm^3
# Si number density = 22.755056 Si / 1000 Ang^3
#
#
#
# Elastic Constant Matrix: (Units=GPa)
#
#
# Indices 1 2 3 4 5 6 
#
# 1 45.5523 -8.6056 22.1270 0.0000 -4.6231 0.0000
# 2 -8.6056 70.9304 10.9782 0.0000 10.8669 0.0000
# 3 22.1270 10.9782 176.0527 0.0000 10.5294 0.0000
# 4 0.0000 0.0000 0.0000 37.7303 0.0000 -2.7373
# 5 -4.6231 10.8669 10.5294 0.0000 30.9852 0.0000
# 6 0.0000 0.0000 0.0000 -2.7373 0.0000 24.2338
#
#
#
# Elastic Compliance Matrix: (Units=1/GPa)
#
#
# Indices 1 2 3 4 5 6 
#
# 1 0.024599 0.002940 -0.003504 0.000000 0.003830 0.000000
# 2 0.002940 0.015319 -0.001051 0.000000 -0.004577 0.000000
# 3 -0.003504 -0.001051 0.006324 0.000000 -0.002303 0.000000
# 4 0.000000 0.000000 0.000000 0.026723 0.000000 0.003018
# 5 0.003830 -0.004577 -0.002303 0.000000 0.035233 0.000000
# 6 0.000000 0.000000 0.000000 0.003018 0.000000 0.041606
#
#
# Mechanical properties :
#
#
# Convention : Reuss Voigt Hill
#
# Bulk Modulus (GPa) = 23.24957 37.94829 30.59893
# Shear Modulus (GPa) = 29.87386 36.45890 33.16638
#
# Velocity S-wave (km/s) = 3.62725 4.00713 3.82191
# Velocity P-wave (km/s) = 5.27087 6.17435 5.74041
#
# Compressibility (1/GPa) = 0.04301154
#
# Stress axis : x y z
#
# Youngs Moduli (GPa) = 40.65199 65.27893 158.13235
#
# Poissons Ratio (x) = -0.19192 0.55411
# Poissons Ratio (y) = -0.11952 0.16620
# Poissons Ratio (z) = 0.14245 0.06861
#
# Static dielectric constant tensor:
#      x y z
#    x 1.885530 0.000000 0.004890 
#    y 0.000000 1.871380 0.000000 
#    z 0.004890 0.000000 1.858050 
# 
# From -- ./inp_files/13347.got.cif
#   From: 2010.05.17/outbox.cif.g08.bks.cpg/sg8_7_cif.got.tgz:13347.got - 2010.06.03 19:46:02.
