data_PCOD9133499
_publ_section_title
;
Structure prediction by ZEFSAII (Michael W. Deem and Ramdas Pophale) SiO2 
 PCOD9133499
Probable space group: C M
;
_chemical_formula_sum "Si O2"
_cell_formula_units_Z 32
_cell_length_a 18.390991
_cell_length_b 14.906604
_cell_length_c 13.258816
_cell_angle_alpha 90.000000
_cell_angle_beta 23.394928
_cell_angle_gamma 90.000000
_cell_volume 1443.284668
_symmetry_space_group_name_H-M "C M"
_symmetry_group_IT_number 8
_symmetry_cell_setting 'monoclinic'
loop_
_space_group_symop_operation_xyz
x,y,z
x,-y,z
1/2+x,1/2+y,z
1/2+x,1/2-y,z
loop_
_atom_site_type_symbol
_atom_site_label
_atom_site_fract_x
_atom_site_fract_y
_atom_site_fract_z
Si Si1 0.694320 0.596216 0.656310
Si Si2 0.368943 0.809304 0.979509
Si Si3 0.272345 0.637156 0.198894
Si Si4 0.482381 0.394085 0.453308
Si Si5 0.396706 0.097670 0.613621
Si Si6 0.733599 0.100815 0.474017
Si Si7 0.918744 0.236499 0.350136
Si Si8 0.826813 0.778782 0.826981
O O1 0.754473 0.500000 0.535327
O O2 0.781250 0.600206 0.657984
O O3 0.768005 0.688714 0.518192
O O4 0.475224 0.598252 0.933225
O O5 0.555064 0.862864 0.759131
O O6 0.399711 0.740976 0.846211
O O7 0.299438 0.744170 0.156340
O O8 0.200530 0.874916 0.168212
O O9 0.194177 0.607670 0.406087
O O10 0.117179 0.606118 0.317771
O O11 0.444104 0.500000 0.487594
O O12 0.397727 0.325262 0.477409
O O13 0.413494 0.357123 0.649405
O O14 0.352945 0.184546 0.734883
O O15 0.359406 0.000000 0.708833
O O16 0.904988 0.163847 0.279356
O O17 0.775358 0.000000 0.449457
O O18 0.109051 0.287994 0.113542
#
# Coordination Sequence:
#
# PCOD9133499 Si02
#       8
#     4   4   4   4   4   4   4   4
#     4  11  23  41  66  97 132 174 219 270 330 391
#     4  11  22  41  67  91 130 170 214 272 330 390
#     4  12  23  43  67  97 135 174 216 276 335 382
#     4  11  23  43  66  95 131 172 217 269 331 394
#     4  11  21  38  66  97 128 167 219 270 325 389
#     4  12  24  39  64  97 127 168 218 270 331 391
#     4  11  24  41  64  93 132 173 219 274 326 391
#     4  11  22  40  66  93 127 174 218 265 334 388
#
# _framework density 22.171648000000001
#
# number of rings (size 3 to 8) (size 9 to 14) (size 15 to 20)
#    0.000    0.750    5.000    3.375    0.000    4.000 
#    0.000    1.875    0.000    0.750    0.000    0.000 
#    0.000    0.000    0.000    0.000    0.000    0.000 
#
# Total GULP energy -89362.075662 kJ/mol
# GULP energy per Si atom -5585.129729 kJ/mol
# Density = 2.212118 g / cm^3
# Si number density = 22.171648 Si / 1000 Ang^3
#
#
#
# Elastic Constant Matrix: (Units=GPa)
#
#
# Indices 1 2 3 4 5 6 
#
# 1 57.5878 6.0423 17.5417 -0.0001 -14.5370 0.0000
# 2 6.0423 140.6392 27.7500 -0.0017 6.2050 -0.0007
# 3 17.5417 27.7500 71.0228 -0.0026 -15.8938 -0.0004
# 4 -0.0001 -0.0017 -0.0026 20.0110 0.0006 0.4996
# 5 -14.5370 6.2050 -15.8938 0.0006 32.0563 0.0001
# 6 0.0000 -0.0007 -0.0004 0.4996 0.0001 10.2439
#
#
#
# Elastic Compliance Matrix: (Units=1/GPa)
#
#
# Indices 1 2 3 4 5 6 
#
# 1 0.020330 -0.000623 -0.003023 -0.000001 0.007841 0.000000
# 2 -0.000623 0.008058 -0.003832 0.000000 -0.003742 0.000000
# 3 -0.003023 -0.003832 0.018203 0.000002 0.008396 0.000000
# 4 -0.000001 0.000000 0.000002 0.050033 0.000000 -0.002440
# 5 0.007841 -0.003742 0.008396 0.000000 0.039638 0.000000
# 6 0.000000 0.000000 0.000000 -0.002440 0.000000 0.097738
#
#
# Mechanical properties :
#
#
# Convention : Reuss Voigt Hill
#
# Bulk Modulus (GPa) = 31.61054 41.32419 36.46736
# Shear Modulus (GPa) = 19.26762 26.98996 23.12879
#
# Velocity S-wave (km/s) = 2.95111 3.49279 3.23332
# Velocity P-wave (km/s) = 5.08923 5.91142 5.51567
#
# Compressibility (1/GPa) = 0.03163502
#
# Stress axis : x y z
#
# Youngs Moduli (GPa) = 49.18743 124.09388 54.93631
#
# Poissons Ratio (x) = 0.07730 0.16609
# Poissons Ratio (y) = 0.03064 0.21053
# Poissons Ratio (z) = 0.14871 0.47555
#
# Static dielectric constant tensor:
#      x y z
#    x 1.858930 0.000000 -0.010900 
#    y 0.000000 1.834580 0.000000 
#    z -0.010900 0.000000 1.853380 
# 
# From -- ./inp_files/10739.got.cif
#   From: 2010.05.17/outbox.cif.g08.bks.cpg/sg8_6_cif.got.tgz:10739.got - 2010.06.03 19:46:02.
