data_PCOD9133651
_publ_section_title
;
Structure prediction by ZEFSAII (Michael W. Deem and Ramdas Pophale) SiO2 
 PCOD9133651
Probable space group: C M
;
_chemical_formula_sum "Si O2"
_cell_formula_units_Z 16
_cell_length_a 21.000000
_cell_length_b 9.000000
_cell_length_c 12.000000
_cell_angle_alpha 90.000000
_cell_angle_beta 50.000000
_cell_angle_gamma 90.000000
_cell_volume 1737.388797
_symmetry_space_group_name_H-M "C M"
_symmetry_group_IT_number 8
_symmetry_cell_setting 'monoclinic'
loop_
_space_group_symop_operation_xyz
x,y,z
x,-y,z
1/2+x,1/2+y,z
1/2+x,1/2-y,z
loop_
_atom_site_type_symbol
_atom_site_label
_atom_site_fract_x
_atom_site_fract_y
_atom_site_fract_z
Si Si1 0.795540 0.176392 0.061470
Si Si2 0.326888 0.677151 0.560938
Si Si3 0.519970 0.322661 0.349564
Si Si4 0.064818 0.320869 0.070708
Si Si5 0.740893 0.675978 0.456258
Si Si6 0.632372 0.824446 0.399525
Si Si7 0.248309 0.320164 0.871512
Si Si8 0.402738 0.176979 0.119358
O O1 0.711877 0.197207 0.228168
O O2 0.872582 0.250119 0.038590
O O3 0.810939 0.000000 0.038528
O O4 0.775013 0.237112 0.962046
O O5 0.313489 0.500000 0.563574
O O6 0.423390 0.707872 0.432771
O O7 0.264093 0.759610 0.549947
O O8 0.311918 0.720695 0.704858
O O9 0.532719 0.500000 0.336153
O O10 0.563222 0.244574 0.196537
O O11 0.556002 0.255063 0.423253
O O12 0.057527 0.500000 0.086049
O O13 0.988333 0.268631 0.079782
O O14 0.157146 0.279962 0.928544
O O15 0.727282 0.500000 0.474009
O O16 0.664559 0.754516 0.478911
O O17 0.825812 0.704695 0.290143
O O18 0.617260 0.000000 0.427705
O O19 0.246737 0.500000 0.884282
O O20 0.409618 0.000000 0.096248
#
# Coordination Sequence:
#
# PCOD9133651 Si02
#       8
#     4   4   4   4   4   4   4   4
#     4   9  17  31  53  76 100 133 172 214 258 309
#     4  10  21  36  54  77 109 147 180 212 261 322
#     4  11  21  32  51  81 111 138 176 223 265 310
#     4  10  18  34  56  77 102 138 181 221 263 310
#     4  10  19  33  53  79 110 139 174 220 269 313
#     4  10  19  33  55  80 105 137 180 221 265 315
#     4   9  18  35  56  76 102 141 182 216 256 314
#     4   9  18  30  50  78 105 131 165 217 265 305
#
# _framework density 9.2092220000000005
#
# number of rings (size 3 to 8) (size 9 to 14) (size 15 to 20)
#    0.000    2.250    2.500    1.125    0.000    2.000 
#    0.000    2.500    0.000    3.000    0.000    0.000 
#    0.000    0.000    0.000    0.000    0.000    0.000 
#
# Total GULP energy -89146.609319 kJ/mol
# GULP energy per Si atom -5571.663082 kJ/mol
# Density = 0.918826 g / cm^3
# Si number density = 9.209222 Si / 1000 Ang^3
#
#
#
# Elastic Constant Matrix: (Units=GPa)
#
#
# Indices 1 2 3 4 5 6 
#
# 1 123.5667 17.5777 -0.0863 0.0000 23.7852 0.0000
# 2 17.5777 -2.0466 5.3167 0.0000 4.3935 0.0000
# 3 -0.0863 5.3167 21.3709 0.0000 7.4930 0.0000
# 4 0.0000 0.0000 0.0000 8.0620 0.0000 6.3452
# 5 23.7852 4.3935 7.4930 0.0000 17.6627 0.0000
# 6 0.0000 0.0000 0.0000 6.3452 0.0000 38.5856
#
#
#
# Elastic Compliance Matrix: (Units=1/GPa)
#
#
# Indices 1 2 3 4 5 6 
#
# 1 0.007433 0.026625 -0.000895 0.000000 -0.016253 0.000000
# 2 0.026625 -0.168150 0.046808 0.000000 -0.013885 0.000000
# 3 -0.000895 0.046808 0.045584 0.000000 -0.029776 0.000000
# 4 0.000000 0.000000 0.000000 0.142480 0.000000 -0.023430
# 5 -0.016253 -0.013885 -0.029776 0.000000 0.094588 0.000000
# 6 0.000000 0.000000 0.000000 -0.023430 0.000000 0.029769
#
#
# Mechanical properties :
#
#
# Convention : Reuss Voigt Hill
#
# Bulk Modulus (GPa) = 33.39615 20.94525 27.17070
# Shear Modulus (GPa) = 301.04565 20.86758 160.95662
#
# Velocity S-wave (km/s) = 12.79854 3.36962 9.35834
# Velocity P-wave (km/s) = 15.38099 5.15128 11.46976
#
# Compressibility (1/GPa) = 0.02994357
#
# Stress axis : x y z
#
# Youngs Moduli (GPa) = 134.53308 -5.94707 21.93758
#
# Poissons Ratio (x) = 0.15834 0.01964
# Poissons Ratio (y) = -3.58199 -1.02686
# Poissons Ratio (z) = 0.12045 0.27837
#
# Static dielectric constant tensor:
#      x y z
#    x 1.621760 0.000000 0.002110 
#    y 0.000000 1.618780 0.000000 
#    z 0.002110 0.000000 1.643050 
# 
# From -- ./inp_files/23751.got.cif
#   From: 2010.05.17/outbox.ucp.g08.bks.cvg/sg8_12_cif.got.tgz:23751.got - 2010.06.11 13:00:03.
