data_PCOD9133987
_publ_section_title
;
Structure prediction by ZEFSAII (Michael W. Deem and Ramdas Pophale) SiO2 
 PCOD9133987
Probable space group: C C
;
_chemical_formula_sum "Si O2"
_cell_formula_units_Z 28
_cell_length_a 16.492119
_cell_length_b 10.016177
_cell_length_c 12.744750
_cell_angle_alpha 90.000000
_cell_angle_beta 30.974478
_cell_angle_gamma 90.000000
_cell_volume 1083.495181
_symmetry_space_group_name_H-M "C C"
_symmetry_group_IT_number 9
_symmetry_cell_setting 'monoclinic'
loop_
_space_group_symop_operation_xyz
x,y,z
x,-y,1/2+z
1/2+x,1/2+y,z
1/2+x,1/2-y,1/2+z
loop_
_atom_site_type_symbol
_atom_site_label
_atom_site_fract_x
_atom_site_fract_y
_atom_site_fract_z
Si Si1 0.436650 0.937512 0.417260
Si Si2 0.255558 0.836067 0.196996
Si Si3 0.509772 0.626535 0.130596
Si Si4 0.867841 0.120767 0.751072
Si Si5 0.493924 0.653510 0.830245
Si Si6 0.215459 0.252818 0.069007
Si Si7 0.020914 0.380307 0.639644
O O1 0.312508 0.818226 0.552196
O O2 0.607170 0.870496 0.234088
O O3 0.384610 0.044833 0.562353
O O4 0.438959 0.000890 0.294725
O O5 0.129212 0.795231 0.422779
O O6 0.148580 0.890128 0.219119
O O7 0.359310 0.708280 0.054716
O O8 0.492766 0.490650 0.079262
O O9 0.342912 0.691142 0.344011
O O10 0.605128 0.643071 0.134105
O O11 0.898469 0.083301 0.841987
O O12 0.915647 0.276530 0.688890
O O13 0.693776 0.089484 0.904585
O O14 0.562483 0.781683 0.691076
#
# Coordination Sequence:
#
# PCOD9133987 Si02
#       7
#     4   4   4   4   4   4   4
#     4  10  20  38  60  79 107 149 192 217 264 341
#     4  11  20  34  56  86 115 138 180 239 274 313
#     4  11  22  35  54  86 116 142 180 234 282 312
#     4  10  18  33  56  84 103 140 186 228 262 323
#     4   9  17  32  56  81 107 142 185 218 268 323
#     4  10  22  38  57  77 113 155 183 214 273 345
#     4   9  17  32  57  83  97 134 192 226 251 313
#
# _framework density 25.842292
#
# number of rings (size 3 to 8) (size 9 to 14) (size 15 to 20)
#    0.857    1.143    2.857    1.714    2.000    0.000 
#    0.000    1.429    0.000    0.000    0.000    0.000 
#    0.000    0.000    0.000    0.000    0.000    0.000 
#
# Total GULP energy -77949.442956 kJ/mol
# GULP energy per Si atom -5567.817354 kJ/mol
# Density = 2.578347 g / cm^3
# Si number density = 25.842292 Si / 1000 Ang^3
#
#
#
# Elastic Constant Matrix: (Units=GPa)
#
#
# Indices 1 2 3 4 5 6 
#
# 1 44.1610 4.3928 23.4474 0.0000 -17.8841 0.0000
# 2 4.3928 63.7033 12.4272 0.0000 -12.6066 0.0000
# 3 23.4474 12.4272 106.0652 0.0000 -30.2334 0.0000
# 4 0.0000 0.0000 0.0000 34.1200 0.0000 -14.4781
# 5 -17.8841 -12.6066 -30.2334 0.0000 25.6123 0.0000
# 6 0.0000 0.0000 0.0000 -14.4781 0.0000 26.3870
#
#
#
# Elastic Compliance Matrix: (Units=1/GPa)
#
#
# Indices 1 2 3 4 5 6 
#
# 1 0.031980 0.002411 -0.000978 0.000000 0.022363 0.000000
# 2 0.002411 0.017600 0.000534 0.000000 0.010976 0.000000
# 3 -0.000978 0.000534 0.014260 0.000000 0.016413 0.000000
# 4 0.000000 0.000000 0.000000 0.038203 0.000000 0.020961
# 5 0.022363 0.010976 0.016413 0.000000 0.079436 0.000000
# 6 0.000000 0.000000 0.000000 0.020961 0.000000 0.049399
#
#
# Mechanical properties :
#
#
# Convention : Reuss Voigt Hill
#
# Bulk Modulus (GPa) = 14.75497 32.71827 23.73662
# Shear Modulus (GPa) = 20.03730 28.80134 24.41932
#
# Velocity S-wave (km/s) = 2.78756 3.34204 3.07732
# Velocity P-wave (km/s) = 4.01032 5.25172 4.67243
#
# Compressibility (1/GPa) = 0.06777378
#
# Stress axis : x y z
#
# Youngs Moduli (GPa) = 31.26938 56.81971 70.12498
#
# Poissons Ratio (x) = -0.13699 0.06856
# Poissons Ratio (y) = -0.07539 -0.03742
# Poissons Ratio (z) = 0.03057 -0.03032
#
# Static dielectric constant tensor:
#      x y z
#    x 2.113350 0.000000 0.078970 
#    y 0.000000 2.176060 0.000000 
#    z 0.078970 0.000000 2.054160 
# 
# From -- ./inp_files/11643.got.cif
#   From: 2010.05.17/outbox.cif.g08.bks.cpg/sg9_6_cif.got.tgz:11643.got - 2010.06.03 20:04:27.
