data_PCOD9133382
_publ_section_title
;
Structure prediction by ZEFSAII (Michael W. Deem and Ramdas Pophale) SiO2 
 PCOD9133382
Probable space group: C M
;
_chemical_formula_sum "Si O2"
_cell_formula_units_Z 26
_cell_length_a 10.469327
_cell_length_b 7.726181
_cell_length_c 14.754967
_cell_angle_alpha 90.000000
_cell_angle_beta 66.734177
_cell_angle_gamma 90.000000
_cell_volume 1096.445801
_symmetry_space_group_name_H-M "C M"
_symmetry_group_IT_number 8
_symmetry_cell_setting 'monoclinic'
loop_
_space_group_symop_operation_xyz
x,y,z
x,-y,z
1/2+x,1/2+y,z
1/2+x,1/2-y,z
loop_
_atom_site_type_symbol
_atom_site_label
_atom_site_fract_x
_atom_site_fract_y
_atom_site_fract_z
Si Si1 0.057760 0.309558 0.919180
Si Si2 0.553436 0.211109 0.392812
Si Si3 0.299880 0.000000 0.073301
Si Si4 0.622018 0.801230 0.095897
Si Si5 0.880847 0.296402 0.611615
Si Si6 0.073336 0.199684 0.713144
Si Si7 0.368760 0.702258 0.272430
O O1 0.123607 0.500000 0.883525
O O2 0.058076 0.211251 0.825616
O O3 0.128840 0.235863 0.989615
O O4 0.903227 0.352774 0.996796
O O5 0.489135 0.270062 0.506638
O O6 0.452633 0.275891 0.342305
O O7 0.712509 0.265094 0.333547
O O8 0.554340 0.000000 0.389541
O O9 0.194324 0.844618 0.134018
O O10 0.460560 0.804705 0.172884
O O11 0.671576 0.000000 0.088018
O O12 0.865451 0.500000 0.597835
O O13 0.947845 0.281267 0.692227
O O14 0.725321 0.222107 0.648254
O O15 0.071421 0.000000 0.686877
O O16 0.363649 0.500000 0.246833
#
# Coordination Sequence:
#
# PCOD9133382 Si02
#       7
#     4   4   2   4   4   4   4
#     4   9  24  42  61  92 128 168 217 271 322 395
#     4  10  23  43  65  95 129 175 221 275 337 395
#     4  10  24  46  66  92 140 170 226 274 334 390
#     4  11  24  43  68  97 132 179 221 274 333 400
#     4  10  23  43  65  92 134 170 220 278 332 396
#     4  11  24  39  66  98 127 174 221 273 337 398
#     4  11  24  40  66  97 132 173 221 276 334 395
#
# _framework density 23.712983999999999
#
# number of rings (size 3 to 8) (size 9 to 14) (size 15 to 20)
#    0.462    1.231    0.769    1.846    5.385    3.692 
#    0.000    0.000    0.000    0.000    0.000    0.000 
#    0.000    0.000    0.000    0.000    0.000    0.000 
#
# Total GULP energy -72387.663328 kJ/mol
# GULP energy per Si atom -5568.281794 kJ/mol
# Density = 2.365901 g / cm^3
# Si number density = 23.712984 Si / 1000 Ang^3
#
#
#
# Elastic Constant Matrix: (Units=GPa)
#
#
# Indices 1 2 3 4 5 6 
#
# 1 92.7117 -4.3837 0.5712 0.0000 -4.4873 0.0000
# 2 -4.3837 69.0353 0.3890 0.0000 -7.8126 0.0000
# 3 0.5712 0.3890 66.3874 0.0000 9.2206 0.0000
# 4 0.0000 0.0000 0.0000 32.1430 0.0000 2.4110
# 5 -4.4873 -7.8126 9.2206 0.0000 38.6801 0.0000
# 6 0.0000 0.0000 0.0000 2.4110 0.0000 16.0097
#
#
#
# Elastic Compliance Matrix: (Units=1/GPa)
#
#
# Indices 1 2 3 4 5 6 
#
# 1 0.010902 0.000865 -0.000309 0.000000 0.001513 0.000000
# 2 0.000865 0.014910 -0.000545 0.000000 0.003242 0.000000
# 3 -0.000309 -0.000545 0.015606 0.000000 -0.003866 0.000000
# 4 0.000000 0.000000 0.000000 0.031466 0.000000 -0.004739
# 5 0.001513 0.003242 -0.003866 0.000000 0.027605 0.000000
# 6 0.000000 0.000000 0.000000 -0.004739 0.000000 0.063176
#
#
# Mechanical properties :
#
#
# Convention : Reuss Voigt Hill
#
# Bulk Modulus (GPa) = 24.13090 24.58748 24.35919
# Shear Modulus (GPa) = 28.17584 32.80374 30.48979
#
# Velocity S-wave (km/s) = 3.45077 3.72340 3.58967
# Velocity P-wave (km/s) = 5.10641 5.37366 5.24174
#
# Compressibility (1/GPa) = 0.04144065
#
# Stress axis : x y z
#
# Youngs Moduli (GPa) = 91.72474 67.06799 64.07826
#
# Poissons Ratio (x) = -0.05803 0.01980
# Poissons Ratio (y) = -0.07937 0.03493
# Poissons Ratio (z) = 0.02835 0.03656
#
# Static dielectric constant tensor:
#      x y z
#    x 1.993620 0.000000 0.001800 
#    y 0.000000 1.869480 0.000000 
#    z 0.001800 0.000000 1.903200 
# 
# From -- ./inp_files/25778.got.cif
#   From: 2010.05.17/outbox.cif.g08.bks.cpg/sg8_13_cif.got.tgz:25778.got - 2010.06.03 19:46:02.
