data_PCOD9133530
_publ_section_title
;
Structure prediction by ZEFSAII (Michael W. Deem and Ramdas Pophale) SiO2 
 PCOD9133530
Probable space group: C M
;
_chemical_formula_sum "Si O2"
_cell_formula_units_Z 28
_cell_length_a 12.751130
_cell_length_b 12.470391
_cell_length_c 8.803800
_cell_angle_alpha 90.000000
_cell_angle_beta 66.876711
_cell_angle_gamma 90.000000
_cell_volume 1287.440389
_symmetry_space_group_name_H-M "C M"
_symmetry_group_IT_number 8
_symmetry_cell_setting 'monoclinic'
loop_
_space_group_symop_operation_xyz
x,y,z
x,-y,z
1/2+x,1/2+y,z
1/2+x,1/2-y,z
loop_
_atom_site_type_symbol
_atom_site_label
_atom_site_fract_x
_atom_site_fract_y
_atom_site_fract_z
Si Si1 0.768850 0.884763 0.494160
Si Si2 0.089559 0.122616 0.741155
Si Si3 0.177765 0.680421 0.842676
Si Si4 0.004375 0.622252 0.214911
Si Si5 0.522911 0.316963 0.438218
Si Si6 0.262502 0.802617 0.258468
Si Si7 0.342424 0.380289 0.990747
O O1 0.678528 0.881671 0.683186
O O2 0.901911 0.871683 0.469242
O O3 0.745759 0.782040 0.404868
O O4 0.758795 0.000000 0.422654
O O5 0.045841 0.171805 0.605798
O O6 0.977888 0.121575 0.910784
O O7 0.176806 0.197383 0.783294
O O8 0.127653 0.000000 0.693280
O O9 0.293480 0.639548 0.852033
O O10 0.082095 0.658168 0.025359
O O11 0.033578 0.500000 0.236599
O O12 0.017323 0.702205 0.351707
O O13 0.873014 0.629041 0.235901
O O14 0.642875 0.362262 0.302602
O O15 0.294084 0.720559 0.107565
O O16 0.306639 0.500000 0.058661
#
# Coordination Sequence:
#
# PCOD9133530 Si02
#       7
#     4   4   4   4   4   4   4
#     4  11  23  39  64  95 122 164 220 266 307 368
#     4  11  24  44  67  92 128 171 213 262 319 373
#     4  12  22  41  67  96 127 159 218 268 310 377
#     4  11  25  42  64  96 132 168 204 262 327 375
#     4  11  23  42  62  93 127 167 215 256 308 383
#     4  11  23  41  62  92 133 166 209 262 312 387
#     4  11  22  41  68  92 125 173 215 262 313 371
#
# _framework density 21.748578999999999
#
# number of rings (size 3 to 8) (size 9 to 14) (size 15 to 20)
#    0.000    0.857    5.714    2.143    0.000    1.714 
#    0.000    1.429    0.000    0.000    0.000    0.000 
#    0.000    0.000    0.000    0.000    0.000    0.000 
#
# Total GULP energy -78016.196076 kJ/mol
# GULP energy per Si atom -5572.585434 kJ/mol
# Density = 2.169908 g / cm^3
# Si number density = 21.748579 Si / 1000 Ang^3
#
#
#
# Elastic Constant Matrix: (Units=GPa)
#
#
# Indices 1 2 3 4 5 6 
#
# 1 45.5787 17.3674 -10.3683 0.0000 -13.8580 0.0000
# 2 17.3674 121.2444 39.6864 0.0000 2.9689 0.0000
# 3 -10.3683 39.6864 86.7955 0.0000 -0.4801 0.0000
# 4 0.0000 0.0000 0.0000 -907.5198 0.0000 -196.9074
# 5 -13.8580 2.9689 -0.4801 0.0000 31.1454 0.0000
# 6 0.0000 0.0000 0.0000 -196.9074 0.0000 -32.0873
#
#
#
# Elastic Compliance Matrix: (Units=1/GPa)
#
#
# Indices 1 2 3 4 5 6 
#
# 1 0.030549 -0.006995 0.006927 0.000000 0.014366 0.000000
# 2 -0.006995 0.011332 -0.006041 0.000000 -0.004286 0.000000
# 3 0.006927 -0.006041 0.015132 0.000000 0.003891 0.000000
# 4 0.000000 0.000000 0.000000 0.003324 0.000000 -0.020399
# 5 0.014366 -0.004286 0.003891 0.000000 0.038968 0.000000
# 6 0.000000 0.000000 0.000000 -0.020399 0.000000 0.094018
#
#
# Mechanical properties :
#
#
# Convention : Reuss Voigt Hill
#
# Bulk Modulus (GPa) = 22.32317 38.55439 30.43878
# Shear Modulus (GPa) = 22.67842 -167.89678 -72.60918
#
# Velocity S-wave (km/s) = 3.23267 -8.79583 -5.78431
# Velocity P-wave (km/s) = 4.92139 9.24065 5.53035
#
# Compressibility (1/GPa) = 0.04479651
#
# Stress axis : x y z
#
# Youngs Moduli (GPa) = 32.73382 88.24502 66.08301
#
# Poissons Ratio (x) = 0.61730 -0.45778
# Poissons Ratio (y) = 0.22898 0.39920
# Poissons Ratio (z) = -0.22676 0.53307
#
# Static dielectric constant tensor:
#      x y z
#    x 1.819620 0.000000 -0.004990 
#    y 0.000000 1.796830 0.000000 
#    z -0.004990 0.000000 1.857370 
# 
# From -- ./inp_files/12631.got.cif
#   From: 2010.05.17/outbox.cif.g08.bks.cpg/sg8_7_cif.got.tgz:12631.got - 2010.06.03 19:46:02.
