data_PCOD9133179
_publ_section_title
;
Structure prediction by ZEFSAII (Michael W. Deem and Ramdas Pophale) SiO2 
 PCOD9133179
Probable space group: C M
;
_chemical_formula_sum "Si O2"
_cell_formula_units_Z 26
_cell_length_a 19.567792
_cell_length_b 7.540519
_cell_length_c 11.513273
_cell_angle_alpha 90.000000
_cell_angle_beta 42.775698
_cell_angle_gamma 90.000000
_cell_volume 1153.705068
_symmetry_space_group_name_H-M "C M"
_symmetry_group_IT_number 8
_symmetry_cell_setting 'monoclinic'
loop_
_space_group_symop_operation_xyz
x,y,z
x,-y,z
1/2+x,1/2+y,z
1/2+x,1/2-y,z
loop_
_atom_site_type_symbol
_atom_site_label
_atom_site_fract_x
_atom_site_fract_y
_atom_site_fract_z
Si Si1 0.883230 0.212906 0.835510
Si Si2 0.193504 0.500000 0.445207
Si Si3 0.094332 0.212586 0.959826
Si Si4 0.703414 0.696622 0.233347
Si Si5 0.017054 0.705799 0.305651
Si Si6 0.319611 0.203205 0.659256
Si Si7 0.086520 0.789252 0.711794
O O1 0.862488 0.293419 0.736096
O O2 0.995109 0.255516 0.739058
O O3 0.874916 0.000000 0.837427
O O4 0.800273 0.277690 0.030110
O O5 0.202032 0.345354 0.332876
O O6 0.174898 0.657684 0.566763
O O7 0.208602 0.281800 0.806897
O O8 0.047928 0.244296 0.891306
O O9 0.097457 0.000000 0.974610
O O10 0.041174 0.285586 0.139683
O O11 0.704229 0.500000 0.284400
O O12 0.606104 0.710714 0.270521
O O13 0.014958 0.500000 0.344587
O O14 0.907518 0.783673 0.471221
O O15 0.303935 0.000000 0.638627
O O16 0.109449 0.000000 0.676475
#
# Coordination Sequence:
#
# PCOD9133179 Si02
#       7
#     4   2   4   4   4   4   4
#     4  11  22  41  66 101 133 176 226 278 337 400
#     4  12  24  44  66 100 128 178 230 278 336 402
#     4  10  22  45  66  94 136 181 222 274 341 403
#     4  12  24  41  67 100 138 176 223 285 338 396
#     4  11  22  39  65 103 135 173 225 276 336 410
#     4  10  22  39  67  97 133 176 220 277 341 397
#     4  10  25  45  69  96 137 181 224 278 339 404
#
# _framework density 22.536086999999998
#
# number of rings (size 3 to 8) (size 9 to 14) (size 15 to 20)
#    0.000    1.231    3.077    2.308    5.385    2.462 
#    2.769    0.000    0.000    0.000    0.000    0.000 
#    0.000    0.000    0.000    0.000    0.000    0.000 
#
# Total GULP energy -72441.291920 kJ/mol
# GULP energy per Si atom -5572.407071 kJ/mol
# Density = 2.248479 g / cm^3
# Si number density = 22.536087 Si / 1000 Ang^3
#
#
#
# Elastic Constant Matrix: (Units=GPa)
#
#
# Indices 1 2 3 4 5 6 
#
# 1 38.1311 -8.0751 9.9268 0.0000 1.7626 0.0000
# 2 -8.0751 111.5674 14.2855 0.0000 5.1874 0.0000
# 3 9.9268 14.2855 125.6735 0.0000 21.1322 0.0000
# 4 0.0000 0.0000 0.0000 14.5036 0.0000 17.6438
# 5 1.7626 5.1874 21.1322 0.0000 29.6228 0.0000
# 6 0.0000 0.0000 0.0000 17.6438 0.0000 17.1153
#
#
#
# Elastic Compliance Matrix: (Units=1/GPa)
#
#
# Indices 1 2 3 4 5 6 
#
# 1 0.027343 0.002298 -0.002363 0.000000 -0.000343 0.000000
# 2 0.002298 0.009313 -0.001071 0.000000 -0.001003 0.000000
# 3 -0.002363 -0.001071 0.009330 0.000000 -0.006327 0.000000
# 4 0.000000 0.000000 0.000000 -0.271376 -0.000001 0.279756
# 5 -0.000343 -0.001003 -0.006327 -0.000001 0.038468 0.000001
# 6 0.000000 0.000000 0.000000 0.279756 0.000001 -0.229967
#
#
# Mechanical properties :
#
#
# Convention : Reuss Voigt Hill
#
# Bulk Modulus (GPa) = 22.87715 34.18296 28.53006
# Shear Modulus (GPa) = -12.49862 29.53065 8.51602
#
# Velocity S-wave (km/s) = -2.35756 3.62383 1.94603
# Velocity P-wave (km/s) = 1.66211 5.71932 4.21148
#
# Compressibility (1/GPa) = 0.04371173
#
# Stress axis : x y z
#
# Youngs Moduli (GPa) = 36.57242 107.37303 107.18664
#
# Poissons Ratio (x) = -0.24670 0.25331
# Poissons Ratio (y) = -0.08403 0.11484
# Poissons Ratio (z) = 0.08643 0.11504
#
# Static dielectric constant tensor:
#      x y z
#    x 1.821880 0.000000 -0.038730 
#    y 0.000000 1.844600 0.000000 
#    z -0.038730 0.000000 1.831820 
# 
# From -- ./inp_files/23816.got.cif
#   From: 2010.05.17/outbox.cif.g08.bks.cpg/sg8_12_cif.got.tgz:23816.got - 2010.06.03 19:46:02.
