data_PCOD9133879
_publ_section_title
;
Structure prediction by ZEFSAII (Michael W. Deem and Ramdas Pophale) SiO2 
 PCOD9133879
Probable space group: C C
;
_chemical_formula_sum "Si O2"
_cell_formula_units_Z 32
_cell_length_a 16.477595
_cell_length_b 16.452680
_cell_length_c 12.695571
_cell_angle_alpha 90.000000
_cell_angle_beta 154.947644
_cell_angle_gamma 90.000000
_cell_volume 1457.407534
_symmetry_space_group_name_H-M "C C"
_symmetry_group_IT_number 9
_symmetry_cell_setting 'monoclinic'
loop_
_space_group_symop_operation_xyz
x,y,z
x,-y,1/2+z
1/2+x,1/2+y,z
1/2+x,1/2-y,1/2+z
loop_
_atom_site_type_symbol
_atom_site_label
_atom_site_fract_x
_atom_site_fract_y
_atom_site_fract_z
Si Si1 0.021400 0.142699 0.710780
Si Si2 0.014361 0.868459 0.580817
Si Si3 0.541700 0.812649 0.317313
Si Si4 0.157622 0.870282 0.955516
Si Si5 0.452561 0.182559 0.248208
Si Si6 0.326289 0.569086 0.667908
Si Si7 0.592312 0.810816 0.142538
Si Si8 0.391764 0.399083 0.823421
O O1 0.971862 0.230919 0.708751
O O2 0.916719 0.075560 0.659352
O O3 0.945609 0.127354 0.503904
O O4 0.252125 0.141704 0.981748
O O5 0.000427 0.903072 0.448680
O O6 0.128890 0.784298 0.706791
O O7 0.098928 0.916479 0.778937
O O8 0.791248 0.851518 0.344398
O O9 0.539721 0.715011 0.309705
O O10 0.745255 0.833559 0.605884
O O11 0.378412 0.848938 0.199864
O O12 0.528951 0.844712 0.181620
O O13 0.082601 0.906553 0.975561
O O14 0.640341 0.127578 0.447269
O O15 0.454800 0.190832 0.378957
O O16 0.279480 0.482850 0.665668
#
# Coordination Sequence:
#
# PCOD9133879 Si02
#       8
#     4   4   4   4   4   4   4   4
#     4  12  26  45  79 105 146 201 248 302 368 453
#     4  10  18  35  64  95 134 162 222 290 344 405
#     4  11  22  40  70 102 135 189 234 302 359 438
#     4  11  22  39  69  98 133 181 241 288 360 434
#     4  11  23  45  75 110 136 194 255 298 359 442
#     4  11  27  46  68 103 147 186 241 309 367 423
#     4  10  17  34  67 104 125 166 235 301 330 409
#     4  12  29  46  66 107 154 189 238 308 377 436
#
# _framework density 21.956796000000001
#
# number of rings (size 3 to 8) (size 9 to 14) (size 15 to 20)
#    0.000    1.000    5.000    3.000    5.250    2.000 
#    0.000    0.000    0.000    0.000    0.000    0.000 
#    0.000    0.000    0.000    0.000    0.000    0.000 
#
# Total GULP energy -89232.886261 kJ/mol
# GULP energy per Si atom -5577.055391 kJ/mol
# Density = 2.190682 g / cm^3
# Si number density = 21.956796 Si / 1000 Ang^3
#
#
#
# Elastic Constant Matrix: (Units=GPa)
#
#
# Indices 1 2 3 4 5 6 
#
# 1 151.5959 16.9502 74.0227 0.0000 -23.7046 0.0000
# 2 16.9502 40.3643 16.9995 0.0000 -13.5748 0.0000
# 3 74.0227 16.9995 116.4309 0.0000 -17.6541 0.0000
# 4 0.0000 0.0000 0.0000 -3.4777 0.0000 0.6815
# 5 -23.7046 -13.5748 -17.6541 0.0000 45.0852 0.0000
# 6 0.0000 0.0000 0.0000 0.6815 0.0000 24.9369
#
#
#
# Elastic Compliance Matrix: (Units=1/GPa)
#
#
# Indices 1 2 3 4 5 6 
#
# 1 0.009938 -0.000824 -0.005787 0.000000 0.002711 0.000000
# 2 -0.000824 0.028615 -0.002565 0.000000 0.007178 0.000000
# 3 -0.005787 -0.002565 0.012826 0.000000 0.001207 0.000000
# 4 0.000000 0.000000 0.000000 -0.286018 0.000000 0.007816
# 5 0.002711 0.007178 0.001207 0.000000 0.026239 0.000000
# 6 0.000000 0.000000 0.000000 0.007816 0.000000 0.039888
#
#
# Mechanical properties :
#
#
# Convention : Reuss Voigt Hill
#
# Bulk Modulus (GPa) = 30.28004 58.25955 44.26979
# Shear Modulus (GPa) = -35.93252 26.67013 -4.63119
#
# Velocity S-wave (km/s) = -4.04977 3.48898 -1.45389
# Velocity P-wave (km/s) = 2.83669 6.54385 4.16984
#
# Compressibility (1/GPa) = 0.03302505
#
# Stress axis : x y z
#
# Youngs Moduli (GPa) = 100.62075 34.94676 77.96940
#
# Poissons Ratio (x) = 0.02881 0.45121
# Poissons Ratio (y) = 0.08296 0.20003
# Poissons Ratio (z) = 0.58229 0.08965
#
# Static dielectric constant tensor:
#      x y z
#    x 1.857840 0.000000 -0.029240 
#    y 0.000000 1.952570 0.000000 
#    z -0.029240 0.000000 1.812120 
# 
# From -- ./inp_files/18553.got.cif
#   From: 2010.05.17/outbox.cif.g08.bks.cpg/sg9_10_cif.got.tgz:18553.got - 2010.06.03 20:04:27.
