data_PCOD9133174
_publ_section_title
;
Structure prediction by ZEFSAII (Michael W. Deem and Ramdas Pophale) SiO2 
 PCOD9133174
Probable space group: C M
;
_chemical_formula_sum "Si O2"
_cell_formula_units_Z 28
_cell_length_a 16.003404
_cell_length_b 16.963593
_cell_length_c 5.208222
_cell_angle_alpha 90.000000
_cell_angle_beta 118.618023
_cell_angle_gamma 90.000000
_cell_volume 1241.170042
_symmetry_space_group_name_H-M "C M"
_symmetry_group_IT_number 8
_symmetry_cell_setting 'monoclinic'
loop_
_space_group_symop_operation_xyz
x,y,z
x,-y,z
1/2+x,1/2+y,z
1/2+x,1/2-y,z
loop_
_atom_site_type_symbol
_atom_site_label
_atom_site_fract_x
_atom_site_fract_y
_atom_site_fract_z
Si Si1 0.556320 0.408575 0.441650
Si Si2 0.521021 0.691403 0.877065
Si Si3 0.451321 0.085202 0.247286
Si Si4 0.267006 0.914797 0.620225
Si Si5 0.359164 0.786834 0.433756
Si Si6 0.697311 0.808598 0.990387
Si Si7 0.162007 0.591425 0.425802
O O1 0.528602 0.500000 0.360511
O O2 0.514264 0.371369 0.635742
O O3 0.671048 0.406610 0.638724
O O4 0.535682 0.353857 0.165475
O O5 0.420786 0.737138 0.724555
O O6 0.609165 0.750000 0.933723
O O7 0.436224 0.156831 0.414569
O O8 0.547278 0.093391 0.228779
O O9 0.457763 0.000000 0.394216
O O10 0.359163 0.084288 0.933756
O O11 0.282104 0.843169 0.452944
O O12 0.260565 0.000000 0.473295
O O13 0.297545 0.737137 0.142959
O O14 0.704051 0.871380 0.231661
O O15 0.682660 0.853848 0.701970
O O16 0.189725 0.500000 0.506957
#
# Coordination Sequence:
#
# PCOD9133174 Si02
#       7
#     4   4   4   4   4   4   4
#     4  11  25  47  69  95 136 182 222 271 332 397
#     4  12  25  44  69 102 136 173 224 275 334 392
#     4  10  22  39  65  98 132 171 215 274 343 406
#     4  10  22  39  65  98 132 171 215 274 343 406
#     4  12  25  38  69  96 136 166 224 276 337 384
#     4  12  25  44  69 102 136 173 224 275 334 392
#     4  11  25  47  69  95 136 182 222 271 332 397
#
# _framework density 22.559356999999999
#
# number of rings (size 3 to 8) (size 9 to 14) (size 15 to 20)
#    0.000    0.857    2.857    3.857    4.000    0.000 
#    0.000    4.286    0.000    0.000    0.000    0.000 
#    0.000    0.000    0.000    0.000    0.000    0.000 
#
# Total GULP energy -78355.306282 kJ/mol
# GULP energy per Si atom -5596.807592 kJ/mol
# Density = 2.250801 g / cm^3
# Si number density = 22.559357 Si / 1000 Ang^3
#
#
#
# Elastic Constant Matrix: (Units=GPa)
#
#
# Indices 1 2 3 4 5 6 
#
# 1 46.1698 22.9554 7.2369 0.0000 0.4332 0.0000
# 2 22.9554 109.9769 41.3477 0.0000 7.9916 0.0000
# 3 7.2369 41.3477 100.5083 0.0000 1.0935 0.0000
# 4 0.0000 0.0000 0.0000 25.9686 0.0000 6.8580
# 5 0.4332 7.9916 1.0935 0.0000 31.6771 0.0000
# 6 0.0000 0.0000 0.0000 6.8580 0.0000 81.1095
#
#
#
# Elastic Compliance Matrix: (Units=1/GPa)
#
#
# Indices 1 2 3 4 5 6 
#
# 1 0.024211 -0.005283 0.000419 0.000000 0.000987 0.000000
# 2 -0.005283 0.012121 -0.004575 0.000000 -0.002828 0.000000
# 3 0.000419 -0.004575 0.011793 0.000000 0.000741 0.000000
# 4 0.000000 0.000000 0.000000 0.039388 0.000000 -0.003330
# 5 0.000987 -0.002828 0.000741 0.000000 0.032243 0.000000
# 6 0.000000 0.000000 0.000000 -0.003330 0.000000 0.012611
#
#
# Mechanical properties :
#
#
# Convention : Reuss Voigt Hill
#
# Bulk Modulus (GPa) = 34.19087 44.41499 39.30293
# Shear Modulus (GPa) = 31.05716 40.09202 35.57459
#
# Velocity S-wave (km/s) = 3.71440 4.22023 3.97537
# Velocity P-wave (km/s) = 5.79522 6.59378 6.20735
#
# Compressibility (1/GPa) = 0.02924758
#
# Stress axis : x y z
#
# Youngs Moduli (GPa) = 41.30384 82.50025 84.79324
#
# Poissons Ratio (x) = 0.43584 -0.03556
# Poissons Ratio (y) = 0.21820 0.38796
# Poissons Ratio (z) = -0.01732 0.37747
#
# Static dielectric constant tensor:
#      x y z
#    x 1.837700 0.000000 -0.028440 
#    y 0.000000 1.916250 0.000000 
#    z -0.028440 0.000000 1.818130 
# 
# From -- ./inp_files/4943.got.cif
#   From: 2010.05.17/outbox.cif.g08.bks.cpg/sg8_3_cif.got.tgz:4943.got - 2010.06.03 19:46:02.
