data_PCOD9133310
_publ_section_title
;
Structure prediction by ZEFSAII (Michael W. Deem and Ramdas Pophale) SiO2 
 PCOD9133310
Probable space group: C M
;
_chemical_formula_sum "Si O2"
_cell_formula_units_Z 28
_cell_length_a 7.572660
_cell_length_b 32.857412
_cell_length_c 4.920598
_cell_angle_alpha 90.000000
_cell_angle_beta 112.759231
_cell_angle_gamma 90.000000
_cell_volume 1129.005156
_symmetry_space_group_name_H-M "C M"
_symmetry_group_IT_number 8
_symmetry_cell_setting 'monoclinic'
loop_
_space_group_symop_operation_xyz
x,y,z
x,-y,z
1/2+x,1/2+y,z
1/2+x,1/2-y,z
loop_
_atom_site_type_symbol
_atom_site_label
_atom_site_fract_x
_atom_site_fract_y
_atom_site_fract_z
Si Si1 0.926970 0.643843 0.336940
Si Si2 0.541329 0.676510 0.235166
Si Si3 0.891223 0.047336 0.886905
Si Si4 0.009002 0.769005 0.684733
Si Si5 0.031283 0.596912 0.887357
Si Si6 0.646838 0.452755 0.556146
Si Si7 0.167572 0.298542 0.143712
O O1 0.698076 0.644767 0.233644
O O2 0.012284 0.636757 0.684629
O O3 0.998096 0.684830 0.230263
O O4 0.003671 0.608709 0.184225
O O5 0.622598 0.701376 0.543331
O O6 0.325278 0.665218 0.193556
O O7 0.499491 0.706089 0.958791
O O8 0.717277 0.072531 0.907587
O O9 0.980816 0.063237 0.659442
O O10 0.830591 0.000000 0.814098
O O11 0.063044 0.048198 0.205344
O O12 0.806865 0.768600 0.403801
O O13 0.094158 0.726687 0.841566
O O14 0.842781 0.571021 0.700695
O O15 0.678293 0.500000 0.652285
#
# Coordination Sequence:
#
# PCOD9133310 Si02
#       7
#     4   4   4   4   4   4   4
#     4  12  28  46  70 100 149 183 236 273 370 432
#     4  10  26  47  68 101 134 179 221 299 348 444
#     4  10  22  43  73 108 143 189 243 295 347 399
#     4  10  25  47  75  96 135 167 239 294 371 410
#     4  12  26  44  70 105 144 199 232 292 340 442
#     4  10  22  43  71 106 146 188 245 298 341 402
#     4  10  28  48  72 106 133 181 228 311 359 439
#
# _framework density 24.800592000000002
#
# number of rings (size 3 to 8) (size 9 to 14) (size 15 to 20)
#    0.857    0.571    0.000    3.000    6.000    4.571 
#    2.571    5.714    0.000    0.000    0.000    0.000 
#    0.000    0.000    0.000    0.000    0.000    0.000 
#
# Total GULP energy -78290.960809 kJ/mol
# GULP energy per Si atom -5592.211486 kJ/mol
# Density = 2.474414 g / cm^3
# Si number density = 24.800592 Si / 1000 Ang^3
#
#
#
# Elastic Constant Matrix: (Units=GPa)
#
#
# Indices 1 2 3 4 5 6 
#
# 1 80.6197 25.7512 23.8500 0.0000 1.7112 0.0000
# 2 25.7512 61.9978 9.5346 0.0000 7.7317 0.0000
# 3 23.8500 9.5346 102.5620 0.0000 -7.7376 0.0000
# 4 0.0000 0.0000 0.0000 34.9764 0.0000 -0.9027
# 5 1.7112 7.7317 -7.7376 0.0000 47.2348 0.0000
# 6 0.0000 0.0000 0.0000 -0.9027 0.0000 34.4357
#
#
#
# Elastic Compliance Matrix: (Units=1/GPa)
#
#
# Indices 1 2 3 4 5 6 
#
# 1 0.015149 -0.005822 -0.002988 0.000000 -0.000085 0.000000
# 2 -0.005822 0.019022 -0.000641 0.000000 -0.003008 0.000000
# 3 -0.002988 -0.000641 0.010652 0.000000 0.001958 0.000000
# 4 0.000000 0.000000 0.000000 0.028610 0.000000 0.000750
# 5 -0.000085 -0.003008 0.001958 0.000000 0.021987 0.000000
# 6 0.000000 0.000000 0.000000 0.000750 0.000000 0.029059
#
#
# Mechanical properties :
#
#
# Convention : Reuss Voigt Hill
#
# Bulk Modulus (GPa) = 38.57996 40.38346 39.48171
# Shear Modulus (GPa) = 32.88975 35.73230 34.31102
#
# Velocity S-wave (km/s) = 3.64561 3.79988 3.72355
# Velocity P-wave (km/s) = 5.77152 5.96412 5.86861
#
# Compressibility (1/GPa) = 0.02592019
#
# Stress axis : x y z
#
# Youngs Moduli (GPa) = 66.00925 52.57180 93.87555
#
# Poissons Ratio (x) = 0.30608 0.28050
# Poissons Ratio (y) = 0.38432 0.06021
# Poissons Ratio (z) = 0.19724 0.03372
#
# Static dielectric constant tensor:
#      x y z
#    x 1.976900 0.000000 -0.005820 
#    y 0.000000 2.030770 0.000000 
#    z -0.005820 0.000000 1.886070 
# 
# From -- ./inp_files/1916.got.cif
#   From: 2010.05.17/outbox.cif.g08.bks.cpg/sg8_1_cif.got.tgz:1916.got - 2010.06.03 19:46:02.
