data_PCOD9133743
_publ_section_title
;
Structure prediction by ZEFSAII (Michael W. Deem and Ramdas Pophale) SiO2 
 PCOD9133743
Probable space group: C C
;
_chemical_formula_sum "Si O2"
_cell_formula_units_Z 28
_cell_length_a 10.177300
_cell_length_b 9.809327
_cell_length_c 13.179654
_cell_angle_alpha 90.000000
_cell_angle_beta 114.469318
_cell_angle_gamma 90.000000
_cell_volume 1197.580229
_symmetry_space_group_name_H-M "C C"
_symmetry_group_IT_number 9
_symmetry_cell_setting 'monoclinic'
loop_
_space_group_symop_operation_xyz
x,y,z
x,-y,1/2+z
1/2+x,1/2+y,z
1/2+x,1/2-y,1/2+z
loop_
_atom_site_type_symbol
_atom_site_label
_atom_site_fract_x
_atom_site_fract_y
_atom_site_fract_z
Si Si1 0.636060 0.998448 0.974450
Si Si2 0.421477 0.743436 0.412424
Si Si3 0.823049 0.835472 0.671588
Si Si4 0.975991 0.592192 0.248159
Si Si5 0.736615 0.501695 0.334021
Si Si6 0.918011 0.381587 0.051726
Si Si7 0.540391 0.345120 0.150721
O O1 0.549950 0.144064 0.941146
O O2 0.624902 0.945906 0.855052
O O3 0.765685 0.034509 0.091708
O O4 0.540538 0.889161 0.005972
O O5 0.403063 0.657319 0.304534
O O6 0.288448 0.849655 0.384745
O O7 0.447232 0.651933 0.519061
O O8 0.912177 0.749412 0.618617
O O9 0.685576 0.736929 0.658785
O O10 0.969914 0.746414 0.210896
O O11 0.848796 0.551945 0.283949
O O12 0.954378 0.504664 0.139752
O O13 0.767775 0.592819 0.442741
O O14 0.590526 0.479580 0.225534
#
# Coordination Sequence:
#
# PCOD9133743 Si02
#       7
#     4   4   4   4   4   4   4
#     4   9  18  27  46  79  98 136 172 207 271 294
#     4   8  14  24  42  74  94 124 170 202 250 298
#     4  10  16  27  49  78 102 132 176 216 255 311
#     4  10  15  29  48  76 106 130 179 214 246 326
#     4   9  18  27  46  79  98 136 172 207 271 294
#     4  10  15  29  48  76 106 130 179 214 246 326
#     4  10  16  27  49  78 102 132 176 216 255 311
#
# _framework density 23.380479999999999
#
# number of rings (size 3 to 8) (size 9 to 14) (size 15 to 20)
#    0.000    2.857    8.571    0.000    0.000    0.000 
#    0.000    0.000    0.000   13.714    0.000   12.000 
#    0.000    0.000    0.000    0.000    0.000    0.000 
#
# Total GULP energy -78062.910400 kJ/mol
# GULP energy per Si atom -5575.922171 kJ/mol
# Density = 2.332726 g / cm^3
# Si number density = 23.380480 Si / 1000 Ang^3
#
#
#
# Elastic Constant Matrix: (Units=GPa)
#
#
# Indices 1 2 3 4 5 6 
#
# 1 30.5399 17.1387 20.9835 0.0000 6.6392 0.0000
# 2 17.1387 55.7876 40.9563 0.0000 2.9796 0.0000
# 3 20.9835 40.9563 215.2083 0.0000 22.5444 0.0000
# 4 0.0000 0.0000 0.0000 38.6448 0.0000 -4.7206
# 5 6.6392 2.9796 22.5444 0.0000 33.3859 0.0000
# 6 0.0000 0.0000 0.0000 -4.7206 0.0000 30.2405
#
#
#
# Elastic Compliance Matrix: (Units=1/GPa)
#
#
# Indices 1 2 3 4 5 6 
#
# 1 0.041408 -0.011517 -0.001174 0.000000 -0.006414 0.000000
# 2 -0.011517 0.024064 -0.003736 0.000000 0.002665 0.000000
# 3 -0.001174 -0.003736 0.005825 0.000000 -0.003366 0.000000
# 4 0.000000 0.000000 0.000000 0.026380 0.000000 0.004118
# 5 -0.006414 0.002665 -0.003366 0.000000 0.033264 0.000000
# 6 0.000000 0.000000 0.000000 0.004118 0.000000 0.033711
#
#
# Mechanical properties :
#
#
# Convention : Reuss Voigt Hill
#
# Bulk Modulus (GPa) = 26.01219 51.07697 38.54458
# Shear Modulus (GPa) = 23.77353 35.28474 29.52913
#
# Velocity S-wave (km/s) = 3.19221 3.88900 3.55770
# Velocity P-wave (km/s) = 4.97360 6.48530 5.77909
#
# Compressibility (1/GPa) = 0.03844351
#
# Stress axis : x y z
#
# Youngs Moduli (GPa) = 24.14989 41.55662 171.68209
#
# Poissons Ratio (x) = 0.47860 0.20151
# Poissons Ratio (y) = 0.27813 0.64137
# Poissons Ratio (z) = 0.02835 0.15525
#
# Static dielectric constant tensor:
#      x y z
#    x 2.026890 0.000000 0.124750 
#    y 0.000000 1.891840 0.000000 
#    z 0.124750 0.000000 1.921490 
# 
# From -- ./inp_files/16292.got.cif
#   From: 2010.05.17/outbox.cif.g08.bks.cpg/sg9_9_cif.got.tgz:16292.got - 2010.06.03 20:04:27.
