data_PCOD9133331
_publ_section_title
;
Structure prediction by ZEFSAII (Michael W. Deem and Ramdas Pophale) SiO2 
 PCOD9133331
Probable space group: C M
;
_chemical_formula_sum "Si O2"
_cell_formula_units_Z 24
_cell_length_a 10.581435
_cell_length_b 17.991124
_cell_length_c 15.256837
_cell_angle_alpha 90.000000
_cell_angle_beta 154.659281
_cell_angle_gamma 90.000000
_cell_volume 1243.115307
_symmetry_space_group_name_H-M "C M"
_symmetry_group_IT_number 8
_symmetry_cell_setting 'monoclinic'
loop_
_space_group_symop_operation_xyz
x,y,z
x,-y,z
1/2+x,1/2+y,z
1/2+x,1/2-y,z
loop_
_atom_site_type_symbol
_atom_site_label
_atom_site_fract_x
_atom_site_fract_y
_atom_site_fract_z
Si Si1 0.383730 0.118689 0.302240
Si Si2 0.779036 0.748111 0.495166
Si Si3 0.165088 0.500000 0.609835
Si Si4 0.092114 0.000000 0.338473
Si Si5 0.236739 0.166322 0.658091
Si Si6 0.958380 0.000000 0.456724
Si Si7 0.402969 0.651330 0.130314
Si Si8 0.780163 0.500000 0.091194
O O1 0.629434 0.175922 0.429218
O O2 0.098155 0.156982 0.165127
O O3 0.551280 0.068419 0.479717
O O4 0.270811 0.070245 0.150267
O O5 0.790860 0.697659 0.591940
O O6 0.545365 0.707638 0.287021
O O7 0.050360 0.774756 0.601705
O O8 0.949268 0.500000 0.558501
O O9 0.505700 0.500000 0.851817
O O10 0.968659 0.070415 0.210110
O O11 0.993195 0.000000 0.374969
O O12 0.561034 0.161614 0.901527
O O13 0.097094 0.081364 0.572602
O O14 0.610397 0.000000 0.259730
#
# Coordination Sequence:
#
# PCOD9133331 Si02
#       8
#     4   4   2   2   4   2   4   2
#     4  10  23  43  63  99 136 169 231 279 337 415
#     4  12  25  46  65 104 139 176 227 285 341 420
#     4   9  23  41  67  96 130 182 222 283 338 407
#     4  10  22  45  68  99 133 173 240 281 331 417
#     4  12  28  45  74 100 142 185 229 285 350 404
#     4  12  24  45  68 105 133 177 240 288 326 412
#     4  11  25  44  71  97 136 184 227 285 347 405
#     4  11  23  41  69  96 136 182 222 282 345 400
#
# _framework density 19.306334
#
# number of rings (size 3 to 8) (size 9 to 14) (size 15 to 20)
#    0.000    1.000    5.000    1.000    4.667    2.667 
#    0.000    0.000    0.000    0.000    0.000    0.000 
#    0.000    0.000    0.000    0.000    0.000    0.000 
#
# Total GULP energy -66883.530221 kJ/mol
# GULP energy per Si atom -5573.627518 kJ/mol
# Density = 1.926239 g / cm^3
# Si number density = 19.306334 Si / 1000 Ang^3
#
#
#
# Elastic Constant Matrix: (Units=GPa)
#
#
# Indices 1 2 3 4 5 6 
#
# 1 121.8953 1.6158 54.2455 0.0107 -2.4828 0.0085
# 2 1.6158 442.7050 111.1041 0.0231 197.0632 0.0589
# 3 54.2455 111.1041 191.9221 0.0104 47.5489 0.0401
# 4 0.0107 0.0231 0.0104 20.6946 0.0294 7.7108
# 5 -2.4828 197.0632 47.5489 0.0294 130.9254 0.0523
# 6 0.0085 0.0589 0.0401 7.7108 0.0523 52.5802
#
#
#
# Elastic Compliance Matrix: (Units=1/GPa)
#
#
# Indices 1 2 3 4 5 6 
#
# 1 0.009609 0.000500 -0.003147 -0.000005 0.000573 0.000000
# 2 0.000500 0.007318 -0.001814 0.000006 -0.010346 0.000002
# 3 -0.003147 -0.001814 0.007130 0.000001 0.000082 -0.000003
# 4 -0.000005 0.000006 0.000001 0.051115 -0.000018 -0.007496
# 5 0.000573 -0.010346 0.000082 -0.000018 0.023191 -0.000009
# 6 0.000000 0.000002 -0.000003 -0.007496 -0.000009 0.020118
#
#
# Mechanical properties :
#
#
# Convention : Reuss Voigt Hill
#
# Bulk Modulus (GPa) = 66.07951 121.16148 93.62049
# Shear Modulus (GPa) = 37.75039 80.14383 58.94711
#
# Velocity S-wave (km/s) = 4.42672 6.44995 5.53162
# Velocity P-wave (km/s) = 7.77360 10.87946 9.45494
#
# Compressibility (1/GPa) = 0.01513328
#
# Stress axis : x y z
#
# Youngs Moduli (GPa) = 104.06466 136.65772 140.25129
#
# Poissons Ratio (x) = -0.06828 0.44141
# Poissons Ratio (y) = -0.05199 0.25444
# Poissons Ratio (z) = 0.32752 0.24793
#
# Static dielectric constant tensor:
#      x y z
#    x 1.675090 0.000080 0.027220 
#    y 0.000080 1.684940 -0.000030 
#    z 0.027220 -0.000030 1.615660 
# 
# From -- ./inp_files/2688.got.cif
#   From: 2010.05.17/outbox.cif.g08.bks.cpg/sg8_2_cif.got.tgz:2688.got - 2010.06.03 19:46:02.
