data_PCOD9133251
_publ_section_title
;
Structure prediction by ZEFSAII (Michael W. Deem and Ramdas Pophale) SiO2 
 PCOD9133251
Probable space group: C M
;
_chemical_formula_sum "Si O2"
_cell_formula_units_Z 32
_cell_length_a 17.559234
_cell_length_b 14.834867
_cell_length_c 11.097346
_cell_angle_alpha 90.000000
_cell_angle_beta 150.204166
_cell_angle_gamma 90.000000
_cell_volume 1436.437857
_symmetry_space_group_name_H-M "C M"
_symmetry_group_IT_number 8
_symmetry_cell_setting 'monoclinic'
loop_
_space_group_symop_operation_xyz
x,y,z
x,-y,z
1/2+x,1/2+y,z
1/2+x,1/2-y,z
loop_
_atom_site_type_symbol
_atom_site_label
_atom_site_fract_x
_atom_site_fract_y
_atom_site_fract_z
Si Si1 0.890160 0.364474 0.837360
Si Si2 0.632788 0.599639 0.322572
Si Si3 0.521173 0.102255 0.282572
Si Si4 0.270943 0.212734 0.310725
Si Si5 0.317325 0.327651 0.803755
Si Si6 0.678027 0.104118 0.079614
Si Si7 0.620307 0.781924 0.766181
Si Si8 0.217893 0.108711 0.005765
O O1 0.714387 0.391619 0.565632
O O2 0.899612 0.257019 0.856416
O O3 0.953744 0.393882 0.055051
O O4 0.002662 0.399360 0.887516
O O5 0.673396 0.500000 0.333147
O O6 0.715432 0.677842 0.361969
O O7 0.452146 0.612553 0.048609
O O8 0.690656 0.140411 0.533751
O O9 0.387601 0.136499 0.188517
O O10 0.539472 0.000000 0.345175
O O11 0.249252 0.319763 0.265335
O O12 0.446067 0.188351 0.527857
O O13 0.187404 0.150667 0.095511
O O14 0.213307 0.297435 0.773080
O O15 0.734153 0.000000 0.155501
O O16 0.692272 0.156149 0.971476
O O17 0.616337 0.674353 0.784313
O O18 0.199767 0.000000 0.974553
#
# Coordination Sequence:
#
# PCOD9133251 Si02
#       8
#     4   4   4   4   4   4   4   4
#     4  12  24  44  70 101 145 183 230 289 352 420
#     4  12  26  45  71 105 142 187 240 293 350 419
#     4  11  23  41  68 101 138 184 230 283 352 420
#     4  11  23  44  70 100 136 184 232 293 348 415
#     4  12  25  45  70 104 144 187 234 293 350 417
#     4  11  25  44  70 102 138 185 236 287 352 420
#     4  11  24  44  72  99 138 182 235 293 350 415
#     4  10  22  41  66  98 135 180 230 285 349 418
#
# _framework density 22.277329999999999
#
# number of rings (size 3 to 8) (size 9 to 14) (size 15 to 20)
#    0.000    0.750    5.000    2.625    0.000    2.000 
#    0.000    0.000    0.000    0.000    0.000    0.000 
#    0.000    0.000    0.000    0.000    0.000    0.000 
#
# Total GULP energy -89200.511987 kJ/mol
# GULP energy per Si atom -5575.031999 kJ/mol
# Density = 2.222663 g / cm^3
# Si number density = 22.277330 Si / 1000 Ang^3
#
#
#
# Elastic Constant Matrix: (Units=GPa)
#
#
# Indices 1 2 3 4 5 6 
#
# 1 58.0446 15.2360 25.6599 0.0000 -6.3832 0.0000
# 2 15.2360 112.5886 28.3332 0.0000 -6.9880 0.0000
# 3 25.6599 28.3332 103.4625 0.0000 -7.8152 0.0000
# 4 0.0000 0.0000 0.0000 14.9356 0.0000 7.3236
# 5 -6.3832 -6.9880 -7.8152 0.0000 21.0596 0.0000
# 6 0.0000 0.0000 0.0000 7.3236 0.0000 14.6133
#
#
#
# Elastic Compliance Matrix: (Units=1/GPa)
#
#
# Indices 1 2 3 4 5 6 
#
# 1 0.019912 -0.001374 -0.004260 0.000000 0.003998 0.000000
# 2 -0.001374 0.009740 -0.002175 0.000000 0.002008 0.000000
# 3 -0.004260 -0.002175 0.011487 0.000000 0.002250 0.000000
# 4 0.000000 0.000000 0.000000 0.088768 0.000000 -0.044487
# 5 0.003998 0.002008 0.002250 0.000000 0.050198 0.000000
# 6 0.000000 0.000000 0.000000 -0.044487 0.000000 0.090725
#
#
# Mechanical properties :
#
#
# Convention : Reuss Voigt Hill
#
# Bulk Modulus (GPa) = 39.18355 45.83934 42.51144
# Shear Modulus (GPa) = 16.95175 23.77949 20.36562
#
# Velocity S-wave (km/s) = 2.76151 3.27070 3.02683
# Velocity P-wave (km/s) = 5.27210 5.90632 5.59820
#
# Compressibility (1/GPa) = 0.02552092
#
# Stress axis : x y z
#
# Youngs Moduli (GPa) = 50.22150 102.67168 87.05218
#
# Poissons Ratio (x) = 0.14111 0.37084
# Poissons Ratio (y) = 0.06902 0.18931
# Poissons Ratio (z) = 0.21394 0.22328
#
# Static dielectric constant tensor:
#      x y z
#    x 1.813370 0.000000 0.006170 
#    y 0.000000 1.824180 0.000000 
#    z 0.006170 0.000000 1.966050 
# 
# From -- ./inp_files/23350.got.cif
#   From: 2010.05.17/outbox.cif.g08.bks.cpg/sg8_12_cif.got.tgz:23350.got - 2010.06.03 19:46:02.
