data_PCOD9133202
_publ_section_title
;
Structure prediction by ZEFSAII (Michael W. Deem and Ramdas Pophale) SiO2 
 PCOD9133202
Probable space group: C M
;
_chemical_formula_sum "Si O2"
_cell_formula_units_Z 28
_cell_length_a 12.320687
_cell_length_b 19.849831
_cell_length_c 11.849629
_cell_angle_alpha 90.000000
_cell_angle_beta 28.301580
_cell_angle_gamma 90.000000
_cell_volume 1373.972015
_symmetry_space_group_name_H-M "C M"
_symmetry_group_IT_number 8
_symmetry_cell_setting 'monoclinic'
loop_
_space_group_symop_operation_xyz
x,y,z
x,-y,z
1/2+x,1/2+y,z
1/2+x,1/2-y,z
loop_
_atom_site_type_symbol
_atom_site_label
_atom_site_fract_x
_atom_site_fract_y
_atom_site_fract_z
Si Si1 0.236010 0.636401 0.901670
Si Si2 0.330199 0.189559 0.129214
Si Si3 0.451047 0.420190 0.476644
Si Si4 0.510842 0.816654 0.489046
Si Si5 0.001366 0.423795 0.318149
Si Si6 0.129628 0.674360 0.632602
Si Si7 0.658341 0.312417 0.639780
O O1 0.348793 0.600240 0.691675
O O2 0.410278 0.683196 0.811923
O O3 0.153073 0.582323 0.068532
O O4 0.027768 0.679379 0.041046
O O5 0.157958 0.250065 0.322211
O O6 0.187484 0.120312 0.253495
O O7 0.453513 0.194492 0.894236
O O8 0.472243 0.500000 0.444641
O O9 0.282174 0.386431 0.538810
O O10 0.601750 0.877616 0.326834
O O11 0.523500 0.836071 0.607474
O O12 0.245549 0.809406 0.690031
O O13 0.961840 0.500000 0.388223
O O14 0.771941 0.382605 0.497856
O O15 0.272574 0.744092 0.488516
#
# Coordination Sequence:
#
# PCOD9133202 Si02
#       7
#     4   4   4   4   4   4   4
#     4  11  22  39  69  99 128 165 217 273 320 372
#     4  11  24  42  68  97 127 169 219 267 322 378
#     4  11  24  43  65  95 132 172 215 267 319 377
#     4  10  23  44  66  93 131 168 213 263 321 381
#     4  10  22  40  63  95 132 169 209 258 321 382
#     4  11  23  43  68  92 131 168 215 267 319 381
#     4  10  23  41  65  97 128 167 212 269 321 375
#
# _framework density 20.378872000000001
#
# number of rings (size 3 to 8) (size 9 to 14) (size 15 to 20)
#    0.857    0.571    1.429    3.857    2.000    6.857 
#    2.571    0.000    0.000    0.000    0.000    0.000 
#    0.000    0.000    0.000    0.000    0.000    0.000 
#
# Total GULP energy -78013.995632 kJ/mol
# GULP energy per Si atom -5572.428259 kJ/mol
# Density = 2.033249 g / cm^3
# Si number density = 20.378872 Si / 1000 Ang^3
#
#
#
# Elastic Constant Matrix: (Units=GPa)
#
#
# Indices 1 2 3 4 5 6 
#
# 1 204.3310 60.2528 62.5641 0.0342 -5.3403 -0.0454
# 2 60.2528 179.9074 40.7189 0.0630 -10.4154 0.0389
# 3 62.5641 40.7189 62.1899 0.0347 -3.6291 0.0184
# 4 0.0342 0.0630 0.0347 20.1145 -0.0201 3.1214
# 5 -5.3403 -10.4154 -3.6291 -0.0201 31.4320 0.0560
# 6 -0.0454 0.0389 0.0184 3.1214 0.0560 -5.6193
#
#
#
# Elastic Compliance Matrix: (Units=1/GPa)
#
#
# Indices 1 2 3 4 5 6 
#
# 1 0.007197 -0.000898 -0.006643 0.000014 0.000158 -0.000077
# 2 -0.000898 0.006727 -0.003403 -0.000020 0.001683 0.000049
# 3 -0.006643 -0.003403 0.025028 -0.000036 0.000633 0.000099
# 4 0.000014 -0.000020 -0.000036 0.045770 -0.000024 0.025424
# 5 0.000158 0.001683 0.000633 -0.000024 0.032472 0.000323
# 6 -0.000077 0.000049 0.000099 0.025424 0.000323 -0.163830
#
#
# Mechanical properties :
#
#
# Convention : Reuss Voigt Hill
#
# Bulk Modulus (GPa) = 58.60338 85.94442 72.27390
# Shear Modulus (GPa) = -262.32758 28.04493 -117.14133
#
# Velocity S-wave (km/s) = -11.35802 3.71371 -7.58990
# Velocity P-wave (km/s) = 11.96607 7.78805 6.42391
#
# Compressibility (1/GPa) = 0.01706386
#
# Stress axis : x y z
#
# Youngs Moduli (GPa) = 138.94841 148.66115 39.95498
#
# Poissons Ratio (x) = 0.13343 0.26543
# Poissons Ratio (y) = 0.12471 0.13597
# Poissons Ratio (z) = 0.92307 0.50591
#
# Static dielectric constant tensor:
#      x y z
#    x 1.740720 0.000010 -0.014190 
#    y 0.000010 1.770030 0.000100 
#    z -0.014190 0.000100 1.804420 
# 
# From -- ./inp_files/20798.got.cif
#   From: 2010.05.17/outbox.cif.g08.bks.cpg/sg8_11_cif.got.tgz:20798.got - 2010.06.03 19:46:02.
