data_PCOD9133551
_publ_section_title
;
Structure prediction by ZEFSAII (Michael W. Deem and Ramdas Pophale) SiO2 
 PCOD9133551
Probable space group: C M
;
_chemical_formula_sum "Si O2"
_cell_formula_units_Z 24
_cell_length_a 11.786325
_cell_length_b 22.810836
_cell_length_c 9.698425
_cell_angle_alpha 90.000000
_cell_angle_beta 156.759974
_cell_angle_gamma 90.000000
_cell_volume 1028.869270
_symmetry_space_group_name_H-M "C M"
_symmetry_group_IT_number 8
_symmetry_cell_setting 'monoclinic'
loop_
_space_group_symop_operation_xyz
x,y,z
x,-y,z
1/2+x,1/2+y,z
1/2+x,1/2-y,z
loop_
_atom_site_type_symbol
_atom_site_label
_atom_site_fract_x
_atom_site_fract_y
_atom_site_fract_z
Si Si1 0.668800 0.833804 0.242370
Si Si2 0.298354 0.617048 0.647451
Si Si3 0.306943 0.815249 0.252005
Si Si4 0.870672 0.725411 0.606170
Si Si5 0.992137 0.000000 0.478217
Si Si6 0.592366 0.628792 0.497225
Si Si7 0.586600 0.000000 0.291137
O O1 0.880508 0.866974 0.581874
O O2 0.639805 0.770731 0.280210
O O3 0.823538 0.839505 0.268734
O O4 0.371090 0.867337 0.906260
O O5 0.585128 0.633238 0.049036
O O6 0.176816 0.553472 0.489816
O O7 0.043914 0.659080 0.414655
O O8 0.096103 0.765584 0.946257
O O9 0.486207 0.797476 0.588611
O O10 0.710610 0.673261 0.510126
O O11 0.008811 0.940420 0.403031
O O12 0.731450 0.000000 0.298288
O O13 0.256178 0.000000 0.880082
#
# Coordination Sequence:
#
# PCOD9133551 Si02
#       7
#     4   4   4   4   2   4   2
#     4  11  23  40  64  98 134 172 229 290 346 410
#     4  11  23  43  67 103 135 181 234 303 341 430
#     4  11  26  43  71  99 146 181 240 282 381 409
#     4  11  26  45  68 104 143 188 226 303 350 441
#     4  12  22  42  68 104 140 192 236 298 339 433
#     4  12  24  42  67 101 139 181 237 289 351 412
#     4  12  22  42  70 100 138 178 252 292 349 405
#
# _framework density 23.326578999999999
#
# number of rings (size 3 to 8) (size 9 to 14) (size 15 to 20)
#    0.000    0.667    5.000    3.000    4.667    5.333 
#    0.000    1.667    0.000    0.000    0.000    0.000 
#    0.000    0.000    0.000    0.000    0.000    0.000 
#
# Total GULP energy -66816.366302 kJ/mol
# GULP energy per Si atom -5568.030525 kJ/mol
# Density = 2.327349 g / cm^3
# Si number density = 23.326579 Si / 1000 Ang^3
#
#
#
# Elastic Constant Matrix: (Units=GPa)
#
#
# Indices 1 2 3 4 5 6 
#
# 1 112.9461 60.8302 21.7654 -0.0018 11.4912 0.0003
# 2 60.8302 153.0731 7.1495 -0.0008 8.0651 -0.0001
# 3 21.7654 7.1495 77.6583 0.0050 25.6005 -0.0005
# 4 -0.0018 -0.0008 0.0050 27.7447 0.0021 -1.0982
# 5 11.4912 8.0651 25.6005 0.0021 34.4026 -0.0011
# 6 0.0003 -0.0001 -0.0005 -1.0982 -0.0011 28.4793
#
#
#
# Elastic Compliance Matrix: (Units=1/GPa)
#
#
# Indices 1 2 3 4 5 6 
#
# 1 0.011909 -0.004560 -0.002596 0.000001 -0.000977 0.000000
# 2 -0.004560 0.008361 0.000864 0.000000 -0.001080 0.000000
# 3 -0.002596 0.000864 0.017631 -0.000002 -0.012456 0.000000
# 4 0.000001 0.000000 -0.000002 0.036098 -0.000001 0.001392
# 5 -0.000977 -0.001080 -0.012456 -0.000001 0.038916 0.000001
# 6 0.000000 0.000000 0.000000 0.001392 0.000001 0.035167
#
#
# Mechanical properties :
#
#
# Convention : Reuss Voigt Hill
#
# Bulk Modulus (GPa) = 39.49634 58.12972 48.81303
# Shear Modulus (GPa) = 29.56740 35.05414 32.31077
#
# Velocity S-wave (km/s) = 3.56412 3.88074 3.72580
# Velocity P-wave (km/s) = 5.82288 6.71225 6.28332
#
# Compressibility (1/GPa) = 0.02531880
#
# Stress axis : x y z
#
# Youngs Moduli (GPa) = 83.96764 119.59611 56.71852
#
# Poissons Ratio (x) = 0.54535 0.14723
# Poissons Ratio (y) = 0.38289 -0.04903
# Poissons Ratio (z) = 0.21797 -0.10337
#
# Static dielectric constant tensor:
#      x y z
#    x 1.954740 0.000000 -0.058660 
#    y 0.000000 2.053970 -0.000010 
#    z -0.058660 -0.000010 1.905490 
# 
# From -- ./inp_files/20906.got.cif
#   From: 2010.05.17/outbox.cif.g08.bks.cpg/sg8_11_cif.got.tgz:20906.got - 2010.06.03 19:46:02.
