data_PCOD9133582
_publ_section_title
;
Structure prediction by ZEFSAII (Michael W. Deem and Ramdas Pophale) SiO2 
 PCOD9133582
Probable space group: C M
;
_chemical_formula_sum "Si O2"
_cell_formula_units_Z 28
_cell_length_a 8.961779
_cell_length_b 33.462849
_cell_length_c 5.455309
_cell_angle_alpha 90.000000
_cell_angle_beta 50.911704
_cell_angle_gamma 90.000000
_cell_volume 1269.802777
_symmetry_space_group_name_H-M "C M"
_symmetry_group_IT_number 8
_symmetry_cell_setting 'monoclinic'
loop_
_space_group_symop_operation_xyz
x,y,z
x,-y,z
1/2+x,1/2+y,z
1/2+x,1/2-y,z
loop_
_atom_site_type_symbol
_atom_site_label
_atom_site_fract_x
_atom_site_fract_y
_atom_site_fract_z
Si Si1 0.898940 0.132239 0.255450
Si Si2 0.725725 0.500000 0.491883
Si Si3 0.473502 0.000000 0.734597
Si Si4 0.228958 0.131008 0.260412
Si Si5 0.108227 0.580712 0.806645
Si Si6 0.956753 0.289065 0.060593
Si Si7 0.441693 0.573743 0.822862
Si Si8 0.200379 0.289968 0.302715
O O1 0.720944 0.121591 0.618037
O O2 0.825885 0.169556 0.177323
O O3 0.110826 0.140587 0.136073
O O4 0.911623 0.088131 0.127146
O O5 0.584166 0.537417 0.651730
O O6 0.834696 0.500000 0.118960
O O7 0.865186 0.500000 0.585212
O O8 0.587134 0.958174 0.653899
O O9 0.058151 0.111859 0.595556
O O10 0.393612 0.097275 0.073598
O O11 0.324950 0.171977 0.241914
O O12 0.238621 0.566748 0.900840
O O13 0.060122 0.291591 0.686749
O O14 0.098692 0.287447 0.145190
O O15 0.831320 0.248987 0.195773
#
# Coordination Sequence:
#
# PCOD9133582 Si02
#       8
#     4   2   2   4   4   4   4   4
#     4  11  26  43  73 105 142 185 239 292 351 425
#     4  12  27  47  70 107 140 188 238 292 357 418
#     4  12  27  45  76  99 144 188 238 292 359 420
#     4  11  24  45  71 103 143 185 234 292 353 418
#     4  11  24  47  69 104 138 188 236 289 356 418
#     4  12  27  46  74 103 148 186 237 294 352 422
#     4  11  26  43  74 100 145 185 238 293 353 424
#     4  12  27  47  72 107 144 187 238 290 356 418
#
# _framework density 22.050668999999999
#
# number of rings (size 3 to 8) (size 9 to 14) (size 15 to 20)
#    0.000    0.571    2.857    3.857   10.000    2.857 
#    0.000    0.000    0.000    0.000    0.000    0.000 
#    0.000    0.000    0.000    0.000    0.000    0.000 
#
# Total GULP energy -78142.344104 kJ/mol
# GULP energy per Si atom -5581.596007 kJ/mol
# Density = 2.200048 g / cm^3
# Si number density = 22.050669 Si / 1000 Ang^3
#
#
#
# Elastic Constant Matrix: (Units=GPa)
#
#
# Indices 1 2 3 4 5 6 
#
# 1 148.1142 28.4161 19.2396 0.0000 -6.1591 0.0000
# 2 28.4161 130.1774 14.1442 0.0000 -17.1228 0.0000
# 3 19.2396 14.1442 58.9898 0.0000 -8.6483 0.0000
# 4 0.0000 0.0000 0.0000 35.6755 0.0000 -10.1547
# 5 -6.1591 -17.1228 -8.6483 0.0000 31.7830 0.0000
# 6 0.0000 0.0000 0.0000 -10.1547 0.0000 48.1630
#
#
#
# Elastic Compliance Matrix: (Units=1/GPa)
#
#
# Indices 1 2 3 4 5 6 
#
# 1 0.007280 -0.001351 -0.002031 0.000000 0.000130 0.000000
# 2 -0.001351 0.008629 -0.001026 0.000000 0.004108 0.000000
# 3 -0.002031 -0.001026 0.018458 0.000000 0.004076 0.000000
# 4 0.000000 0.000000 0.000000 0.029820 0.000000 0.006287
# 5 0.000130 0.004108 0.004076 0.000000 0.034811 0.000000
# 6 0.000000 0.000000 0.000000 0.006287 0.000000 0.022088
#
#
# Mechanical properties :
#
#
# Convention : Reuss Voigt Hill
#
# Bulk Modulus (GPa) = 39.13960 51.20902 45.17431
# Shear Modulus (GPa) = 36.12201 41.48973 38.80587
#
# Velocity S-wave (km/s) = 4.05178 4.34241 4.19961
# Velocity P-wave (km/s) = 6.29902 6.95814 6.63677
#
# Compressibility (1/GPa) = 0.02554957
#
# Stress axis : x y z
#
# Youngs Moduli (GPa) = 137.36122 115.89417 54.17642
#
# Poissons Ratio (x) = 0.15661 0.11005
# Poissons Ratio (y) = 0.18562 0.05558
# Poissons Ratio (z) = 0.27903 0.11890
#
# Static dielectric constant tensor:
#      x y z
#    x 1.812140 0.000000 0.066120 
#    y 0.000000 1.781910 0.000000 
#    z 0.066120 0.000000 2.007990 
# 
# From -- ./inp_files/1953.got.cif
#   From: 2010.05.17/outbox.cif.g08.bks.cpg/sg8_1_cif.got.tgz:1953.got - 2010.06.03 19:46:02.
