data_PCOD9133711
_publ_section_title
;
Structure prediction by ZEFSAII (Michael W. Deem and Ramdas Pophale) SiO2 
 PCOD9133711
Probable space group: C M
;
_chemical_formula_sum "Si O2"
_cell_formula_units_Z 16
_cell_length_a 12.000000
_cell_length_b 18.000000
_cell_length_c 15.000000
_cell_angle_alpha 90.000000
_cell_angle_beta 30.000000
_cell_angle_gamma 90.000000
_cell_volume 1620.000000
_symmetry_space_group_name_H-M "C M"
_symmetry_group_IT_number 8
_symmetry_cell_setting 'monoclinic'
loop_
_space_group_symop_operation_xyz
x,y,z
x,-y,z
1/2+x,1/2+y,z
1/2+x,1/2-y,z
loop_
_atom_site_type_symbol
_atom_site_label
_atom_site_fract_x
_atom_site_fract_y
_atom_site_fract_z
Si Si1 0.586630 0.087850 0.372660
Si Si2 0.963052 0.408473 0.896094
Si Si3 0.568253 0.666459 0.051045
Si Si4 0.683920 0.411800 0.539425
Si Si5 0.414129 0.162750 0.124545
Si Si6 0.311764 0.586532 0.929207
Si Si7 0.978455 0.912923 0.484956
Si Si8 0.209333 0.084821 0.786485
O O1 0.827162 0.124623 0.222395
O O2 0.430107 0.115701 0.398161
O O3 0.409983 0.096558 0.577201
O O4 0.630284 0.000000 0.330618
O O5 0.929512 0.500000 0.922221
O O6 0.210247 0.397361 0.677959
O O7 0.748863 0.364822 0.999852
O O8 0.984558 0.372574 0.980110
O O9 0.489096 0.752192 0.091954
O O10 0.701896 0.643156 0.869809
O O11 0.695607 0.500000 0.554688
O O12 0.485374 0.378798 0.737583
O O13 0.589680 0.407774 0.505948
O O14 0.149444 0.142230 0.314729
O O15 0.568482 0.120570 0.090471
O O16 0.279942 0.500000 0.929969
O O17 0.463549 0.590090 0.911975
O O18 0.001576 0.000000 0.439128
O O19 0.233657 0.000000 0.803359
#
# Coordination Sequence:
#
# PCOD9133711 Si02
#       8
#     4   4   4   4   4   4   4   4
#     4   9  19  38  63  94 128 166 216 273 322 383
#     4  11  25  48  70  93 134 184 231 272 321 401
#     4  12  27  41  63  98 137 176 215 266 340 405
#     4   8  15  32  62  95 119 148 204 273 322 362
#     4  12  26  40  62  98 133 170 217 272 338 389
#     4   9  17  36  64  92 121 156 210 271 317 374
#     4  10  21  40  67  95 124 174 233 275 320 392
#     4   9  20  39  67  95 121 164 216 264 321 388
#
# _framework density 9.8765429999999999
#
# number of rings (size 3 to 8) (size 9 to 14) (size 15 to 20)
#    0.000    2.000    1.250    3.750    3.500    2.000 
#    2.250    1.250    0.000    0.000    0.000    0.000 
#    0.000    0.000    0.000    0.000    0.000    0.000 
#
# Total GULP energy -89071.304438 kJ/mol
# GULP energy per Si atom -5566.956527 kJ/mol
# Density = 0.985406 g / cm^3
# Si number density = 9.876543 Si / 1000 Ang^3
#
#
#
# Elastic Constant Matrix: (Units=GPa)
#
#
# Indices 1 2 3 4 5 6 
#
# 1 70.1949 41.8798 38.6652 0.0450 -27.0352 -0.0333
# 2 41.8798 95.1287 36.4403 0.0069 -6.8351 0.0060
# 3 38.6652 36.4403 98.9250 -0.0078 -29.2453 0.0214
# 4 0.0450 0.0069 -0.0078 13.3272 0.0072 5.2702
# 5 -27.0352 -6.8351 -29.2453 0.0072 41.8222 0.0047
# 6 -0.0333 0.0060 0.0214 5.2702 0.0047 14.5058
#
#
#
# Elastic Compliance Matrix: (Units=1/GPa)
#
#
# Indices 1 2 3 4 5 6 
#
# 1 0.026999 -0.009801 -0.002844 -0.000142 0.013862 0.000117
# 2 -0.009801 0.015867 -0.003934 0.000040 -0.006493 -0.000036
# 3 -0.002844 -0.003934 0.015046 0.000033 0.008040 -0.000042
# 4 -0.000142 0.000040 0.000033 0.087624 -0.000074 -0.031836
# 5 0.013862 -0.006493 0.008040 -0.000074 0.037433 0.000037
# 6 0.000117 -0.000036 -0.000042 -0.031836 0.000037 0.080505
#
#
# Mechanical properties :
#
#
# Convention : Reuss Voigt Hill
#
# Bulk Modulus (GPa) = 40.39592 55.35771 47.87682
# Shear Modulus (GPa) = 16.39967 23.74860 20.07413
#
# Velocity S-wave (km/s) = 2.88450 3.47114 3.19133
# Velocity P-wave (km/s) = 5.62038 6.64461 6.15384
#
# Compressibility (1/GPa) = 0.02475498
#
# Stress axis : x y z
#
# Youngs Moduli (GPa) = 37.03800 63.02350 66.46135
#
# Poissons Ratio (x) = 0.61767 0.18905
# Poissons Ratio (y) = 0.36300 0.26144
# Poissons Ratio (z) = 0.10535 0.24792
#
# Static dielectric constant tensor:
#      x y z
#    x 1.757440 0.000020 0.045200 
#    y 0.000020 1.716230 0.000000 
#    z 0.045200 0.000000 1.735520 
# 
# From -- ./inp_files/26264.got.cif
#   From: 2010.05.17/outbox.ucp.g08.bks.cvg/sg8_14_cif.got.tgz:26264.got - 2010.06.11 13:00:03.
