data_PCOD9133721
_publ_section_title
;
Structure prediction by ZEFSAII (Michael W. Deem and Ramdas Pophale) SiO2 
 PCOD9133721
Probable space group: C C
;
_chemical_formula_sum "Si O2"
_cell_formula_units_Z 24
_cell_length_a 6.461967
_cell_length_b 30.091307
_cell_length_c 5.240980
_cell_angle_alpha 90.000000
_cell_angle_beta 82.404179
_cell_angle_gamma 90.000000
_cell_volume 1010.161046
_symmetry_space_group_name_H-M "C C"
_symmetry_group_IT_number 9
_symmetry_cell_setting 'monoclinic'
loop_
_space_group_symop_operation_xyz
x,y,z
x,-y,1/2+z
1/2+x,1/2+y,z
1/2+x,1/2-y,1/2+z
loop_
_atom_site_type_symbol
_atom_site_label
_atom_site_fract_x
_atom_site_fract_y
_atom_site_fract_z
Si Si1 0.176120 0.110331 0.718590
Si Si2 0.260807 0.984507 0.020168
Si Si3 0.199684 0.797335 0.096467
Si Si4 0.399643 0.386606 0.763497
Si Si5 0.279726 0.481096 0.612535
Si Si6 0.933592 0.206386 0.134851
O O1 0.280321 0.063359 0.646998
O O2 0.305281 0.154747 0.630368
O O3 0.990225 0.111149 0.534919
O O4 0.086716 0.111884 0.020134
O O5 0.341642 0.018366 0.220140
O O6 0.019767 0.001023 0.027493
O O7 0.011249 0.799118 0.332276
O O8 0.324112 0.753819 0.157427
O O9 0.116422 0.793719 0.820401
O O10 0.276259 0.431256 0.719415
O O11 0.302823 0.337855 0.729975
O O12 0.196090 0.486085 0.342519
#
# Coordination Sequence:
#
# PCOD9133721 Si02
#       6
#     4   4   4   4   4   4
#     4  10  16  25  39  62  89 126 148 191 240 296
#     4  10  14  20  34  55  89 118 141 177 243 297
#     4  10  21  35  53  73 102 134 171 211 252 296
#     4  10  16  25  39  62  89 126 148 191 240 296
#     4  10  14  20  34  55  89 118 141 177 243 297
#     4  10  21  35  53  73 102 134 171 211 252 296
#
# _framework density 23.758586999999999
#
# number of rings (size 3 to 8) (size 9 to 14) (size 15 to 20)
#    0.000    2.000    6.667    1.000    0.000    0.000 
#    0.000    0.000    0.000    0.000    0.000    0.000 
#    0.000    8.000    0.000    0.000    0.000    0.000 
#
# Total GULP energy -66910.157845 kJ/mol
# GULP energy per Si atom -5575.846487 kJ/mol
# Density = 2.370451 g / cm^3
# Si number density = 23.758587 Si / 1000 Ang^3
#
#
#
# Elastic Constant Matrix: (Units=GPa)
#
#
# Indices 1 2 3 4 5 6 
#
# 1 24.2530 -12.5747 10.9851 0.0000 6.5651 0.0000
# 2 -12.5747 156.2260 -7.9459 0.0000 6.5984 0.0000
# 3 10.9851 -7.9459 132.8423 0.0000 1.6677 0.0000
# 4 0.0000 0.0000 0.0000 39.6549 0.0000 7.0885
# 5 6.5651 6.5984 1.6677 0.0000 20.1376 0.0000
# 6 0.0000 0.0000 0.0000 7.0885 0.0000 22.0031
#
#
#
# Elastic Compliance Matrix: (Units=1/GPa)
#
#
# Indices 1 2 3 4 5 6 
#
# 1 0.049990 0.004578 -0.003640 0.000000 -0.017496 0.000000
# 2 0.004578 0.006933 0.000084 0.000000 -0.003771 0.000000
# 3 -0.003640 0.000084 0.007827 0.000000 0.000511 0.000000
# 4 0.000000 0.000000 0.000000 0.026759 0.000000 -0.008621
# 5 -0.017496 -0.003771 0.000511 0.000000 0.056555 0.000000
# 6 0.000000 0.000000 0.000000 -0.008621 0.000000 0.048225
#
#
# Mechanical properties :
#
#
# Convention : Reuss Voigt Hill
#
# Bulk Modulus (GPa) = 14.97193 32.69449 23.83321
# Shear Modulus (GPa) = 23.09339 37.88291 30.48815
#
# Velocity S-wave (km/s) = 3.12108 3.99744 3.58613
# Velocity P-wave (km/s) = 4.39358 5.92428 5.21539
#
# Compressibility (1/GPa) = 0.06679165
#
# Stress axis : x y z
#
# Youngs Moduli (GPa) = 20.00396 144.23888 127.75746
#
# Poissons Ratio (x) = -0.66025 0.46509
# Poissons Ratio (y) = -0.09157 -0.01067
# Poissons Ratio (z) = 0.07282 -0.01204
#
# Static dielectric constant tensor:
#      x y z
#    x 2.177550 0.000000 -0.042330 
#    y 0.000000 1.996290 0.000000 
#    z -0.042330 0.000000 1.909060 
# 
# From -- ./inp_files/839.got.cif
#   From: 2010.05.17/outbox.cif.g08.bks.cpg/sg9_1_cif.got.tgz:839.got - 2010.06.03 20:04:27.
