data_PCOD9133408
_publ_section_title
;
Structure prediction by ZEFSAII (Michael W. Deem and Ramdas Pophale) SiO2 
 PCOD9133408
Probable space group: C M
;
_chemical_formula_sum "Si O2"
_cell_formula_units_Z 16
_cell_length_a 11.743154
_cell_length_b 10.334073
_cell_length_c 6.296704
_cell_angle_alpha 90.000000
_cell_angle_beta 51.156785
_cell_angle_gamma 90.000000
_cell_volume 595.157377
_symmetry_space_group_name_H-M "C M"
_symmetry_group_IT_number 8
_symmetry_cell_setting 'monoclinic'
loop_
_space_group_symop_operation_xyz
x,y,z
x,-y,z
1/2+x,1/2+y,z
1/2+x,1/2-y,z
loop_
_atom_site_type_symbol
_atom_site_label
_atom_site_fract_x
_atom_site_fract_y
_atom_site_fract_z
Si Si1 0.042710 0.000000 0.210320
Si Si2 0.733878 0.812271 0.919243
Si Si3 0.141375 0.500000 0.656805
Si Si4 0.831618 0.500000 0.156499
Si Si5 0.921276 0.292406 0.402940
Si Si6 0.392112 0.500000 0.010007
O O1 0.177327 0.000000 0.214772
O O2 0.954854 0.863363 0.339828
O O3 0.045516 0.000000 0.949741
O O4 0.591491 0.828696 0.231885
O O5 0.865064 0.879397 0.890381
O O6 0.674907 0.880164 0.774579
O O7 0.810883 0.687981 0.727815
O O8 0.254926 0.500000 0.333163
O O9 0.968203 0.500000 0.834085
O O10 0.856200 0.373180 0.280310
#
# Coordination Sequence:
#
# PCOD9133408 Si02
#       6
#     2   4   2   2   4   2
#     4  12  26  47  80 122 153 217 262 330 402 472
#     4  10  23  45  78 115 157 214 265 324 410 468
#     4   9  19  47  75 106 160 214 261 330 400 459
#     4  10  27  50  82 125 160 204 278 331 402 483
#     4  11  25  52  77 119 162 206 273 332 396 475
#     4  11  22  46  79 111 159 217 263 325 400 492
#
# _framework density 26.883645000000001
#
# number of rings (size 3 to 8) (size 9 to 14) (size 15 to 20)
#    0.000    1.500    2.500    1.500    3.500    3.000 
#   13.500    0.000    0.000    0.000    0.000    0.000 
#    0.000    0.000    0.000    0.000    0.000    0.000 
#
# Total GULP energy -44564.174423 kJ/mol
# GULP energy per Si atom -5570.521803 kJ/mol
# Density = 2.682246 g / cm^3
# Si number density = 26.883645 Si / 1000 Ang^3
#
#
#
# Elastic Constant Matrix: (Units=GPa)
#
#
# Indices 1 2 3 4 5 6 
#
# 1 248.5025 81.4802 46.9866 0.0000 -3.2702 0.0000
# 2 81.4802 131.4227 15.8037 0.0000 16.0665 0.0000
# 3 46.9866 15.8037 89.6057 0.0000 -2.1455 0.0000
# 4 0.0000 0.0000 0.0000 39.5339 0.0000 21.7767
# 5 -3.2702 16.0665 -2.1455 0.0000 33.9264 0.0000
# 6 0.0000 0.0000 0.0000 21.7767 0.0000 89.4104
#
#
#
# Elastic Compliance Matrix: (Units=1/GPa)
#
#
# Indices 1 2 3 4 5 6 
#
# 1 0.005616 -0.003456 -0.002287 0.000000 0.002033 0.000000
# 2 -0.003456 0.010414 -0.000151 0.000000 -0.005275 0.000000
# 3 -0.002287 -0.000151 0.012401 0.000000 0.000635 0.000000
# 4 0.000000 0.000000 0.000000 0.029214 0.000000 -0.007115
# 5 0.002033 -0.005275 0.000635 0.000000 0.032210 0.000000
# 6 0.000000 0.000000 0.000000 -0.007115 0.000000 0.012917
#
#
# Mechanical properties :
#
#
# Convention : Reuss Voigt Hill
#
# Bulk Modulus (GPa) = 60.07922 84.23020 72.15471
# Shear Modulus (GPa) = 41.62913 54.25818 47.94365
#
# Velocity S-wave (km/s) = 3.93936 4.49738 4.22759
# Velocity P-wave (km/s) = 6.56413 7.63989 7.12235
#
# Compressibility (1/GPa) = 0.01664469
#
# Stress axis : x y z
#
# Youngs Moduli (GPa) = 178.05339 96.02062 80.63846
#
# Poissons Ratio (x) = 0.33181 0.18441
# Poissons Ratio (y) = 0.61528 0.01218
# Poissons Ratio (z) = 0.40719 0.01451
#
# Static dielectric constant tensor:
#      x y z
#    x 2.077940 0.000000 -0.086020 
#    y 0.000000 2.261670 0.000000 
#    z -0.086020 0.000000 2.241180 
# 
# From -- ./inp_files/2294.got.cif
#   From: 2010.05.17/outbox.cif.g08.bks.cpg/sg8_2_cif.got.tgz:2294.got - 2010.06.03 19:46:02.
