data_PCOD9133516
_publ_section_title
;
Structure prediction by ZEFSAII (Michael W. Deem and Ramdas Pophale) SiO2 
 PCOD9133516
Probable space group: C M
;
_chemical_formula_sum "Si O2"
_cell_formula_units_Z 28
_cell_length_a 12.594189
_cell_length_b 18.813647
_cell_length_c 4.873517
_cell_angle_alpha 90.000000
_cell_angle_beta 80.010636
_cell_angle_gamma 90.000000
_cell_volume 1137.237965
_symmetry_space_group_name_H-M "C M"
_symmetry_group_IT_number 8
_symmetry_cell_setting 'monoclinic'
loop_
_space_group_symop_operation_xyz
x,y,z
x,-y,z
1/2+x,1/2+y,z
1/2+x,1/2-y,z
loop_
_atom_site_type_symbol
_atom_site_label
_atom_site_fract_x
_atom_site_fract_y
_atom_site_fract_z
Si Si1 0.458930 0.417055 0.678050
Si Si2 0.000974 0.660715 0.750908
Si Si3 0.262829 0.160790 0.892117
Si Si4 0.686676 0.000000 0.022374
Si Si5 0.330623 0.374639 0.204048
Si Si6 0.543418 0.000000 0.583507
Si Si7 0.706459 0.420428 0.411250
Si Si8 0.632591 0.785311 0.191331
O O1 0.449302 0.500000 0.766485
O O2 0.376669 0.399549 0.471665
O O3 0.579036 0.410056 0.510413
O O4 0.430085 0.367929 0.949260
O O5 0.083303 0.667620 0.966944
O O6 0.883413 0.687586 0.890607
O O7 0.991598 0.576831 0.672681
O O8 0.048010 0.706616 0.476761
O O9 0.241630 0.091423 0.085161
O O10 0.167662 0.212604 0.030570
O O11 0.258781 0.139344 0.577465
O O12 0.756321 0.066514 0.089328
O O13 0.577413 0.000000 0.250809
O O14 0.652629 0.000000 0.721450
O O15 0.246409 0.311400 0.266381
O O16 0.735408 0.500000 0.485535
#
# Coordination Sequence:
#
# PCOD9133516 Si02
#       8
#     4   4   4   2   4   2   4   4
#     4  11  22  37  64  99 135 176 228 280 344 415
#     4  12  26  46  74 108 142 193 244 295 362 424
#     4  12  28  50  73 103 143 192 235 304 363 436
#     4  12  20  36  64 101 140 185 224 298 362 402
#     4  12  21  36  64 100 140 183 225 286 350 414
#     4  12  22  40  68 105 144 185 240 310 348 410
#     4  11  26  48  72 103 138 185 247 303 357 423
#     4  12  27  46  70 104 148 184 244 287 356 443
#
# _framework density 24.621054000000001
#
# number of rings (size 3 to 8) (size 9 to 14) (size 15 to 20)
#    0.000    0.286    4.286    4.714    2.000    5.714 
#    0.000    0.000    0.000    0.000    0.000    0.000 
#    0.000    0.000    0.000    0.000    0.000    0.000 
#
# Total GULP energy -78393.736886 kJ/mol
# GULP energy per Si atom -5599.552635 kJ/mol
# Density = 2.456502 g / cm^3
# Si number density = 24.621054 Si / 1000 Ang^3
#
#
#
# Elastic Constant Matrix: (Units=GPa)
#
#
# Indices 1 2 3 4 5 6 
#
# 1 74.6470 27.3083 13.1950 0.0000 -11.7704 0.0000
# 2 27.3083 68.4354 6.2590 0.0000 -13.5545 0.0000
# 3 13.1950 6.2590 98.4086 0.0000 -28.9708 0.0000
# 4 0.0000 0.0000 0.0000 33.5950 0.0000 -6.7274
# 5 -11.7704 -13.5545 -28.9708 0.0000 36.9754 0.0000
# 6 0.0000 0.0000 0.0000 -6.7274 0.0000 9.2195
#
#
#
# Elastic Compliance Matrix: (Units=1/GPa)
#
#
# Indices 1 2 3 4 5 6 
#
# 1 0.016087 -0.005910 -0.001185 0.000000 0.002027 0.000000
# 2 -0.005910 0.017990 0.001346 0.000000 0.005768 0.000000
# 3 -0.001185 0.001346 0.013348 0.000000 0.010575 0.000000
# 4 0.000000 0.000000 0.000000 0.034860 0.000000 0.025437
# 5 0.002027 0.005768 0.010575 0.000000 0.038090 0.000000
# 6 0.000000 0.000000 0.000000 0.025437 0.000000 0.127026
#
#
# Mechanical properties :
#
#
# Convention : Reuss Voigt Hill
#
# Bulk Modulus (GPa) = 27.83228 37.22395 32.52811
# Shear Modulus (GPa) = 18.45875 28.93990 23.69933
#
# Velocity S-wave (km/s) = 2.74106 3.43215 3.10589
# Velocity P-wave (km/s) = 4.62025 5.55498 5.10903
#
# Compressibility (1/GPa) = 0.03592951
#
# Stress axis : x y z
#
# Youngs Moduli (GPa) = 62.16086 55.58677 74.91710
#
# Poissons Ratio (x) = 0.32850 0.08874
# Poissons Ratio (y) = 0.36735 -0.10087
# Poissons Ratio (z) = 0.07363 -0.07484
#
# Static dielectric constant tensor:
#      x y z
#    x 1.951870 0.000000 -0.041350 
#    y 0.000000 2.008730 0.000000 
#    z -0.041350 0.000000 1.890360 
# 
# From -- ./inp_files/2933.got.cif
#   From: 2010.05.17/outbox.cif.g08.bks.cpg/sg8_2_cif.got.tgz:2933.got - 2010.06.03 19:46:02.
