data_PCOD9133883
_publ_section_title
;
Structure prediction by ZEFSAII (Michael W. Deem and Ramdas Pophale) SiO2 
 PCOD9133883
Probable space group: C C
;
_chemical_formula_sum "Si O2"
_cell_formula_units_Z 32
_cell_length_a 8.528745
_cell_length_b 12.048746
_cell_length_c 10.879551
_cell_angle_alpha 90.000000
_cell_angle_beta 90.590771
_cell_angle_gamma 90.000000
_cell_volume 1117.930654
_symmetry_space_group_name_H-M "C C"
_symmetry_group_IT_number 9
_symmetry_cell_setting 'monoclinic'
loop_
_space_group_symop_operation_xyz
x,y,z
x,-y,1/2+z
1/2+x,1/2+y,z
1/2+x,1/2-y,1/2+z
loop_
_atom_site_type_symbol
_atom_site_label
_atom_site_fract_x
_atom_site_fract_y
_atom_site_fract_z
Si Si1 0.218730 0.482406 0.676830
Si Si2 0.386815 0.040023 0.406988
Si Si3 0.031388 0.751142 0.219888
Si Si4 0.555620 0.299874 0.964905
Si Si5 0.774318 0.682433 0.882087
Si Si6 0.473180 0.818250 0.129014
Si Si7 0.229264 0.563202 0.919374
Si Si8 0.202521 0.854826 0.724327
O O1 0.125660 0.365089 0.694474
O O2 0.096917 0.582874 0.654152
O O3 0.314227 0.523596 0.796447
O O4 0.308565 0.465101 0.549071
O O5 0.384344 0.143167 0.502802
O O6 0.320843 0.044716 0.265343
O O7 0.302704 0.930109 0.457951
O O8 0.569579 0.009573 0.405363
O O9 0.097427 0.794331 0.348036
O O10 0.846781 0.732731 0.223896
O O11 0.074966 0.829136 0.106254
O O12 0.370566 0.275088 0.953704
O O13 0.651100 0.185191 0.933018
O O14 0.607723 0.371626 0.851858
O O15 0.863675 0.686628 0.749626
O O16 0.574187 0.702757 0.134606
#
# Coordination Sequence:
#
# PCOD9133883 Si02
#       8
#     4   4   4   4   4   4   4   4
#     4  10  17  35  58  85 116 160 208 247 297 370
#     4  10  19  34  60  84 113 160 207 247 296 372
#     4  11  22  35  61  94 122 152 207 267 305 351
#     4   9  20  38  57  85 122 163 200 249 304 372
#     4  10  20  39  59  84 120 159 204 245 306 368
#     4  10  20  37  62  83 116 164 204 238 305 379
#     4   9  16  32  58  81 113 154 205 242 287 367
#     4  11  20  36  61  88 120 152 209 255 306 357
#
# _framework density 28.624316
#
# number of rings (size 3 to 8) (size 9 to 14) (size 15 to 20)
#    0.000    2.000    5.000    1.500    0.000    1.000 
#    0.000    2.500    0.000    9.000    0.000    0.000 
#    0.000    0.000    0.000    0.000    0.000    0.000 
#
# Total GULP energy -89224.345850 kJ/mol
# GULP energy per Si atom -5576.521616 kJ/mol
# Density = 2.855917 g / cm^3
# Si number density = 28.624316 Si / 1000 Ang^3
#
#
#
# Elastic Constant Matrix: (Units=GPa)
#
#
# Indices 1 2 3 4 5 6 
#
# 1 77.1965 35.2402 35.7091 0.0000 13.5209 0.0000
# 2 35.2402 58.7407 11.5138 0.0000 16.0927 0.0000
# 3 35.7091 11.5138 135.4244 0.0000 23.3474 0.0000
# 4 0.0000 0.0000 0.0000 30.8049 0.0000 14.8152
# 5 13.5209 16.0927 23.3474 0.0000 32.6444 0.0000
# 6 0.0000 0.0000 0.0000 14.8152 0.0000 49.1506
#
#
#
# Elastic Compliance Matrix: (Units=1/GPa)
#
#
# Indices 1 2 3 4 5 6 
#
# 1 0.020074 -0.011289 -0.004402 0.000000 0.000399 0.000000
# 2 -0.011289 0.026031 0.002475 0.000000 -0.009927 0.000000
# 3 -0.004402 0.002475 0.009388 0.000000 -0.006111 0.000000
# 4 0.000000 0.000000 0.000000 0.037966 0.000000 -0.011444
# 5 0.000399 -0.009927 -0.006111 0.000000 0.039732 0.000000
# 6 0.000000 0.000000 0.000000 -0.011444 0.000000 0.023795
#
#
# Mechanical properties :
#
#
# Convention : Reuss Voigt Hill
#
# Bulk Modulus (GPa) = 34.41138 48.47642 41.44390
# Shear Modulus (GPa) = 25.89241 35.11321 30.50281
#
# Velocity S-wave (km/s) = 3.01085 3.50622 3.26793
# Velocity P-wave (km/s) = 4.91272 5.77612 5.36183
#
# Compressibility (1/GPa) = 0.02906015
#
# Stress axis : x y z
#
# Youngs Moduli (GPa) = 49.81576 38.41529 106.51747
#
# Poissons Ratio (x) = 0.43369 0.46891
# Poissons Ratio (y) = 0.56239 -0.26364
# Poissons Ratio (z) = 0.21930 -0.09508
#
# Static dielectric constant tensor:
#      x y z
#    x 2.296740 0.000000 0.015600 
#    y 0.000000 2.370940 0.000000 
#    z 0.015600 0.000000 2.397980 
# 
# From -- ./inp_files/14642.got.cif
#   From: 2010.05.17/outbox.cif.g08.bks.cpg/sg9_8_cif.got.tgz:14642.got - 2010.06.03 20:04:27.
