data_PCOD9133786
_publ_section_title
;
Structure prediction by ZEFSAII (Michael W. Deem and Ramdas Pophale) SiO2 
 PCOD9133786
Probable space group: C C
;
_chemical_formula_sum "Si O2"
_cell_formula_units_Z 32
_cell_length_a 11.010219
_cell_length_b 21.279529
_cell_length_c 7.987514
_cell_angle_alpha 90.000000
_cell_angle_beta 43.706299
_cell_angle_gamma 90.000000
_cell_volume 1293.074938
_symmetry_space_group_name_H-M "C C"
_symmetry_group_IT_number 9
_symmetry_cell_setting 'monoclinic'
loop_
_space_group_symop_operation_xyz
x,y,z
x,-y,1/2+z
1/2+x,1/2+y,z
1/2+x,1/2-y,1/2+z
loop_
_atom_site_type_symbol
_atom_site_label
_atom_site_fract_x
_atom_site_fract_y
_atom_site_fract_z
Si Si1 0.974650 0.345290 0.853770
Si Si2 0.522232 0.839085 0.429798
Si Si3 0.484316 0.646673 0.116505
Si Si4 0.132041 0.729319 0.498065
Si Si5 0.303919 0.427254 0.042430
Si Si6 0.767514 0.546550 0.200313
Si Si7 0.616924 0.964547 0.891846
Si Si8 0.622116 0.577889 0.679588
O O1 0.997815 0.317873 0.644833
O O2 0.081189 0.409236 0.794872
O O3 0.780541 0.373301 0.049349
O O4 0.024616 0.295599 0.944620
O O5 0.539120 0.789049 0.265546
O O6 0.369785 0.890513 0.540330
O O7 0.711181 0.873989 0.243378
O O8 0.313912 0.691161 0.305815
O O9 0.641755 0.695820 0.977637
O O10 0.476849 0.597662 0.277672
O O11 0.482349 0.608796 0.944280
O O12 0.173212 0.435956 0.012005
O O13 0.273418 0.490954 0.171866
O O14 0.620964 0.569003 0.481305
O O15 0.679040 0.491473 0.181979
O O16 0.940592 0.506621 0.096358
#
# Coordination Sequence:
#
# PCOD9133786 Si02
#       8
#     4   4   4   4   4   4   4   4
#     4  10  19  37  69  95 119 163 203 254 303 373
#     4   9  18  36  63  99 116 157 210 248 304 367
#     4  11  24  42  61  88 119 170 209 259 312 362
#     4  11  23  44  67  82 126 163 216 260 303 364
#     4  10  19  33  58  91 128 157 201 242 305 371
#     4   9  18  33  61  94 126 155 196 245 304 381
#     4  10  16  32  61  97 124 159 192 247 304 373
#     4  10  21  35  60  92 130 160 203 243 315 369
#
# _framework density 24.747212000000001
#
# number of rings (size 3 to 8) (size 9 to 14) (size 15 to 20)
#    0.000    2.000    2.500    4.500    1.750    1.000 
#    0.000    7.500    0.000    0.000    0.000    0.000 
#    0.000    0.000    0.000    0.000    0.000    0.000 
#
# Total GULP energy -89371.649307 kJ/mol
# GULP energy per Si atom -5585.728082 kJ/mol
# Density = 2.469089 g / cm^3
# Si number density = 24.747212 Si / 1000 Ang^3
#
#
#
# Elastic Constant Matrix: (Units=GPa)
#
#
# Indices 1 2 3 4 5 6 
#
# 1 43.6663 3.8957 29.1400 0.0000 12.4249 0.0000
# 2 3.8957 74.7479 51.6839 0.0000 17.9747 0.0000
# 3 29.1400 51.6839 155.8276 0.0000 23.8709 0.0000
# 4 0.0000 0.0000 0.0000 42.2950 0.0000 1.8756
# 5 12.4249 17.9747 23.8709 0.0000 38.3011 0.0000
# 6 0.0000 0.0000 0.0000 1.8756 0.0000 35.9735
#
#
#
# Elastic Compliance Matrix: (Units=1/GPa)
#
#
# Indices 1 2 3 4 5 6 
#
# 1 0.028414 0.004198 -0.005519 0.000000 -0.007748 0.000000
# 2 0.004198 0.018907 -0.006067 0.000000 -0.006453 0.000000
# 3 -0.005519 -0.006067 0.009675 0.000000 -0.001392 0.000000
# 4 0.000000 0.000000 0.000000 0.023698 0.000000 -0.001236
# 5 -0.007748 -0.006453 -0.001392 0.000000 0.032519 0.000000
# 6 0.000000 0.000000 0.000000 -0.001236 0.000000 0.027863
#
#
# Mechanical properties :
#
#
# Convention : Reuss Voigt Hill
#
# Bulk Modulus (GPa) = 23.68553 49.29790 36.49172
# Shear Modulus (GPa) = 29.42482 35.94874 32.68678
#
# Velocity S-wave (km/s) = 3.45195 3.81548 3.63826
# Velocity P-wave (km/s) = 5.04774 6.27490 5.69448
#
# Compressibility (1/GPa) = 0.04221986
#
# Stress axis : x y z
#
# Youngs Moduli (GPa) = 35.19372 52.89166 103.35846
#
# Poissons Ratio (x) = -0.22206 0.57044
# Poissons Ratio (y) = -0.14776 0.62711
# Poissons Ratio (z) = 0.19424 0.32091
#
# Static dielectric constant tensor:
#      x y z
#    x 1.998880 0.000000 -0.062820 
#    y 0.000000 1.925610 0.000000 
#    z -0.062820 0.000000 2.052490 
# 
# From -- ./inp_files/10019.got.cif
#   From: 2010.05.17/outbox.cif.g08.bks.cpg/sg9_6_cif.got.tgz:10019.got - 2010.06.03 20:04:27.
