data_PCOD9133488
_publ_section_title
;
Structure prediction by ZEFSAII (Michael W. Deem and Ramdas Pophale) SiO2 
 PCOD9133488
Probable space group: C M
;
_chemical_formula_sum "Si O2"
_cell_formula_units_Z 32
_cell_length_a 14.488941
_cell_length_b 7.596084
_cell_length_c 22.088783
_cell_angle_alpha 90.000000
_cell_angle_beta 149.304383
_cell_angle_gamma 90.000000
_cell_volume 1241.007738
_symmetry_space_group_name_H-M "C M"
_symmetry_group_IT_number 8
_symmetry_cell_setting 'monoclinic'
loop_
_space_group_symop_operation_xyz
x,y,z
x,-y,z
1/2+x,1/2+y,z
1/2+x,1/2-y,z
loop_
_atom_site_type_symbol
_atom_site_label
_atom_site_fract_x
_atom_site_fract_y
_atom_site_fract_z
Si Si1 0.718760 0.714476 0.852750
Si Si2 0.729697 0.700642 0.109656
Si Si3 0.151476 0.785524 0.616757
Si Si4 0.849148 0.197085 0.366054
Si Si5 0.458792 0.211097 0.868965
Si Si6 0.521084 0.197084 0.103451
Si Si7 0.911446 0.788902 0.600542
Si Si8 0.640527 0.299353 0.359846
O O1 0.716083 0.500000 0.856111
O O2 0.835942 0.758821 0.858556
O O3 0.518580 0.776264 0.720107
O O4 0.828772 0.778997 0.973847
O O5 0.700553 0.500000 0.111218
O O6 0.616273 0.817399 0.091736
O O7 0.935114 0.749987 0.234754
O O8 0.654735 0.723630 0.999672
O O9 0.351657 0.723737 0.749400
O O10 0.041461 0.721003 0.495658
O O11 0.034295 0.741174 0.610952
O O12 0.154151 0.000000 0.613396
O O13 0.685116 0.281597 0.234753
O O14 0.753959 0.182605 0.377770
O O15 0.879632 0.000000 0.357420
O O16 0.463917 0.000000 0.868448
O O17 0.490598 0.000000 0.112086
O O18 0.715502 0.723629 0.469837
O O19 0.906323 0.000000 0.601059
O O20 0.669644 0.500000 0.358269
#
# Coordination Sequence:
#
# PCOD9133488 Si02
#       8
#     4   4   4   4   4   4   4   4
#     4   7  11  22  43  68  91 117 148 184 226 270
#     4  11  21  32  47  68  95 124 157 195 234 275
#     4   7  11  22  43  68  91 117 148 184 226 270
#     4   9  17  31  51  73  97 125 155 186 226 278
#     4   8  13  25  44  65  90 118 151 188 228 272
#     4   9  17  31  51  73  97 125 155 186 226 278
#     4   8  13  25  44  65  90 118 151 188 228 272
#     4  11  21  32  47  68  95 124 157 195 234 275
#
# _framework density 25.785496999999999
#
# number of rings (size 3 to 8) (size 9 to 14) (size 15 to 20)
#    0.000    3.250    0.000    5.250    0.000    0.500 
#    0.000   10.000    0.000    1.500    0.000    0.000 
#    0.000    0.000    0.000    0.000    0.000    0.000 
#
# Total GULP energy -89169.612480 kJ/mol
# GULP energy per Si atom -5573.100780 kJ/mol
# Density = 2.572681 g / cm^3
# Si number density = 25.785497 Si / 1000 Ang^3
#
#
#
# Elastic Constant Matrix: (Units=GPa)
#
#
# Indices 1 2 3 4 5 6 
#
# 1 71.0234 -2.7105 10.4487 0.0000 -18.4331 0.0000
# 2 -2.7105 97.7852 16.0128 0.0000 -2.5716 0.0000
# 3 10.4487 16.0128 340.6328 0.0006 -50.2173 0.0001
# 4 0.0000 0.0000 0.0006 5.3707 0.0001 0.8331
# 5 -18.4331 -2.5716 -50.2173 0.0001 26.0655 0.0000
# 6 0.0000 0.0000 0.0001 0.8331 0.0000 3.3506
#
#
#
# Elastic Compliance Matrix: (Units=1/GPa)
#
#
# Indices 1 2 3 4 5 6 
#
# 1 0.018085 0.000632 0.001830 -0.000001 0.016378 0.000000
# 2 0.000632 0.010328 -0.000403 0.000000 0.000689 0.000000
# 3 0.001830 -0.000403 0.004307 -0.000001 0.009551 0.000000
# 4 -0.000001 0.000000 -0.000001 0.193665 -0.000002 -0.048155
# 5 0.016378 0.000689 0.009551 -0.000002 0.068417 0.000000
# 6 0.000000 0.000000 0.000000 -0.048155 0.000000 0.310424
#
#
# Mechanical properties :
#
#
# Convention : Reuss Voigt Hill
#
# Bulk Modulus (GPa) = 27.14566 61.88257 44.51411
# Shear Modulus (GPa) = 8.15145 39.33673 23.74409
#
# Velocity S-wave (km/s) = 1.77992 3.91005 3.03781
# Velocity P-wave (km/s) = 3.84376 6.66601 5.44106
#
# Compressibility (1/GPa) = 0.03683830
#
# Stress axis : x y z
#
# Youngs Moduli (GPa) = 55.29322 96.82232 232.19908
#
# Poissons Ratio (x) = -0.06123 -0.42492
# Poissons Ratio (y) = -0.03497 0.09365
# Poissons Ratio (z) = -0.10119 0.03905
#
# Static dielectric constant tensor:
#      x y z
#    x 2.269790 0.000000 -0.008310 
#    y 0.000000 1.994050 0.000000 
#    z -0.008310 0.000000 2.251130 
# 
# From -- ./inp_files/24319.got.cif
#   From: 2010.05.17/outbox.cif.g08.bks.cpg/sg8_13_cif.got.tgz:24319.got - 2010.06.03 19:46:02.
