data_PCOD9133593
_publ_section_title
;
Structure prediction by ZEFSAII (Michael W. Deem and Ramdas Pophale) SiO2 
 PCOD9133593
Probable space group: C M
;
_chemical_formula_sum "Si O2"
_cell_formula_units_Z 30
_cell_length_a 8.398375
_cell_length_b 27.504147
_cell_length_c 5.145006
_cell_angle_alpha 90.000000
_cell_angle_beta 97.168699
_cell_angle_gamma 90.000000
_cell_volume 1179.155607
_symmetry_space_group_name_H-M "C M"
_symmetry_group_IT_number 8
_symmetry_cell_setting 'monoclinic'
loop_
_space_group_symop_operation_xyz
x,y,z
x,-y,z
1/2+x,1/2+y,z
1/2+x,1/2-y,z
loop_
_atom_site_type_symbol
_atom_site_label
_atom_site_fract_x
_atom_site_fract_y
_atom_site_fract_z
Si Si1 0.211980 0.428930 0.859220
Si Si2 0.504679 0.312612 0.547045
Si Si3 0.522842 0.428758 0.598514
Si Si4 0.869630 0.411519 0.692612
Si Si5 0.231619 0.326340 0.113998
Si Si6 0.354215 0.500000 0.232360
Si Si7 0.409323 0.154186 0.211739
Si Si8 0.280876 0.759366 0.836047
O O1 0.369348 0.447236 0.734853
O O2 0.237044 0.372686 0.930815
O O3 0.041714 0.437127 0.687546
O O4 0.221640 0.458009 0.127648
O O5 0.512110 0.370130 0.611693
O O6 0.401974 0.277116 0.713190
O O7 0.680509 0.289709 0.604514
O O8 0.405533 0.313350 0.259930
O O9 0.705666 0.440612 0.704770
O O10 0.485174 0.456277 0.323747
O O11 0.842231 0.375458 0.441903
O O12 0.897605 0.381021 0.960583
O O13 0.166892 0.279929 0.950908
O O14 0.098883 0.336960 0.306478
O O15 0.334509 0.203385 0.074886
#
# Coordination Sequence:
#
# PCOD9133593 Si02
#       8
#     4   4   4   4   4   2   4   4
#     4  11  26  52  77 117 154 211 271 345 413 489
#     4  12  26  45  71 110 160 211 271 323 403 481
#     4  12  26  52  82 116 156 221 263 346 406 493
#     4  11  28  49  83 112 161 204 266 329 413 479
#     4  11  25  42  76 101 155 213 268 331 404 476
#     4  12  28  50  86 120 158 208 284 342 424 478
#     4  11  26  48  71 116 154 208 264 327 388 485
#     4  12  26  41  70 112 152 213 265 325 391 492
#
# _framework density 25.441935000000001
#
# number of rings (size 3 to 8) (size 9 to 14) (size 15 to 20)
#    0.000    0.533    5.333    1.200    9.333    1.600 
#    0.000    1.333    0.000    0.000    0.000    0.000 
#    0.000    0.000    0.000    0.000    0.000    0.000 
#
# Total GULP energy -83541.115184 kJ/mol
# GULP energy per Si atom -5569.407679 kJ/mol
# Density = 2.538403 g / cm^3
# Si number density = 25.441935 Si / 1000 Ang^3
#
#
#
# Elastic Constant Matrix: (Units=GPa)
#
#
# Indices 1 2 3 4 5 6 
#
# 1 143.0626 54.3789 44.1606 0.0000 11.5968 0.0000
# 2 54.3789 140.3478 25.4308 0.0000 30.4782 0.0000
# 3 44.1606 25.4308 93.3545 0.0000 18.7667 0.0000
# 4 0.0000 0.0000 0.0000 -46.8442 0.0000 -2.2761
# 5 11.5968 30.4782 18.7667 0.0000 38.7418 0.0000
# 6 0.0000 0.0000 0.0000 -2.2761 0.0000 -22.2220
#
#
#
# Elastic Compliance Matrix: (Units=1/GPa)
#
#
# Indices 1 2 3 4 5 6 
#
# 1 0.009278 -0.003257 -0.003831 0.000000 0.001641 0.000000
# 2 -0.003257 0.009837 0.000244 0.000000 -0.006883 0.000000
# 3 -0.003831 0.000244 0.013589 0.000000 -0.005628 0.000000
# 4 0.000000 0.000000 0.000000 -0.021454 0.000000 0.002197
# 5 0.001641 -0.006883 -0.005628 0.000000 0.033461 0.000000
# 6 0.000000 0.000000 0.000000 0.002197 0.000000 -0.045226
#
#
# Mechanical properties :
#
#
# Convention : Reuss Voigt Hill
#
# Bulk Modulus (GPa) = 52.58611 69.41173 60.99892
# Shear Modulus (GPa) = 256.25309 10.78810 133.52060
#
# Velocity S-wave (km/s) = 10.04686 2.06143 7.25220
# Velocity P-wave (km/s) = 12.46193 5.74523 9.70328
#
# Compressibility (1/GPa) = 0.01901643
#
# Stress axis : x y z
#
# Youngs Moduli (GPa) = 107.78754 101.65318 73.58867
#
# Poissons Ratio (x) = 0.33106 0.28194
# Poissons Ratio (y) = 0.35104 -0.01798
# Poissons Ratio (z) = 0.41297 -0.02484
#
# Static dielectric constant tensor:
#      x y z
#    x 2.158180 0.000000 -0.066600 
#    y 0.000000 1.979930 0.000000 
#    z -0.066600 0.000000 2.128040 
# 
# From -- ./inp_files/2011.got.cif
#   From: 2010.05.17/outbox.cif.g08.bks.cpg/sg8_2_cif.got.tgz:2011.got - 2010.06.03 19:46:02.
