data_PCOD9133505
_publ_section_title
;
Structure prediction by ZEFSAII (Michael W. Deem and Ramdas Pophale) SiO2 
 PCOD9133505
Probable space group: C M
;
_chemical_formula_sum "Si O2"
_cell_formula_units_Z 32
_cell_length_a 16.642553
_cell_length_b 15.090167
_cell_length_c 12.088854
_cell_angle_alpha 90.000000
_cell_angle_beta 152.843574
_cell_angle_gamma 90.000000
_cell_volume 1385.686902
_symmetry_space_group_name_H-M "C M"
_symmetry_group_IT_number 8
_symmetry_cell_setting 'monoclinic'
loop_
_space_group_symop_operation_xyz
x,y,z
x,-y,z
1/2+x,1/2+y,z
1/2+x,1/2-y,z
loop_
_atom_site_type_symbol
_atom_site_label
_atom_site_fract_x
_atom_site_fract_y
_atom_site_fract_z
Si Si1 0.504960 0.600036 0.605120
Si Si2 0.970054 0.702337 0.886306
Si Si3 0.125984 0.395909 0.733050
Si Si4 0.940226 0.852527 0.279070
Si Si5 0.149799 0.327307 0.524066
Si Si6 0.725802 0.402391 0.453045
Si Si7 0.299775 0.769303 0.372656
Si Si8 0.407876 0.897763 0.039655
O O1 0.481674 0.500000 0.620875
O O2 0.436865 0.603010 0.394752
O O3 0.399010 0.679881 0.532674
O O4 0.713201 0.621417 0.850409
O O5 0.947602 0.662042 0.981899
O O6 0.164862 0.739453 0.112821
O O7 0.826301 0.779345 0.699479
O O8 0.915213 0.625365 0.734535
O O9 0.101427 0.500000 0.721536
O O10 0.189514 0.379516 0.685132
O O11 0.946501 0.340699 0.522010
O O12 0.266065 0.359436 0.992747
O O13 0.014376 0.753240 0.384582
O O14 0.091269 0.898962 0.389876
O O15 0.053943 0.383101 0.312127
O O16 0.723863 0.500000 0.401128
O O17 0.681824 0.322514 0.316683
O O18 0.404853 0.000000 0.000095
#
# Coordination Sequence:
#
# PCOD9133505 Si02
#       8
#     4   4   4   4   4   4   4   4
#     4  11  23  43  71 102 133 176 228 285 337 395
#     4  11  23  41  66  94 132 179 224 274 332 394
#     4  12  25  42  66  98 136 179 225 275 335 404
#     4  11  22  43  73  99 131 172 236 285 328 386
#     4  11  21  41  68 100 131 176 219 275 336 398
#     4  11  23  42  70 100 132 174 226 282 333 391
#     4  12  26  42  59 101 142 177 210 277 344 401
#     4  11  22  42  69  98 129 169 228 281 329 397
#
# _framework density 23.093239000000001
#
# number of rings (size 3 to 8) (size 9 to 14) (size 15 to 20)
#    0.000    0.750    3.750    6.000    1.750    2.000 
#    0.000    1.875    0.000    0.750    0.000    0.000 
#    0.000    0.000    0.000    0.000    0.000    0.000 
#
# Total GULP energy -89555.218046 kJ/mol
# GULP energy per Si atom -5597.201128 kJ/mol
# Density = 2.304068 g / cm^3
# Si number density = 23.093239 Si / 1000 Ang^3
#
#
#
# Elastic Constant Matrix: (Units=GPa)
#
#
# Indices 1 2 3 4 5 6 
#
# 1 57.6869 21.1364 9.9709 0.0000 -5.5574 0.0000
# 2 21.1364 137.1077 31.5339 0.0000 13.9832 0.0000
# 3 9.9709 31.5339 136.5145 0.0000 7.7731 0.0000
# 4 0.0000 0.0000 0.0000 24.1700 0.0000 -10.5144
# 5 -5.5574 13.9832 7.7731 0.0000 28.3813 0.0000
# 6 0.0000 0.0000 0.0000 -10.5144 0.0000 22.9738
#
#
#
# Elastic Compliance Matrix: (Units=1/GPa)
#
#
# Indices 1 2 3 4 5 6 
#
# 1 0.019267 -0.003328 -0.000962 0.000000 0.005676 0.000000
# 2 -0.003328 0.008606 -0.001490 0.000000 -0.004484 0.000000
# 3 -0.000962 -0.001490 0.007831 0.000000 -0.001599 0.000000
# 4 0.000000 0.000000 0.000000 0.051659 0.000000 0.023643
# 5 0.005676 -0.004484 -0.001599 0.000000 0.038993 0.000000
# 6 0.000000 0.000000 0.000000 0.023643 0.000000 0.054349
#
#
# Mechanical properties :
#
#
# Convention : Reuss Voigt Hill
#
# Bulk Modulus (GPa) = 41.41496 50.73237 46.07367
# Shear Modulus (GPa) = 24.96109 33.01620 28.98865
#
# Velocity S-wave (km/s) = 3.29125 3.78523 3.54685
# Velocity P-wave (km/s) = 5.69349 6.41250 6.06366
#
# Compressibility (1/GPa) = 0.02414586
#
# Stress axis : x y z
#
# Youngs Moduli (GPa) = 51.90144 116.19149 127.70377
#
# Poissons Ratio (x) = 0.38667 0.12282
# Poissons Ratio (y) = 0.17272 0.19023
# Poissons Ratio (z) = 0.04991 0.17308
#
# Static dielectric constant tensor:
#      x y z
#    x 1.924340 0.000000 0.016640 
#    y 0.000000 1.860740 0.000000 
#    z 0.016640 0.000000 1.851940 
# 
# From -- ./inp_files/27991.got.cif
#   From: 2010.05.17/outbox.cif.g08.bks.cpg/sg8_14_cif.got.tgz:27991.got - 2010.06.03 19:46:02.
