data_PCOD9133612
_publ_section_title
;
Structure prediction by ZEFSAII (Michael W. Deem and Ramdas Pophale) SiO2 
 PCOD9133612
Probable space group: C M
;
_chemical_formula_sum "Si O2"
_cell_formula_units_Z 28
_cell_length_a 12.049832
_cell_length_b 23.455821
_cell_length_c 4.967491
_cell_angle_alpha 90.000000
_cell_angle_beta 98.383471
_cell_angle_gamma 90.000000
_cell_volume 1389.002621
_symmetry_space_group_name_H-M "C M"
_symmetry_group_IT_number 8
_symmetry_cell_setting 'monoclinic'
loop_
_space_group_symop_operation_xyz
x,y,z
x,-y,z
1/2+x,1/2+y,z
1/2+x,1/2-y,z
loop_
_atom_site_type_symbol
_atom_site_label
_atom_site_fract_x
_atom_site_fract_y
_atom_site_fract_z
Si Si1 0.480460 0.333131 0.659760
Si Si2 0.102698 0.878612 0.194613
Si Si3 0.633861 0.167513 0.200372
Si Si4 0.536548 0.500000 0.338003
Si Si5 0.769838 0.281002 0.329505
Si Si6 0.745250 0.118778 0.715613
Si Si7 0.872008 0.000000 0.783090
Si Si8 0.925546 0.279418 0.893308
O O1 0.523389 0.345412 0.379035
O O2 0.348430 0.343390 0.640430
O O3 0.500312 0.270252 0.783058
O O4 0.543426 0.375875 0.884680
O O5 0.214061 0.840707 0.222940
O O6 0.107052 0.942886 0.304485
O O7 0.676972 0.230939 0.297599
O O8 0.644551 0.129927 0.472298
O O9 0.712676 0.140134 0.999271
O O10 0.511584 0.172947 0.025240
O O11 0.472044 0.500000 0.598963
O O12 0.433501 0.500000 0.090773
O O13 0.831977 0.291582 0.634327
O O14 0.859870 0.261409 0.138816
O O15 0.794133 0.055438 0.729690
#
# Coordination Sequence:
#
# PCOD9133612 Si02
#       8
#     4   4   4   2   4   4   2   4
#     4  12  21  37  63  93 124 162 200 248 301 391
#     4  12  24  38  62  93 130 161 202 249 316 372
#     4  12  24  39  63  90 127 166 203 252 310 365
#     4  12  22  40  62  95 124 165 198 260 314 368
#     4  12  24  39  61  91 124 167 201 252 308 366
#     4  12  23  40  60  95 127 162 201 250 314 372
#     4  12  24  38  66  91 128 161 204 254 320 362
#     4  12  25  39  61  90 128 161 206 248 306 371
#
# _framework density 20.158349000000001
#
# number of rings (size 3 to 8) (size 9 to 14) (size 15 to 20)
#    0.000    0.000    7.143    4.286    2.000    0.000 
#    0.000    0.000    0.000    5.143    0.000    0.000 
#    0.000    0.000    0.000    0.000    0.000    0.000 
#
# Total GULP energy -78300.736089 kJ/mol
# GULP energy per Si atom -5592.909721 kJ/mol
# Density = 2.011247 g / cm^3
# Si number density = 20.158349 Si / 1000 Ang^3
#
#
#
# Elastic Constant Matrix: (Units=GPa)
#
#
# Indices 1 2 3 4 5 6 
#
# 1 29.5460 11.6373 11.5922 0.0000 1.1772 0.0000
# 2 11.6373 103.6690 8.7681 0.0000 8.2383 0.0000
# 3 11.5922 8.7681 111.7023 0.0000 9.1053 0.0000
# 4 0.0000 0.0000 0.0000 22.7339 0.0000 1.3640
# 5 1.1772 8.2383 9.1053 0.0000 28.4983 0.0000
# 6 0.0000 0.0000 0.0000 1.3640 0.0000 30.1076
#
#
#
# Elastic Compliance Matrix: (Units=1/GPa)
#
#
# Indices 1 2 3 4 5 6 
#
# 1 0.036745 -0.003882 -0.003569 0.000000 0.000745 0.000000
# 2 -0.003882 0.010317 -0.000182 0.000000 -0.002764 0.000000
# 3 -0.003569 -0.000182 0.009570 0.000000 -0.002858 0.000000
# 4 0.000000 0.000000 0.000000 0.044107 0.000000 -0.001998
# 5 0.000745 -0.002764 -0.002858 0.000000 0.036771 0.000000
# 6 0.000000 0.000000 0.000000 -0.001998 0.000000 0.033305
#
#
# Mechanical properties :
#
#
# Convention : Reuss Voigt Hill
#
# Bulk Modulus (GPa) = 24.17444 34.32362 29.24903
# Shear Modulus (GPa) = 25.01625 30.46259 27.73942
#
# Velocity S-wave (km/s) = 3.52659 3.89159 3.71357
# Velocity P-wave (km/s) = 5.34796 6.10382 5.73835
#
# Compressibility (1/GPa) = 0.04136601
#
# Stress axis : x y z
#
# Youngs Moduli (GPa) = 27.21431 96.92848 104.49331
#
# Poissons Ratio (x) = 0.37629 0.37297
# Poissons Ratio (y) = 0.10565 0.01898
# Poissons Ratio (z) = 0.09714 0.01761
#
# Static dielectric constant tensor:
#      x y z
#    x 1.715460 0.000000 0.019850 
#    y 0.000000 1.742900 0.000000 
#    z 0.019850 0.000000 1.724340 
# 
# From -- ./inp_files/2966.got.cif
#   From: 2010.05.17/outbox.cif.g08.bks.cpg/sg8_2_cif.got.tgz:2966.got - 2010.06.03 19:46:02.
