data_PCOD9133536
_publ_section_title
;
Structure prediction by ZEFSAII (Michael W. Deem and Ramdas Pophale) SiO2 
 PCOD9133536
Probable space group: C M
;
_chemical_formula_sum "Si O2"
_cell_formula_units_Z 24
_cell_length_a 13.190479
_cell_length_b 15.561468
_cell_length_c 9.154757
_cell_angle_alpha 90.000000
_cell_angle_beta 32.912550
_cell_angle_gamma 90.000000
_cell_volume 1021.043616
_symmetry_space_group_name_H-M "C M"
_symmetry_group_IT_number 8
_symmetry_cell_setting 'monoclinic'
loop_
_space_group_symop_operation_xyz
x,y,z
x,-y,z
1/2+x,1/2+y,z
1/2+x,1/2-y,z
loop_
_atom_site_type_symbol
_atom_site_label
_atom_site_fract_x
_atom_site_fract_y
_atom_site_fract_z
Si Si1 0.955470 0.239093 0.389770
Si Si2 0.071880 0.632569 0.461270
Si Si3 0.962732 0.133040 0.895511
Si Si4 0.562526 0.171696 0.800813
Si Si5 0.344355 0.096434 0.321357
Si Si6 0.648413 0.408159 0.981413
O O1 0.755323 0.194348 0.648481
O O2 0.917888 0.324197 0.333826
O O3 0.034183 0.271691 0.446877
O O4 0.091352 0.172587 0.147415
O O5 0.116358 0.633289 0.578798
O O6 0.870055 0.590898 0.689702
O O7 0.250237 0.601433 0.153751
O O8 0.962896 0.236646 0.896181
O O9 0.119089 0.103774 0.592391
O O10 0.050409 0.104105 0.944193
O O11 0.434286 0.112434 0.054952
O O12 0.391793 0.000000 0.316026
O O13 0.590036 0.500000 0.116119
#
# Coordination Sequence:
#
# PCOD9133536 Si02
#       6
#     4   4   4   4   4   4
#     4  11  23  47  72 108 144 193 242 303 357 434
#     4  12  24  43  79 103 144 193 249 289 368 432
#     4  11  22  44  71 103 141 191 238 295 359 425
#     4  11  22  44  72 108 141 195 239 298 364 429
#     4  11  23  43  71 104 151 190 236 304 358 422
#     4  12  25  43  70 108 147 186 245 305 353 426
#
# _framework density 23.505362999999999
#
# number of rings (size 3 to 8) (size 9 to 14) (size 15 to 20)
#    0.000    0.667    6.667    2.500    0.000    2.667 
#    0.000    0.000    0.000    1.000    0.000    0.000 
#    0.000    0.000    0.000    0.000    0.000    0.000 
#
# Total GULP energy -67125.929294 kJ/mol
# GULP energy per Si atom -5593.827441 kJ/mol
# Density = 2.345186 g / cm^3
# Si number density = 23.505363 Si / 1000 Ang^3
#
#
#
# Elastic Constant Matrix: (Units=GPa)
#
#
# Indices 1 2 3 4 5 6 
#
# 1 47.9031 -2.2534 42.1069 -0.0005 -14.5901 -0.0003
# 2 -2.2534 135.8866 54.3067 0.0005 -5.0522 -0.0001
# 3 42.1069 54.3067 179.5094 -0.0006 -17.2998 0.0003
# 4 -0.0005 0.0005 -0.0006 -0.5465 0.0001 -2.3202
# 5 -14.5901 -5.0522 -17.2998 0.0001 40.5588 -0.0001
# 6 -0.0003 -0.0001 0.0003 -2.3202 -0.0001 -23.5364
#
#
#
# Elastic Compliance Matrix: (Units=1/GPa)
#
#
# Indices 1 2 3 4 5 6 
#
# 1 0.030026 0.003756 -0.007397 -0.000021 0.008114 0.000001
# 2 0.003756 0.008841 -0.003462 0.000017 0.000976 -0.000002
# 3 -0.007397 -0.003462 0.008400 -0.000011 0.000491 0.000001
# 4 -0.000021 0.000017 -0.000011 -3.147178 0.000001 0.310249
# 5 0.008114 0.000976 0.000491 0.000001 0.027905 0.000000
# 6 0.000001 -0.000002 0.000001 0.310249 0.000000 -0.073072
#
#
# Mechanical properties :
#
#
# Convention : Reuss Voigt Hill
#
# Bulk Modulus (GPa) = 30.24711 61.29104 45.76908
# Shear Modulus (GPa) = -1.60264 21.23780 9.81758
#
# Velocity S-wave (km/s) = -0.82662 3.00914 2.04592
# Velocity P-wave (km/s) = 3.46194 6.18103 5.00950
#
# Compressibility (1/GPa) = 0.03306101
#
# Stress axis : x y z
#
# Youngs Moduli (GPa) = 33.30490 113.10838 119.04115
#
# Poissons Ratio (x) = -0.42482 0.88059
# Poissons Ratio (y) = -0.12509 0.41208
# Poissons Ratio (z) = 0.24637 0.39154
#
# Static dielectric constant tensor:
#      x y z
#    x 1.888440 0.000000 -0.002330 
#    y 0.000000 1.893390 0.000000 
#    z -0.002330 0.000000 1.888560 
# 
# From -- ./inp_files/13534.got.cif
#   From: 2010.05.17/outbox.cif.g08.bks.cpg/sg8_7_cif.got.tgz:13534.got - 2010.06.03 19:46:02.
