data_PCOD9133851
_publ_section_title
;
Structure prediction by ZEFSAII (Michael W. Deem and Ramdas Pophale) SiO2 
 PCOD9133851
Probable space group: C C
;
_chemical_formula_sum "Si O2"
_cell_formula_units_Z 32
_cell_length_a 23.101496
_cell_length_b 7.634966
_cell_length_c 8.011139
_cell_angle_alpha 90.000000
_cell_angle_beta 112.647726
_cell_angle_gamma 90.000000
_cell_volume 1304.041221
_symmetry_space_group_name_H-M "C C"
_symmetry_group_IT_number 9
_symmetry_cell_setting 'monoclinic'
loop_
_space_group_symop_operation_xyz
x,y,z
x,-y,1/2+z
1/2+x,1/2+y,z
1/2+x,1/2-y,1/2+z
loop_
_atom_site_type_symbol
_atom_site_label
_atom_site_fract_x
_atom_site_fract_y
_atom_site_fract_z
Si Si1 0.638120 0.772022 0.987830
Si Si2 0.260571 0.859840 0.501087
Si Si3 0.996274 0.281447 0.807929
Si Si4 0.915533 0.189350 0.419598
Si Si5 0.962038 0.679602 0.656354
Si Si6 0.694334 0.118322 0.865070
Si Si7 0.282637 0.424320 0.754938
Si Si8 0.841772 0.441282 0.881083
O O1 0.690766 0.633977 0.990242
O O2 0.567913 0.729683 0.856998
O O3 0.656967 0.954446 0.910920
O O4 0.641724 0.788071 0.194151
O O5 0.269956 0.683173 0.408939
O O6 0.321801 0.865485 0.684349
O O7 0.275631 0.013986 0.390197
O O8 0.950112 0.172506 0.635374
O O9 0.986162 0.485974 0.738660
O O10 0.984867 0.272299 0.995387
O O11 0.966066 0.201279 0.326213
O O12 0.856728 0.062656 0.315916
O O13 0.880339 0.379412 0.392211
O O14 0.886791 0.673576 0.541775
O O15 0.744330 0.094826 0.765661
O O16 0.741834 0.170765 0.066714
#
# Coordination Sequence:
#
# PCOD9133851 Si02
#       8
#     4   4   4   4   4   4   4   4
#     4  10  21  35  52  78 112 151 179 221 265 339
#     4  10  20  31  55  80 113 146 173 228 280 333
#     4  11  20  33  50  81 115 144 181 215 279 337
#     4  10  20  33  55  83 113 138 176 235 280 338
#     4  11  18  30  53  81 109 146 166 233 288 320
#     4   9  19  36  54  75 110 144 185 225 268 325
#     4   9  19  35  52  83 105 142 184 226 285 325
#     4  10  17  33  51  83 113 133 176 227 287 327
#
# _framework density 24.539102
#
# number of rings (size 3 to 8) (size 9 to 14) (size 15 to 20)
#    0.000    2.000    3.750    2.250    1.750    0.000 
#    4.500    0.000    0.000    1.500    0.000    0.000 
#    0.000    0.000    0.000    0.000    0.000    0.000 
#
# Total GULP energy -89213.057075 kJ/mol
# GULP energy per Si atom -5575.816067 kJ/mol
# Density = 2.448325 g / cm^3
# Si number density = 24.539102 Si / 1000 Ang^3
#
#
#
# Elastic Constant Matrix: (Units=GPa)
#
#
# Indices 1 2 3 4 5 6 
#
# 1 115.5206 3.4275 54.8443 0.0000 7.8627 0.0000
# 2 3.4275 27.2532 5.4268 0.0000 2.2735 0.0000
# 3 54.8443 5.4268 141.6913 0.0000 7.0709 0.0000
# 4 0.0000 0.0000 0.0000 24.9696 0.0000 -2.4899
# 5 7.8627 2.2735 7.0709 0.0000 48.2436 0.0000
# 6 0.0000 0.0000 0.0000 -2.4899 0.0000 27.9430
#
#
#
# Elastic Compliance Matrix: (Units=1/GPa)
#
#
# Indices 1 2 3 4 5 6 
#
# 1 0.010673 -0.000440 -0.004058 0.000000 -0.001124 0.000000
# 2 -0.000440 0.037108 -0.001176 0.000000 -0.001505 0.000000
# 3 -0.004058 -0.001176 0.008701 0.000000 -0.000559 0.000000
# 4 0.000000 0.000000 0.000000 0.040408 0.000000 0.003601
# 5 -0.001124 -0.001505 -0.000559 0.000000 0.021064 0.000000
# 6 0.000000 0.000000 0.000000 0.003601 0.000000 0.036108
#
#
# Mechanical properties :
#
#
# Convention : Reuss Voigt Hill
#
# Bulk Modulus (GPa) = 22.15654 45.76250 33.95952
# Shear Modulus (GPa) = 27.70783 34.94902 31.32842
#
# Velocity S-wave (km/s) = 3.36390 3.77797 3.57693
# Velocity P-wave (km/s) = 4.91288 6.14167 5.56132
#
# Compressibility (1/GPa) = 0.04513341
#
# Stress axis : x y z
#
# Youngs Moduli (GPa) = 93.69760 26.94844 114.92588
#
# Poissons Ratio (x) = 0.01187 0.46638
# Poissons Ratio (y) = 0.04126 0.13512
# Poissons Ratio (z) = 0.38023 0.03168
#
# Static dielectric constant tensor:
#      x y z
#    x 1.991270 0.000000 -0.060330 
#    y 0.000000 2.154000 0.000000 
#    z -0.060330 0.000000 1.997400 
# 
# From -- ./inp_files/10654.got.cif
#   From: 2010.05.17/outbox.cif.g08.bks.cpg/sg9_6_cif.got.tgz:10654.got - 2010.06.03 20:04:27.
