data_PCOD9133889
_publ_section_title
;
Structure prediction by ZEFSAII (Michael W. Deem and Ramdas Pophale) SiO2 
 PCOD9133889
Probable space group: C C
;
_chemical_formula_sum "Si O2"
_cell_formula_units_Z 32
_cell_length_a 12.229171
_cell_length_b 17.389562
_cell_length_c 9.118086
_cell_angle_alpha 90.000000
_cell_angle_beta 124.157618
_cell_angle_gamma 90.000000
_cell_volume 1604.557606
_symmetry_space_group_name_H-M "C C"
_symmetry_group_IT_number 9
_symmetry_cell_setting 'monoclinic'
loop_
_space_group_symop_operation_xyz
x,y,z
x,-y,1/2+z
1/2+x,1/2+y,z
1/2+x,1/2-y,1/2+z
loop_
_atom_site_type_symbol
_atom_site_label
_atom_site_fract_x
_atom_site_fract_y
_atom_site_fract_z
Si Si1 0.294110 0.134117 0.973250
Si Si2 0.201025 0.613032 0.259095
Si Si3 0.503873 0.585828 0.462590
Si Si4 0.493957 0.956959 0.411774
Si Si5 0.690848 0.276063 0.128582
Si Si6 0.997412 0.365270 0.855305
Si Si7 0.380537 0.131635 0.563148
Si Si8 0.646523 0.505755 0.330197
O O1 0.384572 0.082412 0.932990
O O2 0.231802 0.197190 0.822659
O O3 0.193072 0.070239 0.955610
O O4 0.386255 0.169332 0.165399
O O5 0.352451 0.591210 0.393318
O O6 0.179233 0.685532 0.133612
O O7 0.131189 0.634511 0.360964
O O8 0.123414 0.547261 0.110685
O O9 0.561880 0.672542 0.500309
O O10 0.526651 0.547415 0.322060
O O11 0.594730 0.534422 0.641517
O O12 0.479898 0.910857 0.249728
O O13 0.467066 0.044156 0.350352
O O14 0.800277 0.304803 0.095261
O O15 0.967334 0.335425 0.994997
O O16 0.266314 0.069123 0.426305
#
# Coordination Sequence:
#
# PCOD9133889 Si02
#       8
#     4   4   4   4   4   4   4   4
#     4   9  17  33  63  85 113 142 198 251 277 347
#     4  11  25  38  58  83 129 161 187 232 304 374
#     4  10  23  36  61  83 120 154 193 240 293 361
#     4  10  19  34  60  89 115 149 192 247 295 335
#     4   9  22  40  61  82 110 166 197 230 298 350
#     4  11  19  34  62  91 111 144 196 255 295 327
#     4  10  18  35  65  89 112 141 210 255 274 343
#     4  10  17  36  58  90 110 149 193 248 288 325
#
# _framework density 19.943190999999999
#
# number of rings (size 3 to 8) (size 9 to 14) (size 15 to 20)
#    0.000    2.000    2.500    2.250    7.000    0.000 
#    0.000    1.250    5.500    0.000    0.000    0.000 
#    0.000    0.000    0.000    0.000    0.000    0.000 
#
# Total GULP energy -89125.087247 kJ/mol
# GULP energy per Si atom -5570.317953 kJ/mol
# Density = 1.989780 g / cm^3
# Si number density = 19.943191 Si / 1000 Ang^3
#
#
#
# Elastic Constant Matrix: (Units=GPa)
#
#
# Indices 1 2 3 4 5 6 
#
# 1 107.1501 -5.7563 32.5825 0.0000 -9.9607 0.0000
# 2 -5.7563 17.2933 2.9688 0.0000 -12.4075 0.0000
# 3 32.5825 2.9688 55.5205 0.0000 0.0862 0.0000
# 4 0.0000 0.0000 0.0000 11.6220 0.0000 -3.6843
# 5 -9.9607 -12.4075 0.0862 0.0000 28.4540 0.0000
# 6 0.0000 0.0000 0.0000 -3.6843 0.0000 8.5168
#
#
#
# Elastic Compliance Matrix: (Units=1/GPa)
#
#
# Indices 1 2 3 4 5 6 
#
# 1 0.013794 0.013966 -0.008859 0.000000 0.010946 0.000000
# 2 0.013966 0.099462 -0.013589 0.000000 0.048301 0.000000
# 3 -0.008859 -0.013589 0.023951 0.000000 -0.009100 0.000000
# 4 0.000000 0.000000 0.000000 0.099718 0.000000 0.043137
# 5 0.010946 0.048301 -0.009100 0.000000 0.060065 0.000000
# 6 0.000000 0.000000 0.000000 0.043137 0.000000 0.136075
#
#
# Mechanical properties :
#
#
# Convention : Reuss Voigt Hill
#
# Bulk Modulus (GPa) = 8.31657 26.61712 17.46685
# Shear Modulus (GPa) = 10.20175 19.72983 14.96579
#
# Velocity S-wave (km/s) = 2.26418 3.14873 2.74235
# Velocity P-wave (km/s) = 3.31881 5.15701 4.33643
#
# Compressibility (1/GPa) = 0.12024188
#
# Stress axis : x y z
#
# Youngs Moduli (GPa) = 72.49345 10.05409 41.75166
#
# Poissons Ratio (x) = -0.14041 0.36988
# Poissons Ratio (y) = -1.01242 0.56738
# Poissons Ratio (z) = 0.64222 0.13663
#
# Static dielectric constant tensor:
#      x y z
#    x 1.739670 0.000000 -0.002670 
#    y 0.000000 1.704820 0.000000 
#    z -0.002670 0.000000 1.739280 
# 
# From -- ./inp_files/7881.got.cif
#   From: 2010.05.17/outbox.cif.g08.bks.cpg/sg9_4_cif.got.tgz:7881.got - 2010.06.03 20:04:27.
