data_PCOD9133243
_publ_section_title
;
Structure prediction by ZEFSAII (Michael W. Deem and Ramdas Pophale) SiO2 
 PCOD9133243
Probable space group: C M
;
_chemical_formula_sum "Si O2"
_cell_formula_units_Z 28
_cell_length_a 13.917618
_cell_length_b 13.638033
_cell_length_c 13.708649
_cell_angle_alpha 90.000000
_cell_angle_beta 32.522497
_cell_angle_gamma 90.000000
_cell_volume 1398.928067
_symmetry_space_group_name_H-M "C M"
_symmetry_group_IT_number 8
_symmetry_cell_setting 'monoclinic'
loop_
_space_group_symop_operation_xyz
x,y,z
x,-y,z
1/2+x,1/2+y,z
1/2+x,1/2-y,z
loop_
_atom_site_type_symbol
_atom_site_label
_atom_site_fract_x
_atom_site_fract_y
_atom_site_fract_z
Si Si1 0.248610 0.383493 0.542040
Si Si2 0.713662 0.790545 0.917215
Si Si3 0.567496 0.611956 0.939688
Si Si4 0.444448 0.755929 0.894185
Si Si5 0.986460 0.806466 0.511030
Si Si6 0.690119 0.110730 0.367966
Si Si7 0.856654 0.613934 0.153018
O O1 0.240447 0.500000 0.567915
O O2 0.399186 0.337940 0.483257
O O3 0.268409 0.369297 0.409319
O O4 0.066727 0.329107 0.727401
O O5 0.674800 0.676282 0.926054
O O6 0.804231 0.796073 0.944124
O O7 0.846253 0.826328 0.717773
O O8 0.527645 0.847519 0.066282
O O9 0.625563 0.500000 0.882239
O O10 0.569455 0.675098 0.839241
O O11 0.359769 0.613693 0.151027
O O12 0.357366 0.820489 0.054417
O O13 0.046501 0.692920 0.464318
O O14 0.170816 0.865526 0.365946
O O15 0.616566 0.000000 0.431258
O O16 0.876272 0.500000 0.113190
#
# Coordination Sequence:
#
# PCOD9133243 Si02
#       7
#     4   4   4   4   4   4   4
#     4  11  23  40  66  98 127 163 214 265 315 375
#     4  11  24  41  66  93 129 167 210 266 311 378
#     4  10  22  42  62  91 126 165 209 259 317 373
#     4  11  22  41  65  92 128 167 203 267 314 373
#     4  12  22  42  65  95 131 167 208 263 321 372
#     4  10  22  41  65  92 126 165 213 265 313 373
#     4  11  25  43  65  95 129 168 213 263 319 376
#
# _framework density 20.015325000000001
#
# number of rings (size 3 to 8) (size 9 to 14) (size 15 to 20)
#    0.000    1.143    7.143    0.857    2.000    2.857 
#    0.000    0.000    0.000    0.857    0.000    0.000 
#    0.000    0.000    0.000    0.000    0.000    0.000 
#
# Total GULP energy -78223.644939 kJ/mol
# GULP energy per Si atom -5587.403210 kJ/mol
# Density = 1.996977 g / cm^3
# Si number density = 20.015325 Si / 1000 Ang^3
#
#
#
# Elastic Constant Matrix: (Units=GPa)
#
#
# Indices 1 2 3 4 5 6 
#
# 1 68.2954 5.9519 17.3233 -0.0002 0.3511 0.0002
# 2 5.9519 80.3463 22.4671 -0.0004 17.6433 0.0002
# 3 17.3233 22.4671 54.8965 0.0002 -26.2631 0.0001
# 4 -0.0002 -0.0004 0.0002 18.8547 0.0002 -0.2370
# 5 0.3511 17.6433 -26.2631 0.0002 17.5618 -0.0002
# 6 0.0002 0.0002 0.0001 -0.2370 -0.0002 21.5977
#
#
#
# Elastic Compliance Matrix: (Units=1/GPa)
#
#
# Indices 1 2 3 4 5 6 
#
# 1 0.013181 -0.007342 0.007900 0.000000 0.018927 0.000000
# 2 -0.007342 -0.007002 0.030287 -0.000001 0.052474 0.000001
# 3 0.007900 0.030287 -0.039729 0.000002 -0.089999 -0.000001
# 4 0.000000 -0.000001 0.000002 0.053045 0.000004 0.000582
# 5 0.018927 0.052474 -0.089999 0.000004 -0.130745 -0.000002
# 6 0.000000 0.000001 -0.000001 0.000582 -0.000002 0.046308
#
#
# Mechanical properties :
#
#
# Convention : Reuss Voigt Hill
#
# Bulk Modulus (GPa) = 35.53524 32.78032 34.15778
# Shear Modulus (GPa) = -42.64271 22.12255 -10.26008
#
# Velocity S-wave (km/s) = -4.62074 3.32818 -2.26655
# Velocity P-wave (km/s) = 3.26739 5.58411 3.20206
#
# Compressibility (1/GPa) = 0.02814108
#
# Stress axis : x y z
#
# Youngs Moduli (GPa) = 75.86769 -142.81728 -25.17070
#
# Poissons Ratio (x) = -1.04855 0.19886
# Poissons Ratio (y) = 0.55701 0.76234
# Poissons Ratio (z) = -0.59939 4.32549
#
# Static dielectric constant tensor:
#      x y z
#    x 1.682200 0.000000 -0.000690 
#    y 0.000000 1.707020 0.000000 
#    z -0.000690 0.000000 1.724000 
# 
# From -- ./inp_files/26907.got.cif
#   From: 2010.05.17/outbox.cif.g08.bks.cpg/sg8_14_cif.got.tgz:26907.got - 2010.06.03 19:46:02.
