data_PCOD9133590
_publ_section_title
;
Structure prediction by ZEFSAII (Michael W. Deem and Ramdas Pophale) SiO2 
 PCOD9133590
Probable space group: C M
;
_chemical_formula_sum "Si O2"
_cell_formula_units_Z 20
_cell_length_a 7.555261
_cell_length_b 26.877078
_cell_length_c 6.873685
_cell_angle_alpha 90.000000
_cell_angle_beta 40.211549
_cell_angle_gamma 90.000000
_cell_volume 901.140473
_symmetry_space_group_name_H-M "C M"
_symmetry_group_IT_number 8
_symmetry_cell_setting 'monoclinic'
loop_
_space_group_symop_operation_xyz
x,y,z
x,-y,z
1/2+x,1/2+y,z
1/2+x,1/2-y,z
loop_
_atom_site_type_symbol
_atom_site_label
_atom_site_fract_x
_atom_site_fract_y
_atom_site_fract_z
Si Si1 0.340480 0.500000 0.921860
Si Si2 0.934392 0.500000 0.629454
Si Si3 0.486616 0.297050 0.821064
Si Si4 0.130374 0.857040 0.363484
Si Si5 0.982943 0.766151 0.244755
Si Si6 0.625842 0.920918 0.788821
O O1 0.273252 0.454431 0.831082
O O2 0.639588 0.500000 0.770378
O O3 0.141063 0.500000 0.274642
O O4 0.994249 0.453786 0.726137
O O5 0.581555 0.346582 0.632834
O O6 0.184817 0.278685 0.016128
O O7 0.457306 0.299667 0.075931
O O8 0.709003 0.255121 0.571950
O O9 0.860570 0.884689 0.511800
O O10 0.135724 0.801821 0.268710
O O11 0.390827 0.888886 0.089111
#
# Coordination Sequence:
#
# PCOD9133590 Si02
#       6
#     2   2   4   4   4   4
#     4  11  24  47  76  98 140 177 218 277 357 427
#     4  11  24  47  76  98 140 177 218 277 357 427
#     4  12  23  41  64  91 129 182 231 276 334 388
#     4  12  24  41  68  98 144 172 236 287 328 404
#     4  12  23  41  64  91 129 182 231 276 334 388
#     4  11  26  44  68 108 136 176 224 288 346 407
#
# _framework density 22.194098
#
# number of rings (size 3 to 8) (size 9 to 14) (size 15 to 20)
#    0.000    0.400    4.000    4.800    0.000    8.000 
#    0.000    0.000    0.000    0.000    0.000    0.000 
#    0.000    0.000    0.000    0.000    0.000    0.000 
#
# Total GULP energy -55896.426370 kJ/mol
# GULP energy per Si atom -5589.642637 kJ/mol
# Density = 2.214358 g / cm^3
# Si number density = 22.194098 Si / 1000 Ang^3
#
#
#
# Elastic Constant Matrix: (Units=GPa)
#
#
# Indices 1 2 3 4 5 6 
#
# 1 132.5619 8.9868 46.1584 0.0000 2.2362 0.0000
# 2 8.9868 44.7142 35.3568 0.0000 1.0675 0.0000
# 3 46.1584 35.3568 136.6349 0.0000 -20.2458 0.0000
# 4 0.0000 0.0000 0.0000 28.4162 0.0000 -6.6025
# 5 2.2362 1.0675 -20.2458 0.0000 45.9427 0.0000
# 6 0.0000 0.0000 0.0000 -6.6025 0.0000 9.7651
#
#
#
# Elastic Compliance Matrix: (Units=1/GPa)
#
#
# Indices 1 2 3 4 5 6 
#
# 1 0.008732 0.001082 -0.003527 0.000000 -0.002004 0.000000
# 2 0.001082 0.029003 -0.008536 0.000000 -0.004488 0.000000
# 3 -0.003527 -0.008536 0.011526 0.000000 0.005449 0.000000
# 4 0.000000 0.000000 0.000000 0.041750 0.000000 0.028229
# 5 -0.002004 -0.004488 0.005449 0.000000 0.024369 0.000000
# 6 0.000000 0.000000 0.000000 0.028229 0.000000 0.121492
#
#
# Mechanical properties :
#
#
# Convention : Reuss Voigt Hill
#
# Bulk Modulus (GPa) = 36.62951 54.99056 45.81004
# Shear Modulus (GPa) = 18.66126 31.71872 25.18999
#
# Velocity S-wave (km/s) = 2.90284 3.78451 3.37261
# Velocity P-wave (km/s) = 5.27023 6.62779 5.98761
#
# Compressibility (1/GPa) = 0.02730039
#
# Stress axis : x y z
#
# Youngs Moduli (GPa) = 114.51903 34.47879 86.75747
#
# Poissons Ratio (x) = -0.03729 0.30598
# Poissons Ratio (y) = -0.12386 0.74052
# Poissons Ratio (z) = 0.40388 0.29429
#
# Static dielectric constant tensor:
#      x y z
#    x 1.917340 0.000000 -0.004420 
#    y 0.000000 1.842880 0.000000 
#    z -0.004420 0.000000 1.763490 
# 
# From -- ./inp_files/9283.got.cif
#   From: 2010.05.17/outbox.cif.g08.bks.cpg/sg8_5_cif.got.tgz:9283.got - 2010.06.03 19:46:02.
