data_PCOD9133143
_publ_section_title
;
Structure prediction by ZEFSAII (Michael W. Deem and Ramdas Pophale) SiO2 
 PCOD9133143
Probable space group: C M
;
_chemical_formula_sum "Si O2"
_cell_formula_units_Z 28
_cell_length_a 8.167061
_cell_length_b 29.865734
_cell_length_c 7.317665
_cell_angle_alpha 90.000000
_cell_angle_beta 122.112828
_cell_angle_gamma 90.000000
_cell_volume 1511.807258
_symmetry_space_group_name_H-M "C M"
_symmetry_group_IT_number 8
_symmetry_cell_setting 'monoclinic'
loop_
_space_group_symop_operation_xyz
x,y,z
x,-y,z
1/2+x,1/2+y,z
1/2+x,1/2-y,z
loop_
_atom_site_type_symbol
_atom_site_label
_atom_site_fract_x
_atom_site_fract_y
_atom_site_fract_z
Si Si1 0.343740 0.740052 0.014740
Si Si2 0.547154 0.050819 0.353383
Si Si3 0.440941 0.903105 0.948022
Si Si4 0.164238 0.088134 0.081203
Si Si5 0.738585 0.052610 0.850774
Si Si6 0.244918 0.811051 0.258065
Si Si7 0.437226 0.193393 0.768431
O O1 0.344470 0.778337 0.170208
O O2 0.534280 0.710907 0.153017
O O3 0.334191 0.766619 0.817530
O O4 0.160163 0.707867 0.911075
O O5 0.322106 0.057204 0.277272
O O6 0.680845 0.058285 0.604942
O O7 0.573336 0.000000 0.299610
O O8 0.570203 0.087184 0.206445
O O9 0.559201 0.928945 0.862466
O O10 0.415716 0.852972 0.863718
O O11 0.232966 0.918759 0.908921
O O12 0.215919 0.139046 0.164077
O O13 0.944917 0.076726 0.997433
O O14 0.762301 0.000000 0.902722
O O15 0.357757 0.811526 0.516644
#
# Coordination Sequence:
#
# PCOD9133143 Si02
#       7
#     4   4   4   4   4   4   4
#     4  10  22  38  59  88 114 155 198 241 290 347
#     4   9  20  40  60  86 120 153 199 247 290 352
#     4  10  22  40  60  88 122 154 196 248 293 353
#     4  10  22  40  60  88 122 152 198 249 291 353
#     4  11  22  40  64  86 118 162 197 243 304 350
#     4  11  21  39  59  86 119 152 197 242 292 350
#     4  11  21  39  60  84 119 156 193 242 296 345
#
# _framework density 18.520879999999998
#
# number of rings (size 3 to 8) (size 9 to 14) (size 15 to 20)
#    0.857    0.857    1.429    3.429    0.000    0.000 
#    7.714    1.429    0.000    0.000    0.000    0.000 
#    0.000    0.000    0.000    0.000    0.000    0.000 
#
# Total GULP energy -77945.575397 kJ/mol
# GULP energy per Si atom -5567.541100 kJ/mol
# Density = 1.847873 g / cm^3
# Si number density = 18.520880 Si / 1000 Ang^3
#
#
#
# Elastic Constant Matrix: (Units=GPa)
#
#
# Indices 1 2 3 4 5 6 
#
# 1 41.6189 11.2290 7.5963 0.0000 -13.9060 0.0000
# 2 11.2290 51.9119 23.7241 0.0000 3.2042 0.0000
# 3 7.5963 23.7241 75.3349 0.0000 -2.7449 0.0000
# 4 0.0000 0.0000 0.0000 23.5037 0.0000 -5.6198
# 5 -13.9060 3.2042 -2.7449 0.0000 17.2180 0.0000
# 6 0.0000 0.0000 0.0000 -5.6198 0.0000 9.2648
#
#
#
# Elastic Compliance Matrix: (Units=1/GPa)
#
#
# Indices 1 2 3 4 5 6 
#
# 1 0.037528 -0.010425 0.000678 0.000000 0.032357 0.000000
# 2 -0.010425 0.025898 -0.007631 0.000000 -0.014455 0.000000
# 3 0.000678 -0.007631 0.015772 0.000000 0.004482 0.000000
# 4 0.000000 0.000000 0.000000 0.049764 0.000000 0.030186
# 5 0.032357 -0.014455 0.004482 0.000000 0.087617 0.000000
# 6 0.000000 0.000000 0.000000 0.030186 0.000000 0.126245
#
#
# Mechanical properties :
#
#
# Convention : Reuss Voigt Hill
#
# Bulk Modulus (GPa) = 22.50118 28.21827 25.35972
# Shear Modulus (GPa) = 12.74228 18.41839 15.58033
#
# Velocity S-wave (km/s) = 2.62581 3.15694 2.90354
# Velocity P-wave (km/s) = 4.62262 5.34391 4.99630
#
# Compressibility (1/GPa) = 0.04444212
#
# Stress axis : x y z
#
# Youngs Moduli (GPa) = 26.64679 38.61287 63.40263
#
# Poissons Ratio (x) = 0.40252 -0.04297
# Poissons Ratio (y) = 0.27778 0.48384
# Poissons Ratio (z) = -0.01806 0.29466
#
# Static dielectric constant tensor:
#      x y z
#    x 1.663860 0.000000 -0.035270 
#    y 0.000000 1.633090 0.000000 
#    z -0.035270 0.000000 1.629940 
# 
# From -- ./inp_files/1902.got.cif
#   From: 2010.05.17/outbox.cif.g08.bks.cpg/sg8_1_cif.got.tgz:1902.got - 2010.06.03 19:46:02.
