data_PCOD9133557
_publ_section_title
;
Structure prediction by ZEFSAII (Michael W. Deem and Ramdas Pophale) SiO2 
 PCOD9133557
Probable space group: C M
;
_chemical_formula_sum "Si O2"
_cell_formula_units_Z 24
_cell_length_a 8.332455
_cell_length_b 15.473097
_cell_length_c 13.206948
_cell_angle_alpha 90.000000
_cell_angle_beta 34.473369
_cell_angle_gamma 90.000000
_cell_volume 963.799876
_symmetry_space_group_name_H-M "C M"
_symmetry_group_IT_number 8
_symmetry_cell_setting 'monoclinic'
loop_
_space_group_symop_operation_xyz
x,y,z
x,-y,z
1/2+x,1/2+y,z
1/2+x,1/2-y,z
loop_
_atom_site_type_symbol
_atom_site_label
_atom_site_fract_x
_atom_site_fract_y
_atom_site_fract_z
Si Si1 0.948120 0.183341 0.395640
Si Si2 0.013377 0.680126 0.214219
Si Si3 0.427592 0.500000 0.369885
Si Si4 0.779474 0.500000 0.986275
Si Si5 0.184602 0.170397 0.900393
Si Si6 0.837564 0.000000 0.839045
Si Si7 0.615388 0.315204 0.712326
Si Si8 0.465256 0.000000 0.234342
O O1 0.926764 0.226997 0.298940
O O2 0.812020 0.254266 0.540737
O O3 0.286313 0.170983 0.241055
O O4 0.799385 0.090519 0.470534
O O5 0.946876 0.588437 0.305312
O O6 0.348616 0.677624 0.058469
O O7 0.705680 0.500000 0.293944
O O8 0.526175 0.500000 0.201703
O O9 0.757731 0.585619 0.927723
O O10 0.069634 0.500000 0.901656
O O11 0.333364 0.254622 0.871107
O O12 0.270788 0.172564 0.737848
O O13 0.009032 0.910382 0.734375
O O14 0.728240 0.000000 0.015218
#
# Coordination Sequence:
#
# PCOD9133557 Si02
#       8
#     4   4   2   2   4   2   4   2
#     4  11  26  46  71 107 148 197 239 307 376 446
#     4  11  23  43  71 104 144 192 248 300 364 439
#     4   9  24  44  73 105 146 189 250 301 371 438
#     4  11  26  44  79 116 146 193 257 320 365 436
#     4  12  25  44  73 113 145 197 249 305 369 443
#     4  11  23  45  72 110 150 195 247 312 375 438
#     4  12  26  46  73 108 157 194 244 307 380 449
#     4   9  19  41  68 103 142 187 242 309 353 432
#
# _framework density 24.901434999999999
#
# number of rings (size 3 to 8) (size 9 to 14) (size 15 to 20)
#    0.000    1.000    1.667    4.000    9.333    1.333 
#    0.000    6.667    0.000    0.000    0.000    0.000 
#    0.000    0.000    0.000    0.000    0.000    0.000 
#
# Total GULP energy -66871.406518 kJ/mol
# GULP energy per Si atom -5572.617210 kJ/mol
# Density = 2.484476 g / cm^3
# Si number density = 24.901435 Si / 1000 Ang^3
#
#
#
# Elastic Constant Matrix: (Units=GPa)
#
#
# Indices 1 2 3 4 5 6 
#
# 1 135.3845 82.6736 25.1861 0.0024 -9.9773 -0.0004
# 2 82.6736 247.9738 59.8269 -0.0022 -12.3644 -0.0122
# 3 25.1861 59.8269 42.4424 0.0185 -10.1732 -0.0453
# 4 0.0024 -0.0022 0.0185 36.0055 -0.0099 -2.4930
# 5 -9.9773 -12.3644 -10.1732 -0.0099 22.2657 0.0178
# 6 -0.0004 -0.0122 -0.0453 -2.4930 0.0178 46.4400
#
#
#
# Elastic Compliance Matrix: (Units=1/GPa)
#
#
# Indices 1 2 3 4 5 6 
#
# 1 0.009451 -0.002750 -0.001216 0.000000 0.002152 -0.000003
# 2 -0.002750 0.006919 -0.008417 0.000004 -0.001236 -0.000006
# 3 -0.001216 -0.008417 0.039188 -0.000015 0.012686 0.000030
# 4 0.000000 0.000004 -0.000015 0.027877 0.000007 0.001496
# 5 0.002152 -0.001236 0.012686 0.000007 0.050987 -0.000007
# 6 -0.000003 -0.000006 0.000030 0.001496 -0.000007 0.021614
#
#
# Mechanical properties :
#
#
# Convention : Reuss Voigt Hill
#
# Bulk Modulus (GPa) = 32.47602 84.57488 58.52545
# Shear Modulus (GPa) = 26.16935 38.14985 32.15960
#
# Velocity S-wave (km/s) = 3.24530 3.91837 3.59761
# Velocity P-wave (km/s) = 5.20699 7.38303 6.38834
#
# Compressibility (1/GPa) = 0.03079195
#
# Stress axis : x y z
#
# Youngs Moduli (GPa) = 105.81406 144.53790 25.51812
#
# Poissons Ratio (x) = 0.39751 0.03102
# Poissons Ratio (y) = 0.29101 0.21478
# Poissons Ratio (z) = 0.12863 1.21654
#
# Static dielectric constant tensor:
#      x y z
#    x 1.931180 0.000000 0.104700 
#    y 0.000000 2.018970 0.000000 
#    z 0.104700 0.000000 2.266660 
# 
# From -- ./inp_files/25348.got.cif
#   From: 2010.05.17/outbox.cif.g08.bks.cpg/sg8_13_cif.got.tgz:25348.got - 2010.06.03 19:46:02.
