data_PCOD9133435
_publ_section_title
;
Structure prediction by ZEFSAII (Michael W. Deem and Ramdas Pophale) SiO2 
 PCOD9133435
Probable space group: C M
;
_chemical_formula_sum "Si O2"
_cell_formula_units_Z 14
_cell_length_a 5.151239
_cell_length_b 26.255775
_cell_length_c 4.881459
_cell_angle_alpha 90.000000
_cell_angle_beta 56.117746
_cell_angle_gamma 90.000000
_cell_volume 548.101596
_symmetry_space_group_name_H-M "C M"
_symmetry_group_IT_number 8
_symmetry_cell_setting 'monoclinic'
loop_
_space_group_symop_operation_xyz
x,y,z
x,-y,z
1/2+x,1/2+y,z
1/2+x,1/2-y,z
loop_
_atom_site_type_symbol
_atom_site_label
_atom_site_fract_x
_atom_site_fract_y
_atom_site_fract_z
Si Si1 0.402200 0.214927 0.677740
Si Si2 0.438204 0.000000 0.203925
Si Si3 0.945700 0.853510 0.264719
Si Si4 0.957662 0.921644 0.758308
O O1 0.645949 0.255458 0.654437
O O2 0.616595 0.173830 0.395647
O O3 0.217926 0.185171 0.023949
O O4 0.242746 0.044166 0.487928
O O5 0.648540 0.044187 0.924911
O O6 0.938010 0.872011 0.580390
O O7 0.988615 0.903365 0.052018
#
# Coordination Sequence:
#
# PCOD9133435 Si02
#       4
#     4   2   4   4
#     4  12  27  48  75 109 150 197 249 308 369 440
#     4  10  24  44  70 104 144 186 242 296 368 434
#     4  12  26  47  73 106 148 192 247 301 370 436
#     4  11  25  44  71 104 144 190 239 302 363 439
#
# _framework density 25.542707
#
# number of rings (size 3 to 8) (size 9 to 14) (size 15 to 20)
#    0.000    0.571    0.000    6.857    0.000   11.429 
#    0.000    0.000    0.000    0.000    0.000    0.000 
#    0.000    0.000    0.000    0.000    0.000    0.000 
#
# Total GULP energy -39036.495039 kJ/mol
# GULP energy per Si atom -5576.642148 kJ/mol
# Density = 2.548457 g / cm^3
# Si number density = 25.542707 Si / 1000 Ang^3
#
#
#
# Elastic Constant Matrix: (Units=GPa)
#
#
# Indices 1 2 3 4 5 6 
#
# 1 70.3214 22.7332 19.8508 0.0000 -8.0370 0.0000
# 2 22.7332 112.6368 44.0938 0.0000 -23.4413 0.0000
# 3 19.8508 44.0938 175.8923 0.0000 -35.5132 0.0000
# 4 0.0000 0.0000 0.0000 111.5822 0.0000 -199.2549
# 5 -8.0370 -23.4413 -35.5132 0.0000 33.8501 0.0000
# 6 0.0000 0.0000 0.0000 -199.2549 0.0000 1642.8413
#
#
#
# Elastic Compliance Matrix: (Units=1/GPa)
#
#
# Indices 1 2 3 4 5 6 
#
# 1 0.015411 -0.002561 -0.000909 0.000000 0.000932 0.000000
# 2 -0.002561 0.011102 -0.001351 0.000000 0.005663 0.000000
# 3 -0.000909 -0.001351 0.007478 0.000000 0.006694 0.000000
# 4 0.000000 0.000000 0.000000 0.011440 0.000000 0.001387
# 5 0.000932 0.005663 0.006694 0.000000 0.040708 0.000000
# 6 0.000000 0.000000 0.000000 0.001387 0.000000 0.000777
#
#
# Mechanical properties :
#
#
# Convention : Reuss Voigt Hill
#
# Bulk Modulus (GPa) = 41.06662 59.13400 50.10031
# Shear Modulus (GPa) = 47.76710 375.79958 211.78334
#
# Velocity S-wave (km/s) = 4.32914 12.14271 9.11556
# Velocity P-wave (km/s) = 6.41102 14.82549 11.42139
#
# Compressibility (1/GPa) = 0.02435068
#
# Stress axis : x y z
#
# Youngs Moduli (GPa) = 64.88716 90.07163 133.72359
#
# Poissons Ratio (x) = 0.23063 0.12158
# Poissons Ratio (y) = 0.16615 0.18063
# Poissons Ratio (z) = 0.05900 0.12167
#
# Static dielectric constant tensor:
#      x y z
#    x 2.030960 0.000000 -0.003790 
#    y 0.000000 1.402520 0.000000 
#    z -0.003790 0.000000 1.921130 
# 
# From -- ./inp_files/366.got.cif
#   From: 2010.05.17/outbox.cif.g08.bks.cpg/sg8_1_cif.got.tgz:366.got - 2010.06.03 19:46:02.
