data_PCOD9133855
_publ_section_title
;
Structure prediction by ZEFSAII (Michael W. Deem and Ramdas Pophale) SiO2 
 PCOD9133855
Probable space group: C C
;
_chemical_formula_sum "Si O2"
_cell_formula_units_Z 28
_cell_length_a 20.600821
_cell_length_b 7.791288
_cell_length_c 16.308153
_cell_angle_alpha 90.000000
_cell_angle_beta 153.760656
_cell_angle_gamma 90.000000
_cell_volume 1157.285661
_symmetry_space_group_name_H-M "C C"
_symmetry_group_IT_number 9
_symmetry_cell_setting 'monoclinic'
loop_
_space_group_symop_operation_xyz
x,y,z
x,-y,1/2+z
1/2+x,1/2+y,z
1/2+x,1/2-y,1/2+z
loop_
_atom_site_type_symbol
_atom_site_label
_atom_site_fract_x
_atom_site_fract_y
_atom_site_fract_z
Si Si1 0.643580 0.661582 0.510580
Si Si2 0.132126 0.867665 0.605960
Si Si3 0.424601 0.282760 0.617951
Si Si4 0.129295 0.417456 0.219639
Si Si5 0.393878 0.388561 0.837166
Si Si6 0.966782 0.761959 0.088488
Si Si7 0.741741 0.468214 0.402638
O O1 0.698361 0.471609 0.602856
O O2 0.534644 0.654747 0.311509
O O3 0.538283 0.710110 0.467656
O O4 0.760714 0.812260 0.635889
O O5 0.139570 0.669138 0.640732
O O6 0.958811 0.919985 0.404097
O O7 0.206563 0.961660 0.769912
O O8 0.293773 0.407416 0.442187
O O9 0.522526 0.210319 0.652882
O O10 0.329343 0.121053 0.544308
O O11 0.056047 0.600120 0.151569
O O12 0.375061 0.340882 0.909834
O O13 0.087205 0.895109 0.256060
O O14 0.856575 0.685799 0.028892
#
# Coordination Sequence:
#
# PCOD9133855 Si02
#       7
#     4   4   4   4   4   4   4
#     4  10  18  33  58  78 115 148 195 231 299 346
#     4   8  18  33  55  82 112 140 199 241 271 349
#     4  10  21  35  54  86 117 152 189 243 292 355
#     4  10  21  35  57  85 118 147 197 245 292 340
#     4   9  17  30  56  80 103 146 193 235 280 347
#     4  10  17  33  56  82 108 150 192 242 287 333
#     4   9  18  33  54  83 111 141 199 237 275 348
#
# _framework density 24.194545999999999
#
# number of rings (size 3 to 8) (size 9 to 14) (size 15 to 20)
#    0.857    1.714    1.429    0.857    0.000    4.571 
#    0.000    0.000    3.143    0.000    0.000    0.000 
#    0.000    0.000    0.000    0.000    0.000    0.000 
#
# Total GULP energy -78078.068532 kJ/mol
# GULP energy per Si atom -5577.004895 kJ/mol
# Density = 2.413948 g / cm^3
# Si number density = 24.194546 Si / 1000 Ang^3
#
#
#
# Elastic Constant Matrix: (Units=GPa)
#
#
# Indices 1 2 3 4 5 6 
#
# 1 33.6284 15.3951 23.7580 0.0000 0.3728 0.0000
# 2 15.3951 86.2638 44.5432 0.0000 -21.6508 0.0000
# 3 23.7580 44.5432 138.3034 0.0000 4.0884 0.0000
# 4 0.0000 0.0000 0.0000 27.8957 0.0000 8.5910
# 5 0.3728 -21.6508 4.0884 0.0000 32.3063 0.0000
# 6 0.0000 0.0000 0.0000 8.5910 0.0000 36.3839
#
#
#
# Elastic Compliance Matrix: (Units=1/GPa)
#
#
# Indices 1 2 3 4 5 6 
#
# 1 0.035053 -0.004740 -0.004406 0.000000 -0.003023 0.000000
# 2 -0.004740 0.018650 -0.005584 0.000000 0.013260 0.000000
# 3 -0.004406 -0.005584 0.009932 0.000000 -0.004949 0.000000
# 4 0.000000 0.000000 0.000000 0.038659 0.000000 -0.009128
# 5 -0.003023 0.013260 -0.004949 0.000000 0.040501 0.000000
# 6 0.000000 0.000000 0.000000 -0.009128 0.000000 0.029640
#
#
# Mechanical properties :
#
#
# Convention : Reuss Voigt Hill
#
# Bulk Modulus (GPa) = 29.26077 47.28757 38.27417
# Shear Modulus (GPa) = 23.44274 30.95046 27.19660
#
# Velocity S-wave (km/s) = 3.11614 3.58052 3.35637
# Velocity P-wave (km/s) = 5.00672 6.05645 5.55643
#
# Compressibility (1/GPa) = 0.03417546
#
# Stress axis : x y z
#
# Youngs Moduli (GPa) = 28.52858 53.62002 100.68387
#
# Poissons Ratio (x) = 0.25414 0.44356
# Poissons Ratio (y) = 0.13522 0.56225
# Poissons Ratio (z) = 0.12568 0.29943
#
# Static dielectric constant tensor:
#      x y z
#    x 2.019230 0.000000 0.046170 
#    y 0.000000 2.028780 0.000000 
#    z 0.046170 0.000000 1.890050 
# 
# From -- ./inp_files/18876.got.cif
#   From: 2010.05.17/outbox.cif.g08.bks.cpg/sg9_10_cif.got.tgz:18876.got - 2010.06.03 20:04:27.
