data_PCOD9133235
_publ_section_title
;
Structure prediction by ZEFSAII (Michael W. Deem and Ramdas Pophale) SiO2 
 PCOD9133235
Probable space group: C M
;
_chemical_formula_sum "Si O2"
_cell_formula_units_Z 32
_cell_length_a 14.479152
_cell_length_b 10.668394
_cell_length_c 16.385205
_cell_angle_alpha 90.000000
_cell_angle_beta 145.814464
_cell_angle_gamma 90.000000
_cell_volume 1422.110779
_symmetry_space_group_name_H-M "C M"
_symmetry_group_IT_number 8
_symmetry_cell_setting 'monoclinic'
loop_
_space_group_symop_operation_xyz
x,y,z
x,-y,z
1/2+x,1/2+y,z
1/2+x,1/2-y,z
loop_
_atom_site_type_symbol
_atom_site_label
_atom_site_fract_x
_atom_site_fract_y
_atom_site_fract_z
Si Si1 0.826950 0.854929 0.691120
Si Si2 0.473282 0.285495 0.176859
Si Si3 0.674482 0.358322 0.897758
Si Si4 0.274107 0.634652 0.458953
Si Si5 0.518384 0.730988 0.519459
Si Si6 0.029056 0.137865 0.033861
Si Si7 0.153160 0.365136 0.754643
Si Si8 0.291808 0.646229 0.206375
O O1 0.813693 0.848206 0.582282
O O2 0.708348 0.741377 0.632051
O O3 0.022037 0.845911 0.848501
O O4 0.772239 0.000000 0.668214
O O5 0.649568 0.237974 0.335134
O O6 0.498315 0.356525 0.109797
O O7 0.381748 0.353501 0.184504
O O8 0.349491 0.171235 0.065376
O O9 0.669836 0.500000 0.861850
O O10 0.646194 0.250323 0.810657
O O11 0.190450 0.500000 0.388714
O O12 0.436682 0.634455 0.522048
O O13 0.524981 0.849618 0.586833
O O14 0.412098 0.713185 0.360566
O O15 0.134720 0.261288 0.091197
O O16 0.103528 0.000000 0.069491
O O17 0.842925 0.139654 0.862561
O O18 0.129436 0.500000 0.777767
O O19 0.257851 0.500000 0.204193
#
# Coordination Sequence:
#
# PCOD9133235 Si02
#       8
#     4   4   4   4   4   4   4   4
#     4  10  22  41  63  93 132 177 227 276 332 407
#     4  11  23  44  68  99 138 178 224 282 349 405
#     4  10  22  42  73 102 132 180 232 283 341 408
#     4  11  22  41  64  94 137 179 225 279 336 406
#     4  12  23  41  66  98 135 181 225 280 335 402
#     4  10  24  45  70  97 135 182 232 282 342 414
#     4  10  23  43  68 101 141 181 228 285 345 410
#     4  12  27  45  68 102 142 180 231 289 344 406
#
# _framework density 22.501764000000001
#
# number of rings (size 3 to 8) (size 9 to 14) (size 15 to 20)
#    0.000    1.250    3.750    1.500    1.750    5.000 
#    0.000    2.500    0.000    0.000    0.000    0.000 
#    0.000    0.000    0.000    0.000    0.000    0.000 
#
# Total GULP energy -89164.424073 kJ/mol
# GULP energy per Si atom -5572.776505 kJ/mol
# Density = 2.245055 g / cm^3
# Si number density = 22.501764 Si / 1000 Ang^3
#
#
#
# Elastic Constant Matrix: (Units=GPa)
#
#
# Indices 1 2 3 4 5 6 
#
# 1 93.7666 40.9506 11.1993 0.0000 7.4173 0.0000
# 2 40.9506 152.2939 62.0315 0.0000 12.0352 0.0000
# 3 11.1993 62.0315 108.3800 0.0000 -1.7995 0.0000
# 4 0.0000 0.0000 0.0000 20.8175 0.0000 1.3522
# 5 7.4173 12.0352 -1.7995 0.0000 36.7735 0.0000
# 6 0.0000 0.0000 0.0000 1.3522 0.0000 32.1198
#
#
#
# Elastic Compliance Matrix: (Units=1/GPa)
#
#
# Indices 1 2 3 4 5 6 
#
# 1 0.012195 -0.003462 0.000700 0.000000 -0.001292 0.000000
# 2 -0.003462 0.009900 -0.005355 0.000000 -0.002804 0.000000
# 3 0.000700 -0.005355 0.012256 0.000000 0.002211 0.000000
# 4 0.000000 0.000000 0.000000 0.048168 0.000000 -0.002028
# 5 -0.001292 -0.002804 0.002211 0.000000 0.028480 0.000000
# 6 0.000000 0.000000 0.000000 -0.002028 0.000000 0.031219
#
#
# Mechanical properties :
#
#
# Convention : Reuss Voigt Hill
#
# Bulk Modulus (GPa) = 55.19696 64.75593 59.97644
# Shear Modulus (GPa) = 30.39653 33.95941 32.17797
#
# Velocity S-wave (km/s) = 3.67938 3.88904 3.78566
# Velocity P-wave (km/s) = 6.52945 7.00049 6.76907
#
# Compressibility (1/GPa) = 0.01811694
#
# Stress axis : x y z
#
# Youngs Moduli (GPa) = 81.99761 101.01028 81.59166
#
# Poissons Ratio (x) = 0.34972 -0.05711
# Poissons Ratio (y) = 0.28389 0.43693
# Poissons Ratio (z) = -0.05739 0.54092
#
# Static dielectric constant tensor:
#      x y z
#    x 1.969860 0.000000 -0.040670 
#    y 0.000000 1.798550 0.000000 
#    z -0.040670 0.000000 1.847880 
# 
# From -- ./inp_files/29228.got.cif
#   From: 2010.05.17/outbox.cif.g08.bks.cpg/sg8_15_cif.got.tgz:29228.got - 2010.06.03 19:46:02.
