data_PCOD9133349
_publ_section_title
;
Structure prediction by ZEFSAII (Michael W. Deem and Ramdas Pophale) SiO2 
 PCOD9133349
Probable space group: C M
;
_chemical_formula_sum "Si O2"
_cell_formula_units_Z 32
_cell_length_a 13.449551
_cell_length_b 19.776975
_cell_length_c 7.837263
_cell_angle_alpha 90.000000
_cell_angle_beta 138.785702
_cell_angle_gamma 90.000000
_cell_volume 1373.524950
_symmetry_space_group_name_H-M "C M"
_symmetry_group_IT_number 8
_symmetry_cell_setting 'monoclinic'
loop_
_space_group_symop_operation_xyz
x,y,z
x,-y,z
1/2+x,1/2+y,z
1/2+x,1/2-y,z
loop_
_atom_site_type_symbol
_atom_site_label
_atom_site_fract_x
_atom_site_fract_y
_atom_site_fract_z
Si Si1 0.804900 0.831034 0.861490
Si Si2 0.862155 0.423647 0.606401
Si Si3 0.114177 0.788736 0.567799
Si Si4 0.232940 0.923943 0.827560
Si Si5 0.805271 0.795767 0.245408
Si Si6 0.044866 0.424996 0.385411
Si Si7 0.624531 0.682479 0.181692
Si Si8 0.174107 0.575221 0.173049
O O1 0.766511 0.751732 0.796583
O O2 0.658960 0.872667 0.616009
O O3 0.818834 0.835568 0.082692
O O4 0.955426 0.847583 0.948378
O O5 0.847545 0.500000 0.521649
O O6 0.797164 0.424210 0.716168
O O7 0.758157 0.372239 0.368250
O O8 0.039257 0.408061 0.863708
O O9 0.121596 0.861332 0.669013
O O10 0.109641 0.789042 0.356660
O O11 0.964235 0.756776 0.455648
O O12 0.175669 0.000000 0.788013
O O13 0.367872 0.908906 0.134591
O O14 0.674069 0.741818 0.116935
O O15 0.779931 0.860104 0.331888
O O16 0.061544 0.500000 0.484755
O O17 0.096247 0.430632 0.255753
O O18 0.236068 0.500000 0.210593
#
# Coordination Sequence:
#
# PCOD9133349 Si02
#       8
#     4   4   4   4   4   4   4   4
#     4  11  25  38  59  92 124 162 209 254 302 366
#     4   8  16  34  62  92 117 153 204 247 298 366
#     4  10  23  39  60  90 123 160 206 251 303 371
#     4   8  16  34  63  90 116 156 200 247 303 364
#     4  11  25  38  58  92 125 162 206 255 305 362
#     4   9  19  38  65  90 119 163 205 247 305 366
#     4  10  23  40  62  87 122 166 199 252 313 362
#     4   9  19  37  63  91 120 160 205 247 303 369
#
# _framework density 23.297720999999999
#
# number of rings (size 3 to 8) (size 9 to 14) (size 15 to 20)
#    0.000    2.500    0.000    2.250   10.500    2.500 
#    0.000    2.500    0.000    0.750    0.000    0.000 
#    0.000    0.000    0.000    0.000    0.000    0.000 
#
# Total GULP energy -89174.479255 kJ/mol
# GULP energy per Si atom -5573.404953 kJ/mol
# Density = 2.324469 g / cm^3
# Si number density = 23.297721 Si / 1000 Ang^3
#
#
#
# Elastic Constant Matrix: (Units=GPa)
#
#
# Indices 1 2 3 4 5 6 
#
# 1 82.5296 26.2339 20.7489 0.0000 8.6955 0.0000
# 2 26.2339 79.3710 41.5723 0.0000 3.0603 0.0000
# 3 20.7489 41.5723 75.5936 0.0000 9.2500 0.0000
# 4 0.0000 0.0000 0.0000 38.5090 0.0000 6.2872
# 5 8.6955 3.0603 9.2500 0.0000 11.1375 0.0000
# 6 0.0000 0.0000 0.0000 6.2872 0.0000 6.5013
#
#
#
# Elastic Compliance Matrix: (Units=1/GPa)
#
#
# Indices 1 2 3 4 5 6 
#
# 1 0.014611 -0.004185 -0.000505 0.000000 -0.009838 0.000000
# 2 -0.004185 0.019025 -0.010101 0.000000 0.006429 0.000000
# 3 -0.000505 -0.010101 0.020631 0.000000 -0.013965 0.000000
# 4 0.000000 0.000000 0.000000 0.030837 0.000000 -0.029821
# 5 -0.009838 0.006429 -0.013965 0.000000 0.107299 0.000000
# 6 0.000000 0.000000 0.000000 -0.029821 0.000000 0.182653
#
#
# Mechanical properties :
#
#
# Convention : Reuss Voigt Hill
#
# Bulk Modulus (GPa) = 40.51056 46.06714 43.28885
# Shear Modulus (GPa) = 12.11049 21.15885 16.63467
#
# Velocity S-wave (km/s) = 2.28242 3.01690 2.67498
# Velocity P-wave (km/s) = 4.93679 5.65258 5.30677
#
# Compressibility (1/GPa) = 0.02468492
#
# Stress axis : x y z
#
# Youngs Moduli (GPa) = 68.44269 52.56261 48.47145
#
# Poissons Ratio (x) = 0.22000 0.02447
# Poissons Ratio (y) = 0.28647 0.48959
# Poissons Ratio (z) = 0.03455 0.53091
#
# Static dielectric constant tensor:
#      x y z
#    x 1.881500 0.000000 -0.017670 
#    y 0.000000 1.883650 0.000000 
#    z -0.017670 0.000000 1.976500 
# 
# From -- ./inp_files/13721.got.cif
#   From: 2010.05.17/outbox.cif.g08.bks.cpg/sg8_7_cif.got.tgz:13721.got - 2010.06.03 19:46:02.
