data_PCOD9133378
_publ_section_title
;
Structure prediction by ZEFSAII (Michael W. Deem and Ramdas Pophale) SiO2 
 PCOD9133378
Probable space group: C M
;
_chemical_formula_sum "Si O2"
_cell_formula_units_Z 32
_cell_length_a 19.237402
_cell_length_b 8.864883
_cell_length_c 15.319200
_cell_angle_alpha 90.000000
_cell_angle_beta 141.389474
_cell_angle_gamma 90.000000
_cell_volume 1630.257566
_symmetry_space_group_name_H-M "C M"
_symmetry_group_IT_number 8
_symmetry_cell_setting 'monoclinic'
loop_
_space_group_symop_operation_xyz
x,y,z
x,-y,z
1/2+x,1/2+y,z
1/2+x,1/2-y,z
loop_
_atom_site_type_symbol
_atom_site_label
_atom_site_fract_x
_atom_site_fract_y
_atom_site_fract_z
Si Si1 0.728680 0.677329 0.069780
Si Si2 0.453081 0.320826 0.238996
Si Si3 0.907641 0.678394 0.526598
Si Si4 0.328868 0.318904 0.793961
Si Si5 0.723833 0.172999 0.244657
Si Si6 0.987629 0.679241 0.802581
Si Si7 0.481402 0.175778 0.086377
Si Si8 0.568434 0.819112 0.522612
O O1 0.733579 0.500000 0.057953
O O2 0.825676 0.763284 0.114070
O O3 0.751580 0.714156 0.193698
O O4 0.607197 0.743432 0.931853
O O5 0.457395 0.500000 0.242601
O O6 0.504437 0.253137 0.201406
O O7 0.513098 0.259085 0.384621
O O8 0.881388 0.500000 0.491611
O O9 0.800262 0.778442 0.400080
O O10 0.949717 0.701990 0.665773
O O11 0.000459 0.716447 0.544414
O O12 0.338729 0.500000 0.801539
O O13 0.399045 0.248638 0.783056
O O14 0.198504 0.278686 0.659405
O O15 0.384524 0.257183 0.937119
O O16 0.594355 0.184357 0.140882
O O17 0.747820 0.000000 0.241886
O O18 0.997758 0.500000 0.829501
O O19 0.454035 0.000000 0.072495
O O20 0.561400 0.000000 0.503044
#
# Coordination Sequence:
#
# PCOD9133378 Si02
#       8
#     4   4   4   4   4   4   4   4
#     4  12  24  42  68  95 128 168 214 266 325 383
#     4  12  26  43  67  97 129 169 218 267 322 385
#     4  10  23  42  66  93 127 170 213 263 318 378
#     4  11  24  42  66  94 130 173 214 264 322 382
#     4  11  23  41  67  96 127 165 213 269 322 380
#     4  11  24  42  65  96 131 168 215 266 320 381
#     4  11  25  44  66  95 132 170 213 270 324 379
#     4  10  23  44  65  92 130 171 214 263 321 380
#
# _framework density 19.628799000000001
#
# number of rings (size 3 to 8) (size 9 to 14) (size 15 to 20)
#    0.000    1.000    2.500    3.750    3.500    3.500 
#    0.000    0.000    0.000    0.000    0.000    0.000 
#    0.000    0.000    0.000    0.000    0.000    0.000 
#
# Total GULP energy -89498.634886 kJ/mol
# GULP energy per Si atom -5593.664680 kJ/mol
# Density = 1.958412 g / cm^3
# Si number density = 19.628799 Si / 1000 Ang^3
#
#
#
# Elastic Constant Matrix: (Units=GPa)
#
#
# Indices 1 2 3 4 5 6 
#
# 1 46.9415 26.5328 20.4952 0.0000 -2.7113 0.0000
# 2 26.5328 83.7410 43.6103 0.0000 -0.5245 0.0000
# 3 20.4952 43.6103 94.0811 0.0000 4.0228 0.0000
# 4 0.0000 0.0000 0.0000 33.3838 0.0000 -1.7259
# 5 -2.7113 -0.5245 4.0228 0.0000 36.5936 0.0000
# 6 0.0000 0.0000 0.0000 -1.7259 0.0000 28.5529
#
#
#
# Elastic Compliance Matrix: (Units=1/GPa)
#
#
# Indices 1 2 3 4 5 6 
#
# 1 0.026546 -0.007036 -0.002613 0.000000 0.002153 0.000000
# 2 -0.007036 0.017646 -0.006666 0.000000 0.000464 0.000000
# 3 -0.002613 -0.006666 0.014368 0.000000 -0.001869 0.000000
# 4 0.000000 0.000000 0.000000 0.030049 0.000000 0.001816
# 5 0.002153 0.000464 -0.001869 0.000000 0.027699 0.000000
# 6 0.000000 0.000000 0.000000 0.001816 0.000000 0.035132
#
#
# Mechanical properties :
#
#
# Convention : Reuss Voigt Hill
#
# Bulk Modulus (GPa) = 38.56906 45.11558 41.84232
# Shear Modulus (GPa) = 25.94511 28.64774 27.29643
#
# Velocity S-wave (km/s) = 3.63958 3.82445 3.73316
# Velocity P-wave (km/s) = 6.11179 6.52198 6.32021
#
# Compressibility (1/GPa) = 0.02592752
#
# Stress axis : x y z
#
# Youngs Moduli (GPa) = 37.67088 56.67111 69.59674
#
# Poissons Ratio (x) = 0.39876 0.18188
# Poissons Ratio (y) = 0.26507 0.46396
# Poissons Ratio (z) = 0.09844 0.37780
#
# Static dielectric constant tensor:
#      x y z
#    x 1.679640 0.000000 -0.003730 
#    y 0.000000 1.657230 0.000000 
#    z -0.003730 0.000000 1.665130 
# 
# From -- ./inp_files/27789.got.cif
#   From: 2010.05.17/outbox.cif.g08.bks.cpg/sg8_14_cif.got.tgz:27789.got - 2010.06.03 19:46:02.
