data_PCOD9133010
_publ_section_title
;
Structure prediction by ZEFSAII (Michael W. Deem and Ramdas Pophale) SiO2 
 PCOD9133010
Probable space group: C M
;
_chemical_formula_sum "Si O2"
_cell_formula_units_Z 20
_cell_length_a 10.923948
_cell_length_b 14.650749
_cell_length_c 5.433731
_cell_angle_alpha 90.000000
_cell_angle_beta 103.346394
_cell_angle_gamma 90.000000
_cell_volume 846.149261
_symmetry_space_group_name_H-M "C M"
_symmetry_group_IT_number 8
_symmetry_cell_setting 'monoclinic'
loop_
_space_group_symop_operation_xyz
x,y,z
x,-y,z
1/2+x,1/2+y,z
1/2+x,1/2-y,z
loop_
_atom_site_type_symbol
_atom_site_label
_atom_site_fract_x
_atom_site_fract_y
_atom_site_fract_z
Si Si1 0.929390 0.151920 0.471960
Si Si2 0.626190 0.500000 0.705417
Si Si3 0.838315 0.194137 0.929738
Si Si4 0.282059 0.000000 0.279604
Si Si5 0.074808 0.671100 0.964775
Si Si6 0.502847 0.136825 0.430162
O O1 0.830626 0.153722 0.651574
O O2 0.981497 0.254819 0.459831
O O3 0.882058 0.128731 0.174751
O O4 0.038584 0.087387 0.620163
O O5 0.721501 0.500000 0.521065
O O6 0.689036 0.500000 0.003390
O O7 0.948211 0.269232 0.947039
O O8 0.701349 0.227020 0.957334
O O9 0.372420 0.087578 0.311022
O O10 0.052295 0.607328 0.719594
O O11 0.089004 0.622375 0.232802
#
# Coordination Sequence:
#
# PCOD9133010 Si02
#       6
#     4   2   4   2   4   4
#     4  10  23  41  65 100 137 180 231 293 355 411
#     4  12  26  46  73 106 143 190 247 298 348 430
#     4  10  21  39  65  98 137 185 233 285 350 424
#     4  12  26  46  73 106 143 190 247 298 348 430
#     4  10  21  39  65  98 137 185 233 285 350 424
#     4  10  23  41  65 100 137 180 231 293 355 411
#
# _framework density 23.636492000000001
#
# number of rings (size 3 to 8) (size 9 to 14) (size 15 to 20)
#    0.000    1.600    0.000    3.600    0.000   19.200 
#    0.000    6.000    0.000    0.000    0.000    0.000 
#    0.000    0.000    0.000    0.000    0.000    0.000 
#
# Total GULP energy -55794.724085 kJ/mol
# GULP energy per Si atom -5579.472409 kJ/mol
# Density = 2.358269 g / cm^3
# Si number density = 23.636492 Si / 1000 Ang^3
#
#
#
# Elastic Constant Matrix: (Units=GPa)
#
#
# Indices 1 2 3 4 5 6 
#
# 1 104.3032 17.9047 2.7754 0.0000 -15.7314 0.0000
# 2 17.9047 87.5292 0.3179 0.0000 12.5909 0.0000
# 3 2.7754 0.3179 209.5343 0.0000 -16.8864 0.0000
# 4 0.0000 0.0000 0.0000 191.1843 0.0000 127.0231
# 5 -15.7314 12.5909 -16.8864 0.0000 58.7751 0.0000
# 6 0.0000 0.0000 0.0000 127.0231 0.0000 94.5683
#
#
#
# Elastic Compliance Matrix: (Units=1/GPa)
#
#
# Indices 1 2 3 4 5 6 
#
# 1 0.010557 -0.002654 0.000141 0.000000 0.003435 0.000000
# 2 -0.002654 0.012466 -0.000262 0.000000 -0.003456 0.000000
# 3 0.000141 -0.000262 0.004892 0.000000 0.001499 0.000000
# 4 0.000000 0.000000 0.000000 0.048619 0.000000 -0.065304
# 5 0.003435 -0.003456 0.001499 0.000000 0.019105 0.000000
# 6 0.000000 0.000000 0.000000 -0.065304 0.000000 0.098290
#
#
# Mechanical properties :
#
#
# Convention : Reuss Voigt Hill
#
# Bulk Modulus (GPa) = 44.71460 49.26253 46.98856
# Shear Modulus (GPa) = 24.16229 94.26343 59.21286
#
# Velocity S-wave (km/s) = 3.20073 6.32195 5.01057
# Velocity P-wave (km/s) = 5.71124 8.61257 7.30734
#
# Compressibility (1/GPa) = 0.02236406
#
# Stress axis : x y z
#
# Youngs Moduli (GPa) = 94.72075 80.21934 204.42142
#
# Poissons Ratio (x) = 0.21292 -0.02882
# Poissons Ratio (y) = 0.25141 0.05362
# Poissons Ratio (z) = -0.01336 0.02104
#
# Static dielectric constant tensor:
#      x y z
#    x 1.925910 0.000000 0.019300 
#    y 0.000000 1.088670 0.000000 
#    z 0.019300 0.000000 2.083280 
# 
# From -- ./inp_files/2529.got.cif
#   From: 2010.05.17/outbox.cif.g08.bks.cpg/sg8_2_cif.got.tgz:2529.got - 2010.06.03 19:46:02.
