data_PCOD9133763
_publ_section_title
;
Structure prediction by ZEFSAII (Michael W. Deem and Ramdas Pophale) SiO2 
 PCOD9133763
Probable space group: C C
;
_chemical_formula_sum "Si O2"
_cell_formula_units_Z 32
_cell_length_a 6.721243
_cell_length_b 35.146759
_cell_length_c 5.338750
_cell_angle_alpha 90.000000
_cell_angle_beta 99.170524
_cell_angle_gamma 90.000000
_cell_volume 1245.052602
_symmetry_space_group_name_H-M "C C"
_symmetry_group_IT_number 9
_symmetry_cell_setting 'monoclinic'
loop_
_space_group_symop_operation_xyz
x,y,z
x,-y,1/2+z
1/2+x,1/2+y,z
1/2+x,1/2-y,1/2+z
loop_
_atom_site_type_symbol
_atom_site_label
_atom_site_fract_x
_atom_site_fract_y
_atom_site_fract_z
Si Si1 0.608690 0.513985 0.660630
Si Si2 0.251121 0.597212 0.943460
Si Si3 0.112595 0.711150 0.345080
Si Si4 0.145483 0.177693 0.658146
Si Si5 0.640015 0.290439 0.650448
Si Si6 0.641300 0.015265 0.067461
Si Si7 0.011400 0.903642 0.993723
Si Si8 0.111528 0.320841 0.340370
O O1 0.690729 0.487136 0.457887
O O2 0.375824 0.499300 0.646751
O O3 0.622284 0.556411 0.555505
O O4 0.133755 0.558153 0.967518
O O5 0.348208 0.595840 0.687000
O O6 0.128590 0.636247 0.939694
O O7 0.414180 0.597406 0.199960
O O8 0.123818 0.750929 0.495910
O O9 0.195101 0.682356 0.573330
O O10 0.877135 0.702775 0.247741
O O11 0.194836 0.706848 0.077356
O O12 0.060062 0.204875 0.419032
O O13 0.377450 0.189134 0.749761
O O14 0.135905 0.134844 0.557184
O O15 0.059869 0.180081 0.924570
O O16 0.559972 0.988880 0.829919
#
# Coordination Sequence:
#
# PCOD9133763 Si02
#       8
#     4   4   4   4   4   4   4   4
#     4  10  16  30  49  77 108 142 181 229 285 319
#     4  12  21  33  57  87 110 145 192 242 270 325
#     4  10  21  39  61  81 108 148 184 227 277 338
#     4  10  23  40  55  81 119 151 177 221 298 340
#     4  10  21  39  61  81 108 148 184 227 277 338
#     4  10  16  30  49  77 108 142 181 229 285 319
#     4  12  21  33  57  87 110 145 192 242 270 325
#     4  10  23  40  55  81 119 151 177 221 298 340
#
# _framework density 25.701727000000002
#
# number of rings (size 3 to 8) (size 9 to 14) (size 15 to 20)
#    0.000    1.500    5.000    2.250    0.000    3.000 
#    0.000    0.000    0.000    1.500    0.000    0.000 
#    0.000    0.000    0.000    0.000    0.000    0.000 
#
# Total GULP energy -89454.946486 kJ/mol
# GULP energy per Si atom -5590.934155 kJ/mol
# Density = 2.564323 g / cm^3
# Si number density = 25.701727 Si / 1000 Ang^3
#
#
#
# Elastic Constant Matrix: (Units=GPa)
#
#
# Indices 1 2 3 4 5 6 
#
# 1 55.1142 -22.6381 28.1838 0.0000 -7.4269 0.0000
# 2 -22.6381 132.9491 32.6028 0.0000 10.2724 0.0000
# 3 28.1838 32.6028 173.1402 0.0000 -3.7901 0.0000
# 4 0.0000 0.0000 0.0000 53.1148 0.0000 -1.8222
# 5 -7.4269 10.2724 -3.7901 0.0000 45.7053 0.0000
# 6 0.0000 0.0000 0.0000 -1.8222 0.0000 19.4316
#
#
#
# Elastic Compliance Matrix: (Units=1/GPa)
#
#
# Indices 1 2 3 4 5 6 
#
# 1 0.022760 0.004822 -0.004564 0.000000 0.002236 0.000000
# 2 0.004822 0.009075 -0.002526 0.000000 -0.001466 0.000000
# 3 -0.004564 -0.002526 0.007003 0.000000 0.000407 0.000000
# 4 0.000000 0.000000 0.000000 0.018888 0.000000 0.001771
# 5 0.002236 -0.001466 0.000407 0.000000 0.022606 0.000000
# 6 0.000000 0.000000 0.000000 0.001771 0.000000 0.051629
#
#
# Mechanical properties :
#
#
# Convention : Reuss Voigt Hill
#
# Bulk Modulus (GPa) = 29.15232 48.61116 38.88174
# Shear Modulus (GPa) = 33.79956 45.18733 39.49344
#
# Velocity S-wave (km/s) = 3.63032 4.19757 3.92421
# Velocity P-wave (km/s) = 5.37954 6.51517 5.97440
#
# Compressibility (1/GPa) = 0.03430259
#
# Stress axis : x y z
#
# Youngs Moduli (GPa) = 43.93692 110.18802 142.79355
#
# Poissons Ratio (x) = -0.53131 0.65169
# Poissons Ratio (y) = -0.21186 0.36068
# Poissons Ratio (z) = 0.20052 0.27833
#
# Static dielectric constant tensor:
#      x y z
#    x 2.219700 0.000000 -0.026960 
#    y 0.000000 1.996000 0.000000 
#    z -0.026960 0.000000 2.056650 
# 
# From -- ./inp_files/1310.got.cif
#   From: 2010.05.17/outbox.cif.g08.bks.cpg/sg9_1_cif.got.tgz:1310.got - 2010.06.03 20:04:27.
