data_PCOD9133574
_publ_section_title
;
Structure prediction by ZEFSAII (Michael W. Deem and Ramdas Pophale) SiO2 
 PCOD9133574
Probable space group: C M
;
_chemical_formula_sum "Si O2"
_cell_formula_units_Z 20
_cell_length_a 5.512530
_cell_length_b 27.673655
_cell_length_c 4.845884
_cell_angle_alpha 90.000000
_cell_angle_beta 85.675860
_cell_angle_gamma 90.000000
_cell_volume 737.144281
_symmetry_space_group_name_H-M "C M"
_symmetry_group_IT_number 8
_symmetry_cell_setting 'monoclinic'
loop_
_space_group_symop_operation_xyz
x,y,z
x,-y,z
1/2+x,1/2+y,z
1/2+x,1/2-y,z
loop_
_atom_site_type_symbol
_atom_site_label
_atom_site_fract_x
_atom_site_fract_y
_atom_site_fract_z
Si Si1 0.450510 0.761382 0.813820
Si Si2 0.798687 0.079235 0.699549
Si Si3 0.034295 0.500000 0.039571
Si Si4 0.991376 0.353525 0.428600
Si Si5 0.179756 0.000000 0.561267
Si Si6 0.985911 0.830410 0.426390
O O1 0.688499 0.748320 0.967759
O O2 0.463334 0.813838 0.675608
O O3 0.473657 0.722266 0.561657
O O4 0.699206 0.047220 0.960042
O O5 0.553331 0.095197 0.557015
O O6 0.936616 0.130832 0.680866
O O7 0.996308 0.044884 0.539038
O O8 0.803325 0.500000 0.851455
O O9 0.908584 0.500000 0.341698
O O10 0.744608 0.346459 0.284675
O O11 0.246733 0.339887 0.263994
#
# Coordination Sequence:
#
# PCOD9133574 Si02
#       6
#     4   4   2   4   2   4
#     4   8  12  20  38  70 114 152 204 246 308 366
#     4   9  20  34  58  90 126 168 218 265 328 390
#     4  11  24  43  66  94 131 170 219 276 333 392
#     4   8  14  25  45  77 117 159 205 256 310 378
#     4  11  24  43  66  94 131 170 219 276 333 392
#     4   8  14  25  45  77 117 159 205 256 310 378
#
# _framework density 27.131733000000001
#
# number of rings (size 3 to 8) (size 9 to 14) (size 15 to 20)
#    1.200    2.000    0.000    1.200    0.000    3.200 
#    0.000    0.000    0.000    0.000    0.000    2.800 
#    0.000    0.400    0.000    0.000    0.000    0.400 
#
# Total GULP energy -55824.848434 kJ/mol
# GULP energy per Si atom -5582.484843 kJ/mol
# Density = 2.706998 g / cm^3
# Si number density = 27.131733 Si / 1000 Ang^3
#
#
#
# Elastic Constant Matrix: (Units=GPa)
#
#
# Indices 1 2 3 4 5 6 
#
# 1 219.8827 9.1753 14.5886 0.0000 -21.3099 0.0000
# 2 9.1753 163.2115 43.5498 0.0000 -10.0557 0.0000
# 3 14.5886 43.5498 60.1160 0.0000 -11.4487 0.0000
# 4 0.0000 0.0000 0.0000 16.0853 0.0000 -3.9189
# 5 -21.3099 -10.0557 -11.4487 0.0000 15.9674 0.0000
# 6 0.0000 0.0000 0.0000 -3.9189 0.0000 50.0594
#
#
#
# Elastic Compliance Matrix: (Units=1/GPa)
#
#
# Indices 1 2 3 4 5 6 
#
# 1 0.005227 0.000150 -0.000035 0.000000 0.007044 0.000000
# 2 0.000150 0.007612 -0.005327 0.000000 0.001174 0.000000
# 3 -0.000035 -0.005327 0.022994 0.000000 0.013085 0.000000
# 4 0.000000 0.000000 0.000000 0.063377 0.000000 0.004961
# 5 0.007044 0.001174 0.013085 0.000000 0.082150 0.000000
# 6 0.000000 0.000000 0.000000 0.004961 0.000000 0.020365
#
#
# Mechanical properties :
#
#
# Convention : Reuss Voigt Hill
#
# Bulk Modulus (GPa) = 39.35852 64.20418 51.78135
# Shear Modulus (GPa) = 22.66329 41.48219 32.07274
#
# Velocity S-wave (km/s) = 2.89330 3.91438 3.44191
# Velocity P-wave (km/s) = 5.06947 6.64418 5.90951
#
# Compressibility (1/GPa) = 0.02540746
#
# Stress axis : x y z
#
# Youngs Moduli (GPa) = 191.32591 131.36364 43.48890
#
# Poissons Ratio (x) = -0.01965 0.00153
# Poissons Ratio (y) = -0.02862 0.23168
# Poissons Ratio (z) = 0.00673 0.69983
#
# Static dielectric constant tensor:
#      x y z
#    x 2.241080 0.000000 0.016380 
#    y 0.000000 2.111090 0.000000 
#    z 0.016380 0.000000 1.992060 
# 
# From -- ./inp_files/582.got.cif
#   From: 2010.05.17/outbox.cif.g08.bks.cpg/sg8_1_cif.got.tgz:582.got - 2010.06.03 19:46:02.
