data_PCOD9133538
_publ_section_title
;
Structure prediction by ZEFSAII (Michael W. Deem and Ramdas Pophale) SiO2 
 PCOD9133538
Probable space group: C M
;
_chemical_formula_sum "Si O2"
_cell_formula_units_Z 28
_cell_length_a 8.244818
_cell_length_b 28.583324
_cell_length_c 6.248252
_cell_angle_alpha 90.000000
_cell_angle_beta 59.892693
_cell_angle_gamma 90.000000
_cell_volume 1273.832593
_symmetry_space_group_name_H-M "C M"
_symmetry_group_IT_number 8
_symmetry_cell_setting 'monoclinic'
loop_
_space_group_symop_operation_xyz
x,y,z
x,-y,z
1/2+x,1/2+y,z
1/2+x,1/2-y,z
loop_
_atom_site_type_symbol
_atom_site_label
_atom_site_fract_x
_atom_site_fract_y
_atom_site_fract_z
Si Si1 0.359600 0.175913 0.125000
Si Si2 0.073763 0.234221 0.555590
Si Si3 0.773988 0.898550 0.320695
Si Si4 0.463595 0.500000 0.207664
Si Si5 0.214280 0.681796 0.646311
Si Si6 0.594790 0.334767 0.904140
Si Si7 0.348673 0.901699 0.441815
Si Si8 0.147299 0.000000 0.584388
O O1 0.267145 0.211874 0.348203
O O2 0.332308 0.122982 0.223306
O O3 0.577605 0.183491 0.938407
O O4 0.231076 0.180344 0.002875
O O5 0.095064 0.289777 0.546431
O O6 0.041650 0.212031 0.811688
O O7 0.902268 0.211391 0.543908
O O8 0.758573 0.871189 0.556837
O O9 0.564627 0.899582 0.367509
O O10 0.852699 0.950842 0.280700
O O11 0.915285 0.864514 0.098131
O O12 0.552406 0.500000 0.399877
O O13 0.554516 0.500000 0.895419
O O14 0.717390 0.369762 0.678111
O O15 0.270878 0.953492 0.499518
#
# Coordination Sequence:
#
# PCOD9133538 Si02
#       8
#     4   4   4   2   4   4   4   2
#     4  11  24  45  71 102 144 192 244 307 376 463
#     4  11  27  42  68 103 144 194 245 311 376 456
#     4  12  25  47  75 109 149 198 251 318 382 463
#     4  12  29  50  81 113 157 206 265 323 395 460
#     4  12  26  44  72 105 148 198 253 308 384 459
#     4  11  22  46  70 101 148 185 242 308 380 451
#     4  11  25  45  74 105 143 193 245 309 385 453
#     4  12  27  50  81 111 153 200 257 329 393 458
#
# _framework density 21.980910999999999
#
# number of rings (size 3 to 8) (size 9 to 14) (size 15 to 20)
#    0.000    0.571    4.286    3.000    6.000    2.286 
#    0.000    2.143    0.000    0.000    0.000    0.000 
#    0.000    0.000    0.000    0.000    0.000    0.000 
#
# Total GULP energy -78127.990482 kJ/mol
# GULP energy per Si atom -5580.570749 kJ/mol
# Density = 2.193088 g / cm^3
# Si number density = 21.980911 Si / 1000 Ang^3
#
#
#
# Elastic Constant Matrix: (Units=GPa)
#
#
# Indices 1 2 3 4 5 6 
#
# 1 82.1786 6.3806 33.7130 0.0000 -4.5986 0.0000
# 2 6.3806 127.2550 30.1522 0.0000 -10.7969 0.0000
# 3 33.7130 30.1522 93.2953 0.0000 -27.8288 0.0000
# 4 0.0000 0.0000 0.0000 24.8438 0.0000 5.8106
# 5 -4.5986 -10.7969 -27.8288 0.0000 43.9406 0.0000
# 6 0.0000 0.0000 0.0000 5.8106 0.0000 27.5499
#
#
#
# Elastic Compliance Matrix: (Units=1/GPa)
#
#
# Indices 1 2 3 4 5 6 
#
# 1 0.014491 0.000523 -0.006060 0.000000 -0.002193 0.000000
# 2 0.000523 0.008535 -0.002843 0.000000 0.000352 0.000000
# 3 -0.006060 -0.002843 0.016558 0.000000 0.009154 0.000000
# 4 0.000000 0.000000 0.000000 0.042340 0.000000 -0.008930
# 5 -0.002193 0.000352 0.009154 0.000000 0.028412 0.000000
# 6 0.000000 0.000000 0.000000 -0.008930 0.000000 0.038181
#
#
# Mechanical properties :
#
#
# Convention : Reuss Voigt Hill
#
# Bulk Modulus (GPa) = 43.81015 49.24673 46.52844
# Shear Modulus (GPa) = 28.92103 34.76573 31.84338
#
# Velocity S-wave (km/s) = 3.63124 3.98129 3.81029
# Velocity P-wave (km/s) = 6.12825 6.60206 6.36956
#
# Compressibility (1/GPa) = 0.02282576
#
# Stress axis : x y z
#
# Youngs Moduli (GPa) = 69.00734 117.15912 60.39556
#
# Poissons Ratio (x) = -0.06129 0.36597
# Poissons Ratio (y) = -0.03610 0.17169
# Poissons Ratio (z) = 0.41816 0.33305
#
# Static dielectric constant tensor:
#      x y z
#    x 1.814170 0.000000 0.041220 
#    y 0.000000 1.737210 0.000000 
#    z 0.041220 0.000000 1.911460 
# 
# From -- ./inp_files/1960.got.cif
#   From: 2010.05.17/outbox.cif.g08.bks.cpg/sg8_1_cif.got.tgz:1960.got - 2010.06.03 19:46:02.
