data_PCOD9133680
_publ_section_title
;
Structure prediction by ZEFSAII (Michael W. Deem and Ramdas Pophale) SiO2 
 PCOD9133680
Probable space group: C M
;
_chemical_formula_sum "Si O2"
_cell_formula_units_Z 16
_cell_length_a 21.000000
_cell_length_b 9.000000
_cell_length_c 27.000000
_cell_angle_alpha 90.000000
_cell_angle_beta 160.000000
_cell_angle_gamma 90.000000
_cell_volume 1745.328791
_symmetry_space_group_name_H-M "C M"
_symmetry_group_IT_number 8
_symmetry_cell_setting 'monoclinic'
loop_
_space_group_symop_operation_xyz
x,y,z
x,-y,z
1/2+x,1/2+y,z
1/2+x,1/2-y,z
loop_
_atom_site_type_symbol
_atom_site_label
_atom_site_fract_x
_atom_site_fract_y
_atom_site_fract_z
Si Si1 0.734200 0.820862 0.011250
Si Si2 0.475579 0.322708 0.519957
Si Si3 0.784814 0.821910 0.931051
Si Si4 0.471218 0.677465 0.630635
Si Si5 0.817421 0.320616 0.698849
Si Si6 0.209042 0.822292 0.250996
Si Si7 0.061903 0.823958 0.325388
Si Si8 0.012355 0.175360 0.403095
O O1 0.906733 0.768697 0.172063
O O2 0.733259 0.000000 0.018152
O O3 0.761181 0.794027 0.972534
O O4 0.521500 0.763837 0.863558
O O5 0.446832 0.500000 0.493868
O O6 0.526135 0.292480 0.613611
O O7 0.654431 0.279578 0.617878
O O8 0.291599 0.244197 0.362912
O O9 0.623316 0.746846 0.779666
O O10 0.770015 0.000000 0.912384
O O11 0.001536 0.775470 0.081977
O O12 0.464560 0.500000 0.634009
O O13 0.260893 0.742605 0.475964
O O14 0.835855 0.500000 0.712051
O O15 0.721002 0.281978 0.575264
O O16 0.359702 0.768169 0.321110
O O17 0.205629 0.000000 0.253434
O O18 0.983289 0.810239 0.323589
O O19 0.096637 0.000000 0.340846
O O20 0.990374 0.000000 0.399800
#
# Coordination Sequence:
#
# PCOD9133680 Si02
#       8
#     4   4   4   4   4   4   4   4
#     4   9  17  31  54  80 102 131 177 225 262 306
#     4   9  19  35  54  78 108 140 176 220 269 319
#     4  10  21  36  53  76 107 141 179 223 269 319
#     4  11  23  36  53  78 108 142 179 225 274 316
#     4   8  14  28  50  74 100 131 170 214 256 303
#     4  10  20  34  55  81 109 142 178 220 267 315
#     4  10  20  35  57  81 105 139 181 222 266 320
#     4   9  18  33  54  78 107 144 180 217 263 316
#
# _framework density 9.1673270000000002
#
# number of rings (size 3 to 8) (size 9 to 14) (size 15 to 20)
#    0.000    2.500    0.000    3.000    0.000    6.500 
#    0.000    3.125    0.000    3.000    0.000    0.000 
#    0.000    0.000    0.000    0.000    0.000    0.000 
#
# Total GULP energy -89097.880857 kJ/mol
# GULP energy per Si atom -5568.617554 kJ/mol
# Density = 0.914646 g / cm^3
# Si number density = 9.167327 Si / 1000 Ang^3
#
#
#
# Elastic Constant Matrix: (Units=GPa)
#
#
# Indices 1 2 3 4 5 6 
#
# 1 60.4538 24.0004 63.6012 0.0025 -19.5389 -0.0004
# 2 24.0004 38.1372 50.9754 -0.0058 -8.0957 0.0013
# 3 63.6012 50.9754 223.1768 -0.0021 -22.3242 0.0012
# 4 0.0025 -0.0058 -0.0021 30.5762 -0.0002 -1.7429
# 5 -19.5389 -8.0957 -22.3242 -0.0002 36.4952 0.0002
# 6 -0.0004 0.0013 0.0012 -1.7429 0.0002 19.1853
#
#
#
# Elastic Compliance Matrix: (Units=1/GPa)
#
#
# Indices 1 2 3 4 5 6 
#
# 1 0.028884 -0.009162 -0.005108 -0.000004 0.010307 0.000001
# 2 -0.009162 0.041028 -0.006754 0.000008 0.000065 -0.000002
# 3 -0.005108 -0.006754 0.007515 0.000000 0.000364 0.000000
# 4 -0.000004 0.000008 0.000000 0.032875 -0.000001 0.002987
# 5 0.010307 0.000065 0.000364 -0.000001 0.033156 0.000000
# 6 0.000001 -0.000002 0.000000 0.002987 0.000000 0.052394
#
#
# Mechanical properties :
#
#
# Convention : Reuss Voigt Hill
#
# Bulk Modulus (GPa) = 28.26432 66.54686 47.40559
# Shear Modulus (GPa) = 20.02459 29.46408 24.74434
#
# Velocity S-wave (km/s) = 3.30839 4.01311 3.67767
# Velocity P-wave (km/s) = 5.48116 7.60578 6.62914
#
# Compressibility (1/GPa) = 0.03538029
#
# Stress axis : x y z
#
# Youngs Moduli (GPa) = 34.62155 24.37379 133.06096
#
# Poissons Ratio (x) = 0.22331 0.67962
# Poissons Ratio (y) = 0.31720 0.89863
# Poissons Ratio (z) = 0.17683 0.16461
#
# Static dielectric constant tensor:
#      x y z
#    x 1.690160 0.000000 0.021470 
#    y 0.000000 1.624260 0.000000 
#    z 0.021470 0.000000 1.635380 
# 
# From -- ./inp_files/16866.got.cif
#   From: 2010.05.17/outbox.ucp.g08.bks.cvg/sg8_9_cif.got.tgz:16866.got - 2010.06.11 13:00:03.
