data_PCOD9133444
_publ_section_title
;
Structure prediction by ZEFSAII (Michael W. Deem and Ramdas Pophale) SiO2 
 PCOD9133444
Probable space group: C M
;
_chemical_formula_sum "Si O2"
_cell_formula_units_Z 16
_cell_length_a 8.345656
_cell_length_b 15.843101
_cell_length_c 5.300132
_cell_angle_alpha 90.000000
_cell_angle_beta 120.413027
_cell_angle_gamma 90.000000
_cell_volume 604.359559
_symmetry_space_group_name_H-M "C M"
_symmetry_group_IT_number 8
_symmetry_cell_setting 'monoclinic'
loop_
_space_group_symop_operation_xyz
x,y,z
x,-y,z
1/2+x,1/2+y,z
1/2+x,1/2-y,z
loop_
_atom_site_type_symbol
_atom_site_label
_atom_site_fract_x
_atom_site_fract_y
_atom_site_fract_z
Si Si1 0.043040 0.092015 0.146290
Si Si2 0.146798 0.731192 0.490903
Si Si3 0.190449 0.593655 0.149762
Si Si4 0.817385 0.345357 0.004438
O O1 0.107382 0.177809 0.332797
O O2 0.820948 0.091664 0.008744
O O3 0.103215 0.000000 0.298476
O O4 0.143965 0.100628 0.957488
O O5 0.256868 0.667342 0.393972
O O6 0.241983 0.759865 0.821667
O O7 0.953089 0.680345 0.344464
O O8 0.205664 0.500000 0.277543
O O9 0.971033 0.612659 0.943890
#
# Coordination Sequence:
#
# PCOD9133444 Si02
#       4
#     4   4   4   4
#     4  11  23  44  73 112 150 192 249 311 372 439
#     4  10  24  47  73 107 156 191 247 308 373 443
#     4   9  22  46  76 111 148 196 250 305 373 446
#     4  10  24  47  73 108 150 199 239 310 367 448
#
# _framework density 26.474305000000001
#
# number of rings (size 3 to 8) (size 9 to 14) (size 15 to 20)
#    1.500    0.500    0.000    2.250    0.000    6.000 
#    4.500    3.750    0.000    1.500    0.000    0.000 
#    0.000    0.000    0.000    0.000    0.000    0.000 
#
# Total GULP energy -44609.426624 kJ/mol
# GULP energy per Si atom -5576.178328 kJ/mol
# Density = 2.641405 g / cm^3
# Si number density = 26.474305 Si / 1000 Ang^3
#
#
#
# Elastic Constant Matrix: (Units=GPa)
#
#
# Indices 1 2 3 4 5 6 
#
# 1 253.9561 48.7038 47.8891 0.0000 9.3312 0.0000
# 2 48.7038 193.9570 18.0013 0.0000 -3.1897 0.0000
# 3 47.8891 18.0013 62.4581 0.0000 2.1307 0.0000
# 4 0.0000 0.0000 0.0000 18.9137 0.0000 -9.0853
# 5 9.3312 -3.1897 2.1307 0.0000 21.8069 0.0000
# 6 0.0000 0.0000 0.0000 -9.0853 0.0000 31.4080
#
#
#
# Elastic Compliance Matrix: (Units=1/GPa)
#
#
# Indices 1 2 3 4 5 6 
#
# 1 0.004819 -0.000929 -0.003363 0.000000 -0.001869 0.000000
# 2 -0.000929 0.005495 -0.000916 0.000000 0.001291 0.000000
# 3 -0.003363 -0.000916 0.018872 0.000000 -0.000539 0.000000
# 4 0.000000 0.000000 0.000000 0.061404 0.000000 0.017762
# 5 -0.001869 0.001291 -0.000539 0.000000 0.046898 0.000000
# 6 0.000000 0.000000 0.000000 0.017762 0.000000 0.036977
#
#
# Mechanical properties :
#
#
# Convention : Reuss Voigt Hill
#
# Bulk Modulus (GPa) = 53.27569 82.17330 67.72449
# Shear Modulus (GPa) = 26.15928 40.81087 33.48508
#
# Velocity S-wave (km/s) = 3.14682 3.93049 3.56028
# Velocity P-wave (km/s) = 5.77672 7.19059 6.52208
#
# Compressibility (1/GPa) = 0.01877029
#
# Stress axis : x y z
#
# Youngs Moduli (GPa) = 207.52616 181.97773 52.98905
#
# Poissons Ratio (x) = 0.16898 0.17822
# Poissons Ratio (y) = 0.19271 0.04853
# Poissons Ratio (z) = 0.69797 0.16666
#
# Static dielectric constant tensor:
#      x y z
#    x 2.158430 0.000000 -0.051360 
#    y 0.000000 2.035820 0.000000 
#    z -0.051360 0.000000 2.141720 
# 
# From -- ./inp_files/1113.got.cif
#   From: 2010.05.17/outbox.cif.g08.bks.cpg/sg8_1_cif.got.tgz:1113.got - 2010.06.03 19:46:02.
