data_PCOD9133674
_publ_section_title
;
Structure prediction by ZEFSAII (Michael W. Deem and Ramdas Pophale) SiO2 
 PCOD9133674
Probable space group: C M
;
_chemical_formula_sum "Si O2"
_cell_formula_units_Z 16
_cell_length_a 24.000000
_cell_length_b 9.000000
_cell_length_c 15.000000
_cell_angle_alpha 90.000000
_cell_angle_beta 150.000000
_cell_angle_gamma 90.000000
_cell_volume 1620.000000
_symmetry_space_group_name_H-M "C M"
_symmetry_group_IT_number 8
_symmetry_cell_setting 'monoclinic'
loop_
_space_group_symop_operation_xyz
x,y,z
x,-y,z
1/2+x,1/2+y,z
1/2+x,1/2-y,z
loop_
_atom_site_type_symbol
_atom_site_label
_atom_site_fract_x
_atom_site_fract_y
_atom_site_fract_z
Si Si1 0.917100 0.682299 0.130130
Si Si2 0.166936 0.320110 0.790377
Si Si3 0.599381 0.827988 0.243470
Si Si4 0.712308 0.820345 0.221172
Si Si5 0.789607 0.174335 0.659980
Si Si6 0.481364 0.179336 0.818348
Si Si7 0.104029 0.820645 0.518235
Si Si8 0.959350 0.179386 0.600367
O O1 0.914136 0.500000 0.130327
O O2 0.985842 0.726490 0.134469
O O3 0.000242 0.749817 0.320273
O O4 0.792446 0.749372 0.967871
O O5 0.174675 0.500000 0.803692
O O6 0.111449 0.257627 0.623470
O O7 0.074451 0.260121 0.732080
O O8 0.654497 0.758994 0.231728
O O9 0.699966 0.826513 0.454392
O O10 0.574409 0.000000 0.186431
O O11 0.841998 0.774915 0.388690
O O12 0.720199 0.000000 0.240666
O O13 0.614034 0.791519 0.014179
O O14 0.721284 0.271529 0.636281
O O15 0.904274 0.253571 0.790340
O O16 0.805614 0.000000 0.707732
O O17 0.440245 0.267830 0.674939
O O18 0.465956 0.000000 0.791250
O O19 0.094736 0.000000 0.509737
O O20 0.972241 0.000000 0.610882
#
# Coordination Sequence:
#
# PCOD9133674 Si02
#       8
#     4   4   4   4   4   4   4   4
#     4  10  21  39  65  96 129 166 210 259 319 381
#     4  12  26  44  65  92 127 167 218 269 317 380
#     4   8  15  32  59  88 121 159 198 246 304 371
#     4   9  19  36  60  89 120 160 203 248 308 375
#     4  10  19  36  61  90 127 167 207 256 314 376
#     4  11  22  36  60  94 125 159 206 261 319 379
#     4  11  23  41  64  94 129 168 212 261 322 383
#     4  11  23  44  66  85 120 168 214 258 317 383
#
# _framework density 9.8765429999999999
#
# number of rings (size 3 to 8) (size 9 to 14) (size 15 to 20)
#    0.000    1.750    1.250    4.500    1.750    1.000 
#    0.000    6.250    0.000    0.000    0.000    0.000 
#    0.000    0.000    0.000    0.000    0.000    0.000 
#
# Total GULP energy -89208.685122 kJ/mol
# GULP energy per Si atom -5575.542820 kJ/mol
# Density = 0.985406 g / cm^3
# Si number density = 9.876543 Si / 1000 Ang^3
#
#
#
# Elastic Constant Matrix: (Units=GPa)
#
#
# Indices 1 2 3 4 5 6 
#
# 1 76.7464 20.9436 25.7674 0.0000 22.9976 0.0000
# 2 20.9436 120.8599 27.1742 0.0000 13.7188 0.0000
# 3 25.7674 27.1742 96.4650 0.0000 33.5368 0.0000
# 4 0.0000 0.0000 0.0000 32.0467 0.0000 6.6678
# 5 22.9976 13.7188 33.5368 0.0000 41.8903 0.0000
# 6 0.0000 0.0000 0.0000 6.6678 0.0000 29.8868
#
#
#
# Elastic Compliance Matrix: (Units=1/GPa)
#
#
# Indices 1 2 3 4 5 6 
#
# 1 0.016096 -0.001673 -0.001312 0.000000 -0.007239 0.000000
# 2 -0.001673 0.009055 -0.001929 0.000000 -0.000503 0.000000
# 3 -0.001312 -0.001929 0.014952 0.000000 -0.010618 0.000000
# 4 0.000000 0.000000 0.000000 0.032723 0.000000 -0.007301
# 5 -0.007239 -0.000503 -0.010618 0.000000 0.036511 0.000000
# 6 0.000000 0.000000 0.000000 -0.007301 0.000000 0.035088
#
#
# Mechanical properties :
#
#
# Convention : Reuss Voigt Hill
#
# Bulk Modulus (GPa) = 33.03014 49.09351 41.06182
# Shear Modulus (GPa) = 30.42388 35.44383 32.93386
#
# Velocity S-wave (km/s) = 3.92881 4.24057 4.08766
# Velocity P-wave (km/s) = 6.11052 6.99171 6.56592
#
# Compressibility (1/GPa) = 0.03027538
#
# Stress axis : x y z
#
# Youngs Moduli (GPa) = 62.12755 110.43980 66.88143
#
# Poissons Ratio (x) = 0.18473 0.08773
# Poissons Ratio (y) = 0.10392 0.12903
# Poissons Ratio (z) = 0.08149 0.21306
#
# Static dielectric constant tensor:
#      x y z
#    x 1.807980 0.000000 -0.050100 
#    y 0.000000 1.657280 0.000000 
#    z -0.050100 0.000000 1.711870 
# 
# From -- ./inp_files/28203.got.cif
#   From: 2010.05.17/outbox.ucp.g08.bks.cvg/sg8_15_cif.got.tgz:28203.got - 2010.06.11 13:00:03.
