data_PCOD9133815
_publ_section_title
;
Structure prediction by ZEFSAII (Michael W. Deem and Ramdas Pophale) SiO2 
 PCOD9133815
Probable space group: C C
;
_chemical_formula_sum "Si O2"
_cell_formula_units_Z 32
_cell_length_a 15.533802
_cell_length_b 16.302866
_cell_length_c 5.282268
_cell_angle_alpha 90.000000
_cell_angle_beta 64.590262
_cell_angle_gamma 90.000000
_cell_volume 1208.303622
_symmetry_space_group_name_H-M "C C"
_symmetry_group_IT_number 9
_symmetry_cell_setting 'monoclinic'
loop_
_space_group_symop_operation_xyz
x,y,z
x,-y,1/2+z
1/2+x,1/2+y,z
1/2+x,1/2-y,1/2+z
loop_
_atom_site_type_symbol
_atom_site_label
_atom_site_fract_x
_atom_site_fract_y
_atom_site_fract_z
Si Si1 0.099390 0.047700 0.672960
Si Si2 0.988887 0.705987 0.284488
Si Si3 0.069927 0.539375 0.996635
Si Si4 0.898241 0.983476 0.928740
Si Si5 0.289488 0.235784 0.711172
Si Si6 0.225154 0.810696 0.786937
Si Si7 0.455725 0.303364 0.799782
Si Si8 0.846321 0.461051 0.663951
O O1 0.147265 0.129781 0.508091
O O2 0.123890 0.980728 0.425098
O O3 0.984142 0.050063 0.822681
O O4 0.059005 0.630991 0.129059
O O5 0.973744 0.755584 0.040631
O O6 0.882543 0.677798 0.520712
O O7 0.015207 0.762667 0.493502
O O8 0.110070 0.520246 0.665720
O O9 0.957885 0.524145 0.064290
O O10 0.840512 0.002275 0.752789
O O11 0.956461 0.898913 0.857444
O O12 0.208447 0.211432 0.016195
O O13 0.348589 0.298100 0.812615
O O14 0.248866 0.253183 0.482614
O O15 0.318300 0.868773 0.634759
O O16 0.805542 0.487304 0.983880
#
# Coordination Sequence:
#
# PCOD9133815 Si02
#       8
#     4   4   4   4   4   4   4   4
#     4  10  21  35  45  68 100 137 179 221 263 300
#     4  10  18  31  42  64  91 122 174 220 261 313
#     4  10  18  24  35  54  85 121 157 201 237 281
#     4  10  21  36  56  74  95 126 184 244 286 301
#     4  10  19  28  44  63  88 122 169 210 257 312
#     4  12  18  28  41  60  92 125 161 207 250 311
#     4  10  18  33  51  66  90 125 171 239 269 313
#     4  10  17  21  30  47  71 110 153 188 217 259
#
# _framework density 26.483409000000002
#
# number of rings (size 3 to 8) (size 9 to 14) (size 15 to 20)
#    0.750    1.000    2.500    3.750    3.500    0.000 
#    0.000    0.000    0.000    0.000    0.000    0.000 
#    0.000    0.000    0.000    0.000    0.000  350.000 
#
# Total GULP energy -89122.812799 kJ/mol
# GULP energy per Si atom -5570.175800 kJ/mol
# Density = 2.642313 g / cm^3
# Si number density = 26.483409 Si / 1000 Ang^3
#
#
#
# Elastic Constant Matrix: (Units=GPa)
#
#
# Indices 1 2 3 4 5 6 
#
# 1 53.3285 18.0611 49.1410 0.0000 8.5517 0.0000
# 2 18.0611 64.6648 58.5905 0.0000 26.8867 0.0000
# 3 49.1410 58.5905 219.5060 0.0000 55.4735 0.0000
# 4 0.0000 0.0000 0.0000 -10.0176 0.0000 -1.1926
# 5 8.5517 26.8867 55.4735 0.0000 44.9309 0.0000
# 6 0.0000 0.0000 0.0000 -1.1926 0.0000 20.6470
#
#
#
# Elastic Compliance Matrix: (Units=1/GPa)
#
#
# Indices 1 2 3 4 5 6 
#
# 1 0.024448 -0.003562 -0.005647 0.000000 0.004451 0.000000
# 2 -0.003562 0.023090 -0.002973 0.000000 -0.009469 0.000000
# 3 -0.005647 -0.002973 0.008564 0.000000 -0.007720 0.000000
# 4 0.000000 0.000000 0.000000 -0.099143 0.000000 -0.005727
# 5 0.004451 -0.009469 -0.007720 0.000000 0.036607 0.000000
# 6 0.000000 0.000000 0.000000 -0.005727 0.000000 0.048102
#
#
# Mechanical properties :
#
#
# Convention : Reuss Voigt Hill
#
# Bulk Modulus (GPa) = 31.50783 65.45383 48.48083
# Shear Modulus (GPa) = 65.26342 25.22585 45.24464
#
# Velocity S-wave (km/s) = 4.96957 3.08963 4.13778
# Velocity P-wave (km/s) = 6.69715 6.12344 6.41671
#
# Compressibility (1/GPa) = 0.03173814
#
# Stress axis : x y z
#
# Youngs Moduli (GPa) = 40.90286 43.30932 116.76135
#
# Poissons Ratio (x) = 0.15428 0.65937
# Poissons Ratio (y) = 0.14571 0.34709
# Poissons Ratio (z) = 0.23099 0.12874
#
# Static dielectric constant tensor:
#      x y z
#    x 2.156450 0.000000 -0.017240 
#    y 0.000000 2.188950 0.000000 
#    z -0.017240 0.000000 2.155910 
# 
# From -- ./inp_files/3325.got.cif
#   From: 2010.05.17/outbox.cif.g08.bks.cpg/sg9_2_cif.got.tgz:3325.got - 2010.06.03 20:04:27.
