data_PCOD9133296
_publ_section_title
;
Structure prediction by ZEFSAII (Michael W. Deem and Ramdas Pophale) SiO2 
 PCOD9133296
Probable space group: C M
;
_chemical_formula_sum "Si O2"
_cell_formula_units_Z 20
_cell_length_a 5.106743
_cell_length_b 13.397479
_cell_length_c 10.182741
_cell_angle_alpha 90.000000
_cell_angle_beta 101.174868
_cell_angle_gamma 90.000000
_cell_volume 683.468675
_symmetry_space_group_name_H-M "C M"
_symmetry_group_IT_number 8
_symmetry_cell_setting 'monoclinic'
loop_
_space_group_symop_operation_xyz
x,y,z
x,-y,z
1/2+x,1/2+y,z
1/2+x,1/2-y,z
loop_
_atom_site_type_symbol
_atom_site_label
_atom_site_fract_x
_atom_site_fract_y
_atom_site_fract_z
Si Si1 0.346241 0.000000 0.446050
Si Si2 0.899364 0.820985 0.847098
Si Si3 0.538415 0.786517 0.520725
Si Si4 0.000648 0.500000 0.185862
Si Si5 0.086987 0.500000 0.916361
Si Si6 0.071246 0.000000 0.685536
Si Si7 0.845034 0.800857 0.223891
O O1 0.517818 0.098874 0.485452
O O2 0.289558 0.000000 0.284718
O O3 0.114562 0.000000 0.532406
O O4 0.685803 0.732958 0.861452
O O5 0.779962 0.903925 0.937811
O O6 0.919909 0.903631 0.728742
O O7 0.801070 0.734618 0.597442
O O8 0.445339 0.722954 0.383557
O O9 0.190570 0.403735 0.216110
O O10 0.901398 0.500000 0.027800
O O11 0.873567 0.500000 0.776136
O O12 0.614044 0.719449 0.169619
#
# Coordination Sequence:
#
# PCOD9133296 Si02
#       7
#     2   4   4   2   2   2   4
#     4  12  25  47  79 115 163 208 254 336 398 470
#     4  11  24  53  84 114 160 217 270 341 406 476
#     4  10  22  43  65 101 148 195 254 296 382 459
#     4  12  25  47  79 115 163 208 254 336 398 470
#     4  11  27  51  80 126 157 210 283 331 401 498
#     4  11  27  51  80 126 157 210 283 331 401 498
#     4  10  22  43  65 101 148 195 254 296 382 459
#
# _framework density 29.262495000000001
#
# number of rings (size 3 to 8) (size 9 to 14) (size 15 to 20)
#    0.000    1.200    6.000    0.000    0.000    8.000 
#   14.400    0.000    0.000    0.000    0.000    0.000 
#    0.000    0.000    0.000    0.000    0.000    0.000 
#
# Total GULP energy -55956.466032 kJ/mol
# GULP energy per Si atom -5595.646603 kJ/mol
# Density = 2.919589 g / cm^3
# Si number density = 29.262495 Si / 1000 Ang^3
#
#
#
# Elastic Constant Matrix: (Units=GPa)
#
#
# Indices 1 2 3 4 5 6 
#
# 1 158.8140 -0.2647 40.2643 0.0000 -25.0038 0.0000
# 2 -0.2647 196.0918 23.0005 0.0000 -2.7414 0.0000
# 3 40.2643 23.0005 136.4746 0.0000 -54.0622 0.0000
# 4 0.0000 0.0000 0.0000 25.6448 0.0000 -4.6928
# 5 -25.0038 -2.7414 -54.0622 0.0000 49.9314 0.0000
# 6 0.0000 0.0000 0.0000 -4.6928 0.0000 43.4150
#
#
#
# Elastic Compliance Matrix: (Units=1/GPa)
#
#
# Indices 1 2 3 4 5 6 
#
# 1 0.006948 0.000183 -0.001223 0.000000 0.002165 0.000000
# 2 0.000183 0.005246 -0.001379 0.000000 -0.001114 0.000000
# 3 -0.001223 -0.001379 0.013392 0.000000 0.013812 0.000000
# 4 0.000000 0.000000 0.000000 0.039781 0.000000 0.004300
# 5 0.002165 -0.001114 0.013812 0.000000 0.036005 0.000000
# 6 0.000000 0.000000 0.000000 0.004300 0.000000 0.023498
#
#
# Mechanical properties :
#
#
# Convention : Reuss Voigt Hill
#
# Bulk Modulus (GPa) = 48.19887 68.59785 58.39836
# Shear Modulus (GPa) = 36.59658 52.35692 44.47675
#
# Velocity S-wave (km/s) = 3.54026 4.23450 3.90285
# Velocity P-wave (km/s) = 5.76353 6.88485 6.34899
#
# Compressibility (1/GPa) = 0.02074737
#
# Stress axis : x y z
#
# Youngs Moduli (GPa) = 143.92761 190.61699 74.67167
#
# Poissons Ratio (x) = -0.03490 0.09133
# Poissons Ratio (y) = -0.02635 0.10300
# Poissons Ratio (z) = 0.17603 0.26293
#
# Static dielectric constant tensor:
#      x y z
#    x 2.456580 0.000000 0.002690 
#    y 0.000000 2.212670 0.000000 
#    z 0.002690 0.000000 2.508650 
# 
# From -- ./inp_files/17957.got.cif
#   From: 2010.05.17/outbox.cif.g08.bks.cpg/sg8_9_cif.got.tgz:17957.got - 2010.06.03 19:46:02.
