data_PCOD9133415
_publ_section_title
;
Structure prediction by ZEFSAII (Michael W. Deem and Ramdas Pophale) SiO2 
 PCOD9133415
Probable space group: C M
;
_chemical_formula_sum "Si O2"
_cell_formula_units_Z 20
_cell_length_a 8.988279
_cell_length_b 18.457087
_cell_length_c 9.390902
_cell_angle_alpha 90.000000
_cell_angle_beta 148.484107
_cell_angle_gamma 90.000000
_cell_volume 814.382883
_symmetry_space_group_name_H-M "C M"
_symmetry_group_IT_number 8
_symmetry_cell_setting 'monoclinic'
loop_
_space_group_symop_operation_xyz
x,y,z
x,-y,z
1/2+x,1/2+y,z
1/2+x,1/2-y,z
loop_
_atom_site_type_symbol
_atom_site_label
_atom_site_fract_x
_atom_site_fract_y
_atom_site_fract_z
Si Si1 0.620480 0.573733 0.522410
Si Si2 0.188651 0.661592 0.497162
Si Si3 0.291299 0.697513 0.139076
Si Si4 0.336408 0.145658 0.952314
Si Si5 0.169600 0.414811 0.787388
O O1 0.454369 0.500000 0.371069
O O2 0.426048 0.641892 0.359128
O O3 0.783233 0.579476 0.802909
O O4 0.848820 0.578769 0.583550
O O5 0.526078 0.674636 0.748880
O O6 0.169147 0.619239 0.629954
O O7 0.001538 0.734799 0.321306
O O8 0.022991 0.618655 0.237501
O O9 0.288448 0.648327 0.992673
O O10 0.984986 0.705387 0.967132
O O11 0.280972 0.500000 0.882545
#
# Coordination Sequence:
#
# PCOD9133415 Si02
#       5
#     4   4   4   4   4
#     4  10  23  47  76 105 149 207 256 302 377 471
#     4  12  29  46  79 117 152 193 257 327 382 437
#     4  11  26  48  80 108 155 206 260 300 388 468
#     4  11  27  49  73 112 152 203 250 315 385 457
#     4  10  26  50  76 112 157 207 255 314 385 459
#
# _framework density 24.558474
#
# number of rings (size 3 to 8) (size 9 to 14) (size 15 to 20)
#    0.000    1.200    2.000    0.600   14.000    2.400 
#    0.000    0.000    0.000    0.000    0.000    0.000 
#    0.000    0.000    0.000    0.000    0.000    0.000 
#
# Total GULP energy -55742.037675 kJ/mol
# GULP energy per Si atom -5574.203767 kJ/mol
# Density = 2.450258 g / cm^3
# Si number density = 24.558474 Si / 1000 Ang^3
#
#
#
# Elastic Constant Matrix: (Units=GPa)
#
#
# Indices 1 2 3 4 5 6 
#
# 1 165.5910 69.5182 85.5762 0.0007 -18.3779 0.0001
# 2 69.5182 108.1996 25.4972 0.0000 -2.2795 -0.0001
# 3 85.5762 25.4972 147.0248 0.0007 -22.2831 0.0001
# 4 0.0007 0.0000 0.0007 55.8295 0.0004 -39.4956
# 5 -18.3779 -2.2795 -22.2831 0.0004 55.0883 0.0003
# 6 0.0001 -0.0001 0.0001 -39.4956 0.0003 40.4763
#
#
#
# Elastic Compliance Matrix: (Units=1/GPa)
#
#
# Indices 1 2 3 4 5 6 
#
# 1 0.011598 -0.006132 -0.005475 0.000000 0.001401 0.000000
# 2 -0.006132 0.012883 0.001178 0.000000 -0.001036 0.000000
# 3 -0.005475 0.001178 0.010136 0.000000 0.002322 0.000000
# 4 0.000000 0.000000 0.000000 0.057834 -0.000001 0.056433
# 5 0.001401 -0.001036 0.002322 -0.000001 0.019516 -0.000001
# 6 0.000000 0.000000 0.000000 0.056433 -0.000001 0.079771
#
#
# Mechanical properties :
#
#
# Convention : Reuss Voigt Hill
#
# Bulk Modulus (GPa) = 72.68151 86.88873 79.78512
# Shear Modulus (GPa) = 23.02205 46.29374 34.65790
#
# Velocity S-wave (km/s) = 3.06508 4.34642 3.76072
# Velocity P-wave (km/s) = 6.49506 7.78753 7.17048
#
# Compressibility (1/GPa) = 0.01375866
#
# Stress axis : x y z
#
# Youngs Moduli (GPa) = 86.21920 77.62367 98.65824
#
# Poissons Ratio (x) = 0.47601 0.54016
# Poissons Ratio (y) = 0.52871 -0.11623
# Poissons Ratio (z) = 0.47206 -0.09145
#
# Static dielectric constant tensor:
#      x y z
#    x 2.040000 0.000000 0.020130 
#    y 0.000000 2.093100 0.000000 
#    z 0.020130 0.000000 2.031490 
# 
# From -- ./inp_files/8603.got.cif
#   From: 2010.05.17/outbox.cif.g08.bks.cpg/sg8_5_cif.got.tgz:8603.got - 2010.06.03 19:46:02.
