data_PCOD9133153
_publ_section_title
;
Structure prediction by ZEFSAII (Michael W. Deem and Ramdas Pophale) SiO2 
 PCOD9133153
Probable space group: C M
;
_chemical_formula_sum "Si O2"
_cell_formula_units_Z 32
_cell_length_a 9.585787
_cell_length_b 22.684324
_cell_length_c 8.338275
_cell_angle_alpha 90.000000
_cell_angle_beta 63.116897
_cell_angle_gamma 90.000000
_cell_volume 1617.190006
_symmetry_space_group_name_H-M "C M"
_symmetry_group_IT_number 8
_symmetry_cell_setting 'monoclinic'
loop_
_space_group_symop_operation_xyz
x,y,z
x,-y,z
1/2+x,1/2+y,z
1/2+x,1/2-y,z
loop_
_atom_site_type_symbol
_atom_site_label
_atom_site_fract_x
_atom_site_fract_y
_atom_site_fract_z
Si Si1 0.845430 0.168975 0.387690
Si Si2 0.342346 0.851172 0.856731
Si Si3 0.245434 0.362540 0.112311
Si Si4 0.090606 0.741046 0.706872
Si Si5 0.426753 0.434355 0.557118
Si Si6 0.075975 0.873259 0.757067
Si Si7 0.591602 0.068279 0.910724
Si Si8 0.107151 0.760629 0.080022
O O1 0.749449 0.132871 0.301702
O O2 0.737272 0.204693 0.566622
O O3 0.944301 0.119053 0.425562
O O4 0.949394 0.217503 0.243238
O O5 0.443220 0.797669 0.727920
O O6 0.231229 0.880687 0.781934
O O7 0.459328 0.893579 0.890372
O O8 0.223946 0.815915 0.032621
O O9 0.183486 0.296808 0.114493
O O10 0.422504 0.369388 0.951777
O O11 0.138368 0.404976 0.059572
O O12 0.085673 0.809570 0.663049
O O13 0.086710 0.745016 0.902565
O O14 0.445123 0.500000 0.480754
O O15 0.542479 0.423092 0.645211
O O16 0.251132 0.428603 0.722281
O O17 0.546526 0.000000 0.947529
#
# Coordination Sequence:
#
# PCOD9133153 Si02
#       8
#     4   4   4   4   4   4   4   4
#     4  12  24  38  66 101 128 179 218 267 335 385
#     4  11  19  38  66  94 131 168 212 278 324 384
#     4  11  21  39  61  97 130 171 217 266 324 395
#     4  11  21  39  63  95 140 167 209 265 333 398
#     4  10  23  44  63  89 131 179 229 269 315 398
#     4  10  22  38  64  94 132 173 214 267 329 384
#     4  10  22  42  69  91 126 182 226 263 325 394
#     4  11  22  40  62  97 140 169 211 275 327 398
#
# _framework density 19.787410999999999
#
# number of rings (size 3 to 8) (size 9 to 14) (size 15 to 20)
#    0.000    1.250    6.250    0.750    3.500    1.000 
#    0.000    1.875    0.000    0.000    0.000    0.000 
#    0.000    0.000    0.000    0.000    0.000    0.000 
#
# Total GULP energy -89322.180339 kJ/mol
# GULP energy per Si atom -5582.636271 kJ/mol
# Density = 1.974237 g / cm^3
# Si number density = 19.787411 Si / 1000 Ang^3
#
#
#
# Elastic Constant Matrix: (Units=GPa)
#
#
# Indices 1 2 3 4 5 6 
#
# 1 124.5835 43.9250 18.1020 0.0000 8.6183 0.0000
# 2 43.9250 71.3937 28.2957 0.0000 8.1719 0.0000
# 3 18.1020 28.2957 63.1372 0.0000 4.4340 0.0000
# 4 0.0000 0.0000 0.0000 14.3058 0.0000 -1.1951
# 5 8.6183 8.1719 4.4340 0.0000 26.3094 0.0000
# 6 0.0000 0.0000 0.0000 -1.1951 0.0000 25.6292
#
#
#
# Elastic Compliance Matrix: (Units=1/GPa)
#
#
# Indices 1 2 3 4 5 6 
#
# 1 0.010304 -0.006132 -0.000104 0.000000 -0.001453 0.000000
# 2 -0.006132 0.021119 -0.007476 0.000000 -0.003291 0.000000
# 3 -0.000104 -0.007476 0.019281 0.000000 -0.000894 0.000000
# 4 0.000000 0.000000 0.000000 0.070175 0.000000 0.003272
# 5 -0.001453 -0.003291 -0.000894 0.000000 0.039658 0.000000
# 6 0.000000 0.000000 0.000000 0.003272 0.000000 0.039171
#
#
# Mechanical properties :
#
#
# Convention : Reuss Voigt Hill
#
# Bulk Modulus (GPa) = 42.95283 48.86218 45.90750
# Shear Modulus (GPa) = 21.28627 24.50165 22.89396
#
# Velocity S-wave (km/s) = 3.28342 3.52269 3.40515
# Velocity P-wave (km/s) = 6.01072 6.42596 6.22180
#
# Compressibility (1/GPa) = 0.02328135
#
# Stress axis : x y z
#
# Youngs Moduli (GPa) = 97.04528 47.35024 51.86351
#
# Poissons Ratio (x) = 0.29036 0.00540
# Poissons Ratio (y) = 0.59510 0.38771
# Poissons Ratio (z) = 0.01010 0.35397
#
# Static dielectric constant tensor:
#      x y z
#    x 1.742960 0.000000 0.007640 
#    y 0.000000 1.684680 0.000000 
#    z 0.007640 0.000000 1.715700 
# 
# From -- ./inp_files/9025.got.cif
#   From: 2010.05.17/outbox.cif.g08.bks.cpg/sg8_5_cif.got.tgz:9025.got - 2010.06.03 19:46:02.
