data_PCOD9133524
_publ_section_title
;
Structure prediction by ZEFSAII (Michael W. Deem and Ramdas Pophale) SiO2 
 PCOD9133524
Probable space group: C M
;
_chemical_formula_sum "Si O2"
_cell_formula_units_Z 32
_cell_length_a 17.922875
_cell_length_b 14.750997
_cell_length_c 10.669988
_cell_angle_alpha 90.000000
_cell_angle_beta 147.142319
_cell_angle_gamma 90.000000
_cell_volume 1530.509657
_symmetry_space_group_name_H-M "C M"
_symmetry_group_IT_number 8
_symmetry_cell_setting 'monoclinic'
loop_
_space_group_symop_operation_xyz
x,y,z
x,-y,z
1/2+x,1/2+y,z
1/2+x,1/2-y,z
loop_
_atom_site_type_symbol
_atom_site_label
_atom_site_fract_x
_atom_site_fract_y
_atom_site_fract_z
Si Si1 0.885860 0.237669 0.183590
Si Si2 0.872824 0.898913 0.385705
Si Si3 0.667557 0.363030 0.188016
Si Si4 0.818072 0.603188 0.643616
Si Si5 0.681295 0.601005 0.917820
Si Si6 0.164466 0.285539 0.508279
Si Si7 0.613565 0.842018 0.157107
Si Si8 0.397744 0.602189 0.966585
O O1 0.843010 0.175629 0.238939
O O2 0.036529 0.279110 0.421163
O O3 0.778949 0.318415 0.008306
O O4 0.907857 0.170762 0.097150
O O5 0.752543 0.894252 0.318657
O O6 0.022950 0.882571 0.656403
O O7 0.874513 0.000000 0.332588
O O8 0.794584 0.380398 0.461589
O O9 0.634040 0.257217 0.127061
O O10 0.688623 0.399786 0.079384
O O11 0.536682 0.399450 0.080720
O O12 0.771567 0.500000 0.607450
O O13 0.732255 0.685730 0.585044
O O14 0.975369 0.614304 0.908502
O O15 0.720387 0.500000 0.926290
O O16 0.106209 0.322265 0.294279
O O17 0.279199 0.354851 0.714700
O O18 0.366782 0.500000 0.963482
#
# Coordination Sequence:
#
# PCOD9133524 Si02
#       8
#     4   4   4   4   4   4   4   4
#     4  12  24  43  67  93 137 174 215 261 325 395
#     4  11  25  43  66  98 130 171 218 268 328 387
#     4  11  22  41  70  97 127 169 219 274 321 380
#     4  11  22  39  66  99 133 167 213 268 327 385
#     4  11  25  45  69  96 130 174 221 268 323 386
#     4  11  24  43  65  97 130 171 217 270 326 379
#     4  11  22  41  68  97 132 167 217 273 328 377
#     4  12  24  43  69  97 127 169 220 270 326 385
#
# _framework density 20.908068
#
# number of rings (size 3 to 8) (size 9 to 14) (size 15 to 20)
#    0.000    0.750    5.000    3.375    1.750    3.000 
#    2.250    3.125    0.000    0.000    0.000    0.000 
#    0.000    0.000    0.000    0.000    0.000    0.000 
#
# Total GULP energy -89427.616869 kJ/mol
# GULP energy per Si atom -5589.226054 kJ/mol
# Density = 2.086048 g / cm^3
# Si number density = 20.908068 Si / 1000 Ang^3
#
#
#
# Elastic Constant Matrix: (Units=GPa)
#
#
# Indices 1 2 3 4 5 6 
#
# 1 57.3749 24.5700 11.5009 0.0000 10.9580 0.0000
# 2 24.5700 135.8398 53.6807 0.0000 12.6528 0.0000
# 3 11.5009 53.6807 106.4333 0.0000 13.4701 0.0000
# 4 0.0000 0.0000 0.0000 4.3388 0.0000 20.8042
# 5 10.9580 12.6528 13.4701 0.0000 25.4964 0.0000
# 6 0.0000 0.0000 0.0000 20.8042 0.0000 -6.3819
#
#
#
# Elastic Compliance Matrix: (Units=1/GPa)
#
#
# Indices 1 2 3 4 5 6 
#
# 1 0.020072 -0.003073 0.000300 0.000000 -0.007260 0.000000
# 2 -0.003073 0.009788 -0.004455 0.000000 -0.001183 0.000000
# 3 0.000300 -0.004455 0.012160 0.000000 -0.004342 0.000000
# 4 0.000000 0.000000 0.000000 0.013858 0.000000 0.045177
# 5 -0.007260 -0.001183 -0.004342 0.000000 0.045223 0.000000
# 6 0.000000 0.000000 0.000000 0.045177 0.000000 -0.009422
#
#
# Mechanical properties :
#
#
# Convention : Reuss Voigt Hill
#
# Bulk Modulus (GPa) = 36.28000 53.23901 44.75950
# Shear Modulus (GPa) = 43.35675 18.68374 31.02024
#
# Velocity S-wave (km/s) = 4.55871 2.99258 3.85600
# Velocity P-wave (km/s) = 6.71558 6.12041 6.42489
#
# Compressibility (1/GPa) = 0.02756340
#
# Stress axis : x y z
#
# Youngs Moduli (GPa) = 49.82175 102.16510 82.23947
#
# Poissons Ratio (x) = 0.31391 -0.02464
# Poissons Ratio (y) = 0.15308 0.36637
# Poissons Ratio (z) = -0.01493 0.45514
#
# Static dielectric constant tensor:
#      x y z
#    x 1.734490 0.000000 -0.003980 
#    y 0.000000 1.787730 0.000000 
#    z -0.003980 0.000000 1.739160 
# 
# From -- ./inp_files/23333.got.cif
#   From: 2010.05.17/outbox.cif.g08.bks.cpg/sg8_12_cif.got.tgz:23333.got - 2010.06.03 19:46:02.
