data_PCOD9133346
_publ_section_title
;
Structure prediction by ZEFSAII (Michael W. Deem and Ramdas Pophale) SiO2 
 PCOD9133346
Probable space group: C M
;
_chemical_formula_sum "Si O2"
_cell_formula_units_Z 30
_cell_length_a 11.866958
_cell_length_b 20.318577
_cell_length_c 8.556205
_cell_angle_alpha 90.000000
_cell_angle_beta 141.632441
_cell_angle_gamma 90.000000
_cell_volume 1280.555442
_symmetry_space_group_name_H-M "C M"
_symmetry_group_IT_number 8
_symmetry_cell_setting 'monoclinic'
loop_
_space_group_symop_operation_xyz
x,y,z
x,-y,z
1/2+x,1/2+y,z
1/2+x,1/2-y,z
loop_
_atom_site_type_symbol
_atom_site_label
_atom_site_fract_x
_atom_site_fract_y
_atom_site_fract_z
Si Si1 0.268960 0.500000 0.168121
Si Si2 0.515052 0.287088 0.503804
Si Si3 0.427046 0.902121 0.830863
Si Si4 0.046404 0.095738 0.314320
Si Si5 0.455212 0.616362 0.874364
Si Si6 0.082517 0.666842 0.414842
Si Si7 0.230926 0.889208 0.941199
Si Si8 0.086522 0.266667 0.083612
O O1 0.428081 0.555813 0.309966
O O2 0.109851 0.442860 0.011319
O O3 0.539319 0.330866 0.375141
O O4 0.612746 0.217634 0.587261
O O5 0.616162 0.327572 0.747669
O O6 0.302461 0.274257 0.294516
O O7 0.260302 0.920032 0.536805
O O8 0.334227 0.916151 0.900609
O O9 0.478229 0.824371 0.873157
O O10 0.957639 0.086603 0.049486
O O11 0.253785 0.620171 0.587028
O O12 0.582023 0.578313 0.889756
O O13 0.524350 0.692610 0.975787
O O14 0.056439 0.708722 0.228519
O O15 0.894897 0.629805 0.233207
#
# Coordination Sequence:
#
# PCOD9133346 Si02
#       8
#     2   4   4   4   4   4   4   4
#     4  12  24  48  72  92 126 174 240 278 314 390
#     4  11  20  39  60  93 136 173 222 256 323 395
#     4  10  24  44  69  97 127 175 231 274 325 383
#     4  11  25  42  68  98 128 175 224 278 327 388
#     4  12  23  38  63  99 142 173 207 271 339 404
#     4  11  21  36  58  94 138 181 209 253 334 398
#     4  10  23  38  60  91 133 170 215 269 319 393
#     4  11  21  37  63  96 140 172 210 270 328 396
#
# _framework density 23.427333999999998
#
# number of rings (size 3 to 8) (size 9 to 14) (size 15 to 20)
#    0.000    1.067    5.333    2.800    0.000    1.067 
#    0.000    0.667    0.000   11.200    0.000    0.000 
#    0.000    0.000    0.000    0.000    0.000    0.000 
#
# Total GULP energy -83538.469595 kJ/mol
# GULP energy per Si atom -5569.231306 kJ/mol
# Density = 2.337401 g / cm^3
# Si number density = 23.427334 Si / 1000 Ang^3
#
#
#
# Elastic Constant Matrix: (Units=GPa)
#
#
# Indices 1 2 3 4 5 6 
#
# 1 61.2696 -1.4067 23.9738 0.0000 35.7921 0.0000
# 2 -1.4067 59.4988 10.8048 0.0000 18.9822 0.0000
# 3 23.9738 10.8048 93.5620 0.0000 33.4345 0.0000
# 4 0.0000 0.0000 0.0000 -3.0467 0.0000 15.7038
# 5 35.7921 18.9822 33.4345 0.0000 56.3456 0.0000
# 6 0.0000 0.0000 0.0000 15.7038 0.0000 -60.9574
#
#
#
# Elastic Compliance Matrix: (Units=1/GPa)
#
#
# Indices 1 2 3 4 5 6 
#
# 1 0.028550 0.007230 -0.001014 0.000000 -0.019969 0.000000
# 2 0.007230 0.020663 -0.000140 0.000000 -0.011471 0.000000
# 3 -0.001014 -0.000140 0.013601 0.000000 -0.007379 0.000000
# 4 0.000000 0.000000 0.000000 1.001079 0.000000 0.257898
# 5 -0.019969 -0.011471 -0.007379 0.000000 0.038676 0.000000
# 6 0.000000 0.000000 0.000000 0.257898 0.000000 0.050035
#
#
# Mechanical properties :
#
#
# Convention : Reuss Voigt Hill
#
# Bulk Modulus (GPa) = 13.33936 31.23047 22.28491
# Shear Modulus (GPa) = 4.29023 10.53222 7.41122
#
# Velocity S-wave (km/s) = 1.35472 2.12261 1.78055
# Velocity P-wave (km/s) = 2.85540 4.40079 3.70947
#
# Compressibility (1/GPa) = 0.07496609
#
# Stress axis : x y z
#
# Youngs Moduli (GPa) = 35.02664 48.39568 73.52327
#
# Poissons Ratio (x) = -0.34990 0.07457
# Poissons Ratio (y) = -0.25325 0.01027
# Poissons Ratio (z) = 0.03553 0.00676
#
# Static dielectric constant tensor:
#      x y z
#    x 1.904170 0.000000 -0.038840 
#    y 0.000000 1.903570 0.000000 
#    z -0.038840 0.000000 1.874340 
# 
# From -- ./inp_files/11609.got.cif
#   From: 2010.05.17/outbox.cif.g08.bks.cpg/sg8_6_cif.got.tgz:11609.got - 2010.06.03 19:46:02.
