data_PCOD9133751
_publ_section_title
;
Structure prediction by ZEFSAII (Michael W. Deem and Ramdas Pophale) SiO2 
 PCOD9133751
Probable space group: C C
;
_chemical_formula_sum "Si O2"
_cell_formula_units_Z 32
_cell_length_a 11.299380
_cell_length_b 8.943647
_cell_length_c 17.658755
_cell_angle_alpha 90.000000
_cell_angle_beta 37.984026
_cell_angle_gamma 90.000000
_cell_volume 1098.288163
_symmetry_space_group_name_H-M "C C"
_symmetry_group_IT_number 9
_symmetry_cell_setting 'monoclinic'
loop_
_space_group_symop_operation_xyz
x,y,z
x,-y,1/2+z
1/2+x,1/2+y,z
1/2+x,1/2-y,1/2+z
loop_
_atom_site_type_symbol
_atom_site_label
_atom_site_fract_x
_atom_site_fract_y
_atom_site_fract_z
Si Si1 0.422990 0.016632 0.438870
Si Si2 0.632737 0.052547 0.192461
Si Si3 0.871737 0.027101 0.940393
Si Si4 0.129327 0.777236 0.876899
Si Si5 0.876752 0.776465 0.130869
Si Si6 0.083073 0.042685 0.196565
Si Si7 0.328368 0.179853 0.780310
Si Si8 0.052655 0.674845 0.523277
O O1 0.505676 0.071498 0.476407
O O2 0.521596 0.110644 0.322853
O O3 0.497965 0.845001 0.397722
O O4 0.195633 0.018945 0.567071
O O5 0.787704 0.934065 0.149483
O O6 0.461051 0.954528 0.242453
O O7 0.756914 0.124566 0.061013
O O8 0.712501 0.903407 0.995603
O O9 0.044489 0.936189 0.894502
O O10 0.975464 0.066253 0.809100
O O11 0.339344 0.748327 0.738034
O O12 0.082303 0.756616 0.988415
O O13 0.738618 0.649821 0.161669
O O14 0.926970 0.160632 0.247857
O O15 0.149312 0.186976 0.929588
O O16 0.361930 0.182610 0.671897
#
# Coordination Sequence:
#
# PCOD9133751 Si02
#       8
#     4   4   4   4   4   4   4   4
#     4  10  16  22  36  66  92 104 136 190 222 236
#     4   8  13  23  40  58  82 113 141 165 203 265
#     4   8  14  26  43  60  81 120 149 162 209 280
#     4   8  12  20  34  53  79 105 133 161 199 255
#     4   7  10  16  30  50  70  99 128 149 180 234
#     4   8  13  23  40  58  82 113 141 165 203 265
#     4   9  16  30  46  62  90 125 146 163 218 286
#     4  10  18  26  41  63  90 117 144 185 224 253
#
# _framework density 29.136251999999999
#
# number of rings (size 3 to 8) (size 9 to 14) (size 15 to 20)
#    0.000    3.500    0.000    5.250    0.000    0.000 
#    0.000    1.250    0.000    0.000    0.000    0.000 
#    0.000  168.000    0.000    0.000    0.000    0.000 
#
# Total GULP energy -89382.920750 kJ/mol
# GULP energy per Si atom -5586.432547 kJ/mol
# Density = 2.906994 g / cm^3
# Si number density = 29.136252 Si / 1000 Ang^3
#
#
#
# Elastic Constant Matrix: (Units=GPa)
#
#
# Indices 1 2 3 4 5 6 
#
# 1 71.0042 27.1314 50.4765 0.0000 10.6733 0.0000
# 2 27.1314 67.2831 -12.2497 0.0000 3.0322 0.0000
# 3 50.4765 -12.2497 239.6042 0.0000 53.0956 0.0000
# 4 0.0000 0.0000 0.0000 17.8454 0.0000 -6.4516
# 5 10.6733 3.0322 53.0956 0.0000 61.4960 0.0000
# 6 0.0000 0.0000 0.0000 -6.4516 0.0000 39.7640
#
#
#
# Elastic Compliance Matrix: (Units=1/GPa)
#
#
# Indices 1 2 3 4 5 6 
#
# 1 0.021306 -0.009612 -0.005275 0.000000 0.001330 0.000000
# 2 -0.009612 0.019489 0.003542 0.000000 -0.002351 0.000000
# 3 -0.005275 0.003542 0.006556 0.000000 -0.004920 0.000000
# 4 0.000000 0.000000 0.000000 0.059529 0.000000 0.009658
# 5 0.001330 -0.002351 -0.004920 0.000000 0.020394 0.000000
# 6 0.000000 0.000000 0.000000 0.009658 0.000000 0.026715
#
#
# Mechanical properties :
#
#
# Convention : Reuss Voigt Hill
#
# Bulk Modulus (GPa) = 40.54630 56.51199 48.52914
# Shear Modulus (GPa) = 27.04178 44.65663 35.84920
#
# Velocity S-wave (km/s) = 3.04980 3.91920 3.51151
# Velocity P-wave (km/s) = 5.13303 6.31807 5.75613
#
# Compressibility (1/GPa) = 0.02466317
#
# Stress axis : x y z
#
# Youngs Moduli (GPa) = 46.93463 51.31006 152.53147
#
# Poissons Ratio (x) = 0.49318 0.80455
# Poissons Ratio (y) = 0.45113 -0.54031
# Poissons Ratio (z) = 0.24756 -0.18176
#
# Static dielectric constant tensor:
#      x y z
#    x 2.243040 0.000000 -0.002890 
#    y 0.000000 2.248050 0.000000 
#    z -0.002890 0.000000 2.396540 
# 
# From -- ./inp_files/18084.got.cif
#   From: 2010.05.17/outbox.cif.g08.bks.cpg/sg9_10_cif.got.tgz:18084.got - 2010.06.03 20:04:27.
