data_PCOD9133990
_publ_section_title
;
Structure prediction by ZEFSAII (Michael W. Deem and Ramdas Pophale) SiO2 
 PCOD9133990
Probable space group: C C
;
_chemical_formula_sum "Si O2"
_cell_formula_units_Z 32
_cell_length_a 22.099217
_cell_length_b 9.708291
_cell_length_c 10.017511
_cell_angle_alpha 90.000000
_cell_angle_beta 39.449964
_cell_angle_gamma 90.000000
_cell_volume 1365.618932
_symmetry_space_group_name_H-M "C C"
_symmetry_group_IT_number 9
_symmetry_cell_setting 'monoclinic'
loop_
_space_group_symop_operation_xyz
x,y,z
x,-y,1/2+z
1/2+x,1/2+y,z
1/2+x,1/2-y,1/2+z
loop_
_atom_site_type_symbol
_atom_site_label
_atom_site_fract_x
_atom_site_fract_y
_atom_site_fract_z
Si Si1 0.461760 0.311385 0.103130
Si Si2 0.116366 0.991612 0.234467
Si Si3 0.893854 0.339260 0.345483
Si Si4 0.058143 0.604870 0.732739
Si Si5 0.280721 0.726903 0.788453
Si Si6 0.740727 0.273605 0.386851
Si Si7 0.287223 0.892881 0.042930
Si Si8 0.565980 0.210252 0.179224
O O1 0.355085 0.361257 0.250154
O O2 0.487838 0.262622 0.206699
O O3 0.526496 0.434658 0.947463
O O4 0.499650 0.182710 0.948805
O O5 0.192725 0.983189 0.222893
O O6 0.083382 0.840488 0.245356
O O7 0.169833 0.097107 0.042297
O O8 0.006401 0.335092 0.185908
O O9 0.837619 0.260086 0.558258
O O10 0.837267 0.292959 0.309733
O O11 0.871764 0.500560 0.407823
O O12 0.169442 0.647498 0.541019
O O13 0.045215 0.441000 0.771752
O O14 0.278344 0.849769 0.902930
O O15 0.173255 0.688915 0.936156
O O16 0.775931 0.278138 0.173972
#
# Coordination Sequence:
#
# PCOD9133990 Si02
#       8
#     4   4   4   4   4   4   4   4
#     4  10  21  41  61  84 123 167 206 250 314 379
#     4   9  19  36  61  85 115 164 210 249 303 374
#     4  10  19  38  63  84 116 164 209 248 300 372
#     4  10  23  38  60  93 122 158 206 259 311 362
#     4  10  21  36  57  85 119 157 198 251 310 363
#     4  10  20  38  61  87 121 162 206 253 308 373
#     4  10  18  33  58  87 113 151 206 252 296 365
#     4  11  21  38  61  91 125 159 205 264 312 358
#
# _framework density 23.432597999999999
#
# number of rings (size 3 to 8) (size 9 to 14) (size 15 to 20)
#    0.000    2.000    0.000    6.000    0.000    3.000 
#    0.000   11.250    0.000    0.000    0.000    0.000 
#    0.000    0.000    0.000    0.000    0.000    0.000 
#
# Total GULP energy -89103.039135 kJ/mol
# GULP energy per Si atom -5568.939946 kJ/mol
# Density = 2.337926 g / cm^3
# Si number density = 23.432598 Si / 1000 Ang^3
#
#
#
# Elastic Constant Matrix: (Units=GPa)
#
#
# Indices 1 2 3 4 5 6 
#
# 1 47.0888 7.7792 7.9213 0.0000 -16.1803 0.0000
# 2 7.7792 90.0175 3.0610 0.0000 4.4581 0.0000
# 3 7.9213 3.0610 31.3410 0.0000 -11.1650 0.0000
# 4 0.0000 0.0000 0.0000 10.9457 0.0000 -10.2827
# 5 -16.1803 4.4581 -11.1650 0.0000 27.6642 0.0000
# 6 0.0000 0.0000 0.0000 -10.2827 0.0000 21.6472
#
#
#
# Elastic Compliance Matrix: (Units=1/GPa)
#
#
# Indices 1 2 3 4 5 6 
#
# 1 0.027479 -0.003150 -0.000854 0.000000 0.016235 0.000000
# 2 -0.003150 0.011671 -0.001951 0.000000 -0.004510 0.000000
# 3 -0.000854 -0.001951 0.037663 0.000000 0.015015 0.000000
# 4 0.000000 0.000000 0.000000 0.164981 0.000000 0.078368
# 5 0.016235 -0.004510 0.015015 0.000000 0.052430 0.000000
# 6 0.000000 0.000000 0.000000 0.078368 0.000000 0.083422
#
#
# Mechanical properties :
#
#
# Convention : Reuss Voigt Hill
#
# Bulk Modulus (GPa) = 15.40737 22.88557 19.14647
# Shear Modulus (GPa) = 12.15988 22.03049 17.09518
#
# Velocity S-wave (km/s) = 2.28048 3.06954 2.70394
# Velocity P-wave (km/s) = 3.67744 4.72763 4.23521
#
# Compressibility (1/GPa) = 0.06490399
#
# Stress axis : x y z
#
# Youngs Moduli (GPa) = 36.39141 85.68361 26.55160
#
# Poissons Ratio (x) = 0.26988 0.02267
# Poissons Ratio (y) = 0.11462 0.05179
# Poissons Ratio (z) = 0.03108 0.16713
#
# Static dielectric constant tensor:
#      x y z
#    x 1.959610 0.000000 -0.051510 
#    y 0.000000 1.970960 0.000000 
#    z -0.051510 0.000000 2.015720 
# 
# From -- ./inp_files/20808.got.cif
#   From: 2010.05.17/outbox.cif.g08.bks.cpg/sg9_11_cif.got.tgz:20808.got - 2010.06.03 20:04:27.
