data_PCOD9133741
_publ_section_title
;
Structure prediction by ZEFSAII (Michael W. Deem and Ramdas Pophale) SiO2 
 PCOD9133741
Probable space group: C C
;
_chemical_formula_sum "Si O2"
_cell_formula_units_Z 28
_cell_length_a 6.877245
_cell_length_b 16.960457
_cell_length_c 10.105716
_cell_angle_alpha 90.000000
_cell_angle_beta 106.504957
_cell_angle_gamma 90.000000
_cell_volume 1130.173106
_symmetry_space_group_name_H-M "C C"
_symmetry_group_IT_number 9
_symmetry_cell_setting 'monoclinic'
loop_
_space_group_symop_operation_xyz
x,y,z
x,-y,1/2+z
1/2+x,1/2+y,z
1/2+x,1/2-y,1/2+z
loop_
_atom_site_type_symbol
_atom_site_label
_atom_site_fract_x
_atom_site_fract_y
_atom_site_fract_z
Si Si1 0.281240 0.676579 0.316450
Si Si2 0.032580 0.057940 0.713389
Si Si3 0.571615 0.719859 0.588467
Si Si4 0.116792 0.747242 0.540755
Si Si5 0.097565 0.488094 0.856541
Si Si6 0.987499 0.924218 0.503711
Si Si7 0.040079 0.583702 0.607359
O O1 0.498813 0.701737 0.422738
O O2 0.224835 0.712665 0.164814
O O3 0.125096 0.717381 0.390267
O O4 0.235089 0.583602 0.323009
O O5 0.124178 0.135491 0.662206
O O6 0.787449 0.073971 0.654293
O O7 0.064172 0.978966 0.636567
O O8 0.080031 0.055201 0.877476
O O9 0.357446 0.747135 0.613481
O O10 0.031505 0.833520 0.535160
O O11 0.009670 0.677213 0.600581
O O12 0.976428 0.531089 0.718074
O O13 0.250298 0.554065 0.942746
O O14 0.974626 0.451795 0.954246
#
# Coordination Sequence:
#
# PCOD9133741 Si02
#       7
#     4   4   4   4   4   4   4
#     4   9  16  28  48  76  97 127 170 208 239 294
#     4   9  15  25  46  73  95 121 163 208 237 292
#     4   9  15  29  45  77  96 126 171 207 236 295
#     4   8  16  25  47  71  95 128 165 204 236 296
#     4   9  16  27  49  72  98 123 169 206 245 296
#     4  10  15  27  46  74  96 124 168 208 241 290
#     4   8  15  27  43  71  95 123 164 203 244 289
#
# _framework density 24.774968000000001
#
# number of rings (size 3 to 8) (size 9 to 14) (size 15 to 20)
#    0.857    2.286    4.286    0.000    0.000    0.000 
#    0.000    0.000    3.143    6.857    0.000    0.000 
#    0.000    0.000    0.000    0.000    0.000    0.000 
#
# Total GULP energy -78162.897039 kJ/mol
# GULP energy per Si atom -5583.064074 kJ/mol
# Density = 2.471858 g / cm^3
# Si number density = 24.774968 Si / 1000 Ang^3
#
#
#
# Elastic Constant Matrix: (Units=GPa)
#
#
# Indices 1 2 3 4 5 6 
#
# 1 53.9175 39.0232 30.8055 0.0000 0.2953 0.0000
# 2 39.0232 221.2273 89.0320 0.0000 -11.3583 0.0000
# 3 30.8055 89.0320 147.7673 0.0000 -7.1851 0.0000
# 4 0.0000 0.0000 0.0000 44.2605 0.0000 0.5370
# 5 0.2953 -11.3583 -7.1851 0.0000 10.1440 0.0000
# 6 0.0000 0.0000 0.0000 0.5370 0.0000 29.8405
#
#
#
# Elastic Compliance Matrix: (Units=1/GPa)
#
#
# Indices 1 2 3 4 5 6 
#
# 1 0.022595 -0.003023 -0.003195 0.000000 -0.006307 0.000000
# 2 -0.003023 0.006557 -0.003065 0.000000 0.005259 0.000000
# 3 -0.003195 -0.003065 0.009443 0.000000 0.003350 0.000000
# 4 0.000000 0.000000 0.000000 0.022598 0.000000 -0.000407
# 5 -0.006307 0.005259 0.003350 0.000000 0.107026 0.000000
# 6 0.000000 0.000000 0.000000 -0.000407 0.000000 0.033519
#
#
# Mechanical properties :
#
#
# Convention : Reuss Voigt Hill
#
# Bulk Modulus (GPa) = 49.92987 82.29262 66.11124
# Shear Modulus (GPa) = 22.02821 34.45242 28.24032
#
# Velocity S-wave (km/s) = 2.98507 3.73314 3.37986
# Velocity P-wave (km/s) = 5.66374 7.20208 6.47873
#
# Compressibility (1/GPa) = 0.02002809
#
# Stress axis : x y z
#
# Youngs Moduli (GPa) = 44.25684 152.51062 105.89924
#
# Poissons Ratio (x) = 0.46111 0.33840
# Poissons Ratio (y) = 0.13381 0.32454
# Poissons Ratio (z) = 0.14142 0.46739
#
# Static dielectric constant tensor:
#      x y z
#    x 2.081610 0.000000 -0.016690 
#    y 0.000000 1.896060 0.000000 
#    z -0.016690 0.000000 2.005810 
# 
# From -- ./inp_files/16668.got.cif
#   From: 2010.05.17/outbox.cif.g08.bks.cpg/sg9_9_cif.got.tgz:16668.got - 2010.06.03 20:04:27.
