data_PCOD9133263
_publ_section_title
;
Structure prediction by ZEFSAII (Michael W. Deem and Ramdas Pophale) SiO2 
 PCOD9133263
Probable space group: C M
;
_chemical_formula_sum "Si O2"
_cell_formula_units_Z 24
_cell_length_a 7.460956
_cell_length_b 13.226303
_cell_length_c 14.539740
_cell_angle_alpha 90.000000
_cell_angle_beta 49.424876
_cell_angle_gamma 90.000000
_cell_volume 1089.803296
_symmetry_space_group_name_H-M "C M"
_symmetry_group_IT_number 8
_symmetry_cell_setting 'monoclinic'
loop_
_space_group_symop_operation_xyz
x,y,z
x,-y,z
1/2+x,1/2+y,z
1/2+x,1/2-y,z
loop_
_atom_site_type_symbol
_atom_site_label
_atom_site_fract_x
_atom_site_fract_y
_atom_site_fract_z
Si Si1 0.837600 0.279424 0.906580
Si Si2 0.465735 0.879728 0.048052
Si Si3 0.680149 0.387215 0.779935
Si Si4 0.144477 0.886538 0.492518
Si Si5 0.541701 0.615902 0.319203
Si Si6 0.511280 0.823008 0.523804
O O1 0.663574 0.199355 0.014972
O O2 0.948991 0.351431 0.946085
O O3 0.719070 0.350828 0.870825
O O4 0.012876 0.201155 0.796761
O O5 0.508249 0.000000 0.048403
O O6 0.221057 0.852577 0.180280
O O7 0.579621 0.500000 0.808091
O O8 0.920141 0.384684 0.641538
O O9 0.181153 0.882354 0.369920
O O10 0.366030 0.863192 0.484508
O O11 0.964417 0.794259 0.564414
O O12 0.059694 0.000000 0.542438
O O13 0.476240 0.500000 0.322700
O O14 0.290519 0.670159 0.412278
#
# Coordination Sequence:
#
# PCOD9133263 Si02
#       6
#     4   4   4   4   4   4
#     4  10  23  40  65  89 118 168 207 251 308 363
#     4  10  22  42  63  90 124 159 207 258 306 366
#     4  11  23  42  63  91 125 160 207 256 306 370
#     4  11  24  40  61  94 130 168 209 247 313 383
#     4  10  23  42  66  96 129 166 208 260 318 376
#     4  12  23  42  66  94 132 165 206 262 319 372
#
# _framework density 22.022321999999999
#
# number of rings (size 3 to 8) (size 9 to 14) (size 15 to 20)
#    0.000    1.333    1.667    3.500    2.333    0.000 
#    3.000    3.333    0.000    0.000    0.000    0.000 
#    0.000    0.000    0.000    0.000    0.000    0.000 
#
# Total GULP energy -66932.083754 kJ/mol
# GULP energy per Si atom -5577.673646 kJ/mol
# Density = 2.197220 g / cm^3
# Si number density = 22.022322 Si / 1000 Ang^3
#
#
#
# Elastic Constant Matrix: (Units=GPa)
#
#
# Indices 1 2 3 4 5 6 
#
# 1 62.3318 20.0627 8.0905 0.0000 7.6742 0.0000
# 2 20.0627 120.9518 40.7375 0.0000 -6.2828 0.0000
# 3 8.0905 40.7375 80.0326 0.0000 -16.8751 0.0000
# 4 0.0000 0.0000 0.0000 25.3450 0.0000 -4.4987
# 5 7.6742 -6.2828 -16.8751 0.0000 28.4959 0.0000
# 6 0.0000 0.0000 0.0000 -4.4987 0.0000 27.1145
#
#
#
# Elastic Compliance Matrix: (Units=1/GPa)
#
#
# Indices 1 2 3 4 5 6 
#
# 1 0.017949 -0.002706 -0.001808 0.000000 -0.006501 0.000000
# 2 -0.002706 0.010408 -0.005012 0.000000 0.000055 0.000000
# 3 -0.001808 -0.005012 0.017253 0.000000 0.009599 0.000000
# 4 0.000000 0.000000 0.000000 0.040653 0.000000 0.006745
# 5 -0.006501 0.000055 0.009599 0.000000 0.042540 0.000000
# 6 0.000000 0.000000 0.000000 0.006745 0.000000 0.038000
#
#
# Mechanical properties :
#
#
# Convention : Reuss Voigt Hill
#
# Bulk Modulus (GPa) = 37.65463 44.56641 41.11052
# Shear Modulus (GPa) = 25.67952 29.15278 27.41615
#
# Velocity S-wave (km/s) = 3.41848 3.64233 3.53218
# Velocity P-wave (km/s) = 5.71986 6.16195 5.94502
#
# Compressibility (1/GPa) = 0.02655716
#
# Stress axis : x y z
#
# Youngs Moduli (GPa) = 55.71267 96.08234 57.96084
#
# Poissons Ratio (x) = 0.26001 0.10478
# Poissons Ratio (y) = 0.15076 0.29053
# Poissons Ratio (z) = 0.10072 0.48161
#
# Static dielectric constant tensor:
#      x y z
#    x 1.837550 0.000000 -0.034340 
#    y 0.000000 1.827790 0.000000 
#    z -0.034340 0.000000 1.823240 
# 
# From -- ./inp_files/25336.got.cif
#   From: 2010.05.17/outbox.cif.g08.bks.cpg/sg8_13_cif.got.tgz:25336.got - 2010.06.03 19:46:02.
