data_PCOD9133708
_publ_section_title
;
Structure prediction by ZEFSAII (Michael W. Deem and Ramdas Pophale) SiO2 
 PCOD9133708
Probable space group: C M
;
_chemical_formula_sum "Si O2"
_cell_formula_units_Z 16
_cell_length_a 21.000000
_cell_length_b 9.000000
_cell_length_c 27.000000
_cell_angle_alpha 90.000000
_cell_angle_beta 160.000000
_cell_angle_gamma 90.000000
_cell_volume 1745.328791
_symmetry_space_group_name_H-M "C M"
_symmetry_group_IT_number 8
_symmetry_cell_setting 'monoclinic'
loop_
_space_group_symop_operation_xyz
x,y,z
x,-y,z
1/2+x,1/2+y,z
1/2+x,1/2-y,z
loop_
_atom_site_type_symbol
_atom_site_label
_atom_site_fract_x
_atom_site_fract_y
_atom_site_fract_z
Si Si1 0.113860 0.820280 0.088380
Si Si2 0.440440 0.321468 0.753201
Si Si3 0.438628 0.678613 0.255321
Si Si4 0.203921 0.821585 0.768618
Si Si5 0.127189 0.176244 0.595697
Si Si6 0.194457 0.679319 0.253851
Si Si7 0.371680 0.822017 0.099660
Si Si8 0.876898 0.679363 0.598937
O O1 0.280946 0.755346 0.175336
O O2 0.155678 0.766486 0.174843
O O3 0.110645 0.000000 0.081883
O O4 0.907122 0.753459 0.925849
O O5 0.419397 0.500000 0.733529
O O6 0.283475 0.261182 0.677122
O O7 0.410495 0.242907 0.678474
O O8 0.657014 0.292649 0.926580
O O9 0.415967 0.500000 0.243012
O O10 0.405783 0.734395 0.175383
O O11 0.657664 0.713011 0.426955
O O12 0.160744 0.801200 0.678739
O O13 0.034093 0.751856 0.677312
O O14 0.214677 0.000000 0.786746
O O15 0.909146 0.213796 0.426036
O O16 0.148801 0.000000 0.600725
O O17 0.184194 0.500000 0.238138
O O18 0.032951 0.714300 0.176691
O O19 0.386515 0.000000 0.119349
O O20 0.898113 0.500000 0.612905
#
# Coordination Sequence:
#
# PCOD9133708 Si02
#       8
#     4   4   4   4   4   4   4   4
#     4  12  25  40  61  90 123 160 203 248 295 352
#     4  11  23  38  60  89 120 157 199 245 297 353
#     4  11  24  41  62  89 122 160 201 247 299 354
#     4  11  23  41  65  91 121 158 199 245 301 360
#     4  10  22  39  61  88 118 155 197 245 300 356
#     4  10  21  40  63  87 118 155 198 247 298 353
#     4  10  22  40  62  88 117 153 199 248 296 351
#     4  11  24  41  62  90 123 158 200 249 298 353
#
# _framework density 9.1673270000000002
#
# number of rings (size 3 to 8) (size 9 to 14) (size 15 to 20)
#    0.000    1.250    0.000    5.625    0.000   12.000 
#    0.000    0.000    0.000    0.000    0.000    0.000 
#    0.000    0.000    0.000    0.000    0.000    0.000 
#
# Total GULP energy -89385.804461 kJ/mol
# GULP energy per Si atom -5586.612779 kJ/mol
# Density = 0.914646 g / cm^3
# Si number density = 9.167327 Si / 1000 Ang^3
#
#
#
# Elastic Constant Matrix: (Units=GPa)
#
#
# Indices 1 2 3 4 5 6 
#
# 1 189.2706 84.1556 100.4468 0.0050 25.4103 0.0007
# 2 84.1556 120.4867 89.0844 -0.0077 7.6163 -0.0026
# 3 100.4468 89.0844 205.5947 0.0017 14.2482 -0.0029
# 4 0.0050 -0.0077 0.0017 35.3756 -0.0040 8.2107
# 5 25.4103 7.6163 14.2482 -0.0040 47.9871 -0.0002
# 6 0.0007 -0.0026 -0.0029 8.2107 -0.0002 44.6605
#
#
#
# Elastic Compliance Matrix: (Units=1/GPa)
#
#
# Indices 1 2 3 4 5 6 
#
# 1 0.008823 -0.004319 -0.002208 -0.000002 -0.003331 0.000000
# 2 -0.004319 0.014333 -0.004187 0.000004 0.001256 0.000000
# 3 -0.002208 -0.004187 0.007790 -0.000001 -0.000479 0.000001
# 4 -0.000002 0.000004 -0.000001 0.029528 0.000003 -0.005429
# 5 -0.003331 0.001256 -0.000479 0.000003 0.022546 0.000000
# 6 0.000000 0.000000 0.000001 -0.005429 0.000000 0.023389
#
#
# Mechanical properties :
#
#
# Convention : Reuss Voigt Hill
#
# Bulk Modulus (GPa) = 105.07684 118.08063 111.57873
# Shear Modulus (GPa) = 38.16456 41.71564 39.94010
#
# Velocity S-wave (km/s) = 4.56735 4.77512 4.67239
# Velocity P-wave (km/s) = 9.23305 9.74398 9.49195
#
# Compressibility (1/GPa) = 0.00951685
#
# Stress axis : x y z
#
# Youngs Moduli (GPa) = 113.33955 69.76826 128.36309
#
# Poissons Ratio (x) = 0.30135 0.28346
# Poissons Ratio (y) = 0.48955 0.53750
# Poissons Ratio (z) = 0.25028 0.29214
#
# Static dielectric constant tensor:
#      x y z
#    x 1.606540 0.000000 -0.012280 
#    y 0.000000 1.623810 0.000000 
#    z -0.012280 0.000000 1.639470 
# 
# From -- ./inp_files/33070.got.cif
#   From: 2010.05.17/outbox.ucp.g08.bks.cvg/sg8_17_cif.got.tgz:33070.got - 2010.06.11 13:00:03.
