data_PCOD9133792
_publ_section_title
;
Structure prediction by ZEFSAII (Michael W. Deem and Ramdas Pophale) SiO2 
 PCOD9133792
Probable space group: C C
;
_chemical_formula_sum "Si O2"
_cell_formula_units_Z 32
_cell_length_a 9.532501
_cell_length_b 15.886252
_cell_length_c 11.234636
_cell_angle_alpha 90.000000
_cell_angle_beta 65.118351
_cell_angle_gamma 90.000000
_cell_volume 1543.406108
_symmetry_space_group_name_H-M "C C"
_symmetry_group_IT_number 9
_symmetry_cell_setting 'monoclinic'
loop_
_space_group_symop_operation_xyz
x,y,z
x,-y,1/2+z
1/2+x,1/2+y,z
1/2+x,1/2-y,1/2+z
loop_
_atom_site_type_symbol
_atom_site_label
_atom_site_fract_x
_atom_site_fract_y
_atom_site_fract_z
Si Si1 0.206710 0.016989 0.568850
Si Si2 0.209755 0.728657 0.198162
Si Si3 0.769931 0.162345 0.423467
Si Si4 0.064789 0.857543 0.950418
Si Si5 0.153342 0.676146 0.954426
Si Si6 0.468348 0.633187 0.745196
Si Si7 0.941472 0.622248 0.632629
Si Si8 0.843127 0.642606 0.937512
O O1 0.358643 0.053535 0.578822
O O2 0.175378 0.068378 0.456816
O O3 0.067614 0.048064 0.702925
O O4 0.217674 0.920058 0.535763
O O5 0.234875 0.664486 0.295904
O O6 0.168302 0.684955 0.089925
O O7 0.360476 0.788208 0.126905
O O8 0.071730 0.795880 0.273964
O O9 0.936315 0.124400 0.398278
O O10 0.623890 0.125039 0.545050
O O11 0.786586 0.261715 0.449211
O O12 0.966348 0.838958 0.107104
O O13 0.157989 0.771276 0.896733
O O14 0.299861 0.625710 0.855776
O O15 0.992405 0.639793 0.968343
O O16 0.896240 0.612921 0.787151
#
# Coordination Sequence:
#
# PCOD9133792 Si02
#       8
#     4   4   4   4   4   4   4   4
#     4   9  20  41  59  88 125 167 189 252 328 353
#     4   9  18  30  56  96 122 156 200 254 305 350
#     4  10  19  35  63  93 121 157 208 258 292 365
#     4   8  18  33  58  89 118 157 202 246 309 353
#     4  10  16  33  59  96 117 158 214 247 294 371
#     4   8  16  31  60  81 121 164 191 246 313 357
#     4  10  19  38  63  85 126 163 197 253 311 362
#     4  10  22  37  64  94 120 158 213 256 302 369
#
# _framework density 20.733363000000001
#
# number of rings (size 3 to 8) (size 9 to 14) (size 15 to 20)
#    0.750    2.000    1.250    1.500    0.000    0.000 
#    2.250    5.000   16.500    0.000    0.000    0.000 
#    0.000    0.000    0.000    0.000    0.000    0.000 
#
# Total GULP energy -89208.650100 kJ/mol
# GULP energy per Si atom -5575.540631 kJ/mol
# Density = 2.068617 g / cm^3
# Si number density = 20.733363 Si / 1000 Ang^3
#
#
#
# Elastic Constant Matrix: (Units=GPa)
#
#
# Indices 1 2 3 4 5 6 
#
# 1 108.5350 15.3732 30.5403 0.0000 15.3811 0.0000
# 2 15.3732 40.8361 13.0783 0.0000 -5.6113 0.0000
# 3 30.5403 13.0783 46.0284 0.0000 5.5808 0.0000
# 4 0.0000 0.0000 0.0000 20.5908 0.0000 -0.7071
# 5 15.3811 -5.6113 5.5808 0.0000 33.0868 0.0000
# 6 0.0000 0.0000 0.0000 -0.7071 0.0000 8.4318
#
#
#
# Elastic Compliance Matrix: (Units=1/GPa)
#
#
# Indices 1 2 3 4 5 6 
#
# 1 0.012250 -0.003203 -0.006596 0.000000 -0.005125 0.000000
# 2 -0.003203 0.028989 -0.007032 0.000000 0.007592 0.000000
# 3 -0.006596 -0.007032 0.028455 0.000000 -0.002926 0.000000
# 4 0.000000 0.000000 0.000000 0.048706 0.000000 0.004085
# 5 -0.005125 0.007592 -0.002926 0.000000 0.034387 0.000000
# 6 0.000000 0.000000 0.000000 0.004085 0.000000 0.118941
#
#
# Mechanical properties :
#
#
# Convention : Reuss Voigt Hill
#
# Bulk Modulus (GPa) = 27.75370 34.82034 31.28702
# Shear Modulus (GPa) = 15.75292 21.51573 18.63432
#
# Velocity S-wave (km/s) = 2.75941 3.22488 3.00119
# Velocity P-wave (km/s) = 4.85464 5.54052 5.20888
#
# Compressibility (1/GPa) = 0.03603124
#
# Stress axis : x y z
#
# Youngs Moduli (GPa) = 81.63431 34.49551 35.14302
#
# Poissons Ratio (x) = 0.11050 0.23181
# Poissons Ratio (y) = 0.26150 0.24712
# Poissons Ratio (z) = 0.53848 0.24257
#
# Static dielectric constant tensor:
#      x y z
#    x 1.752740 0.000000 0.021540 
#    y 0.000000 1.753480 0.000000 
#    z 0.021540 0.000000 1.741930 
# 
# From -- ./inp_files/15422.got.cif
#   From: 2010.05.17/outbox.cif.g08.bks.cpg/sg9_8_cif.got.tgz:15422.got - 2010.06.03 20:04:27.
