data_PCOD9133176
_publ_section_title
;
Structure prediction by ZEFSAII (Michael W. Deem and Ramdas Pophale) SiO2 
 PCOD9133176
Probable space group: C M
;
_chemical_formula_sum "Si O2"
_cell_formula_units_Z 26
_cell_length_a 5.635430
_cell_length_b 29.264609
_cell_length_c 7.428027
_cell_angle_alpha 90.000000
_cell_angle_beta 123.460894
_cell_angle_gamma 90.000000
_cell_volume 1021.988241
_symmetry_space_group_name_H-M "C M"
_symmetry_group_IT_number 8
_symmetry_cell_setting 'monoclinic'
loop_
_space_group_symop_operation_xyz
x,y,z
x,-y,z
1/2+x,1/2+y,z
1/2+x,1/2-y,z
loop_
_atom_site_type_symbol
_atom_site_label
_atom_site_fract_x
_atom_site_fract_y
_atom_site_fract_z
Si Si1 0.302830 0.420209 0.954170
Si Si2 0.555623 0.222196 0.486907
Si Si3 0.421295 0.424861 0.597002
Si Si4 0.418838 0.248675 0.946595
Si Si5 0.873829 0.622317 0.263115
Si Si6 0.373860 0.000000 0.781154
Si Si7 0.343266 0.147023 0.828041
O O1 0.408443 0.438236 0.804025
O O2 0.098713 0.459658 0.941858
O O3 0.102452 0.376780 0.835714
O O4 0.566368 0.400105 0.176221
O O5 0.286980 0.252788 0.449541
O O6 0.765703 0.216077 0.750073
O O7 0.441354 0.171693 0.381050
O O8 0.646619 0.460432 0.615574
O O9 0.558595 0.374965 0.635048
O O10 0.104157 0.417196 0.397828
O O11 0.755987 0.251907 0.067100
O O12 0.343149 0.200415 0.828055
O O13 0.873494 0.632518 0.049591
#
# Coordination Sequence:
#
# PCOD9133176 Si02
#       7
#     4   4   4   4   4   2   4
#     4  10  24  43  70 100 136 179 226 298 358 437
#     4  10  23  40  65  99 144 192 245 298 344 419
#     4  10  22  44  70  97 135 181 228 291 359 441
#     4  10  22  39  66  96 136 196 240 291 348 415
#     4  11  25  42  68 104 141 183 242 295 357 418
#     4  10  22  46  72 102 136 176 230 286 374 438
#     4  10  24  42  66  97 139 183 234 292 359 415
#
# _framework density 25.440605999999999
#
# number of rings (size 3 to 8) (size 9 to 14) (size 15 to 20)
#    0.000    1.846    0.000    2.308   10.769    4.308 
#    0.000    7.692    0.000    0.000    0.000    0.000 
#    0.000    0.000    0.000    0.000    0.000    0.000 
#
# Total GULP energy -72384.269512 kJ/mol
# GULP energy per Si atom -5568.020732 kJ/mol
# Density = 2.538270 g / cm^3
# Si number density = 25.440606 Si / 1000 Ang^3
#
#
#
# Elastic Constant Matrix: (Units=GPa)
#
#
# Indices 1 2 3 4 5 6 
#
# 1 157.7601 33.6612 42.7326 0.0000 30.4366 0.0000
# 2 33.6612 139.2112 10.9727 0.0000 10.9420 0.0000
# 3 42.7326 10.9727 69.3671 0.0000 13.8210 0.0000
# 4 0.0000 0.0000 0.0000 17.0783 0.0000 45.0865
# 5 30.4366 10.9420 13.8210 0.0000 60.0970 0.0000
# 6 0.0000 0.0000 0.0000 45.0865 0.0000 -54.2732
#
#
#
# Elastic Compliance Matrix: (Units=1/GPa)
#
#
# Indices 1 2 3 4 5 6 
#
# 1 0.008405 -0.001454 -0.004352 0.000000 -0.002991 0.000000
# 2 -0.001454 0.007597 -0.000186 0.000000 -0.000604 0.000000
# 3 -0.004352 -0.000186 0.017481 0.000000 -0.001783 0.000000
# 4 0.000000 0.000000 0.000000 0.018338 0.000000 0.015234
# 5 -0.002991 -0.000604 -0.001783 0.000000 0.018675 0.000000
# 6 0.000000 0.000000 0.000000 0.015234 0.000000 -0.005770
#
#
# Mechanical properties :
#
#
# Convention : Reuss Voigt Hill
#
# Bulk Modulus (GPa) = 46.51067 60.11906 53.31486
# Shear Modulus (GPa) = 59.61271 23.17854 41.39563
#
# Velocity S-wave (km/s) = 4.84592 3.02169 4.03817
# Velocity P-wave (km/s) = 7.04503 5.98804 6.53793
#
# Compressibility (1/GPa) = 0.02150044
#
# Stress axis : x y z
#
# Youngs Moduli (GPa) = 118.97907 131.63000 57.20372
#
# Poissons Ratio (x) = 0.19141 0.24893
# Poissons Ratio (y) = 0.17302 0.01061
# Poissons Ratio (z) = 0.51776 0.02442
#
# Static dielectric constant tensor:
#      x y z
#    x 2.131930 0.000000 -0.060220 
#    y 0.000000 2.020070 0.000000 
#    z -0.060220 0.000000 2.038890 
# 
# From -- ./inp_files/7134.got.cif
#   From: 2010.05.17/outbox.cif.g08.bks.cpg/sg8_4_cif.got.tgz:7134.got - 2010.06.03 19:46:02.
