data_PCOD9133917
_publ_section_title
;
Structure prediction by ZEFSAII (Michael W. Deem and Ramdas Pophale) SiO2 
 PCOD9133917
Probable space group: C C
;
_chemical_formula_sum "Si O2"
_cell_formula_units_Z 32
_cell_length_a 15.989566
_cell_length_b 7.386720
_cell_length_c 11.777631
_cell_angle_alpha 90.000000
_cell_angle_beta 58.313405
_cell_angle_gamma 90.000000
_cell_volume 1183.701360
_symmetry_space_group_name_H-M "C C"
_symmetry_group_IT_number 9
_symmetry_cell_setting 'monoclinic'
loop_
_space_group_symop_operation_xyz
x,y,z
x,-y,1/2+z
1/2+x,1/2+y,z
1/2+x,1/2-y,1/2+z
loop_
_atom_site_type_symbol
_atom_site_label
_atom_site_fract_x
_atom_site_fract_y
_atom_site_fract_z
Si Si1 0.890060 0.719597 0.658200
Si Si2 0.591011 0.349881 0.755307
Si Si3 0.677723 0.038927 0.126260
Si Si4 0.906462 0.343047 0.771297
Si Si5 0.558965 0.780403 0.505779
Si Si6 0.271302 0.961074 0.037720
Si Si7 0.042562 0.656953 0.392682
Si Si8 0.858014 0.849881 0.908672
O O1 0.918147 0.546027 0.715529
O O2 0.822044 0.636591 0.608255
O O3 0.839013 0.849214 0.786195
O O4 0.993123 0.779128 0.525533
O O5 0.626016 0.157544 0.678888
O O6 0.657937 0.495074 0.642890
O O7 0.474512 0.376464 0.831989
O O8 0.610012 0.349214 0.877784
O O9 0.626981 0.136591 0.055724
O O10 0.650091 0.148619 0.260517
O O11 0.791087 0.995074 0.021089
O O12 0.955901 0.220872 0.638446
O O13 0.974512 0.316054 0.831989
O O14 0.798934 0.351382 0.903462
O O15 0.530878 0.953973 0.448450
O O16 0.323009 0.157544 0.985092
#
# Coordination Sequence:
#
# PCOD9133917 Si02
#       8
#     4   4   4   4   4   4   4   4
#     4   9  14  25  45  68  94 121 157 198 235 274
#     4  10  18  28  46  74  96 119 159 203 235 275
#     4   9  17  27  44  70  96 120 158 200 235 275
#     4   8  13  23  43  67  88 114 156 196 227 265
#     4   9  14  25  45  68  94 121 157 198 235 274
#     4   9  17  27  44  70  96 120 158 200 235 275
#     4   8  13  23  43  67  88 114 156 196 227 265
#     4  10  18  28  46  74  96 119 159 203 235 275
#
# _framework density 27.033846
#
# number of rings (size 3 to 8) (size 9 to 14) (size 15 to 20)
#    0.000    3.000    0.000    7.500    0.000    0.000 
#    0.000    0.000    0.000   27.000    0.000   17.500 
#    0.000    2.000    0.000    0.000    0.000    0.000 
#
# Total GULP energy -89371.540003 kJ/mol
# GULP energy per Si atom -5585.721250 kJ/mol
# Density = 2.697232 g / cm^3
# Si number density = 27.033846 Si / 1000 Ang^3
#
#
#
# Elastic Constant Matrix: (Units=GPa)
#
#
# Indices 1 2 3 4 5 6 
#
# 1 103.6208 14.2026 79.4098 0.0000 -35.6598 0.0000
# 2 14.2026 96.7265 52.2053 0.0000 -19.8133 0.0000
# 3 79.4098 52.2053 255.6260 0.0000 -35.4941 0.0000
# 4 0.0000 0.0000 0.0000 34.9088 0.0000 -10.7393
# 5 -35.6598 -19.8133 -35.4941 0.0000 55.4646 0.0000
# 6 0.0000 0.0000 0.0000 -10.7393 0.0000 14.3019
#
#
#
# Elastic Compliance Matrix: (Units=1/GPa)
#
#
# Indices 1 2 3 4 5 6 
#
# 1 0.015118 0.001484 -0.003925 0.000000 0.007738 0.000000
# 2 0.001484 0.012202 -0.002431 0.000000 0.003757 0.000000
# 3 -0.003925 -0.002431 0.005660 0.000000 0.000230 0.000000
# 4 0.000000 0.000000 0.000000 0.037251 0.000000 0.027972
# 5 0.007738 0.003757 0.000230 0.000000 0.024494 0.000000
# 6 0.000000 0.000000 0.000000 0.027972 0.000000 0.090925
#
#
# Mechanical properties :
#
#
# Convention : Reuss Voigt Hill
#
# Bulk Modulus (GPa) = 43.03866 83.06765 63.05315
# Shear Modulus (GPa) = 24.61356 41.61213 33.11284
#
# Velocity S-wave (km/s) = 3.02068 3.92760 3.50361
# Velocity P-wave (km/s) = 5.30291 7.16673 6.30408
#
# Compressibility (1/GPa) = 0.02323493
#
# Stress axis : x y z
#
# Youngs Moduli (GPa) = 66.14600 81.95147 176.68813
#
# Poissons Ratio (x) = -0.12158 0.69349
# Poissons Ratio (y) = -0.09813 0.42957
# Poissons Ratio (z) = 0.25962 0.19924
#
# Static dielectric constant tensor:
#      x y z
#    x 2.090700 0.000000 -0.047700 
#    y 0.000000 2.117310 0.000000 
#    z -0.047700 0.000000 2.195790 
# 
# From -- ./inp_files/19221.got.cif
#   From: 2010.05.17/outbox.cif.g08.bks.cpg/sg9_10_cif.got.tgz:19221.got - 2010.06.03 20:04:27.
