data_PCOD9133633
_publ_section_title
;
Structure prediction by ZEFSAII (Michael W. Deem and Ramdas Pophale) SiO2 
 PCOD9133633
Probable space group: C M
;
_chemical_formula_sum "Si O2"
_cell_formula_units_Z 28
_cell_length_a 9.342717
_cell_length_b 29.481761
_cell_length_c 6.092342
_cell_angle_alpha 90.000000
_cell_angle_beta 49.460496
_cell_angle_gamma 90.000000
_cell_volume 1275.265130
_symmetry_space_group_name_H-M "C M"
_symmetry_group_IT_number 8
_symmetry_cell_setting 'monoclinic'
loop_
_space_group_symop_operation_xyz
x,y,z
x,-y,z
1/2+x,1/2+y,z
1/2+x,1/2-y,z
loop_
_atom_site_type_symbol
_atom_site_label
_atom_site_fract_x
_atom_site_fract_y
_atom_site_fract_z
Si Si1 0.765720 0.790639 0.843150
Si Si2 0.246047 0.500000 0.274925
Si Si3 0.931976 0.703192 0.498561
Si Si4 0.543973 0.000000 0.984538
Si Si5 0.270499 0.914429 0.238506
Si Si6 0.573720 0.649287 0.758124
Si Si7 0.083078 0.644008 0.706227
Si Si8 0.930076 0.912813 0.260109
O O1 0.885815 0.745445 0.698969
O O2 0.679623 0.811204 0.707501
O O3 0.895901 0.830503 0.809193
O O4 0.586111 0.781415 0.172550
O O5 0.139625 0.500000 0.634105
O O6 0.368702 0.454270 0.167543
O O7 0.152408 0.500000 0.119378
O O8 0.731699 0.687751 0.605523
O O9 0.015612 0.658623 0.533487
O O10 0.410337 0.956039 0.128886
O O11 0.168865 0.894318 0.552022
O O12 0.099260 0.927339 0.248380
O O13 0.398775 0.873388 0.016094
O O14 0.504365 0.631796 0.061066
O O15 0.237753 0.604500 0.563189
#
# Coordination Sequence:
#
# PCOD9133633 Si02
#       8
#     4   2   4   2   4   4   4   4
#     4  12  28  45  70 105 148 193 249 314 376 452
#     4  12  31  51  82 119 162 202 254 324 387 462
#     4  12  28  45  70 105 148 193 249 314 376 452
#     4  12  31  51  82 119 162 202 254 324 387 462
#     4  12  27  49  79 109 150 200 255 308 389 460
#     4  12  27  45  76 108 144 200 252 311 381 458
#     4  12  25  47  74 104 150 194 250 307 375 454
#     4  12  27  49  79 109 150 200 255 308 389 460
#
# _framework density 21.956216000000001
#
# number of rings (size 3 to 8) (size 9 to 14) (size 15 to 20)
#    0.000    0.000    7.143    1.286   12.000    2.857 
#    0.000    0.000    0.000    0.000    0.000    0.000 
#    0.000    0.000    0.000    0.000    0.000    0.000 
#
# Total GULP energy -78169.767465 kJ/mol
# GULP energy per Si atom -5583.554819 kJ/mol
# Density = 2.190624 g / cm^3
# Si number density = 21.956216 Si / 1000 Ang^3
#
#
#
# Elastic Constant Matrix: (Units=GPa)
#
#
# Indices 1 2 3 4 5 6 
#
# 1 113.1479 10.8634 11.8262 0.0000 -1.6750 0.0000
# 2 10.8634 73.7952 5.0974 0.0000 -6.1560 0.0000
# 3 11.8262 5.0974 86.9362 0.0000 -18.9059 0.0000
# 4 0.0000 0.0000 0.0000 19.0641 0.0000 10.1869
# 5 -1.6750 -6.1560 -18.9059 0.0000 29.2179 0.0000
# 6 0.0000 0.0000 0.0000 10.1869 0.0000 26.5130
#
#
#
# Elastic Compliance Matrix: (Units=1/GPa)
#
#
# Indices 1 2 3 4 5 6 
#
# 1 0.009089 -0.001298 -0.001288 0.000000 -0.000586 0.000000
# 2 -0.001298 0.013982 -0.000022 0.000000 0.002857 0.000000
# 3 -0.001288 -0.000022 0.013572 0.000000 0.008703 0.000000
# 4 0.000000 0.000000 0.000000 0.066006 0.000000 -0.025361
# 5 -0.000586 0.002857 0.008703 0.000000 0.040426 0.000000
# 6 0.000000 0.000000 0.000000 -0.025361 0.000000 0.047462
#
#
# Mechanical properties :
#
#
# Convention : Reuss Voigt Hill
#
# Bulk Modulus (GPa) = 31.81907 36.60593 34.21250
# Shear Modulus (GPa) = 24.24518 31.36516 27.80517
#
# Velocity S-wave (km/s) = 3.32663 3.78369 3.56250
# Velocity P-wave (km/s) = 5.41099 5.98305 5.70420
#
# Compressibility (1/GPa) = 0.03142769
#
# Stress axis : x y z
#
# Youngs Moduli (GPa) = 110.02914 71.52078 73.68195
#
# Poissons Ratio (x) = 0.09282 0.09487
# Poissons Ratio (y) = 0.14280 0.00161
# Poissons Ratio (z) = 0.14167 0.00157
#
# Static dielectric constant tensor:
#      x y z
#    x 1.789210 0.000000 0.028070 
#    y 0.000000 1.774190 0.000000 
#    z 0.028070 0.000000 1.825200 
# 
# From -- ./inp_files/1959.got.cif
#   From: 2010.05.17/outbox.cif.g08.bks.cpg/sg8_1_cif.got.tgz:1959.got - 2010.06.03 19:46:02.
