data_PCOD9133591
_publ_section_title
;
Structure prediction by ZEFSAII (Michael W. Deem and Ramdas Pophale) SiO2 
 PCOD9133591
Probable space group: C M
;
_chemical_formula_sum "Si O2"
_cell_formula_units_Z 30
_cell_length_a 15.177055
_cell_length_b 17.989965
_cell_length_c 5.069988
_cell_angle_alpha 90.000000
_cell_angle_beta 115.189801
_cell_angle_gamma 90.000000
_cell_volume 1252.641235
_symmetry_space_group_name_H-M "C M"
_symmetry_group_IT_number 8
_symmetry_cell_setting 'monoclinic'
loop_
_space_group_symop_operation_xyz
x,y,z
x,-y,z
1/2+x,1/2+y,z
1/2+x,1/2-y,z
loop_
_atom_site_type_symbol
_atom_site_label
_atom_site_fract_x
_atom_site_fract_y
_atom_site_fract_z
Si Si1 0.470060 0.610340 0.750000
Si Si2 0.105573 0.788101 0.164571
Si Si3 0.955650 0.586187 0.802087
Si Si4 0.745529 0.621526 0.621410
Si Si5 0.278782 0.259968 0.014504
Si Si6 0.983364 0.315817 0.358373
Si Si7 0.842257 0.917599 0.082475
Si Si8 0.143188 0.000000 0.809439
O O1 0.386933 0.600820 0.425789
O O2 0.559854 0.563255 0.759067
O O3 0.512841 0.691958 0.864776
O O4 0.427818 0.582751 0.974479
O O5 0.149392 0.866813 0.324243
O O6 0.192775 0.752928 0.111516
O O7 0.066139 0.738596 0.352494
O O8 0.985005 0.500000 0.834323
O O9 0.839787 0.592281 0.590411
O O10 0.006339 0.638438 0.650787
O O11 0.966984 0.623417 0.103697
O O12 0.721189 0.564801 0.820666
O O13 0.764684 0.703342 0.756169
O O14 0.384104 0.232756 0.258037
O O15 0.279589 0.345584 0.931578
O O16 0.797560 0.000000 0.028059
#
# Coordination Sequence:
#
# PCOD9133591 Si02
#       8
#     4   4   4   4   4   4   4   2
#     4  12  26  42  72 102 145 184 231 296 371 420
#     4  12  26  44  73 103 144 186 244 291 356 427
#     4  11  24  48  68 104 142 184 234 290 353 417
#     4  11  25  44  70 108 145 188 227 305 360 438
#     4  11  26  43  71 103 146 186 241 283 364 421
#     4  11  26  43  74 100 139 192 231 287 351 421
#     4  12  26  48  69 103 144 192 237 298 352 427
#     4  12  22  42  68 110 144 178 234 288 380 426
#
# _framework density 23.949393000000001
#
# number of rings (size 3 to 8) (size 9 to 14) (size 15 to 20)
#    0.000    0.533    6.000    1.200    5.600    0.533 
#    4.800    1.333    0.000    0.000    0.000    0.000 
#    0.000    0.000    0.000    0.000    0.000    0.000 
#
# Total GULP energy -83725.802951 kJ/mol
# GULP energy per Si atom -5581.720197 kJ/mol
# Density = 2.389488 g / cm^3
# Si number density = 23.949393 Si / 1000 Ang^3
#
#
#
# Elastic Constant Matrix: (Units=GPa)
#
#
# Indices 1 2 3 4 5 6 
#
# 1 67.5644 12.9909 -4.3266 0.0000 -20.8619 0.0000
# 2 12.9909 165.3926 17.5914 0.0000 -10.3668 0.0000
# 3 -4.3266 17.5914 55.2707 0.0000 -7.2043 0.0000
# 4 0.0000 0.0000 0.0000 5.3578 0.0000 1.2447
# 5 -20.8619 -10.3668 -7.2043 0.0000 29.9552 0.0000
# 6 0.0000 0.0000 0.0000 1.2447 0.0000 53.6289
#
#
#
# Elastic Compliance Matrix: (Units=1/GPa)
#
#
# Indices 1 2 3 4 5 6 
#
# 1 0.019625 -0.001047 0.003720 0.000000 0.014200 0.000000
# 2 -0.001047 0.006403 -0.001988 0.000000 0.001009 0.000000
# 3 0.003720 -0.001988 0.019888 0.000000 0.006686 0.000000
# 4 0.000000 0.000000 0.000000 0.187655 0.000000 -0.004355
# 5 0.014200 0.001009 0.006686 0.000000 0.045229 0.000000
# 6 0.000000 0.000000 0.000000 -0.004355 0.000000 0.018748
#
#
# Mechanical properties :
#
#
# Convention : Reuss Voigt Hill
#
# Bulk Modulus (GPa) = 21.14801 37.85990 29.50396
# Shear Modulus (GPa) = 16.02867 35.25318 25.64093
#
# Velocity S-wave (km/s) = 2.58984 3.84081 3.27560
# Velocity P-wave (km/s) = 4.21811 5.95917 5.16257
#
# Compressibility (1/GPa) = 0.04728577
#
# Stress axis : x y z
#
# Youngs Moduli (GPa) = 50.95613 156.17244 50.28066
#
# Poissons Ratio (x) = 0.16353 -0.18706
# Poissons Ratio (y) = 0.05336 0.09998
# Poissons Ratio (z) = -0.18957 0.31055
#
# Static dielectric constant tensor:
#      x y z
#    x 1.857010 0.000000 0.018380 
#    y 0.000000 1.875480 0.000000 
#    z 0.018380 0.000000 2.017360 
# 
# From -- ./inp_files/4139.got.cif
#   From: 2010.05.17/outbox.cif.g08.bks.cpg/sg8_3_cif.got.tgz:4139.got - 2010.06.03 19:46:02.
