data_PCOD9133390
_publ_section_title
;
Structure prediction by ZEFSAII (Michael W. Deem and Ramdas Pophale) SiO2 
 PCOD9133390
Probable space group: C M
;
_chemical_formula_sum "Si O2"
_cell_formula_units_Z 20
_cell_length_a 11.016563
_cell_length_b 10.040106
_cell_length_c 11.140059
_cell_angle_alpha 90.000000
_cell_angle_beta 133.381308
_cell_angle_gamma 90.000000
_cell_volume 895.542300
_symmetry_space_group_name_H-M "C M"
_symmetry_group_IT_number 8
_symmetry_cell_setting 'monoclinic'
loop_
_space_group_symop_operation_xyz
x,y,z
x,-y,z
1/2+x,1/2+y,z
1/2+x,1/2-y,z
loop_
_atom_site_type_symbol
_atom_site_label
_atom_site_fract_x
_atom_site_fract_y
_atom_site_fract_z
Si Si1 0.835871 0.000000 0.691300
Si Si2 0.525123 0.287802 0.434280
Si Si3 0.638390 0.500000 0.335097
Si Si4 0.292048 0.732184 0.815352
Si Si5 0.491939 0.000000 0.009933
Si Si6 0.961852 0.500000 0.391411
Si Si7 0.762752 0.000000 0.981235
Si Si8 0.781521 0.000000 0.369618
O O1 0.899237 0.134257 0.798136
O O2 0.830928 0.000000 0.543758
O O3 0.635972 0.000000 0.584845
O O4 0.637707 0.370385 0.418710
O O5 0.633363 0.274262 0.628305
O O6 0.365330 0.373085 0.362774
O O7 0.473236 0.146759 0.343409
O O8 0.794645 0.500000 0.355016
O O9 0.457349 0.500000 0.150801
O O10 0.385504 0.865207 0.920511
O O11 0.241793 0.634228 0.889179
O O12 0.635163 0.000000 0.004509
O O13 0.588976 0.000000 0.202367
#
# Coordination Sequence:
#
# PCOD9133390 Si02
#       8
#     2   4   2   4   2   2   2   2
#     4   9  23  46  66 105 135 178 234 279 323 423
#     4  10  23  44  66 105 127 185 228 276 328 408
#     4  11  24  44  71  96 145 176 232 280 335 402
#     4  10  25  43  68 100 137 179 225 272 348 399
#     4  12  25  47  70  99 139 185 211 291 347 390
#     4  10  24  38  73  96 134 177 225 278 338 380
#     4  11  26  46  66 102 143 172 227 282 341 408
#     4  11  24  43  70 102 142 168 239 282 326 409
#
# _framework density 22.332837000000001
#
# number of rings (size 3 to 8) (size 9 to 14) (size 15 to 20)
#    0.000    1.600    2.000    1.800   11.200    4.800 
#    0.000    0.000    0.000    0.000    0.000    0.000 
#    0.000    0.000    0.000    0.000    0.000    0.000 
#
# Total GULP energy -55839.314782 kJ/mol
# GULP energy per Si atom -5583.931478 kJ/mol
# Density = 2.228201 g / cm^3
# Si number density = 22.332837 Si / 1000 Ang^3
#
#
#
# Elastic Constant Matrix: (Units=GPa)
#
#
# Indices 1 2 3 4 5 6 
#
# 1 80.7400 42.9835 3.1233 0.0000 -3.5777 0.0000
# 2 42.9835 198.9863 29.7879 0.0000 -3.0476 0.0000
# 3 3.1233 29.7879 48.8356 0.0000 -1.8387 0.0000
# 4 0.0000 0.0000 0.0000 -188.6349 0.0000 40.5410
# 5 -3.5777 -3.0476 -1.8387 0.0000 30.2612 0.0000
# 6 0.0000 0.0000 0.0000 40.5410 0.0000 12.1665
#
#
#
# Elastic Compliance Matrix: (Units=1/GPa)
#
#
# Indices 1 2 3 4 5 6 
#
# 1 0.014103 -0.003189 0.001096 0.000000 0.001413 0.000000
# 2 -0.003189 0.006255 -0.003610 0.000000 0.000034 0.000000
# 3 0.001096 -0.003610 0.022652 0.000000 0.001142 0.000000
# 4 0.000000 0.000000 0.000000 -0.003089 0.000000 0.010293
# 5 0.001413 0.000034 0.001142 0.000000 0.033285 0.000000
# 6 0.000000 0.000000 0.000000 0.010293 0.000000 0.047894
#
#
# Mechanical properties :
#
#
# Convention : Reuss Voigt Hill
#
# Bulk Modulus (GPa) = 31.64083 53.37237 42.50660
# Shear Modulus (GPa) = 34.95484 -12.39698 11.27893
#
# Velocity S-wave (km/s) = 3.96052 -2.35861 2.24974
# Velocity P-wave (km/s) = 5.92562 4.06609 5.08163
#
# Compressibility (1/GPa) = 0.03160473
#
# Stress axis : x y z
#
# Youngs Moduli (GPa) = 70.90521 159.86447 44.14641
#
# Poissons Ratio (x) = 0.50980 -0.04840
# Poissons Ratio (y) = 0.22612 0.15938
# Poissons Ratio (z) = -0.07774 0.57716
#
# Static dielectric constant tensor:
#      x y z
#    x 1.821190 0.000000 -0.035670 
#    y 0.000000 1.898660 0.000000 
#    z -0.035670 0.000000 1.831530 
# 
# From -- ./inp_files/20016.got.cif
#   From: 2010.05.17/outbox.cif.g08.bks.cpg/sg8_11_cif.got.tgz:20016.got - 2010.06.03 19:46:02.
