data_PCOD9133365
_publ_section_title
;
Structure prediction by ZEFSAII (Michael W. Deem and Ramdas Pophale) SiO2 
 PCOD9133365
Probable space group: C M
;
_chemical_formula_sum "Si O2"
_cell_formula_units_Z 32
_cell_length_a 24.051371
_cell_length_b 8.642971
_cell_length_c 14.151305
_cell_angle_alpha 90.000000
_cell_angle_beta 146.332041
_cell_angle_gamma 90.000000
_cell_volume 1630.820753
_symmetry_space_group_name_H-M "C M"
_symmetry_group_IT_number 8
_symmetry_cell_setting 'monoclinic'
loop_
_space_group_symop_operation_xyz
x,y,z
x,-y,z
1/2+x,1/2+y,z
1/2+x,1/2-y,z
loop_
_atom_site_type_symbol
_atom_site_label
_atom_site_fract_x
_atom_site_fract_y
_atom_site_fract_z
Si Si1 0.908160 0.184179 0.133500
Si Si2 0.941883 0.683947 0.733331
Si Si3 0.595462 0.683476 0.267718
Si Si4 0.003568 0.683624 0.459688
Si Si5 0.634668 0.814392 0.118229
Si Si6 0.780529 0.183401 0.645589
Si Si7 0.725125 0.316103 0.771093
Si Si8 0.866712 0.184124 0.430086
O O1 0.957688 0.241909 0.300165
O O2 0.988204 0.216554 0.163218
O O3 0.892555 0.000000 0.115658
O O4 0.804278 0.267075 0.962745
O O5 0.932931 0.500000 0.704778
O O6 0.871394 0.732700 0.720818
O O7 0.904560 0.772266 0.588026
O O8 0.055708 0.720848 0.924066
O O9 0.614986 0.500000 0.305946
O O10 0.601574 0.730865 0.167487
O O11 0.680653 0.775644 0.445090
O O12 0.009813 0.500000 0.456787
O O13 0.932694 0.728017 0.446545
O O14 0.114572 0.750405 0.632815
O O15 0.749199 0.773696 0.257100
O O16 0.630888 0.000000 0.129569
O O17 0.764177 0.244038 0.727983
O O18 0.797459 0.000000 0.670128
O O19 0.720225 0.500000 0.754979
O O20 0.875900 0.000000 0.428212
#
# Coordination Sequence:
#
# PCOD9133365 Si02
#       8
#     4   4   4   4   4   4   4   4
#     4  11  24  43  67  98 133 170 213 264 324 387
#     4  11  23  41  65  96 130 168 214 262 319 383
#     4  11  22  37  64  96 130 168 209 257 316 384
#     4  12  26  45  68  94 127 171 219 270 325 382
#     4  10  23  41  64  93 129 168 207 258 319 377
#     4  12  23  38  63  95 132 171 211 260 324 386
#     4  12  25  43  67  97 131 170 216 267 325 387
#     4  11  24  44  66  91 126 170 217 268 322 378
#
# _framework density 19.622021
#
# number of rings (size 3 to 8) (size 9 to 14) (size 15 to 20)
#    0.000    0.750    2.500    5.625    0.000    6.000 
#    0.000    3.750    0.000    0.000    0.000    0.000 
#    0.000    0.000    0.000    0.000    0.000    0.000 
#
# Total GULP energy -89562.944507 kJ/mol
# GULP energy per Si atom -5597.684032 kJ/mol
# Density = 1.957736 g / cm^3
# Si number density = 19.622021 Si / 1000 Ang^3
#
#
#
# Elastic Constant Matrix: (Units=GPa)
#
#
# Indices 1 2 3 4 5 6 
#
# 1 70.3998 6.1526 27.4657 0.0000 22.7896 0.0000
# 2 6.1526 43.5923 17.4526 0.0000 0.5140 0.0000
# 3 27.4657 17.4526 119.7937 0.0000 18.7691 0.0000
# 4 0.0000 0.0000 0.0000 31.3994 0.0000 -4.8211
# 5 22.7896 0.5140 18.7691 0.0000 0.0062 0.0000
# 6 0.0000 0.0000 0.0000 -4.8211 0.0000 34.5041
#
#
#
# Elastic Compliance Matrix: (Units=1/GPa)
#
#
# Indices 1 2 3 4 5 6 
#
# 1 0.005641 0.001563 -0.006903 0.000000 0.034352 0.000000
# 2 0.001563 0.023836 -0.002547 0.000000 -0.008192 0.000000
# 3 -0.006903 -0.002547 0.008448 0.000000 0.011831 0.000000
# 4 0.000000 0.000000 0.000000 0.032546 0.000000 0.004547
# 5 0.034352 -0.008192 0.011831 0.000000 -0.118166 0.000000
# 6 0.000000 0.000000 0.000000 0.004547 0.000000 0.029617
#
#
# Mechanical properties :
#
#
# Convention : Reuss Voigt Hill
#
# Bulk Modulus (GPa) = 45.15002 37.32528 41.23765
# Shear Modulus (GPa) = 984.13685 25.36292 504.74988
#
# Velocity S-wave (km/s) = 22.41954 3.59914 16.05599
# Velocity P-wave (km/s) = 26.32947 6.02787 19.09943
#
# Compressibility (1/GPa) = 0.02214839
#
# Stress axis : x y z
#
# Youngs Moduli (GPa) = 177.27850 41.95385 118.37367
#
# Poissons Ratio (x) = -0.06556 0.81716
# Poissons Ratio (y) = -0.27701 0.30154
# Poissons Ratio (z) = 1.22379 0.10687
#
# Static dielectric constant tensor:
#      x y z
#    x 1.653820 0.000000 0.004200 
#    y 0.000000 1.655650 0.000000 
#    z 0.004200 0.000000 1.680550 
# 
# From -- ./inp_files/26528.got.cif
#   From: 2010.05.17/outbox.cif.g08.bks.cpg/sg8_14_cif.got.tgz:26528.got - 2010.06.03 19:46:02.
