data_PCOD9133904
_publ_section_title
;
Structure prediction by ZEFSAII (Michael W. Deem and Ramdas Pophale) SiO2 
 PCOD9133904
Probable space group: C C
;
_chemical_formula_sum "Si O2"
_cell_formula_units_Z 32
_cell_length_a 13.723152
_cell_length_b 13.904037
_cell_length_c 20.563103
_cell_angle_alpha 90.000000
_cell_angle_beta 25.621825
_cell_angle_gamma 90.000000
_cell_volume 1696.674347
_symmetry_space_group_name_H-M "C C"
_symmetry_group_IT_number 9
_symmetry_cell_setting 'monoclinic'
loop_
_space_group_symop_operation_xyz
x,y,z
x,-y,1/2+z
1/2+x,1/2+y,z
1/2+x,1/2-y,1/2+z
loop_
_atom_site_type_symbol
_atom_site_label
_atom_site_fract_x
_atom_site_fract_y
_atom_site_fract_z
Si Si1 0.390620 0.058615 0.914820
Si Si2 0.063421 0.273386 0.549802
Si Si3 0.786813 0.904020 0.084266
Si Si4 0.430580 0.165374 0.416356
Si Si5 0.076250 0.561618 0.140429
Si Si6 0.816199 0.797616 0.597648
Si Si7 0.113585 0.965320 0.465617
Si Si8 0.573813 0.218640 0.892098
O O1 0.546409 0.105895 0.764177
O O2 0.154916 0.048502 0.017750
O O3 0.436734 0.127224 0.947812
O O4 0.454427 0.949151 0.894563
O O5 0.233630 0.204276 0.486866
O O6 0.074301 0.378347 0.576190
O O7 0.129818 0.283479 0.434972
O O8 0.807979 0.235321 0.712964
O O9 0.753799 0.976307 0.043737
O O10 0.910517 0.810267 0.985665
O O11 0.925664 0.958360 0.057232
O O12 0.662277 0.215402 0.253523
O O13 0.374326 0.202992 0.522176
O O14 0.153151 0.638528 0.148844
O O15 0.835766 0.514641 0.301087
O O16 0.030107 0.864406 0.485785
#
# Coordination Sequence:
#
# PCOD9133904 Si02
#       8
#     4   4   4   4   4   4   4   4
#     4  11  23  38  63  87 124 162 208 245 302 367
#     4  11  22  38  66  89 123 159 205 255 302 359
#     4  10  19  38  64  86 119 159 203 243 302 373
#     4  11  21  41  60  94 117 159 204 249 300 362
#     4   9  18  35  63  90 111 159 207 242 296 369
#     4  10  21  37  63  91 120 152 206 250 296 363
#     4  10  17  38  63  85 116 170 193 236 309 375
#     4  12  23  39  60  96 120 160 204 260 301 356
#
# _framework density 18.860424999999999
#
# number of rings (size 3 to 8) (size 9 to 14) (size 15 to 20)
#    0.000    1.500    6.250    2.250    0.000    0.000 
#    6.750    1.250    0.000    0.000    0.000    0.000 
#    0.000    0.000    0.000    0.000    0.000    0.000 
#
# Total GULP energy -89167.314820 kJ/mol
# GULP energy per Si atom -5572.957176 kJ/mol
# Density = 1.881750 g / cm^3
# Si number density = 18.860425 Si / 1000 Ang^3
#
#
#
# Elastic Constant Matrix: (Units=GPa)
#
#
# Indices 1 2 3 4 5 6 
#
# 1 59.3629 31.4346 4.2780 0.0042 0.7874 0.0005
# 2 31.4346 98.7367 20.7144 0.0197 4.2302 0.0041
# 3 4.2780 20.7144 42.5375 0.0084 -2.8081 0.0048
# 4 0.0042 0.0197 0.0084 23.9663 0.0059 0.2285
# 5 0.7874 4.2302 -2.8081 0.0059 18.0408 -0.0039
# 6 0.0005 0.0041 0.0048 0.2285 -0.0039 22.9346
#
#
#
# Elastic Compliance Matrix: (Units=1/GPa)
#
#
# Indices 1 2 3 4 5 6 
#
# 1 0.020334 -0.006790 0.001322 0.000001 0.000910 0.000001
# 2 -0.006790 0.013775 -0.006284 -0.000007 -0.003912 -0.000002
# 3 0.001322 -0.006284 0.026805 -0.000006 0.005588 -0.000003
# 4 0.000001 -0.000007 -0.000006 0.041729 -0.000013 -0.000416
# 5 0.000910 -0.003912 0.005588 -0.000013 0.057177 0.000009
# 6 0.000001 -0.000002 -0.000003 -0.000416 0.000009 0.043606
#
#
# Mechanical properties :
#
#
# Convention : Reuss Voigt Hill
#
# Bulk Modulus (GPa) = 26.73085 34.83235 30.78160
# Shear Modulus (GPa) = 20.88555 22.60237 21.74396
#
# Velocity S-wave (km/s) = 3.33133 3.46555 3.39910
# Velocity P-wave (km/s) = 5.38524 5.87554 5.63572
#
# Compressibility (1/GPa) = 0.03740996
#
# Stress axis : x y z
#
# Youngs Moduli (GPa) = 49.17954 72.59282 37.30710
#
# Poissons Ratio (x) = 0.49289 -0.04930
# Poissons Ratio (y) = 0.33392 0.23442
# Poissons Ratio (z) = -0.06499 0.45614
#
# Static dielectric constant tensor:
#      x y z
#    x 1.701770 0.000000 -0.019010 
#    y 0.000000 1.656280 0.000010 
#    z -0.019010 0.000010 1.678680 
# 
# From -- ./inp_files/9684.got.cif
#   From: 2010.05.17/outbox.cif.g08.bks.cpg/sg9_5_cif.got.tgz:9684.got - 2010.06.03 20:04:27.
