data_PCOD9133152
_publ_section_title
;
Structure prediction by ZEFSAII (Michael W. Deem and Ramdas Pophale) SiO2 
 PCOD9133152
Probable space group: C M
;
_chemical_formula_sum "Si O2"
_cell_formula_units_Z 24
_cell_length_a 14.420555
_cell_length_b 16.670138
_cell_length_c 9.948838
_cell_angle_alpha 90.000000
_cell_angle_beta 25.395960
_cell_angle_gamma 90.000000
_cell_volume 1025.700701
_symmetry_space_group_name_H-M "C M"
_symmetry_group_IT_number 8
_symmetry_cell_setting 'monoclinic'
loop_
_space_group_symop_operation_xyz
x,y,z
x,-y,z
1/2+x,1/2+y,z
1/2+x,1/2-y,z
loop_
_atom_site_type_symbol
_atom_site_label
_atom_site_fract_x
_atom_site_fract_y
_atom_site_fract_z
Si Si1 0.753000 0.084879 0.079470
Si Si2 0.129716 0.707144 0.442450
Si Si3 0.683709 0.386438 0.418170
Si Si4 0.211050 0.725825 0.824186
Si Si5 0.623808 0.907331 0.711553
Si Si6 0.848811 0.358009 0.470510
O O1 0.772408 0.163396 0.143501
O O2 0.506831 0.088418 0.352707
O O3 0.784795 0.000000 0.109010
O O4 0.934220 0.090802 0.725581
O O5 0.218331 0.791241 0.374162
O O6 0.121968 0.644636 0.576211
O O7 0.913258 0.739609 0.648095
O O8 0.740133 0.409049 0.496528
O O9 0.869023 0.416346 0.079481
O O10 0.223801 0.649122 0.702477
O O11 0.178865 0.803903 0.772958
O O12 0.026575 0.702461 0.171332
O O13 0.710524 0.000000 0.590963
#
# Coordination Sequence:
#
# PCOD9133152 Si02
#       6
#     4   4   4   4   4   4
#     4  11  24  40  62  95 130 162 210 272 323 374
#     4  11  22  42  68  92 126 175 218 257 323 399
#     4  11  22  41  67  92 126 173 218 257 323 401
#     4  10  22  39  64  92 129 167 217 260 322 388
#     4  11  24  42  67 100 133 166 218 281 329 375
#     4  10  22  38  64  91 124 171 215 259 314 399
#
# _framework density 23.398638999999999
#
# number of rings (size 3 to 8) (size 9 to 14) (size 15 to 20)
#    0.000    1.333    3.333    2.000    4.667    3.333 
#    0.000    0.000    0.000    1.000    0.000    0.000 
#    0.000    0.000    0.000    0.000    0.000    0.000 
#
# Total GULP energy -66848.173657 kJ/mol
# GULP energy per Si atom -5570.681138 kJ/mol
# Density = 2.334538 g / cm^3
# Si number density = 23.398639 Si / 1000 Ang^3
#
#
#
# Elastic Constant Matrix: (Units=GPa)
#
#
# Indices 1 2 3 4 5 6 
#
# 1 91.8808 31.3817 4.7243 -0.0182 -4.9553 0.0147
# 2 31.3817 177.7303 30.2551 -0.0284 5.6403 0.0107
# 3 4.7243 30.2551 50.5161 -0.0371 0.9847 0.0196
# 4 -0.0182 -0.0284 -0.0371 -4.4531 0.0167 -5.9744
# 5 -4.9553 5.6403 0.9847 0.0167 35.9901 -0.0123
# 6 0.0147 0.0107 0.0196 -5.9744 -0.0123 5.3040
#
#
#
# Elastic Compliance Matrix: (Units=1/GPa)
#
#
# Indices 1 2 3 4 5 6 
#
# 1 0.011717 -0.002158 0.000159 0.000002 0.001947 -0.000022
# 2 -0.002158 0.006691 -0.003781 -0.000005 -0.001242 -0.000002
# 3 0.000159 -0.003781 0.022045 -0.000024 0.000011 -0.000101
# 4 0.000002 -0.000005 -0.000024 -0.089425 0.000009 -0.100727
# 5 0.001947 -0.001242 0.000011 0.000009 0.028248 0.000072
# 6 -0.000022 -0.000002 -0.000101 -0.100727 0.000072 0.075080
#
#
# Mechanical properties :
#
#
# Convention : Reuss Voigt Hill
#
# Bulk Modulus (GPa) = 34.61085 50.31660 42.46372
# Shear Modulus (GPa) = 66.18281 24.28593 45.23437
#
# Velocity S-wave (km/s) = 5.32412 3.22517 4.40159
# Velocity P-wave (km/s) = 7.25390 5.95145 6.63471
#
# Compressibility (1/GPa) = 0.02889267
#
# Stress axis : x y z
#
# Youngs Moduli (GPa) = 85.34245 149.46415 45.36129
#
# Poissons Ratio (x) = 0.32250 -0.00719
# Poissons Ratio (y) = 0.18415 0.17152
# Poissons Ratio (z) = -0.01353 0.56514
#
# Static dielectric constant tensor:
#      x y z
#    x 1.997950 -0.000010 -0.063920 
#    y -0.000010 1.903400 0.000010 
#    z -0.063920 0.000010 1.922100 
# 
# From -- ./inp_files/23417.got.cif
#   From: 2010.05.17/outbox.cif.g08.bks.cpg/sg8_12_cif.got.tgz:23417.got - 2010.06.03 19:46:02.
