data_PCOD9133091
_publ_section_title
;
Structure prediction by ZEFSAII (Michael W. Deem and Ramdas Pophale) SiO2 
 PCOD9133091
Probable space group: C M
;
_chemical_formula_sum "Si O2"
_cell_formula_units_Z 28
_cell_length_a 11.448160
_cell_length_b 19.872073
_cell_length_c 5.499311
_cell_angle_alpha 90.000000
_cell_angle_beta 98.472357
_cell_angle_gamma 90.000000
_cell_volume 1237.432920
_symmetry_space_group_name_H-M "C M"
_symmetry_group_IT_number 8
_symmetry_cell_setting 'monoclinic'
loop_
_space_group_symop_operation_xyz
x,y,z
x,-y,z
1/2+x,1/2+y,z
1/2+x,1/2-y,z
loop_
_atom_site_type_symbol
_atom_site_label
_atom_site_fract_x
_atom_site_fract_y
_atom_site_fract_z
Si Si1 0.743080 0.302510 0.659380
Si Si2 0.082355 0.872848 0.973791
Si Si3 0.499051 0.892651 0.156613
Si Si4 0.636659 0.076669 0.693829
Si Si5 0.007930 0.760756 0.314671
Si Si6 0.272693 0.927748 0.326509
Si Si7 0.360662 0.329340 0.667895
O O1 0.692089 0.348997 0.851336
O O2 0.625608 0.264750 0.520151
O O3 0.790151 0.358397 0.483271
O O4 0.831195 0.244408 0.776145
O O5 0.967444 0.880229 0.771985
O O6 0.139336 0.924206 0.179687
O O7 0.042059 0.807804 0.106197
O O8 0.567443 0.921131 0.415487
O O9 0.490053 0.813736 0.215039
O O10 0.370538 0.925133 0.145147
O O11 0.560449 0.903690 0.912485
O O12 0.744871 0.127297 0.682900
O O13 0.676814 0.000000 0.747890
O O14 0.899920 0.798553 0.418062
O O15 0.287276 0.000000 0.461906
#
# Coordination Sequence:
#
# PCOD9133091 Si02
#       7
#     4   4   4   4   4   4   4
#     4  10  21  42  65 102 134 183 238 306 368 429
#     4  10  25  40  67 103 138 183 244 292 377 433
#     4  12  26  47  75 106 149 192 250 307 367 450
#     4  12  28  48  73 109 149 198 248 306 380 448
#     4  10  22  40  67 107 136 181 238 302 366 433
#     4  11  25  43  67 100 146 192 242 301 369 455
#     4  11  23  42  72 105 142 187 244 308 369 438
#
# _framework density 22.627489000000001
#
# number of rings (size 3 to 8) (size 9 to 14) (size 15 to 20)
#    0.000    1.143    2.857    2.143    8.000    1.143 
#    0.000    5.714    0.000    0.000    0.000    0.000 
#    0.000    0.000    0.000    0.000    0.000    0.000 
#
# Total GULP energy -78013.128256 kJ/mol
# GULP energy per Si atom -5572.366304 kJ/mol
# Density = 2.257599 g / cm^3
# Si number density = 22.627489 Si / 1000 Ang^3
#
#
#
# Elastic Constant Matrix: (Units=GPa)
#
#
# Indices 1 2 3 4 5 6 
#
# 1 106.9992 57.9187 45.5908 0.0000 -19.4719 0.0000
# 2 57.9187 155.8912 22.0282 0.0000 3.8196 0.0000
# 3 45.5908 22.0282 75.1883 0.0000 -12.5751 0.0000
# 4 0.0000 0.0000 0.0000 12.5333 0.0000 -4.0915
# 5 -19.4719 3.8196 -12.5751 0.0000 18.5413 0.0000
# 6 0.0000 0.0000 0.0000 -4.0915 0.0000 19.0771
#
#
#
# Elastic Compliance Matrix: (Units=1/GPa)
#
#
# Indices 1 2 3 4 5 6 
#
# 1 0.018617 -0.006371 -0.006691 0.000000 0.016325 0.000000
# 2 -0.006371 0.009029 -0.000239 0.000000 -0.008713 0.000000
# 3 -0.006691 -0.000239 0.018341 0.000000 0.005461 0.000000
# 4 0.000000 0.000000 0.000000 0.085795 0.000000 0.018401
# 5 0.016325 -0.008713 0.005461 0.000000 0.076577 0.000000
# 6 0.000000 0.000000 0.000000 0.018401 0.000000 0.056365
#
#
# Mechanical properties :
#
#
# Convention : Reuss Voigt Hill
#
# Bulk Modulus (GPa) = 51.59226 65.46156 58.52691
# Shear Modulus (GPa) = 16.79046 24.19973 20.49509
#
# Velocity S-wave (km/s) = 2.72699 3.27384 3.01285
# Velocity P-wave (km/s) = 5.72412 6.57903 6.16641
#
# Compressibility (1/GPa) = 0.01938275
#
# Stress axis : x y z
#
# Youngs Moduli (GPa) = 53.71575 110.75253 54.52328
#
# Poissons Ratio (x) = 0.70562 0.36483
# Poissons Ratio (y) = 0.34223 0.01305
# Poissons Ratio (z) = 0.35943 0.02652
#
# Static dielectric constant tensor:
#      x y z
#    x 2.007330 0.000000 0.101730 
#    y 0.000000 1.835910 0.000000 
#    z 0.101730 0.000000 1.964350 
# 
# From -- ./inp_files/2841.got.cif
#   From: 2010.05.17/outbox.cif.g08.bks.cpg/sg8_2_cif.got.tgz:2841.got - 2010.06.03 19:46:02.
