data_PCOD9133364
_publ_section_title
;
Structure prediction by ZEFSAII (Michael W. Deem and Ramdas Pophale) SiO2 
 PCOD9133364
Probable space group: C M
;
_chemical_formula_sum "Si O2"
_cell_formula_units_Z 32
_cell_length_a 16.186267
_cell_length_b 22.546287
_cell_length_c 9.737235
_cell_angle_alpha 90.000000
_cell_angle_beta 152.616468
_cell_angle_gamma 90.000000
_cell_volume 1634.417097
_symmetry_space_group_name_H-M "C M"
_symmetry_group_IT_number 8
_symmetry_cell_setting 'monoclinic'
loop_
_space_group_symop_operation_xyz
x,y,z
x,-y,z
1/2+x,1/2+y,z
1/2+x,1/2-y,z
loop_
_atom_site_type_symbol
_atom_site_label
_atom_site_fract_x
_atom_site_fract_y
_atom_site_fract_z
Si Si1 0.175300 0.347467 0.802880
Si Si2 0.338235 0.067987 0.283371
Si Si3 0.143277 0.765017 0.306519
Si Si4 0.677040 0.833443 0.120478
Si Si5 0.008513 0.065932 0.304818
Si Si6 0.292674 0.890479 0.512568
Si Si7 0.078394 0.875378 0.678601
Si Si8 0.749094 0.264051 0.763267
O O1 0.144389 0.294649 0.652417
O O2 0.024907 0.396679 0.559910
O O3 0.170301 0.317727 0.947518
O O4 0.362373 0.382523 0.062785
O O5 0.288307 0.070101 0.370332
O O6 0.353070 0.000000 0.259327
O O7 0.201266 0.104063 0.985255
O O8 0.172874 0.717954 0.228838
O O9 0.184353 0.830428 0.310833
O O10 0.265854 0.766488 0.623364
O O11 0.954601 0.750754 0.101707
O O12 0.874728 0.862097 0.426330
O O13 0.496463 0.874180 0.861873
O O14 0.181952 0.079421 0.469993
O O15 0.061329 0.072817 0.541243
O O16 0.937925 0.000000 0.172336
O O17 0.165094 0.820023 0.719581
#
# Coordination Sequence:
#
# PCOD9133364 Si02
#       8
#     4   4   4   4   4   4   4   4
#     4  10  23  41  64  93 124 161 210 258 317 371
#     4  11  25  42  63  92 126 169 216 262 308 366
#     4  12  22  39  59  92 128 163 197 255 319 378
#     4  10  24  39  61  92 129 165 202 252 321 375
#     4  11  21  42  66  87 123 167 212 258 308 369
#     4  11  23  41  60  93 125 169 211 255 312 375
#     4  11  24  41  64  95 126 163 214 259 312 370
#     4  12  23  39  63  94 127 157 205 257 319 378
#
# _framework density 19.578845000000001
#
# number of rings (size 3 to 8) (size 9 to 14) (size 15 to 20)
#    0.000    1.000    3.750    2.625    7.000    0.000 
#    0.000    1.875    0.000    0.000    0.000    0.000 
#    0.000    0.000    0.000    0.000    0.000    0.000 
#
# Total GULP energy -89187.324096 kJ/mol
# GULP energy per Si atom -5574.207756 kJ/mol
# Density = 1.953428 g / cm^3
# Si number density = 19.578845 Si / 1000 Ang^3
#
#
#
# Elastic Constant Matrix: (Units=GPa)
#
#
# Indices 1 2 3 4 5 6 
#
# 1 86.1917 48.4923 30.6799 0.0000 9.8287 0.0000
# 2 48.4923 115.4246 23.6969 0.0000 -8.9971 0.0000
# 3 30.6799 23.6969 96.9064 0.0000 0.7942 0.0000
# 4 0.0000 0.0000 0.0000 17.2413 0.0000 -8.4861
# 5 9.8287 -8.9971 0.7942 0.0000 26.9867 0.0000
# 6 0.0000 0.0000 0.0000 -8.4861 0.0000 22.8313
#
#
#
# Elastic Compliance Matrix: (Units=1/GPa)
#
#
# Indices 1 2 3 4 5 6 
#
# 1 0.018285 -0.007598 -0.003856 0.000000 -0.009079 0.000000
# 2 -0.007598 0.012547 -0.000720 0.000000 0.006971 0.000000
# 3 -0.003856 -0.000720 0.011709 0.000000 0.000820 0.000000
# 4 0.000000 0.000000 0.000000 0.070987 0.000000 0.026385
# 5 -0.009079 0.006971 0.000820 0.000000 0.042662 0.000000
# 6 0.000000 0.000000 0.000000 0.026385 0.000000 0.053607
#
#
# Mechanical properties :
#
#
# Convention : Reuss Voigt Hill
#
# Bulk Modulus (GPa) = 54.96678 56.02898 55.49788
# Shear Modulus (GPa) = 20.81525 26.45544 23.63534
#
# Velocity S-wave (km/s) = 3.26414 3.67989 3.47823
# Velocity P-wave (km/s) = 6.50704 6.83628 6.67369
#
# Compressibility (1/GPa) = 0.01819281
#
# Stress axis : x y z
#
# Youngs Moduli (GPa) = 54.69099 79.70169 85.40082
#
# Poissons Ratio (x) = 0.60555 0.32935
# Poissons Ratio (y) = 0.41552 0.06148
# Poissons Ratio (z) = 0.21091 0.05738
#
# Static dielectric constant tensor:
#      x y z
#    x 1.698910 0.000000 0.009950 
#    y 0.000000 1.674380 0.000000 
#    z 0.009950 0.000000 1.697630 
# 
# From -- ./inp_files/13807.got.cif
#   From: 2010.05.17/outbox.cif.g08.bks.cpg/sg8_7_cif.got.tgz:13807.got - 2010.06.03 19:46:02.
