data_PCOD9133671
_publ_section_title
;
Structure prediction by ZEFSAII (Michael W. Deem and Ramdas Pophale) SiO2 
 PCOD9133671
Probable space group: C M
;
_chemical_formula_sum "Si O2"
_cell_formula_units_Z 16
_cell_length_a 21.000000
_cell_length_b 9.000000
_cell_length_c 27.000000
_cell_angle_alpha 90.000000
_cell_angle_beta 160.000000
_cell_angle_gamma 90.000000
_cell_volume 1745.328791
_symmetry_space_group_name_H-M "C M"
_symmetry_group_IT_number 8
_symmetry_cell_setting 'monoclinic'
loop_
_space_group_symop_operation_xyz
x,y,z
x,-y,z
1/2+x,1/2+y,z
1/2+x,1/2-y,z
loop_
_atom_site_type_symbol
_atom_site_label
_atom_site_fract_x
_atom_site_fract_y
_atom_site_fract_z
Si Si1 0.529410 0.180825 0.152210
Si Si2 0.224402 0.321897 0.741886
Si Si3 0.220613 0.318234 0.851017
Si Si4 0.554691 0.680062 0.906109
Si Si5 0.259626 0.177443 0.623456
Si Si6 0.458999 0.681535 0.209580
Si Si7 0.933585 0.319635 0.450297
Si Si8 0.283760 0.824666 0.525940
O O1 0.501346 0.249568 0.186563
O O2 0.739259 0.240885 0.294106
O O3 0.523875 0.000000 0.148397
O O4 0.364875 0.243917 0.995588
O O5 0.208727 0.500000 0.732301
O O6 0.274036 0.275789 0.833669
O O7 0.395900 0.287633 0.831062
O O8 0.027146 0.275240 0.572287
O O9 0.228375 0.500000 0.863754
O O10 0.000430 0.271934 0.688394
O O11 0.573660 0.500000 0.914175
O O12 0.458654 0.753313 0.786873
O O13 0.750163 0.753090 0.065652
O O14 0.220335 0.193147 0.536361
O O15 0.096233 0.265431 0.532237
O O16 0.259830 0.000000 0.635183
O O17 0.453090 0.500000 0.203638
O O18 0.623712 0.726348 0.369527
O O19 0.911923 0.500000 0.433523
O O20 0.302685 0.000000 0.528276
#
# Coordination Sequence:
#
# PCOD9133671 Si02
#       8
#     4   4   4   4   4   4   4   4
#     4  12  25  39  55  83 116 146 182 233 285 339
#     4   8  17  34  59  85 112 145 187 230 272 324
#     4  10  19  37  61  83 109 149 190 228 276 336
#     4  10  20  36  56  85 119 152 188 230 275 330
#     4  10  19  35  58  87 118 151 187 230 279 331
#     4  11  22  39  60  82 108 147 191 235 283 335
#     4  10  20  38  61  85 112 149 189 230 277 333
#     4   9  20  36  58  84 112 145 188 234 279 330
#
# _framework density 9.1673270000000002
#
# number of rings (size 3 to 8) (size 9 to 14) (size 15 to 20)
#    0.000    2.000    0.000    4.875    0.000    4.000 
#    0.000   11.875    0.000    0.000    0.000    0.000 
#    0.000    0.000    0.000    0.000    0.000    0.000 
#
# Total GULP energy -89130.407606 kJ/mol
# GULP energy per Si atom -5570.650475 kJ/mol
# Density = 0.914646 g / cm^3
# Si number density = 9.167327 Si / 1000 Ang^3
#
#
#
# Elastic Constant Matrix: (Units=GPa)
#
#
# Indices 1 2 3 4 5 6 
#
# 1 70.4124 24.3479 62.5091 0.0042 -19.1713 -0.0007
# 2 24.3479 96.5589 55.1178 0.0037 -7.4549 -0.0001
# 3 62.5091 55.1178 212.8674 0.0184 -22.9321 -0.0006
# 4 0.0042 0.0037 0.0184 37.1962 0.0004 0.6523
# 5 -19.1713 -7.4549 -22.9321 0.0004 38.7610 -0.0011
# 6 -0.0007 -0.0001 -0.0006 0.6523 -0.0011 22.8281
#
#
#
# Elastic Compliance Matrix: (Units=1/GPa)
#
#
# Indices 1 2 3 4 5 6 
#
# 1 0.021239 -0.001974 -0.004950 0.000000 0.007196 0.000001
# 2 -0.001974 0.012345 -0.002634 0.000000 -0.000160 0.000000
# 3 -0.004950 -0.002634 0.006959 -0.000003 0.001162 0.000000
# 4 0.000000 0.000000 -0.000003 0.026898 -0.000002 -0.000769
# 5 0.007196 -0.000160 0.001162 -0.000002 0.030015 0.000002
# 6 0.000001 0.000000 0.000000 -0.000769 0.000002 0.043828
#
#
# Mechanical properties :
#
#
# Convention : Reuss Voigt Hill
#
# Bulk Modulus (GPa) = 46.67336 73.75426 60.21381
# Shear Modulus (GPa) = 29.84314 35.61464 32.72889
#
# Velocity S-wave (km/s) = 4.03884 4.41214 4.22961
# Velocity P-wave (km/s) = 6.87468 8.14064 7.53430
#
# Compressibility (1/GPa) = 0.02142550
#
# Stress axis : x y z
#
# Youngs Moduli (GPa) = 47.08369 81.00176 143.70488
#
# Poissons Ratio (x) = 0.15990 0.71140
# Poissons Ratio (y) = 0.09295 0.37855
# Poissons Ratio (z) = 0.23308 0.21337
#
# Static dielectric constant tensor:
#      x y z
#    x 1.713250 0.000000 0.024330 
#    y 0.000000 1.620340 0.000000 
#    z 0.024330 0.000000 1.635090 
# 
# From -- ./inp_files/33044.got.cif
#   From: 2010.05.17/outbox.ucp.g08.bks.cvg/sg8_17_cif.got.tgz:33044.got - 2010.06.11 13:00:03.
