data_PCOD9133602
_publ_section_title
;
Structure prediction by ZEFSAII (Michael W. Deem and Ramdas Pophale) SiO2 
 PCOD9133602
Probable space group: C M
;
_chemical_formula_sum "Si O2"
_cell_formula_units_Z 32
_cell_length_a 10.918070
_cell_length_b 24.054290
_cell_length_c 6.811993
_cell_angle_alpha 90.000000
_cell_angle_beta 118.157321
_cell_angle_gamma 90.000000
_cell_volume 1577.289405
_symmetry_space_group_name_H-M "C M"
_symmetry_group_IT_number 8
_symmetry_cell_setting 'monoclinic'
loop_
_space_group_symop_operation_xyz
x,y,z
x,-y,z
1/2+x,1/2+y,z
1/2+x,1/2-y,z
loop_
_atom_site_type_symbol
_atom_site_label
_atom_site_fract_x
_atom_site_fract_y
_atom_site_fract_z
Si Si1 0.320310 0.212113 0.532390
Si Si2 0.157834 0.296079 0.208101
Si Si3 0.627097 0.638080 0.655173
Si Si4 0.255437 0.361328 0.899425
Si Si5 0.755400 0.434756 0.084010
Si Si6 0.486047 0.713174 0.877225
Si Si7 0.508981 0.433778 0.215496
Si Si8 0.998900 0.366278 0.408675
O O1 0.286793 0.274411 0.434863
O O2 0.206975 0.181721 0.578056
O O3 0.448515 0.225496 0.772394
O O4 0.381995 0.173325 0.413716
O O5 0.059459 0.332666 0.270249
O O6 0.205419 0.333539 0.063703
O O7 0.101844 0.233291 0.118878
O O8 0.545149 0.673440 0.755376
O O9 0.540238 0.599294 0.440831
O O10 0.726849 0.599661 0.863874
O O11 0.355114 0.314726 0.879837
O O12 0.125765 0.374985 0.658227
O O13 0.361839 0.412015 0.020337
O O14 0.744185 0.500000 0.035509
O O15 0.633945 0.421455 0.153567
O O16 0.908427 0.419566 0.279606
O O17 0.507390 0.500000 0.246036
#
# Coordination Sequence:
#
# PCOD9133602 Si02
#       8
#     4   4   4   4   4   4   4   4
#     4  12  22  40  64  98 136 178 215 260 328 402
#     4  12  24  42  67  96 141 184 218 266 326 400
#     4  12  23  44  70 100 132 176 229 276 328 396
#     4  12  25  44  65 101 139 176 223 273 335 401
#     4  11  25  47  73  97 127 176 232 288 337 387
#     4  12  22  40  64  98 136 178 215 260 328 402
#     4  11  25  47  73  97 127 176 232 288 337 387
#     4  12  25  44  65 101 139 176 223 273 335 401
#
# _framework density 20.287970999999999
#
# number of rings (size 3 to 8) (size 9 to 14) (size 15 to 20)
#    0.000    0.250    5.000    5.625    0.000    0.500 
#    0.000    0.625    0.000    0.000    0.000    0.000 
#    0.000    0.000    0.000    0.000    0.000    0.000 
#
# Total GULP energy -89337.628214 kJ/mol
# GULP energy per Si atom -5583.601763 kJ/mol
# Density = 2.024180 g / cm^3
# Si number density = 20.287971 Si / 1000 Ang^3
#
#
#
# Elastic Constant Matrix: (Units=GPa)
#
#
# Indices 1 2 3 4 5 6 
#
# 1 66.7335 21.3393 51.1202 0.0000 14.0994 0.0000
# 2 21.3393 82.6021 46.7162 0.0000 9.9296 0.0000
# 3 51.1202 46.7162 103.3270 0.0000 -7.1104 0.0000
# 4 0.0000 0.0000 0.0000 24.8915 0.0000 15.3210
# 5 14.0994 9.9296 -7.1104 0.0000 30.5223 0.0000
# 6 0.0000 0.0000 0.0000 15.3210 0.0000 42.9889
#
#
#
# Elastic Compliance Matrix: (Units=1/GPa)
#
#
# Indices 1 2 3 4 5 6 
#
# 1 0.033905 0.005770 -0.020925 0.000000 -0.022414 0.000000
# 2 0.005770 0.018926 -0.012214 0.000000 -0.011668 0.000000
# 3 -0.020925 -0.012214 0.026923 0.000000 0.019912 0.000000
# 4 0.000000 0.000000 0.000000 0.051464 0.000000 -0.018341
# 5 -0.022414 -0.011668 0.019912 0.000000 0.051551 0.000000
# 6 0.000000 0.000000 0.000000 -0.018341 0.000000 0.029799
#
#
# Mechanical properties :
#
#
# Convention : Reuss Voigt Hill
#
# Bulk Modulus (GPa) = 39.97642 54.55711 47.26677
# Shear Modulus (GPa) = 18.13919 28.57967 23.35943
#
# Velocity S-wave (km/s) = 2.99337 3.75734 3.39690
# Velocity P-wave (km/s) = 5.62977 6.76559 6.22364
#
# Compressibility (1/GPa) = 0.02501474
#
# Stress axis : x y z
#
# Youngs Moduli (GPa) = 29.49410 52.83674 37.14254
#
# Poissons Ratio (x) = -0.30486 0.77722
# Poissons Ratio (y) = -0.17018 0.45368
# Poissons Ratio (z) = 0.61717 0.64537
#
# Static dielectric constant tensor:
#      x y z
#    x 1.689760 0.000000 0.014670 
#    y 0.000000 1.684440 0.000000 
#    z 0.014670 0.000000 1.756170 
# 
# From -- ./inp_files/3170.got.cif
#   From: 2010.05.17/outbox.cif.g08.bks.cpg/sg8_2_cif.got.tgz:3170.got - 2010.06.03 19:46:02.
