data_PCOD9133358
_publ_section_title
;
Structure prediction by ZEFSAII (Michael W. Deem and Ramdas Pophale) SiO2 
 PCOD9133358
Probable space group: C M
;
_chemical_formula_sum "Si O2"
_cell_formula_units_Z 28
_cell_length_a 13.358773
_cell_length_b 17.688859
_cell_length_c 6.634489
_cell_angle_alpha 90.000000
_cell_angle_beta 119.696721
_cell_angle_gamma 90.000000
_cell_volume 1361.832286
_symmetry_space_group_name_H-M "C M"
_symmetry_group_IT_number 8
_symmetry_cell_setting 'monoclinic'
loop_
_space_group_symop_operation_xyz
x,y,z
x,-y,z
1/2+x,1/2+y,z
1/2+x,1/2-y,z
loop_
_atom_site_type_symbol
_atom_site_label
_atom_site_fract_x
_atom_site_fract_y
_atom_site_fract_z
Si Si1 0.114370 0.685932 0.623140
Si Si2 0.594367 0.086822 0.992439
Si Si3 0.429873 0.811384 0.097100
Si Si4 0.482569 0.416749 0.447541
Si Si5 0.972973 0.861564 0.002814
Si Si6 0.163946 0.843499 0.874998
Si Si7 0.792462 0.869356 0.498479
O O1 0.127550 0.620805 0.805954
O O2 0.121858 0.762332 0.754196
O O3 0.213417 0.686954 0.549153
O O4 0.999627 0.679781 0.375865
O O5 0.559428 0.000000 0.935659
O O6 0.494824 0.138177 0.993271
O O7 0.699522 0.090519 0.260132
O O8 0.436298 0.724214 0.027539
O O9 0.300590 0.839386 0.006951
O O10 0.438681 0.500000 0.461964
O O11 0.607249 0.403069 0.665702
O O12 0.394725 0.352446 0.442771
O O13 0.484814 0.409001 0.214049
O O14 0.876267 0.898727 0.761503
O O15 0.095993 0.857235 0.014343
#
# Coordination Sequence:
#
# PCOD9133358 Si02
#       7
#     4   4   4   4   4   4   4
#     4  11  22  41  70 100 129 174 224 274 333 385
#     4  11  25  43  64  99 140 175 217 273 335 395
#     4  11  24  42  68  98 131 171 222 274 326 399
#     4  11  25  43  64  99 140 175 217 273 335 395
#     4  11  22  41  70 100 129 174 224 274 333 385
#     4  11  24  42  68  98 131 171 222 274 326 399
#     4  10  23  40  70  98 135 170 220 276 331 384
#
# _framework density 20.560535000000002
#
# number of rings (size 3 to 8) (size 9 to 14) (size 15 to 20)
#    0.000    1.143    4.286    1.286    0.000    7.429 
#    0.000    0.000    0.000    0.000    0.000    0.000 
#    0.000    0.000    0.000    0.000    0.000    0.000 
#
# Total GULP energy -78018.595072 kJ/mol
# GULP energy per Si atom -5572.756791 kJ/mol
# Density = 2.051374 g / cm^3
# Si number density = 20.560535 Si / 1000 Ang^3
#
#
#
# Elastic Constant Matrix: (Units=GPa)
#
#
# Indices 1 2 3 4 5 6 
#
# 1 128.9771 13.3960 64.0578 0.0000 24.5261 0.0000
# 2 13.3960 88.6998 28.9682 0.0000 -4.5337 0.0000
# 3 64.0578 28.9682 124.2272 0.0000 -11.7186 0.0000
# 4 0.0000 0.0000 0.0000 18.6278 0.0000 -5.1550
# 5 24.5261 -4.5337 -11.7186 0.0000 32.4585 0.0000
# 6 0.0000 0.0000 0.0000 -5.1550 0.0000 14.8458
#
#
#
# Elastic Compliance Matrix: (Units=1/GPa)
#
#
# Indices 1 2 3 4 5 6 
#
# 1 0.015119 -0.000040 -0.009178 0.000000 -0.014743 0.000000
# 2 -0.000040 0.012219 -0.002759 0.000000 0.000741 0.000000
# 3 -0.009178 -0.002759 0.014539 0.000000 0.011798 0.000000
# 4 0.000000 0.000000 0.000000 0.059390 0.000000 0.020622
# 5 -0.014743 0.000741 0.011798 0.000000 0.046312 0.000000
# 6 0.000000 0.000000 0.000000 0.020622 0.000000 0.074520
#
#
# Mechanical properties :
#
#
# Convention : Reuss Voigt Hill
#
# Bulk Modulus (GPa) = 55.79127 61.63864 58.71496
# Shear Modulus (GPa) = 19.83923 28.88525 24.36224
#
# Velocity S-wave (km/s) = 3.10968 3.75225 3.44598
# Velocity P-wave (km/s) = 6.33147 6.98689 6.66724
#
# Compressibility (1/GPa) = 0.01792395
#
# Stress axis : x y z
#
# Youngs Moduli (GPa) = 66.14092 81.84060 68.78236
#
# Poissons Ratio (x) = 0.00324 0.63127
# Poissons Ratio (y) = 0.00262 0.18977
# Poissons Ratio (z) = 0.60703 0.22580
#
# Static dielectric constant tensor:
#      x y z
#    x 1.739920 0.000000 0.003190 
#    y 0.000000 1.736830 0.000000 
#    z 0.003190 0.000000 1.744820 
# 
# From -- ./inp_files/2959.got.cif
#   From: 2010.05.17/outbox.cif.g08.bks.cpg/sg8_2_cif.got.tgz:2959.got - 2010.06.03 19:46:02.
