data_PCOD9133372
_publ_section_title
;
Structure prediction by ZEFSAII (Michael W. Deem and Ramdas Pophale) SiO2 
 PCOD9133372
Probable space group: C M
;
_chemical_formula_sum "Si O2"
_cell_formula_units_Z 20
_cell_length_a 8.173578
_cell_length_b 23.811158
_cell_length_c 5.268651
_cell_angle_alpha 90.000000
_cell_angle_beta 122.235954
_cell_angle_gamma 90.000000
_cell_volume 867.341117
_symmetry_space_group_name_H-M "C M"
_symmetry_group_IT_number 8
_symmetry_cell_setting 'monoclinic'
loop_
_space_group_symop_operation_xyz
x,y,z
x,-y,z
1/2+x,1/2+y,z
1/2+x,1/2-y,z
loop_
_atom_site_type_symbol
_atom_site_label
_atom_site_fract_x
_atom_site_fract_y
_atom_site_fract_z
Si Si1 0.772990 0.567890 0.918280
Si Si2 0.952109 0.197194 0.698624
Si Si3 0.280261 0.259313 0.068240
Si Si4 0.524956 0.567027 0.210289
Si Si5 0.673873 0.128177 0.157955
O O1 0.796543 0.500000 0.946784
O O2 0.659096 0.581342 0.563848
O O3 0.641606 0.583229 0.053445
O O4 0.984659 0.595450 0.084386
O O5 0.900718 0.241130 0.427546
O O6 0.818498 0.145357 0.508073
O O7 0.899212 0.216307 0.934863
O O8 0.183069 0.201595 0.902994
O O9 0.130319 0.310587 0.003417
O O10 0.498590 0.500000 0.182895
O O11 0.315750 0.594515 0.085829
#
# Coordination Sequence:
#
# PCOD9133372 Si02
#       5
#     4   4   4   4   4
#     4  10  23  42  65  97 131 166 213 269 324 387
#     4  10  23  42  60  90 125 169 218 264 322 379
#     4  10  23  42  60  90 125 169 218 264 322 379
#     4  10  23  42  65  97 131 166 213 269 324 387
#     4  10  25  40  70  92 132 170 223 254 338 378
#
# _framework density 23.058976000000001
#
# number of rings (size 3 to 8) (size 9 to 14) (size 15 to 20)
#    1.200    0.800    0.000    1.800    5.600    1.600 
#    0.000    6.000    0.000    0.000    0.000    0.000 
#    0.000    0.000    0.000    0.000    0.000    0.000 
#
# Total GULP energy -55770.945138 kJ/mol
# GULP energy per Si atom -5577.094514 kJ/mol
# Density = 2.300649 g / cm^3
# Si number density = 23.058976 Si / 1000 Ang^3
#
#
#
# Elastic Constant Matrix: (Units=GPa)
#
#
# Indices 1 2 3 4 5 6 
#
# 1 160.2010 42.9979 49.2117 0.0000 -1.3872 0.0000
# 2 42.9979 73.0234 31.1153 0.0000 11.8517 0.0000
# 3 49.2117 31.1153 104.2054 0.0000 -9.9171 0.0000
# 4 0.0000 0.0000 0.0000 13.1902 0.0000 79.1059
# 5 -1.3872 11.8517 -9.9171 0.0000 32.6785 0.0000
# 6 0.0000 0.0000 0.0000 79.1059 0.0000 -132.3130
#
#
#
# Elastic Compliance Matrix: (Units=1/GPa)
#
#
# Indices 1 2 3 4 5 6 
#
# 1 0.008064 -0.003799 -0.002585 0.000000 0.000936 0.000000
# 2 -0.003799 0.019389 -0.004819 0.000000 -0.008656 0.000000
# 3 -0.002585 -0.004819 0.012781 0.000000 0.005517 0.000000
# 4 0.000000 0.000000 0.000000 0.016533 0.000000 0.009885
# 5 0.000936 -0.008656 0.005517 0.000000 0.035454 0.000000
# 6 0.000000 0.000000 0.000000 0.009885 0.000000 -0.001648
#
#
# Mechanical properties :
#
#
# Convention : Reuss Voigt Hill
#
# Bulk Modulus (GPa) = 56.08973 64.89775 60.49374
# Shear Modulus (GPa) = 42.04417 -3.01521 19.51448
#
# Velocity S-wave (km/s) = 4.27468 -1.14475 2.91225
# Velocity P-wave (km/s) = 6.98149 5.14374 6.13185
#
# Compressibility (1/GPa) = 0.01782858
#
# Stress axis : x y z
#
# Youngs Moduli (GPa) = 124.01014 51.57469 78.23927
#
# Poissons Ratio (x) = 0.19591 0.20224
# Poissons Ratio (y) = 0.47106 0.37707
# Poissons Ratio (z) = 0.32056 0.24856
#
# Static dielectric constant tensor:
#      x y z
#    x 1.909900 0.000000 -0.037940 
#    y 0.000000 2.099740 0.000000 
#    z -0.037940 0.000000 1.844850 
# 
# From -- ./inp_files/1766.got.cif
#   From: 2010.05.17/outbox.cif.g08.bks.cpg/sg8_1_cif.got.tgz:1766.got - 2010.06.03 19:46:02.
