data_PCOD9133994
_publ_section_title
;
Structure prediction by ZEFSAII (Michael W. Deem and Ramdas Pophale) SiO2 
 PCOD9133994
Probable space group: C C
;
_chemical_formula_sum "Si O2"
_cell_formula_units_Z 28
_cell_length_a 17.509799
_cell_length_b 9.804756
_cell_length_c 8.834656
_cell_angle_alpha 90.000000
_cell_angle_beta 46.946284
_cell_angle_gamma 90.000000
_cell_volume 1108.294093
_symmetry_space_group_name_H-M "C C"
_symmetry_group_IT_number 9
_symmetry_cell_setting 'monoclinic'
loop_
_space_group_symop_operation_xyz
x,y,z
x,-y,1/2+z
1/2+x,1/2+y,z
1/2+x,1/2-y,1/2+z
loop_
_atom_site_type_symbol
_atom_site_label
_atom_site_fract_x
_atom_site_fract_y
_atom_site_fract_z
Si Si1 0.581260 0.096844 0.676070
Si Si2 0.739855 0.384483 0.531107
Si Si3 0.422352 0.265945 0.712425
Si Si4 0.771834 0.808667 0.477665
Si Si5 0.714090 0.955777 0.263284
Si Si6 0.911262 0.607390 0.414993
Si Si7 0.625062 0.409631 0.359664
O O1 0.498518 0.206839 0.737490
O O2 0.623763 0.111252 0.785006
O O3 0.666535 0.077523 0.432099
O O4 0.525288 0.950802 0.745879
O O5 0.805286 0.241783 0.440309
O O6 0.831126 0.489526 0.467070
O O7 0.685875 0.399936 0.438778
O O8 0.648753 0.439576 0.763797
O O9 0.405165 0.159890 0.595793
O O10 0.500182 0.381601 0.541376
O O11 0.756283 0.848340 0.325735
O O12 0.880205 0.731918 0.353189
O O13 0.682688 0.705248 0.670863
O O14 0.779233 0.950290 0.560015
#
# Coordination Sequence:
#
# PCOD9133994 Si02
#       7
#     4   4   4   4   4   4   4
#     4  10  18  33  60  93 119 167 233 281 334 430
#     4  10  22  41  70  99 142 193 245 293 370 447
#     4  11  19  38  68  98 138 189 236 299 370 421
#     4  10  20  38  59  93 135 173 220 292 352 411
#     4  10  19  35  62  90 125 172 227 272 338 428
#     4  10  20  37  65  95 132 175 227 295 351 419
#     4  11  22  44  68 104 145 191 236 312 365 430
#
# _framework density 25.264050999999998
#
# number of rings (size 3 to 8) (size 9 to 14) (size 15 to 20)
#    0.000    1.714    5.714    0.857    0.000    0.000 
#    5.143    1.429    6.286    0.000    0.000    0.000 
#    0.000    0.000    0.000    0.000    0.000    0.000 
#
# Total GULP energy -78046.888414 kJ/mol
# GULP energy per Si atom -5574.777744 kJ/mol
# Density = 2.520655 g / cm^3
# Si number density = 25.264051 Si / 1000 Ang^3
#
#
#
# Elastic Constant Matrix: (Units=GPa)
#
#
# Indices 1 2 3 4 5 6 
#
# 1 171.3287 55.1143 59.8884 0.0000 31.4649 0.0000
# 2 55.1143 99.7374 39.1092 0.0000 -14.9779 0.0000
# 3 59.8884 39.1092 86.1170 0.0000 4.0487 0.0000
# 4 0.0000 0.0000 0.0000 39.7281 0.0000 -12.1008
# 5 31.4649 -14.9779 4.0487 0.0000 30.4086 0.0000
# 6 0.0000 0.0000 0.0000 -12.1008 0.0000 61.0490
#
#
#
# Elastic Compliance Matrix: (Units=1/GPa)
#
#
# Indices 1 2 3 4 5 6 
#
# 1 0.013153 -0.007944 -0.004745 0.000000 -0.016891 0.000000
# 2 -0.007944 0.018569 -0.003748 0.000000 0.017865 0.000000
# 3 -0.004745 -0.003748 0.016574 0.000000 0.000857 0.000000
# 4 0.000000 0.000000 0.000000 0.026788 0.000000 0.005310
# 5 -0.016891 0.017865 0.000857 0.000000 0.059049 0.000000
# 6 0.000000 0.000000 0.000000 0.005310 0.000000 0.017433
#
#
# Mechanical properties :
#
#
# Convention : Reuss Voigt Hill
#
# Bulk Modulus (GPa) = 64.84724 73.93410 69.39067
# Shear Modulus (GPa) = 26.37388 39.77521 33.07454
#
# Velocity S-wave (km/s) = 3.23449 3.97215 3.62215
# Velocity P-wave (km/s) = 6.29863 7.09686 6.70963
#
# Compressibility (1/GPa) = 0.01542086
#
# Stress axis : x y z
#
# Youngs Moduli (GPa) = 76.02781 53.85342 60.33584
#
# Poissons Ratio (x) = 0.42783 0.28630
# Poissons Ratio (y) = 0.60398 0.22615
# Poissons Ratio (z) = 0.36076 0.20185
#
# Static dielectric constant tensor:
#      x y z
#    x 1.944850 0.000000 -0.043300 
#    y 0.000000 2.069990 0.000000 
#    z -0.043300 0.000000 2.113030 
# 
# From -- ./inp_files/10615.got.cif
#   From: 2010.05.17/outbox.cif.g08.bks.cpg/sg9_6_cif.got.tgz:10615.got - 2010.06.03 20:04:27.
