data_PCOD9133098
_publ_section_title
;
Structure prediction by ZEFSAII (Michael W. Deem and Ramdas Pophale) SiO2 
 PCOD9133098
Probable space group: C M
;
_chemical_formula_sum "Si O2"
_cell_formula_units_Z 26
_cell_length_a 20.857244
_cell_length_b 7.702323
_cell_length_c 9.851054
_cell_angle_alpha 90.000000
_cell_angle_beta 132.103482
_cell_angle_gamma 90.000000
_cell_volume 1174.159953
_symmetry_space_group_name_H-M "C M"
_symmetry_group_IT_number 8
_symmetry_cell_setting 'monoclinic'
loop_
_space_group_symop_operation_xyz
x,y,z
x,-y,z
1/2+x,1/2+y,z
1/2+x,1/2-y,z
loop_
_atom_site_type_symbol
_atom_site_label
_atom_site_fract_x
_atom_site_fract_y
_atom_site_fract_z
Si Si1 0.094830 0.289516 0.170270
Si Si2 0.320646 0.000000 0.963739
Si Si3 0.765800 0.791326 0.543012
Si Si4 0.961914 0.704445 0.750981
Si Si5 0.707135 0.802114 0.763846
Si Si6 0.948271 0.202150 0.157589
Si Si7 0.515794 0.699796 0.532322
O O1 0.095018 0.500000 0.168518
O O2 0.194256 0.232903 0.330615
O O3 0.042751 0.228284 0.228839
O O4 0.034928 0.228885 0.960017
O O5 0.387336 0.154457 0.005319
O O6 0.254089 0.155766 0.917850
O O7 0.863347 0.730714 0.658525
O O8 0.728388 0.744556 0.638633
O O9 0.768439 0.000000 0.543322
O O10 0.976880 0.500000 0.757819
O O11 0.975274 0.785093 0.622242
O O12 0.605505 0.799146 0.647476
O O13 0.736833 0.000000 0.825861
O O14 0.951649 0.254555 0.320860
O O15 0.924857 0.000000 0.106201
O O16 0.536289 0.500000 0.530201
#
# Coordination Sequence:
#
# PCOD9133098 Si02
#       7
#     4   2   4   4   4   4   4
#     4  10  21  42  68  99 138 184 229 288 347 417
#     4  12  24  40  66 102 138 172 226 298 338 404
#     4  10  22  41  68  99 137 185 233 287 346 414
#     4  11  25  41  67  99 140 187 233 286 351 415
#     4  11  23  41  71 103 138 183 232 283 352 416
#     4  11  24  41  70 102 136 182 234 285 349 414
#     4  11  24  46  69  97 139 188 231 285 354 417
#
# _framework density 22.143488999999999
#
# number of rings (size 3 to 8) (size 9 to 14) (size 15 to 20)
#    0.000    1.231    3.077    2.308    5.385    3.077 
#    2.769    0.000    0.000    0.000    0.000    0.000 
#    0.000    0.000    0.000    0.000    0.000    0.000 
#
# Total GULP energy -72370.015232 kJ/mol
# GULP energy per Si atom -5566.924249 kJ/mol
# Density = 2.209309 g / cm^3
# Si number density = 22.143489 Si / 1000 Ang^3
#
#
#
# Elastic Constant Matrix: (Units=GPa)
#
#
# Indices 1 2 3 4 5 6 
#
# 1 84.9422 18.6319 44.0847 0.0000 3.4020 0.0000
# 2 18.6319 78.3422 23.3610 0.0000 10.8605 0.0000
# 3 44.0847 23.3610 112.5620 0.0000 7.4026 0.0000
# 4 0.0000 0.0000 0.0000 6.4439 0.0000 9.4035
# 5 3.4020 10.8605 7.4026 0.0000 40.6109 0.0000
# 6 0.0000 0.0000 0.0000 9.4035 0.0000 38.0214
#
#
#
# Elastic Compliance Matrix: (Units=1/GPa)
#
#
# Indices 1 2 3 4 5 6 
#
# 1 0.015051 -0.001976 -0.005502 0.000000 0.000271 0.000000
# 2 -0.001976 0.014279 -0.001973 0.000000 -0.003294 0.000000
# 3 -0.005502 -0.001973 0.011522 0.000000 -0.001112 0.000000
# 4 0.000000 0.000000 0.000000 0.242825 0.000000 -0.060056
# 5 0.000271 -0.003294 -0.001112 0.000000 0.025685 0.000000
# 6 0.000000 0.000000 0.000000 -0.060056 0.000000 0.041154
#
#
# Mechanical properties :
#
#
# Convention : Reuss Voigt Hill
#
# Bulk Modulus (GPa) = 45.56046 49.77796 47.66921
# Shear Modulus (GPa) = 13.27192 29.66648 21.46920
#
# Velocity S-wave (km/s) = 2.45084 3.66421 3.11714
# Velocity P-wave (km/s) = 5.35057 6.35850 5.87618
#
# Compressibility (1/GPa) = 0.02194885
#
# Stress axis : x y z
#
# Youngs Moduli (GPa) = 66.44046 70.03082 86.79390
#
# Poissons Ratio (x) = 0.13840 0.47757
# Poissons Ratio (y) = 0.13131 0.17124
# Poissons Ratio (z) = 0.36558 0.13817
#
# Static dielectric constant tensor:
#      x y z
#    x 1.810580 0.000000 0.023460 
#    y 0.000000 1.808030 0.000000 
#    z 0.023460 0.000000 1.961090 
# 
# From -- ./inp_files/15978.got.cif
#   From: 2010.05.17/outbox.cif.g08.bks.cpg/sg8_8_cif.got.tgz:15978.got - 2010.06.03 19:46:02.
