data_PCOD9133144
_publ_section_title
;
Structure prediction by ZEFSAII (Michael W. Deem and Ramdas Pophale) SiO2 
 PCOD9133144
Probable space group: C M
;
_chemical_formula_sum "Si O2"
_cell_formula_units_Z 28
_cell_length_a 8.184986
_cell_length_b 13.754703
_cell_length_c 19.016917
_cell_angle_alpha 90.000000
_cell_angle_beta 145.627869
_cell_angle_gamma 90.000000
_cell_volume 1208.714352
_symmetry_space_group_name_H-M "C M"
_symmetry_group_IT_number 8
_symmetry_cell_setting 'monoclinic'
loop_
_space_group_symop_operation_xyz
x,y,z
x,-y,z
1/2+x,1/2+y,z
1/2+x,1/2-y,z
loop_
_atom_site_type_symbol
_atom_site_label
_atom_site_fract_x
_atom_site_fract_y
_atom_site_fract_z
Si Si1 0.276440 0.383543 0.325980
Si Si2 0.331612 0.738837 0.712943
Si Si3 0.231297 0.609521 0.045810
Si Si4 0.296953 0.612061 0.841320
Si Si5 0.229148 0.738078 0.530975
Si Si6 0.887477 0.393414 0.320090
Si Si7 0.400611 0.817766 0.063868
O O1 0.285200 0.500000 0.318062
O O2 0.584642 0.343400 0.463829
O O3 0.035345 0.359915 0.299929
O O4 0.155223 0.333297 0.211499
O O5 0.326535 0.664119 0.775015
O O6 0.550762 0.828455 0.794987
O O7 0.398340 0.697100 0.659684
O O8 0.003804 0.769718 0.576647
O O9 0.162691 0.500000 0.992970
O O10 0.546491 0.600958 0.192368
O O11 0.286757 0.706509 0.019414
O O12 0.005919 0.640697 0.026443
O O13 0.220798 0.500000 0.807389
O O14 0.616168 0.623298 0.987595
O O15 0.974254 0.669865 0.416469
O O16 0.012023 0.500000 0.375877
#
# Coordination Sequence:
#
# PCOD9133144 Si02
#       7
#     4   4   4   4   4   4   4
#     4  11  23  39  66 101 136 183 226 277 353 426
#     4  10  25  43  68  96 131 178 235 287 336 395
#     4  11  24  41  65 102 144 180 219 273 339 413
#     4  11  25  49  72  98 135 183 236 290 339 400
#     4  11  21  41  64  95 135 168 221 289 345 399
#     4  10  22  38  59  94 136 175 216 267 339 412
#     4  12  24  43  72 100 143 181 225 285 345 413
#
# _framework density 23.165109000000001
#
# number of rings (size 3 to 8) (size 9 to 14) (size 15 to 20)
#    0.000    1.143    2.857    3.000    2.000    3.429 
#    0.000    7.143    0.000    0.000    0.000    0.000 
#    0.000    0.000    0.000    0.000    0.000    0.000 
#
# Total GULP energy -78040.918126 kJ/mol
# GULP energy per Si atom -5574.351295 kJ/mol
# Density = 2.311238 g / cm^3
# Si number density = 23.165109 Si / 1000 Ang^3
#
#
#
# Elastic Constant Matrix: (Units=GPa)
#
#
# Indices 1 2 3 4 5 6 
#
# 1 36.4974 51.9647 21.9339 0.0000 13.8461 0.0000
# 2 51.9647 153.9833 29.8541 -0.0002 -6.1481 0.0001
# 3 21.9339 29.8541 79.5039 -0.0005 4.9942 0.0002
# 4 0.0000 -0.0002 -0.0005 16.5017 0.0000 3.4161
# 5 13.8461 -6.1481 4.9942 0.0000 48.3993 0.0000
# 6 0.0000 0.0001 0.0002 3.4161 0.0000 26.6614
#
#
#
# Elastic Compliance Matrix: (Units=1/GPa)
#
#
# Indices 1 2 3 4 5 6 
#
# 1 0.080800 -0.026170 -0.010874 -0.000001 -0.025318 0.000000
# 2 -0.026170 0.015547 0.000793 0.000000 0.009380 0.000000
# 3 -0.010874 0.000793 0.015177 0.000001 0.001646 0.000000
# 4 -0.000001 0.000000 0.000001 0.062251 0.000000 -0.007976
# 5 -0.025318 0.009380 0.001646 0.000000 0.028926 0.000000
# 6 0.000000 0.000000 0.000000 -0.007976 0.000000 0.038529
#
#
# Mechanical properties :
#
#
# Convention : Reuss Voigt Hill
#
# Bulk Modulus (GPa) = 25.62737 53.05445 39.34091
# Shear Modulus (GPa) = 15.30273 29.39461 22.34867
#
# Velocity S-wave (km/s) = 2.57299 3.56605 3.10942
# Velocity P-wave (km/s) = 4.46251 6.31729 5.46910
#
# Compressibility (1/GPa) = 0.03902078
#
# Stress axis : x y z
#
# Youngs Moduli (GPa) = 12.37628 64.32263 65.88976
#
# Poissons Ratio (x) = 1.68333 0.71648
# Poissons Ratio (y) = 0.32389 -0.05224
# Poissons Ratio (z) = 0.13458 -0.05100
#
# Static dielectric constant tensor:
#      x y z
#    x 1.937870 0.000000 -0.016920 
#    y 0.000000 1.936750 0.000000 
#    z -0.016920 0.000000 1.868830 
# 
# From -- ./inp_files/25351.got.cif
#   From: 2010.05.17/outbox.cif.g08.bks.cpg/sg8_13_cif.got.tgz:25351.got - 2010.06.03 19:46:02.
