data_PCOD9133989
_publ_section_title
;
Structure prediction by ZEFSAII (Michael W. Deem and Ramdas Pophale) SiO2 
 PCOD9133989
Probable space group: C C
;
_chemical_formula_sum "Si O2"
_cell_formula_units_Z 32
_cell_length_a 10.932103
_cell_length_b 18.448760
_cell_length_c 8.672149
_cell_angle_alpha 90.000000
_cell_angle_beta 138.305468
_cell_angle_gamma 90.000000
_cell_volume 1163.384201
_symmetry_space_group_name_H-M "C C"
_symmetry_group_IT_number 9
_symmetry_cell_setting 'monoclinic'
loop_
_space_group_symop_operation_xyz
x,y,z
x,-y,1/2+z
1/2+x,1/2+y,z
1/2+x,1/2-y,1/2+z
loop_
_atom_site_type_symbol
_atom_site_label
_atom_site_fract_x
_atom_site_fract_y
_atom_site_fract_z
Si Si1 0.894550 0.275544 0.507890
Si Si2 0.581767 0.660315 0.552658
Si Si3 0.668085 0.091470 0.560512
Si Si4 0.598513 0.199478 0.892175
Si Si5 0.215884 0.966252 0.981069
Si Si6 0.572874 0.235031 0.514636
Si Si7 0.221160 0.102507 0.158894
Si Si8 0.662702 0.044638 0.882198
O O1 0.705574 0.317950 0.316128
O O2 0.975455 0.275475 0.754498
O O3 0.890031 0.193821 0.432912
O O4 0.998031 0.315505 0.462427
O O5 0.653799 0.717773 0.488015
O O6 0.617114 0.583114 0.516312
O O7 0.733796 0.173665 0.640656
O O8 0.713810 0.047728 0.754335
O O9 0.726634 0.035195 0.488770
O O10 0.444771 0.099905 0.358215
O O11 0.513188 0.212090 0.636899
O O12 0.719553 0.126132 0.990039
O O13 0.168338 0.937318 0.768213
O O14 0.163959 0.048707 0.967852
O O15 0.439739 0.956067 0.202737
O O16 0.645108 0.316547 0.595351
#
# Coordination Sequence:
#
# PCOD9133989 Si02
#       8
#     4   4   4   4   4   4   4   4
#     4  10  23  35  61  86 123 162 204 249 304 371
#     4  10  20  39  57  90 121 165 199 254 312 362
#     4   9  21  31  59  81 120 149 197 259 308 357
#     4   9  20  36  58  82 126 159 196 254 307 370
#     4  10  18  33  58  82 127 148 198 263 310 361
#     4  11  22  37  55  91 118 163 199 250 307 380
#     4  10  21  34  55  89 115 157 203 256 317 360
#     4   9  17  33  51  89 110 153 192 253 315 349
#
# _framework density 27.505959000000001
#
# number of rings (size 3 to 8) (size 9 to 14) (size 15 to 20)
#    0.750    1.500    2.500    0.000    5.250    1.000 
#    0.000    0.000    0.000    1.500    3.250    0.000 
#    0.000    0.000    0.000    0.000    0.000    0.000 
#
# Total GULP energy -89089.967053 kJ/mol
# GULP energy per Si atom -5568.122941 kJ/mol
# Density = 2.744335 g / cm^3
# Si number density = 27.505959 Si / 1000 Ang^3
#
#
#
# Elastic Constant Matrix: (Units=GPa)
#
#
# Indices 1 2 3 4 5 6 
#
# 1 76.8111 30.8294 45.3598 0.0000 -20.6117 0.0000
# 2 30.8294 217.9267 56.5397 0.0000 -40.6760 0.0000
# 3 45.3598 56.5397 140.6632 0.0000 -32.4740 0.0000
# 4 0.0000 0.0000 0.0000 31.2794 0.0000 -14.3687
# 5 -20.6117 -40.6760 -32.4740 0.0000 42.7847 0.0000
# 6 0.0000 0.0000 0.0000 -14.3687 0.0000 34.7350
#
#
#
# Elastic Compliance Matrix: (Units=1/GPa)
#
#
# Indices 1 2 3 4 5 6 
#
# 1 0.016908 -0.000454 -0.004230 0.000000 0.004503 0.000000
# 2 -0.000454 0.005773 -0.001161 0.000000 0.004389 0.000000
# 3 -0.004230 -0.001161 0.009960 0.000000 0.004418 0.000000
# 4 0.000000 0.000000 0.000000 0.039470 0.000000 0.016328
# 5 0.004503 0.004389 0.004418 0.000000 0.033068 0.000000
# 6 0.000000 0.000000 0.000000 0.016328 0.000000 0.035544
#
#
# Mechanical properties :
#
#
# Convention : Reuss Voigt Hill
#
# Bulk Modulus (GPa) = 47.73116 77.87320 62.80218
# Shear Modulus (GPa) = 31.36833 41.93794 36.65313
#
# Velocity S-wave (km/s) = 3.38067 3.90896 3.65437
# Velocity P-wave (km/s) = 5.71221 6.98184 6.37869
#
# Compressibility (1/GPa) = 0.02095068
#
# Stress axis : x y z
#
# Youngs Moduli (GPa) = 59.14517 173.21093 100.40260
#
# Poissons Ratio (x) = 0.07862 0.42472
# Poissons Ratio (y) = 0.02684 0.11657
# Poissons Ratio (z) = 0.25019 0.20110
#
# Static dielectric constant tensor:
#      x y z
#    x 2.230330 0.000000 0.165100 
#    y 0.000000 2.211100 0.000000 
#    z 0.165100 0.000000 2.307290 
# 
# From -- ./inp_files/9899.got.cif
#   From: 2010.05.17/outbox.cif.g08.bks.cpg/sg9_5_cif.got.tgz:9899.got - 2010.06.03 20:04:27.
