data_PCOD9133754
_publ_section_title
;
Structure prediction by ZEFSAII (Michael W. Deem and Ramdas Pophale) SiO2 
 PCOD9133754
Probable space group: C C
;
_chemical_formula_sum "Si O2"
_cell_formula_units_Z 20
_cell_length_a 6.534692
_cell_length_b 19.366789
_cell_length_c 5.374741
_cell_angle_alpha 90.000000
_cell_angle_beta 81.061686
_cell_angle_gamma 90.000000
_cell_volume 671.945438
_symmetry_space_group_name_H-M "C C"
_symmetry_group_IT_number 9
_symmetry_cell_setting 'monoclinic'
loop_
_space_group_symop_operation_xyz
x,y,z
x,-y,1/2+z
1/2+x,1/2+y,z
1/2+x,1/2-y,1/2+z
loop_
_atom_site_type_symbol
_atom_site_label
_atom_site_fract_x
_atom_site_fract_y
_atom_site_fract_z
Si Si1 0.017210 0.124552 0.913250
Si Si2 0.505592 0.837245 0.374100
Si Si3 0.626552 0.414187 0.887078
Si Si4 0.418704 0.779975 0.883616
Si Si5 0.068448 0.531847 0.195035
O O1 0.265088 0.141164 0.880438
O O2 0.004286 0.080567 0.666308
O O3 0.905487 0.198461 0.935049
O O4 0.980060 0.085425 0.176236
O O5 0.504497 0.779247 0.586284
O O6 0.602536 0.901399 0.507922
O O7 0.559387 0.809404 0.087685
O O8 0.739100 0.338071 0.889200
O O9 0.816999 0.464854 0.792555
O O10 0.126286 0.525648 0.476784
#
# Coordination Sequence:
#
# PCOD9133754 Si02
#       5
#     4   4   4   4   4
#     4   9  15  26  39  51  78 109 123 156 193 216
#     4   9  18  26  36  62  78  98 140 151 176 248
#     4   9  18  26  36  62  78  98 140 151 176 248
#     4   9  15  26  39  51  78 109 123 156 193 216
#     4  10  16  26  40  52  78 112 126 156 194 216
#
# _framework density 29.764319
#
# number of rings (size 3 to 8) (size 9 to 14) (size 15 to 20)
#    0.000    3.200    0.000    6.000    0.000    0.000 
#    0.000    0.000    0.000    0.000    0.000    0.000 
#    0.000    0.000    0.000 2635.200    0.000    0.000 
#
# Total GULP energy -55843.706249 kJ/mol
# GULP energy per Si atom -5584.370625 kJ/mol
# Density = 2.969657 g / cm^3
# Si number density = 29.764319 Si / 1000 Ang^3
#
#
#
# Elastic Constant Matrix: (Units=GPa)
#
#
# Indices 1 2 3 4 5 6 
#
# 1 102.9239 33.2309 50.3496 0.0000 1.3221 0.0000
# 2 33.2309 123.7634 55.6640 0.0000 -7.5114 0.0000
# 3 50.3496 55.6640 318.8892 0.0000 48.1233 0.0000
# 4 0.0000 0.0000 0.0000 53.6475 0.0000 -10.3758
# 5 1.3221 -7.5114 48.1233 0.0000 45.5672 0.0000
# 6 0.0000 0.0000 0.0000 -10.3758 0.0000 33.2807
#
#
#
# Elastic Compliance Matrix: (Units=1/GPa)
#
#
# Indices 1 2 3 4 5 6 
#
# 1 0.011172 -0.002271 -0.001502 0.000000 0.000887 0.000000
# 2 -0.002271 0.009769 -0.001903 0.000000 0.003686 0.000000
# 3 -0.001502 -0.001903 0.004456 0.000000 -0.004976 0.000000
# 4 0.000000 0.000000 0.000000 0.019836 0.000000 0.006184
# 5 0.000887 0.003686 -0.004976 0.000000 0.027783 0.000000
# 6 0.000000 0.000000 0.000000 0.006184 0.000000 0.031976
#
#
# Mechanical properties :
#
#
# Convention : Reuss Voigt Hill
#
# Bulk Modulus (GPa) = 71.18863 91.56282 81.37572
# Shear Modulus (GPa) = 41.31384 53.58787 47.45086
#
# Velocity S-wave (km/s) = 3.72967 4.24772 3.99710
# Velocity P-wave (km/s) = 6.52048 7.40857 6.97867
#
# Compressibility (1/GPa) = 0.01404719
#
# Stress axis : x y z
#
# Youngs Moduli (GPa) = 89.50828 102.36241 224.41122
#
# Poissons Ratio (x) = 0.23242 0.33696
# Poissons Ratio (y) = 0.20323 0.42706
# Poissons Ratio (z) = 0.13440 0.19480
#
# Static dielectric constant tensor:
#      x y z
#    x 2.543750 0.000000 -0.020800 
#    y 0.000000 2.314580 0.000000 
#    z -0.020800 0.000000 2.301820 
# 
# From -- ./inp_files/563.got.cif
#   From: 2010.05.17/outbox.cif.g08.bks.cpg/sg9_1_cif.got.tgz:563.got - 2010.06.03 20:04:27.
