data_PCOD9133452
_publ_section_title
;
Structure prediction by ZEFSAII (Michael W. Deem and Ramdas Pophale) SiO2 
 PCOD9133452
Probable space group: C M
;
_chemical_formula_sum "Si O2"
_cell_formula_units_Z 16
_cell_length_a 9.568299
_cell_length_b 16.589364
_cell_length_c 7.854482
_cell_angle_alpha 90.000000
_cell_angle_beta 148.285832
_cell_angle_gamma 90.000000
_cell_volume 655.398055
_symmetry_space_group_name_H-M "C M"
_symmetry_group_IT_number 8
_symmetry_cell_setting 'monoclinic'
loop_
_space_group_symop_operation_xyz
x,y,z
x,-y,z
1/2+x,1/2+y,z
1/2+x,1/2-y,z
loop_
_atom_site_type_symbol
_atom_site_label
_atom_site_fract_x
_atom_site_fract_y
_atom_site_fract_z
Si Si1 0.506350 0.139616 0.697880
Si Si2 0.030916 0.000000 0.715929
Si Si3 0.231679 0.638654 0.585356
Si Si4 0.007691 0.500000 0.964695
Si Si5 0.976213 0.760089 0.107441
O O1 0.592183 0.099707 0.605593
O O2 0.248832 0.191079 0.386916
O O3 0.761206 0.195764 0.006024
O O4 0.452206 0.076609 0.788459
O O5 0.953464 0.920651 0.743355
O O6 0.814900 0.000000 0.338993
O O7 0.321547 0.000000 0.937701
O O8 0.040543 0.671138 0.238744
O O9 0.341571 0.721589 0.786086
#
# Coordination Sequence:
#
# PCOD9133452 Si02
#       5
#     4   2   4   2   4
#     4  10  25  45  73 105 147 199 238 310 360 446
#     4  12  29  43  80 108 153 195 248 308 365 451
#     4  10  27  48  76 111 148 195 249 301 381 432
#     4  12  27  47  72 110 155 193 254 298 381 427
#     4  10  25  41  81 103 150 189 250 302 369 442
#
# _framework density 24.412645000000001
#
# number of rings (size 3 to 8) (size 9 to 14) (size 15 to 20)
#    1.500    0.000    0.000    2.250   10.500    3.000 
#    0.000    0.000    0.000    0.000    0.000    0.000 
#    0.000    0.000    0.000    0.000    0.000    0.000 
#
# Total GULP energy -44711.394800 kJ/mol
# GULP energy per Si atom -5588.924350 kJ/mol
# Density = 2.435708 g / cm^3
# Si number density = 24.412645 Si / 1000 Ang^3
#
#
#
# Elastic Constant Matrix: (Units=GPa)
#
#
# Indices 1 2 3 4 5 6 
#
# 1 118.7029 47.9732 6.3187 0.0005 5.6285 0.0002
# 2 47.9732 86.8224 18.2461 0.0000 -0.2395 0.0003
# 3 6.3187 18.2461 66.7302 0.0008 13.7665 0.0007
# 4 0.0005 0.0000 0.0008 25.6152 0.0004 4.2385
# 5 5.6285 -0.2395 13.7665 0.0004 54.0343 0.0001
# 6 0.0002 0.0003 0.0007 4.2385 0.0001 42.6093
#
#
#
# Elastic Compliance Matrix: (Units=1/GPa)
#
#
# Indices 1 2 3 4 5 6 
#
# 1 0.010975 -0.006271 0.000968 0.000000 -0.001418 0.000000
# 2 -0.006271 0.015851 -0.004105 0.000000 0.001769 0.000000
# 3 0.000968 -0.004105 0.016931 0.000000 -0.004433 0.000000
# 4 0.000000 0.000000 0.000000 0.039693 0.000000 -0.003948
# 5 -0.001418 0.001769 -0.004433 0.000000 0.019792 0.000000
# 6 0.000000 0.000000 0.000000 -0.003948 0.000000 0.023862
#
#
# Mechanical properties :
#
#
# Convention : Reuss Voigt Hill
#
# Bulk Modulus (GPa) = 40.09758 46.37017 43.23388
# Shear Modulus (GPa) = 32.41865 37.76625 35.09245
#
# Velocity S-wave (km/s) = 3.64805 3.93745 3.79551
# Velocity P-wave (km/s) = 5.84850 6.30134 6.07914
#
# Compressibility (1/GPa) = 0.02493916
#
# Stress axis : x y z
#
# Youngs Moduli (GPa) = 91.11950 63.08934 59.06325
#
# Poissons Ratio (x) = 0.39565 -0.05718
# Poissons Ratio (y) = 0.57144 0.24247
# Poissons Ratio (z) = -0.08821 0.25900
#
# Static dielectric constant tensor:
#      x y z
#    x 1.966380 0.000000 -0.019040 
#    y 0.000000 1.966730 0.000000 
#    z -0.019040 0.000000 1.905830 
# 
# From -- ./inp_files/1055.got.cif
#   From: 2010.05.17/outbox.cif.g08.bks.cpg/sg8_1_cif.got.tgz:1055.got - 2010.06.03 19:46:02.
