data_PCOD9133042
_publ_section_title
;
Structure prediction by ZEFSAII (Michael W. Deem and Ramdas Pophale) SiO2 
 PCOD9133042
Probable space group: C M
;
_chemical_formula_sum "Si O2"
_cell_formula_units_Z 32
_cell_length_a 9.106999
_cell_length_b 25.714551
_cell_length_c 11.204555
_cell_angle_alpha 90.000000
_cell_angle_beta 141.814689
_cell_angle_gamma 90.000000
_cell_volume 1622.118950
_symmetry_space_group_name_H-M "C M"
_symmetry_group_IT_number 8
_symmetry_cell_setting 'monoclinic'
loop_
_space_group_symop_operation_xyz
x,y,z
x,-y,z
1/2+x,1/2+y,z
1/2+x,1/2-y,z
loop_
_atom_site_type_symbol
_atom_site_label
_atom_site_fract_x
_atom_site_fract_y
_atom_site_fract_z
Si Si1 0.513190 0.299161 0.003620
Si Si2 0.393011 0.616159 0.741463
Si Si3 0.809604 0.559822 0.868118
Si Si4 0.579388 0.198496 0.902029
Si Si5 0.244375 0.113370 0.579087
Si Si6 0.685790 0.129096 0.201817
Si Si7 0.480695 0.847998 0.325802
Si Si8 0.430623 0.939657 0.457913
O O1 0.783935 0.304218 0.222549
O O2 0.469698 0.353165 0.906923
O O3 0.487014 0.253130 0.891869
O O4 0.320974 0.293211 0.983529
O O5 0.612983 0.596197 0.805320
O O6 0.223437 0.654859 0.556620
O O7 0.214603 0.568692 0.655590
O O8 0.750992 0.500000 0.848362
O O9 0.808586 0.574308 0.727910
O O10 0.061608 0.574700 0.087384
O O11 0.396294 0.165367 0.704402
O O12 0.634591 0.165341 0.055920
O O13 0.311052 0.087906 0.495256
O O14 0.964286 0.124299 0.402925
O O15 0.553635 0.149950 0.234871
O O16 0.379842 0.903717 0.309566
O O17 0.369200 0.000000 0.406869
#
# Coordination Sequence:
#
# PCOD9133042 Si02
#       8
#     4   4   4   4   4   4   4   4
#     4  12  23  45  65  97 128 167 218 276 326 393
#     4  10  22  41  65  90 132 167 221 265 323 393
#     4  11  23  39  65  97 128 174 219 263 325 385
#     4  11  26  40  71  93 129 172 218 269 338 387
#     4  11  22  44  63  95 136 170 216 276 315 398
#     4  11  23  41  64  94 133 169 217 270 322 386
#     4  10  22  40  63  91 131 165 213 270 313 390
#     4  10  21  40  66  93 129 176 212 263 328 384
#
# _framework density 19.727283
#
# number of rings (size 3 to 8) (size 9 to 14) (size 15 to 20)
#    0.750    0.500    3.750    2.250    1.750    2.500 
#    0.000    1.250    0.000    0.000    0.000    0.000 
#    0.000    0.000    0.000    0.000    0.000    0.000 
#
# Total GULP energy -89279.272588 kJ/mol
# GULP energy per Si atom -5579.954537 kJ/mol
# Density = 1.968238 g / cm^3
# Si number density = 19.727283 Si / 1000 Ang^3
#
#
#
# Elastic Constant Matrix: (Units=GPa)
#
#
# Indices 1 2 3 4 5 6 
#
# 1 154.1364 26.3013 26.9680 0.0000 0.8392 0.0000
# 2 26.3013 67.4117 15.1887 0.0000 -1.7088 0.0000
# 3 26.9680 15.1887 82.8955 0.0000 16.7697 0.0000
# 4 0.0000 0.0000 0.0000 14.9532 0.0000 -3.7925
# 5 0.8392 -1.7088 16.7697 0.0000 22.5358 0.0000
# 6 0.0000 0.0000 0.0000 -3.7925 0.0000 20.2186
#
#
#
# Elastic Compliance Matrix: (Units=1/GPa)
#
#
# Indices 1 2 3 4 5 6 
#
# 1 0.007256 -0.002311 -0.002174 0.000000 0.001172 0.000000
# 2 -0.002311 0.016501 -0.002992 0.000000 0.003564 0.000000
# 3 -0.002174 -0.002992 0.015714 0.000000 -0.011839 0.000000
# 4 0.000000 0.000000 0.000000 0.070216 0.000000 0.013171
# 5 0.001172 0.003564 -0.011839 0.000000 0.053410 0.000000
# 6 0.000000 0.000000 0.000000 0.013171 0.000000 0.051930
#
#
# Mechanical properties :
#
#
# Convention : Reuss Voigt Hill
#
# Bulk Modulus (GPa) = 40.79189 49.03996 44.91592
# Shear Modulus (GPa) = 20.99476 27.27390 24.13433
#
# Velocity S-wave (km/s) = 3.26582 3.72230 3.50151
# Velocity P-wave (km/s) = 5.91131 6.58687 6.25821
#
# Compressibility (1/GPa) = 0.02451468
#
# Stress axis : x y z
#
# Youngs Moduli (GPa) = 137.81292 60.60382 63.63717
#
# Poissons Ratio (x) = 0.14008 0.13837
# Poissons Ratio (y) = 0.31855 0.19042
# Poissons Ratio (z) = 0.29965 0.18135
#
# Static dielectric constant tensor:
#      x y z
#    x 1.674660 0.000000 0.011300 
#    y 0.000000 1.688900 0.000000 
#    z 0.011300 0.000000 1.714850 
# 
# From -- ./inp_files/19418.got.cif
#   From: 2010.05.17/outbox.cif.g08.bks.cpg/sg8_10_cif.got.tgz:19418.got - 2010.06.03 19:46:02.
