data_PCOD9133873
_publ_section_title
;
Structure prediction by ZEFSAII (Michael W. Deem and Ramdas Pophale) SiO2 
 PCOD9133873
Probable space group: C C
;
_chemical_formula_sum "Si O2"
_cell_formula_units_Z 28
_cell_length_a 15.153999
_cell_length_b 8.335005
_cell_length_c 14.921581
_cell_angle_alpha 90.000000
_cell_angle_beta 144.335468
_cell_angle_gamma 90.000000
_cell_volume 1098.866955
_symmetry_space_group_name_H-M "C C"
_symmetry_group_IT_number 9
_symmetry_cell_setting 'monoclinic'
loop_
_space_group_symop_operation_xyz
x,y,z
x,-y,1/2+z
1/2+x,1/2+y,z
1/2+x,1/2-y,1/2+z
loop_
_atom_site_type_symbol
_atom_site_label
_atom_site_fract_x
_atom_site_fract_y
_atom_site_fract_z
Si Si1 0.462540 0.440557 0.143720
Si Si2 0.873038 0.734158 0.496795
Si Si3 0.477983 0.067035 0.854439
Si Si4 0.930277 0.854420 0.912748
Si Si5 0.149131 0.531984 0.715627
Si Si6 0.628004 0.176426 0.374809
Si Si7 0.685354 0.354882 0.994294
O O1 0.440623 0.633020 0.123361
O O2 0.583435 0.352019 0.305148
O O3 0.484473 0.403193 0.056020
O O4 0.304457 0.352708 0.038455
O O5 0.773823 0.834775 0.346251
O O6 0.759323 0.623523 0.458461
O O7 0.007736 0.633081 0.565788
O O8 0.444695 0.161254 0.918921
O O9 0.326943 0.107220 0.674737
O O10 0.527913 0.887771 0.874409
O O11 0.622746 0.170889 0.939034
O O12 0.757500 0.907932 0.753244
O O13 0.038526 0.925898 0.924701
O O14 0.097034 0.437783 0.762357
#
# Coordination Sequence:
#
# PCOD9133873 Si02
#       7
#     4   4   4   4   4   4   4
#     4  10  21  35  58  91 132 155 212 257 314 368
#     4  10  18  36  59  92 123 164 206 258 305 379
#     4  10  19  35  63  90 123 160 218 255 317 377
#     4   8  20  34  59  93 123 159 211 263 309 371
#     4  10  19  35  61  92 121 158 216 249 309 378
#     4  10  20  37  54  97 120 163 212 257 299 385
#     4  10  17  34  60  91 118 163 209 263 307 376
#
# _framework density 25.480792999999998
#
# number of rings (size 3 to 8) (size 9 to 14) (size 15 to 20)
#    0.857    1.714    4.286    0.000    4.000    1.143 
#    2.571    0.000    6.286    6.857    7.429    0.000 
#    0.000    0.000    0.000    0.000    0.000    0.000 
#
# Total GULP energy -78104.538355 kJ/mol
# GULP energy per Si atom -5578.895597 kJ/mol
# Density = 2.542280 g / cm^3
# Si number density = 25.480793 Si / 1000 Ang^3
#
#
#
# Elastic Constant Matrix: (Units=GPa)
#
#
# Indices 1 2 3 4 5 6 
#
# 1 111.5395 55.6683 35.2121 0.0000 22.1566 0.0000
# 2 55.6683 135.2803 60.7209 0.0000 21.3034 0.0000
# 3 35.2121 60.7209 81.0406 0.0000 32.9390 0.0000
# 4 0.0000 0.0000 0.0000 35.5515 0.0000 6.1373
# 5 22.1566 21.3034 32.9390 0.0000 25.4457 0.0000
# 6 0.0000 0.0000 0.0000 6.1373 0.0000 39.0111
#
#
#
# Elastic Compliance Matrix: (Units=1/GPa)
#
#
# Indices 1 2 3 4 5 6 
#
# 1 0.012503 -0.004431 0.001698 0.000000 -0.009375 0.000000
# 2 -0.004431 0.012826 -0.010317 0.000000 0.006475 0.000000
# 3 0.001698 -0.010317 0.034656 0.000000 -0.037702 0.000000
# 4 0.000000 0.000000 0.000000 0.028913 0.000000 -0.004549
# 5 -0.009375 0.006475 -0.037702 0.000000 0.090847 0.000000
# 6 0.000000 0.000000 0.000000 -0.004549 0.000000 0.026349
#
#
# Mechanical properties :
#
#
# Convention : Reuss Voigt Hill
#
# Bulk Modulus (GPa) = 29.51073 70.11814 49.81443
# Shear Modulus (GPa) = 20.53466 31.75228 26.14347
#
# Velocity S-wave (km/s) = 2.84190 3.53388 3.20661
# Velocity P-wave (km/s) = 4.73024 6.65048 5.77079
#
# Compressibility (1/GPa) = 0.03388598
#
# Stress axis : x y z
#
# Youngs Moduli (GPa) = 79.97991 77.96361 28.85501
#
# Poissons Ratio (x) = 0.34544 -0.04899
# Poissons Ratio (y) = 0.35437 0.29769
# Poissons Ratio (z) = -0.13579 0.80434
#
# Static dielectric constant tensor:
#      x y z
#    x 2.028170 0.000000 -0.110310 
#    y 0.000000 2.027080 0.000000 
#    z -0.110310 0.000000 2.126600 
# 
# From -- ./inp_files/34046.got.cif
#   From: 2010.05.17/outbox.cif.g08.bks.cpg/sg9_18_cif.got.tgz:34046.got - 2010.06.03 20:04:27.
