data_PCOD9133282
_publ_section_title
;
Structure prediction by ZEFSAII (Michael W. Deem and Ramdas Pophale) SiO2 
 PCOD9133282
Probable space group: C M
;
_chemical_formula_sum "Si O2"
_cell_formula_units_Z 28
_cell_length_a 6.157877
_cell_length_b 29.463071
_cell_length_c 9.321537
_cell_angle_alpha 90.000000
_cell_angle_beta 50.811493
_cell_angle_gamma 90.000000
_cell_volume 1310.805271
_symmetry_space_group_name_H-M "C M"
_symmetry_group_IT_number 8
_symmetry_cell_setting 'monoclinic'
loop_
_space_group_symop_operation_xyz
x,y,z
x,-y,z
1/2+x,1/2+y,z
1/2+x,1/2-y,z
loop_
_atom_site_type_symbol
_atom_site_label
_atom_site_fract_x
_atom_site_fract_y
_atom_site_fract_z
Si Si1 0.030200 0.415410 0.318440
Si Si2 0.577458 0.551334 0.951951
Si Si3 0.209130 0.668519 0.417834
Si Si4 0.984023 0.951214 0.658781
Si Si5 0.070246 0.374591 0.763084
Si Si6 0.846733 0.354412 0.155448
Si Si7 0.436005 0.755783 0.174904
O O1 0.028063 0.368557 0.408702
O O2 0.810899 0.447971 0.485250
O O3 0.922911 0.399659 0.207654
O O4 0.333160 0.436909 0.166316
O O5 0.684083 0.500000 0.934390
O O6 0.452772 0.551405 0.843028
O O7 0.807664 0.591073 0.856785
O O8 0.109509 0.662436 0.622783
O O9 0.519163 0.648168 0.263976
O O10 0.252021 0.720014 0.345111
O O11 0.834309 0.908281 0.651296
O O12 0.873801 0.000000 0.654268
O O13 0.027772 0.352403 0.935602
O O14 0.905318 0.308766 0.220217
O O15 0.764952 0.747037 0.089393
#
# Coordination Sequence:
#
# PCOD9133282 Si02
#       7
#     4   4   4   4   4   4   4
#     4  12  21  42  66  92 128 182 226 270 345 412
#     4  11  24  40  62  97 136 172 226 287 337 401
#     4  11  23  41  67  95 134 174 223 282 345 412
#     4  11  24  40  62  97 136 172 226 287 337 401
#     4  12  23  42  66  98 130 182 224 276 347 410
#     4  11  23  41  67  95 134 174 223 282 345 412
#     4  10  22  42  68 100 136 178 222 288 352 408
#
# _framework density 21.360913
#
# number of rings (size 3 to 8) (size 9 to 14) (size 15 to 20)
#    0.000    0.857    7.143    0.857    0.000    0.000 
#    0.000    7.143    3.143    0.000    0.000    0.000 
#    0.000    0.000    0.000    0.000    0.000    0.000 
#
# Total GULP energy -77983.040171 kJ/mol
# GULP energy per Si atom -5570.217155 kJ/mol
# Density = 2.131229 g / cm^3
# Si number density = 21.360913 Si / 1000 Ang^3
#
#
#
# Elastic Constant Matrix: (Units=GPa)
#
#
# Indices 1 2 3 4 5 6 
#
# 1 51.4806 6.4148 0.4410 0.0000 -5.0361 0.0000
# 2 6.4148 111.1400 26.7064 0.0000 3.6407 0.0000
# 3 0.4410 26.7064 111.2415 0.0000 -0.6161 0.0000
# 4 0.0000 0.0000 0.0000 23.8510 0.0000 -6.6269
# 5 -5.0361 3.6407 -0.6161 0.0000 28.3031 0.0000
# 6 0.0000 0.0000 0.0000 -6.6269 0.0000 17.2663
#
#
#
# Elastic Compliance Matrix: (Units=1/GPa)
#
#
# Indices 1 2 3 4 5 6 
#
# 1 0.019954 -0.001337 0.000263 0.000000 0.003728 0.000000
# 2 -0.001337 0.009685 -0.002328 0.000000 -0.001534 0.000000
# 3 0.000263 -0.002328 0.009550 0.000000 0.000554 0.000000
# 4 0.000000 0.000000 0.000000 0.046932 0.000000 0.018013
# 5 0.003728 -0.001534 0.000554 0.000000 0.036205 0.000000
# 6 0.000000 0.000000 0.000000 0.018013 0.000000 0.064830
#
#
# Mechanical properties :
#
#
# Convention : Reuss Voigt Hill
#
# Bulk Modulus (GPa) = 30.87985 37.88739 34.38362
# Shear Modulus (GPa) = 24.41946 29.90405 27.16176
#
# Velocity S-wave (km/s) = 3.38477 3.74564 3.56977
# Velocity P-wave (km/s) = 5.45556 6.04001 5.75521
#
# Compressibility (1/GPa) = 0.03238358
#
# Stress axis : x y z
#
# Youngs Moduli (GPa) = 50.11563 103.25729 104.70729
#
# Poissons Ratio (x) = 0.13805 -0.02749
# Poissons Ratio (y) = 0.06700 0.24378
# Poissons Ratio (z) = -0.01316 0.24041
#
# Static dielectric constant tensor:
#      x y z
#    x 1.880480 0.000000 0.037960 
#    y 0.000000 1.765770 0.000000 
#    z 0.037960 0.000000 1.741480 
# 
# From -- ./inp_files/7160.got.cif
#   From: 2010.05.17/outbox.cif.g08.bks.cpg/sg8_4_cif.got.tgz:7160.got - 2010.06.03 19:46:02.
