data_PCOD9133944
_publ_section_title
;
Structure prediction by ZEFSAII (Michael W. Deem and Ramdas Pophale) SiO2 
 PCOD9133944
Probable space group: C C
;
_chemical_formula_sum "Si O2"
_cell_formula_units_Z 28
_cell_length_a 10.805487
_cell_length_b 10.336866
_cell_length_c 14.619804
_cell_angle_alpha 90.000000
_cell_angle_beta 136.877366
_cell_angle_gamma 90.000000
_cell_volume 1116.227703
_symmetry_space_group_name_H-M "C C"
_symmetry_group_IT_number 9
_symmetry_cell_setting 'monoclinic'
loop_
_space_group_symop_operation_xyz
x,y,z
x,-y,1/2+z
1/2+x,1/2+y,z
1/2+x,1/2-y,1/2+z
loop_
_atom_site_type_symbol
_atom_site_label
_atom_site_fract_x
_atom_site_fract_y
_atom_site_fract_z
Si Si1 0.977050 0.842043 0.540520
Si Si2 0.331486 0.966767 0.768738
Si Si3 0.839360 0.296864 0.462912
Si Si4 0.825993 0.979421 0.288752
Si Si5 0.742606 0.251115 0.209952
Si Si6 0.915424 0.569229 0.520928
Si Si7 0.832486 0.234298 0.652058
O O1 0.886183 0.942309 0.422896
O O2 0.860783 0.718733 0.513047
O O3 0.120901 0.761485 0.557603
O O4 0.123481 0.919378 0.679953
O O5 0.322728 0.111293 0.724935
O O6 0.410240 0.867440 0.737211
O O7 0.426597 0.957328 0.917294
O O8 0.722188 0.269587 0.310171
O O9 0.800856 0.440451 0.483657
O O10 0.833540 0.203796 0.546597
O O11 0.055269 0.282371 0.558021
O O12 0.609568 0.957097 0.170982
O O13 0.897194 0.877714 0.253440
O O14 0.864073 0.123147 0.273879
#
# Coordination Sequence:
#
# PCOD9133944 Si02
#       7
#     4   4   4   4   4   4   4
#     4   9  16  31  56  75  93 137 181 209 241 327
#     4   9  18  32  54  72 104 137 174 203 256 317
#     4  10  21  32  53  79 110 131 169 228 264 292
#     4  10  18  31  56  74  99 137 183 203 245 322
#     4  10  21  35  52  77 107 139 171 213 263 308
#     4   9  16  31  48  80  98 133 168 217 249 304
#     4   9  20  32  57  75 101 134 178 213 258 300
#
# _framework density 25.084486999999999
#
# number of rings (size 3 to 8) (size 9 to 14) (size 15 to 20)
#    0.857    1.714    1.429    0.857    2.000    0.000 
#    0.000    0.000    6.286    3.429    0.000    0.000 
#    0.000    0.000    0.000    0.000    0.000    0.000 
#
# Total GULP energy -77966.462632 kJ/mol
# GULP energy per Si atom -5569.033045 kJ/mol
# Density = 2.502739 g / cm^3
# Si number density = 25.084487 Si / 1000 Ang^3
#
#
#
# Elastic Constant Matrix: (Units=GPa)
#
#
# Indices 1 2 3 4 5 6 
#
# 1 19.5167 3.2146 6.0923 0.0000 -6.2903 0.0000
# 2 3.2146 182.0568 6.3788 0.0000 6.4521 0.0000
# 3 6.0923 6.3788 123.0211 0.0000 8.8725 0.0000
# 4 0.0000 0.0000 0.0000 40.6555 0.0000 -2.2958
# 5 -6.2903 6.4521 8.8725 0.0000 24.5574 0.0000
# 6 0.0000 0.0000 0.0000 -2.2958 0.0000 10.4213
#
#
#
# Elastic Compliance Matrix: (Units=1/GPa)
#
#
# Indices 1 2 3 4 5 6 
#
# 1 0.058123 -0.001479 -0.004008 0.000000 0.016725 0.000000
# 2 -0.001479 0.005586 -0.000085 0.000000 -0.001816 0.000000
# 3 -0.004008 -0.000085 0.008629 0.000000 -0.004122 0.000000
# 4 0.000000 0.000000 0.000000 0.024907 0.000000 0.005487
# 5 0.016725 -0.001816 -0.004122 0.000000 0.046971 0.000000
# 6 0.000000 0.000000 0.000000 0.005487 0.000000 0.097166
#
#
# Mechanical properties :
#
#
# Convention : Reuss Voigt Hill
#
# Bulk Modulus (GPa) = 16.34138 39.55177 27.94658
# Shear Modulus (GPa) = 18.32009 35.72077 27.02043
#
# Velocity S-wave (km/s) = 2.70540 3.77771 3.28560
# Velocity P-wave (km/s) = 4.03579 5.90168 5.05556
#
# Compressibility (1/GPa) = 0.06119433
#
# Stress axis : x y z
#
# Youngs Moduli (GPa) = 17.20482 179.01132 115.89008
#
# Poissons Ratio (x) = 0.26468 0.46448
# Poissons Ratio (y) = 0.02544 0.00991
# Poissons Ratio (z) = 0.06896 0.01530
#
# Static dielectric constant tensor:
#      x y z
#    x 2.113850 0.000000 0.052010 
#    y 0.000000 2.148300 0.000000 
#    z 0.052010 0.000000 1.923250 
# 
# From -- ./inp_files/8951.got.cif
#   From: 2010.05.17/outbox.cif.g08.bks.cpg/sg9_5_cif.got.tgz:8951.got - 2010.06.03 20:04:27.
