data_PCOD9133075
_publ_section_title
;
Structure prediction by ZEFSAII (Michael W. Deem and Ramdas Pophale) SiO2 
 PCOD9133075
Probable space group: C M
;
_chemical_formula_sum "Si O2"
_cell_formula_units_Z 24
_cell_length_a 12.112263
_cell_length_b 13.537886
_cell_length_c 14.106965
_cell_angle_alpha 90.000000
_cell_angle_beta 152.195418
_cell_angle_gamma 90.000000
_cell_volume 1079.000640
_symmetry_space_group_name_H-M "C M"
_symmetry_group_IT_number 8
_symmetry_cell_setting 'monoclinic'
loop_
_space_group_symop_operation_xyz
x,y,z
x,-y,z
1/2+x,1/2+y,z
1/2+x,1/2-y,z
loop_
_atom_site_type_symbol
_atom_site_label
_atom_site_fract_x
_atom_site_fract_y
_atom_site_fract_z
Si Si1 0.130640 0.820007 0.304090
Si Si2 0.347053 0.109049 0.930912
Si Si3 0.619540 0.767123 0.633194
Si Si4 0.480851 0.891482 0.243049
Si Si5 0.407022 0.386822 0.324191
Si Si6 0.527506 0.384179 0.018796
O O1 0.406739 0.840812 0.497831
O O2 0.998690 0.878087 0.286438
O O3 0.007898 0.838100 0.109282
O O4 0.132241 0.705671 0.339623
O O5 0.175243 0.188711 0.757689
O O6 0.296642 0.000000 0.853891
O O7 0.332654 0.104768 0.032960
O O8 0.623978 0.130847 0.116196
O O9 0.542203 0.697160 0.487237
O O10 0.859847 0.830190 0.815331
O O11 0.297965 0.875839 0.189023
O O12 0.597832 0.000000 0.341640
O O13 0.445373 0.500000 0.387092
O O14 0.470586 0.500000 0.980697
#
# Coordination Sequence:
#
# PCOD9133075 Si02
#       6
#     4   4   4   4   4   4
#     4  12  24  43  68  98 134 171 215 270 328 387
#     4  10  21  41  66  96 131 169 214 267 323 381
#     4  12  23  40  67 101 129 166 219 271 326 381
#     4  10  21  42  66  92 128 171 215 262 319 380
#     4  11  25  44  67  96 133 174 218 267 324 388
#     4  11  26  46  66  93 133 177 217 265 328 393
#
# _framework density 22.242805000000001
#
# number of rings (size 3 to 8) (size 9 to 14) (size 15 to 20)
#    0.000    1.000    3.333    3.000    2.333    3.333 
#    0.000    0.833    0.000    0.000    0.000    0.000 
#    0.000    0.000    0.000    0.000    0.000    0.000 
#
# Total GULP energy -67010.278616 kJ/mol
# GULP energy per Si atom -5584.189885 kJ/mol
# Density = 2.219218 g / cm^3
# Si number density = 22.242805 Si / 1000 Ang^3
#
#
#
# Elastic Constant Matrix: (Units=GPa)
#
#
# Indices 1 2 3 4 5 6 
#
# 1 121.3870 16.0296 25.3207 -0.0001 -7.4188 0.0012
# 2 16.0296 101.6389 28.9355 -0.0010 4.3278 0.0009
# 3 25.3207 28.9355 72.5464 -0.0066 -4.6542 -0.0015
# 4 -0.0001 -0.0010 -0.0066 28.2577 0.0021 1.9643
# 5 -7.4188 4.3278 -4.6542 0.0021 18.0979 0.0022
# 6 0.0012 0.0009 -0.0015 1.9643 0.0022 28.5372
#
#
#
# Elastic Compliance Matrix: (Units=1/GPa)
#
#
# Indices 1 2 3 4 5 6 
#
# 1 0.009095 -0.000821 -0.002639 -0.000001 0.003246 -0.000001
# 2 -0.000821 0.011444 -0.004550 0.000000 -0.004244 0.000000
# 3 -0.002639 -0.004550 0.016798 0.000003 0.004326 0.000001
# 4 -0.000001 0.000000 0.000003 0.035559 -0.000003 -0.002448
# 5 0.003246 -0.004244 0.004326 -0.000003 0.058713 -0.000004
# 6 -0.000001 0.000000 0.000001 -0.002448 -0.000004 0.035210
#
#
# Mechanical properties :
#
#
# Convention : Reuss Voigt Hill
#
# Bulk Modulus (GPa) = 46.91121 48.46042 47.68582
# Shear Modulus (GPa) = 26.32326 29.99766 28.16046
#
# Velocity S-wave (km/s) = 3.44386 3.67638 3.56202
# Velocity P-wave (km/s) = 6.07864 6.31310 6.19698
#
# Compressibility (1/GPa) = 0.02131686
#
# Stress axis : x y z
#
# Youngs Moduli (GPa) = 109.94564 87.37904 59.53212
#
# Poissons Ratio (x) = 0.07178 0.15708
# Poissons Ratio (y) = 0.09032 0.27088
# Poissons Ratio (z) = 0.29010 0.39759
#
# Static dielectric constant tensor:
#      x y z
#    x 1.799320 0.000000 -0.002380 
#    y 0.000000 1.881540 0.000000 
#    z -0.002380 0.000000 1.778360 
# 
# From -- ./inp_files/26148.got.cif
#   From: 2010.05.17/outbox.cif.g08.bks.cpg/sg8_14_cif.got.tgz:26148.got - 2010.06.03 19:46:02.
