data_PCOD9133088
_publ_section_title
;
Structure prediction by ZEFSAII (Michael W. Deem and Ramdas Pophale) SiO2 
 PCOD9133088
Probable space group: C M
;
_chemical_formula_sum "Si O2"
_cell_formula_units_Z 32
_cell_length_a 11.489328
_cell_length_b 31.109931
_cell_length_c 7.951985
_cell_angle_alpha 90.000000
_cell_angle_beta 34.232455
_cell_angle_gamma 90.000000
_cell_volume 1598.938408
_symmetry_space_group_name_H-M "C M"
_symmetry_group_IT_number 8
_symmetry_cell_setting 'monoclinic'
loop_
_space_group_symop_operation_xyz
x,y,z
x,-y,z
1/2+x,1/2+y,z
1/2+x,1/2-y,z
loop_
_atom_site_type_symbol
_atom_site_label
_atom_site_fract_x
_atom_site_fract_y
_atom_site_fract_z
Si Si1 0.930180 0.949230 0.757140
Si Si2 0.454010 0.855405 0.982629
Si Si3 0.903503 0.833904 0.333429
Si Si4 0.705742 0.547509 0.757302
Si Si5 0.034506 0.387968 0.242615
Si Si6 0.775588 0.280683 0.004293
Si Si7 0.163554 0.693033 0.303376
Si Si8 0.665361 0.415083 0.149192
O O1 0.032729 0.944745 0.820547
O O2 0.079633 0.934006 0.426656
O O3 0.881596 0.000000 0.793885
O O4 0.733119 0.918203 0.979874
O O5 0.429720 0.876096 0.192001
O O6 0.313007 0.814244 0.112056
O O7 0.385468 0.892062 0.929998
O O8 0.687706 0.838325 0.689834
O O9 0.828318 0.828537 0.232658
O O10 0.054221 0.794198 0.192859
O O11 0.029017 0.876060 0.236610
O O12 0.791198 0.500000 0.617594
O O13 0.873493 0.584481 0.539924
O O14 0.648574 0.550148 0.021582
O O15 0.089864 0.343911 0.267257
O O16 0.764416 0.232616 0.084401
O O17 0.965516 0.289961 0.649005
#
# Coordination Sequence:
#
# PCOD9133088 Si02
#       8
#     4   4   4   4   4   4   4   4
#     4  11  24  42  67 101 133 176 229 276 338 398
#     4  10  22  40  67  95 128 172 221 265 333 398
#     4  10  21  42  63  92 130 168 221 268 323 404
#     4  11  24  42  65  97 135 171 224 280 329 399
#     4  12  23  43  67  95 132 178 219 276 336 398
#     4  10  25  43  62  97 129 172 221 275 332 394
#     4  11  26  41  66  95 131 172 225 272 337 399
#     4  11  21  43  68  96 132 179 221 274 334 394
#
# _framework density 20.013279000000001
#
# number of rings (size 3 to 8) (size 9 to 14) (size 15 to 20)
#    0.000    1.250    2.500    3.750    3.500    1.000 
#    2.250    0.000    0.000    0.000    0.000    0.000 
#    0.000    0.000    0.000    0.000    0.000    0.000 
#
# Total GULP energy -89296.527213 kJ/mol
# GULP energy per Si atom -5581.032951 kJ/mol
# Density = 1.996773 g / cm^3
# Si number density = 20.013279 Si / 1000 Ang^3
#
#
#
# Elastic Constant Matrix: (Units=GPa)
#
#
# Indices 1 2 3 4 5 6 
#
# 1 129.3081 46.4310 28.2186 0.0000 8.2361 0.0000
# 2 46.4310 123.9389 18.1090 0.0000 5.8817 0.0000
# 3 28.2186 18.1090 49.7589 0.0000 -3.4993 0.0000
# 4 0.0000 0.0000 0.0000 36.6990 0.0000 -18.9601
# 5 8.2361 5.8817 -3.4993 0.0000 21.7892 0.0000
# 6 0.0000 0.0000 0.0000 -18.9601 0.0000 116.0045
#
#
#
# Elastic Compliance Matrix: (Units=1/GPa)
#
#
# Indices 1 2 3 4 5 6 
#
# 1 0.010089 -0.002875 -0.004945 0.000000 -0.003831 0.000000
# 2 -0.002875 0.009517 -0.001959 0.000000 -0.001797 0.000000
# 3 -0.004945 -0.001959 0.024054 0.000000 0.006261 0.000000
# 4 0.000000 0.000000 0.000000 0.029762 0.000000 0.004864
# 5 -0.003831 -0.001797 0.006261 0.000000 0.048833 0.000000
# 6 0.000000 0.000000 0.000000 0.004864 0.000000 0.009415
#
#
# Mechanical properties :
#
#
# Convention : Reuss Voigt Hill
#
# Bulk Modulus (GPa) = 41.49024 54.28036 47.88530
# Shear Modulus (GPa) = 31.39451 48.91503 40.15477
#
# Velocity S-wave (km/s) = 3.96496 4.94918 4.48415
# Velocity P-wave (km/s) = 6.46046 7.73564 7.12663
#
# Compressibility (1/GPa) = 0.02410205
#
# Stress axis : x y z
#
# Youngs Moduli (GPa) = 99.11781 105.07248 41.57245
#
# Poissons Ratio (x) = 0.30212 0.20556
# Poissons Ratio (y) = 0.28500 0.08146
# Poissons Ratio (z) = 0.49009 0.20588
#
# Static dielectric constant tensor:
#      x y z
#    x 1.723340 0.000000 0.017890 
#    y 0.000000 1.674980 0.000000 
#    z 0.017890 0.000000 1.723710 
# 
# From -- ./inp_files/11698.got.cif
#   From: 2010.05.17/outbox.cif.g08.bks.cpg/sg8_6_cif.got.tgz:11698.got - 2010.06.03 19:46:02.
