data_PCOD9133069
_publ_section_title
;
Structure prediction by ZEFSAII (Michael W. Deem and Ramdas Pophale) SiO2 
 PCOD9133069
Probable space group: C M
;
_chemical_formula_sum "Si O2"
_cell_formula_units_Z 24
_cell_length_a 11.391293
_cell_length_b 13.771919
_cell_length_c 14.823805
_cell_angle_alpha 90.000000
_cell_angle_beta 30.890234
_cell_angle_gamma 90.000000
_cell_volume 1193.929824
_symmetry_space_group_name_H-M "C M"
_symmetry_group_IT_number 8
_symmetry_cell_setting 'monoclinic'
loop_
_space_group_symop_operation_xyz
x,y,z
x,-y,z
1/2+x,1/2+y,z
1/2+x,1/2-y,z
loop_
_atom_site_type_symbol
_atom_site_label
_atom_site_fract_x
_atom_site_fract_y
_atom_site_fract_z
Si Si1 0.577140 0.607278 0.358330
Si Si2 0.816266 0.890286 0.918074
Si Si3 0.595076 0.606921 0.558258
Si Si4 0.217703 0.684108 0.464275
Si Si5 0.444623 0.265224 0.135897
Si Si6 0.698027 0.384898 0.814447
O O1 0.676767 0.500000 0.275999
O O2 0.524534 0.613377 0.499943
O O3 0.352361 0.620982 0.447624
O O4 0.754495 0.692895 0.219875
O O5 0.888640 0.887504 0.765332
O O6 0.043524 0.872291 0.826911
O O7 0.735325 0.000000 0.992997
O O8 0.629865 0.808357 0.056947
O O9 0.703411 0.500000 0.500541
O O10 0.744256 0.702557 0.474956
O O11 0.327120 0.674547 0.293355
O O12 0.950292 0.659273 0.638006
O O13 0.566126 0.331634 0.982322
O O14 0.717395 0.500000 0.818460
#
# Coordination Sequence:
#
# PCOD9133069 Si02
#       6
#     4   4   4   4   4   4
#     4  10  22  41  63  94 128 161 204 255 308 366
#     4  10  21  41  65  92 123 160 209 258 305 360
#     4   9  20  37  63  91 118 162 209 248 300 358
#     4  11  23  40  66  92 128 162 204 252 313 368
#     4  11  23  40  66  92 122 164 209 252 306 367
#     4  11  25  43  63  91 127 163 205 257 310 367
#
# _framework density 20.101683000000001
#
# number of rings (size 3 to 8) (size 9 to 14) (size 15 to 20)
#    0.000    1.667    1.667    2.000    4.667    2.000 
#    3.000    0.833    0.000    0.000    0.000    0.000 
#    0.000    0.000    0.000    0.000    0.000    0.000 
#
# Total GULP energy -67007.156617 kJ/mol
# GULP energy per Si atom -5583.929718 kJ/mol
# Density = 2.005593 g / cm^3
# Si number density = 20.101683 Si / 1000 Ang^3
#
#
#
# Elastic Constant Matrix: (Units=GPa)
#
#
# Indices 1 2 3 4 5 6 
#
# 1 56.1896 41.6974 40.1400 0.0003 -13.7588 -0.0007
# 2 41.6974 95.2902 45.9459 -0.0035 2.9402 0.0022
# 3 40.1400 45.9459 127.7651 -0.0043 8.9128 0.0037
# 4 0.0003 -0.0035 -0.0043 11.4339 0.0029 -3.1902
# 5 -13.7588 2.9402 8.9128 0.0029 28.4379 -0.0013
# 6 -0.0007 0.0022 0.0037 -3.1902 -0.0013 11.0258
#
#
#
# Elastic Compliance Matrix: (Units=1/GPa)
#
#
# Indices 1 2 3 4 5 6 
#
# 1 0.040994 -0.014107 -0.009499 -0.000013 0.024269 0.000008
# 2 -0.014107 0.017551 -0.001305 0.000006 -0.008231 -0.000003
# 3 -0.009499 -0.001305 0.011851 0.000005 -0.008175 -0.000004
# 4 -0.000013 0.000006 0.000005 0.095140 -0.000017 0.027528
# 5 0.024269 -0.008231 -0.008175 -0.000017 0.050319 0.000007
# 6 0.000008 -0.000003 -0.000004 0.027528 0.000007 0.098661
#
#
# Mechanical properties :
#
#
# Convention : Reuss Voigt Hill
#
# Bulk Modulus (GPa) = 48.60783 59.42351 54.01567
# Shear Modulus (GPa) = 13.46998 20.27696 16.87347
#
# Velocity S-wave (km/s) = 2.59142 3.17948 2.90039
# Velocity P-wave (km/s) = 5.76085 6.56540 6.17624
#
# Compressibility (1/GPa) = 0.02057282
#
# Stress axis : x y z
#
# Youngs Moduli (GPa) = 24.39392 56.97838 84.38224
#
# Poissons Ratio (x) = 0.80379 0.80155
# Poissons Ratio (y) = 0.34412 0.11014
# Poissons Ratio (z) = 0.23172 0.07437
#
# Static dielectric constant tensor:
#      x y z
#    x 1.690380 0.000000 0.006270 
#    y 0.000000 1.743870 0.000000 
#    z 0.006270 0.000000 1.696700 
# 
# From -- ./inp_files/20370.got.cif
#   From: 2010.05.17/outbox.cif.g08.bks.cpg/sg8_11_cif.got.tgz:20370.got - 2010.06.03 19:46:02.
