data_PCOD9133850
_publ_section_title
;
Structure prediction by ZEFSAII (Michael W. Deem and Ramdas Pophale) SiO2 
 PCOD9133850
Probable space group: C C
;
_chemical_formula_sum "Si O2"
_cell_formula_units_Z 32
_cell_length_a 12.027147
_cell_length_b 8.449018
_cell_length_c 20.705056
_cell_angle_alpha 90.000000
_cell_angle_beta 140.770396
_cell_angle_gamma 90.000000
_cell_volume 1330.630480
_symmetry_space_group_name_H-M "C C"
_symmetry_group_IT_number 9
_symmetry_cell_setting 'monoclinic'
loop_
_space_group_symop_operation_xyz
x,y,z
x,-y,1/2+z
1/2+x,1/2+y,z
1/2+x,1/2-y,1/2+z
loop_
_atom_site_type_symbol
_atom_site_label
_atom_site_fract_x
_atom_site_fract_y
_atom_site_fract_z
Si Si1 0.460980 0.427127 0.554910
Si Si2 0.613685 0.877758 0.748047
Si Si3 0.589619 0.688816 0.918919
Si Si4 0.898553 0.727090 0.969168
Si Si5 0.367788 0.437852 0.760010
Si Si6 0.150518 0.484757 0.499194
Si Si7 0.319902 0.761465 0.689196
Si Si8 0.623911 0.163709 0.848536
O O1 0.462232 0.601634 0.523609
O O2 0.356754 0.448082 0.575648
O O3 0.651197 0.352460 0.637959
O O4 0.331680 0.314141 0.454478
O O5 0.690442 0.873968 0.711418
O O6 0.613050 0.049910 0.781913
O O7 0.777050 0.651905 0.970513
O O8 0.415417 0.823047 0.668787
O O9 0.477480 0.525316 0.868736
O O10 0.752359 0.767978 0.848715
O O11 0.470838 0.777975 0.811627
O O12 0.611771 0.825847 0.982287
O O13 0.047986 0.620215 0.004870
O O14 0.306041 0.572879 0.683075
O O15 0.499178 0.313776 0.788040
O O16 0.075286 0.420555 0.394940
#
# Coordination Sequence:
#
# PCOD9133850 Si02
#       8
#     4   4   4   4   4   4   4   4
#     4   8  17  30  50  79 109 136 177 216 267 322
#     4  10  17  33  50  78  99 135 181 215 260 313
#     4   8  18  31  47  81 101 129 182 216 252 310
#     4   9  15  30  54  76  95 138 178 212 264 306
#     4  10  19  31  53  80 100 139 183 213 261 312
#     4   9  15  30  55  75 102 137 176 218 260 304
#     4   9  18  33  48  75 115 134 167 224 266 311
#     4   9  17  30  53  76 101 134 182 220 246 314
#
# _framework density 24.048749000000001
#
# number of rings (size 3 to 8) (size 9 to 14) (size 15 to 20)
#    1.500    1.500    3.750    0.000    0.000    2.000 
#    0.000    0.000    5.500    0.000   48.750    0.000 
#    0.000    0.000    0.000    0.000    0.000    0.000 
#
# Total GULP energy -89171.245391 kJ/mol
# GULP energy per Si atom -5573.202837 kJ/mol
# Density = 2.399401 g / cm^3
# Si number density = 24.048749 Si / 1000 Ang^3
#
#
#
# Elastic Constant Matrix: (Units=GPa)
#
#
# Indices 1 2 3 4 5 6 
#
# 1 139.0529 50.3531 64.7642 0.0000 39.1049 0.0000
# 2 50.3531 56.6651 36.9475 0.0000 27.8037 0.0000
# 3 64.7642 36.9475 82.8049 0.0000 28.6632 0.0000
# 4 0.0000 0.0000 0.0000 41.6506 0.0000 11.7086
# 5 39.1049 27.8037 28.6632 0.0000 45.1325 0.0000
# 6 0.0000 0.0000 0.0000 11.7086 0.0000 43.0612
#
#
#
# Elastic Compliance Matrix: (Units=1/GPa)
#
#
# Indices 1 2 3 4 5 6 
#
# 1 0.013440 -0.005706 -0.006603 0.000000 -0.003936 0.000000
# 2 -0.005706 0.032029 -0.006037 0.000000 -0.010953 0.000000
# 3 -0.006603 -0.006037 0.021364 0.000000 -0.004127 0.000000
# 4 0.000000 0.000000 0.000000 0.025996 0.000000 -0.007069
# 5 -0.003936 -0.010953 -0.004127 0.000000 0.034937 0.000000
# 6 0.000000 0.000000 0.000000 -0.007069 0.000000 0.025145
#
#
# Mechanical properties :
#
#
# Convention : Reuss Voigt Hill
#
# Bulk Modulus (GPa) = 33.17859 64.73917 48.95888
# Shear Modulus (GPa) = 25.04393 34.39940 29.72167
#
# Velocity S-wave (km/s) = 3.23055 3.78617 3.51934
# Velocity P-wave (km/s) = 5.26703 6.78910 6.07591
#
# Compressibility (1/GPa) = 0.03013992
#
# Stress axis : x y z
#
# Youngs Moduli (GPa) = 74.40312 31.22217 46.80854
#
# Poissons Ratio (x) = 0.17816 0.30910
# Poissons Ratio (y) = 0.42455 0.28257
# Poissons Ratio (z) = 0.49132 0.18848
#
# Static dielectric constant tensor:
#      x y z
#    x 1.945540 0.000000 -0.097450 
#    y 0.000000 1.933990 0.000000 
#    z -0.097450 0.000000 2.016760 
# 
# From -- ./inp_files/36514.got.cif
#   From: 2010.05.17/outbox.cif.g08.bks.cpg/sg9_19_cif.got.tgz:36514.got - 2010.06.03 20:04:27.
