data_PCOD9133730
_publ_section_title
;
Structure prediction by ZEFSAII (Michael W. Deem and Ramdas Pophale) SiO2 
 PCOD9133730
Probable space group: C C
;
_chemical_formula_sum "Si O2"
_cell_formula_units_Z 24
_cell_length_a 20.918894
_cell_length_b 10.249404
_cell_length_c 8.573960
_cell_angle_alpha 90.000000
_cell_angle_beta 33.513720
_cell_angle_gamma 90.000000
_cell_volume 1014.998408
_symmetry_space_group_name_H-M "C C"
_symmetry_group_IT_number 9
_symmetry_cell_setting 'monoclinic'
loop_
_space_group_symop_operation_xyz
x,y,z
x,-y,1/2+z
1/2+x,1/2+y,z
1/2+x,1/2-y,1/2+z
loop_
_atom_site_type_symbol
_atom_site_label
_atom_site_fract_x
_atom_site_fract_y
_atom_site_fract_z
Si Si1 0.927200 0.326848 0.117610
Si Si2 0.163159 0.223734 0.503218
Si Si3 0.470022 0.934391 0.342692
Si Si4 0.638439 0.906037 0.271873
Si Si5 0.337718 0.381024 0.292662
Si Si6 0.453429 0.583888 0.874204
O O1 0.887594 0.192625 0.116206
O O2 0.909181 0.343539 0.337898
O O3 0.064795 0.307251 0.798747
O O4 0.894359 0.459725 0.093086
O O5 0.177948 0.287859 0.302534
O O6 0.276748 0.245581 0.374035
O O7 0.090177 0.092215 0.631076
O O8 0.563356 0.870304 0.271130
O O9 0.546547 0.022102 0.070100
O O10 0.739203 0.011076 0.033671
O O11 0.403560 0.443672 0.013151
O O12 0.424678 0.373907 0.258747
#
# Coordination Sequence:
#
# PCOD9133730 Si02
#       6
#     4   4   4   4   4   4
#     4   8  17  31  49  87 119 146 200 243 293 351
#     4   9  19  34  51  84 125 152 194 259 294 346
#     4   9  13  27  55  79 113 156 185 238 297 346
#     4  10  14  27  54  85 110 153 191 235 298 343
#     4  12  18  35  62  85 122 160 200 253 297 368
#     4  10  23  34  55  96 121 153 214 244 301 372
#
# _framework density 23.645357000000001
#
# number of rings (size 3 to 8) (size 9 to 14) (size 15 to 20)
#    1.000    1.333    6.667    0.000    0.000    0.000 
#    3.000    0.000    0.000    2.000    0.000    0.000 
#    0.000    0.000    0.000    0.000    0.000    0.000 
#
# Total GULP energy -66836.577546 kJ/mol
# GULP energy per Si atom -5569.714795 kJ/mol
# Density = 2.359154 g / cm^3
# Si number density = 23.645357 Si / 1000 Ang^3
#
#
#
# Elastic Constant Matrix: (Units=GPa)
#
#
# Indices 1 2 3 4 5 6 
#
# 1 120.8494 14.8514 20.0886 0.0000 18.8455 0.0000
# 2 14.8514 50.7239 17.8004 0.0000 -6.9248 0.0000
# 3 20.0886 17.8004 46.7861 0.0000 9.5334 0.0000
# 4 0.0000 0.0000 0.0000 23.0965 0.0000 2.9889
# 5 18.8455 -6.9248 9.5334 0.0000 35.2768 0.0000
# 6 0.0000 0.0000 0.0000 2.9889 0.0000 26.6902
#
#
#
# Elastic Compliance Matrix: (Units=1/GPa)
#
#
# Indices 1 2 3 4 5 6 
#
# 1 0.009783 -0.002861 -0.002045 0.000000 -0.005235 0.000000
# 2 -0.002861 0.025461 -0.010359 0.000000 0.009326 0.000000
# 3 -0.002045 -0.010359 0.027922 0.000000 -0.008487 0.000000
# 4 0.000000 0.000000 0.000000 0.043933 0.000000 -0.004920
# 5 -0.005235 0.009326 -0.008487 0.000000 0.035268 0.000000
# 6 0.000000 0.000000 0.000000 -0.004920 0.000000 0.038018
#
#
# Mechanical properties :
#
#
# Convention : Reuss Voigt Hill
#
# Bulk Modulus (GPa) = 30.64118 35.98225 33.31171
# Shear Modulus (GPa) = 22.54353 28.05397 25.29875
#
# Velocity S-wave (km/s) = 3.09107 3.44822 3.27452
# Velocity P-wave (km/s) = 5.07212 5.57711 5.33060
#
# Compressibility (1/GPa) = 0.03263582
#
# Stress axis : x y z
#
# Youngs Moduli (GPa) = 102.22108 39.27641 35.81367
#
# Poissons Ratio (x) = 0.11238 0.07324
# Poissons Ratio (y) = 0.29249 0.37098
# Poissons Ratio (z) = 0.20905 0.40685
#
# Static dielectric constant tensor:
#      x y z
#    x 1.939300 0.000000 -0.042760 
#    y 0.000000 2.036140 0.000000 
#    z -0.042760 0.000000 1.917660 
# 
# From -- ./inp_files/12108.got.cif
#   From: 2010.05.17/outbox.cif.g08.bks.cpg/sg9_7_cif.got.tgz:12108.got - 2010.06.03 20:04:27.
