data_PCOD9133657
_publ_section_title
;
Structure prediction by ZEFSAII (Michael W. Deem and Ramdas Pophale) SiO2 
 PCOD9133657
Probable space group: C M
;
_chemical_formula_sum "Si O2"
_cell_formula_units_Z 16
_cell_length_a 27.000000
_cell_length_b 9.000000
_cell_length_c 21.000000
_cell_angle_alpha 90.000000
_cell_angle_beta 160.000000
_cell_angle_gamma 90.000000
_cell_volume 1745.328791
_symmetry_space_group_name_H-M "C M"
_symmetry_group_IT_number 8
_symmetry_cell_setting 'monoclinic'
loop_
_space_group_symop_operation_xyz
x,y,z
x,-y,z
1/2+x,1/2+y,z
1/2+x,1/2-y,z
loop_
_atom_site_type_symbol
_atom_site_label
_atom_site_fract_x
_atom_site_fract_y
_atom_site_fract_z
Si Si1 0.881090 0.819201 0.061550
Si Si2 0.398356 0.677877 0.703686
Si Si3 0.776168 0.820750 0.691331
Si Si4 0.300378 0.676295 0.445079
Si Si5 0.074506 0.330487 0.732174
Si Si6 0.503857 0.321065 0.074772
Si Si7 0.679234 0.169096 0.006191
Si Si8 0.477829 0.320285 0.318955
O O1 0.956548 0.768979 0.088182
O O2 0.951995 0.770648 0.214089
O O3 0.883342 0.000000 0.065356
O O4 0.711867 0.777454 0.857950
O O5 0.394398 0.500000 0.698244
O O6 0.323208 0.730025 0.677428
O O7 0.327073 0.729089 0.550844
O O8 0.563422 0.731875 0.901871
O O9 0.623236 0.748343 0.520255
O O10 0.765378 0.000000 0.677539
O O11 0.890755 0.778965 0.883689
O O12 0.285895 0.500000 0.428591
O O13 0.437600 0.725279 0.569507
O O14 0.158789 0.753590 0.247954
O O15 0.035973 0.500000 0.667902
O O16 0.132296 0.335894 0.874973
O O17 0.511896 0.500000 0.086062
O O18 0.842352 0.225249 0.198826
O O19 0.674424 0.000000 0.024403
O O20 0.480686 0.500000 0.321888
#
# Coordination Sequence:
#
# PCOD9133657 Si02
#       8
#     4   4   4   4   4   4   4   4
#     4   8  15  30  53  76  93 117 158 199 232 274
#     4   9  18  32  49  71  98 125 155 193 235 278
#     4  10  21  34  47  68  98 129 160 193 231 278
#     4  10  19  31  49  73  98 123 155 195 237 280
#     4   8  14  28  50  73  96 120 151 194 237 277
#     4  10  20  34  50  68  94 128 163 195 229 276
#     4   8  15  28  48  74  97 119 153 194 234 278
#     4   9  17  31  52  75  96 119 153 197 239 279
#
# _framework density 9.1673270000000002
#
# number of rings (size 3 to 8) (size 9 to 14) (size 15 to 20)
#    0.000    3.000    0.000    2.625    0.000    2.000 
#    0.000    3.750    0.000    6.000    0.000    0.000 
#    0.000    0.000    0.000    0.000    0.000    0.000 
#
# Total GULP energy -89126.889085 kJ/mol
# GULP energy per Si atom -5570.430568 kJ/mol
# Density = 0.914646 g / cm^3
# Si number density = 9.167327 Si / 1000 Ang^3
#
#
#
# Elastic Constant Matrix: (Units=GPa)
#
#
# Indices 1 2 3 4 5 6 
#
# 1 -7.3241 2.6440 20.8054 0.0000 9.7595 0.0000
# 2 2.6440 -6.0780 23.8401 0.0000 -2.3050 0.0000
# 3 20.8054 23.8401 132.1169 0.0000 14.8646 0.0000
# 4 0.0000 0.0000 0.0000 22.5305 0.0000 6.6631
# 5 9.7595 -2.3050 14.8646 0.0000 19.0038 0.0000
# 6 0.0000 0.0000 0.0000 6.6631 0.0000 13.3425
#
#
#
# Elastic Compliance Matrix: (Units=1/GPa)
#
#
# Indices 1 2 3 4 5 6 
#
# 1 -0.073061 -0.006336 0.009335 0.000000 0.029451 0.000000
# 2 -0.006336 -0.085187 0.018822 0.000000 -0.021801 0.000000
# 3 0.009335 0.018822 0.003273 0.000000 -0.005071 0.000000
# 4 0.000000 0.000000 0.000000 0.052075 0.000000 -0.026006
# 5 0.029451 -0.021801 -0.005071 0.000000 0.038819 0.000000
# 6 0.000000 0.000000 0.000000 -0.026006 0.000000 0.087936
#
#
# Mechanical properties :
#
#
# Convention : Reuss Voigt Hill
#
# Bulk Modulus (GPa) = -8.98216 23.69931 7.35857
# Shear Modulus (GPa) = -87.87291 15.73704 -36.06793
#
# Velocity S-wave (km/s) = -6.93046 2.93289 -4.44012
# Velocity P-wave (km/s) = 8.30369 4.94198 4.71848
#
# Compressibility (1/GPa) = -0.11133174
#
# Stress axis : x y z
#
# Youngs Moduli (GPa) = -13.68713 -11.73883 305.51905
#
# Poissons Ratio (x) = -0.07437 -2.85209
# Poissons Ratio (y) = -0.08672 -5.75060
# Poissons Ratio (z) = 0.12777 0.22095
#
# Static dielectric constant tensor:
#      x y z
#    x 1.630620 0.000000 0.013090 
#    y 0.000000 1.606100 0.000000 
#    z 0.013090 0.000000 1.635500 
# 
# From -- ./inp_files/31061.got.cif
#   From: 2010.05.17/outbox.ucp.g08.bks.cvg/sg8_16_cif.got.tgz:31061.got - 2010.06.11 13:00:03.
