data_PCOD9133929
_publ_section_title
;
Structure prediction by ZEFSAII (Michael W. Deem and Ramdas Pophale) SiO2 
 PCOD9133929
Probable space group: C C
;
_chemical_formula_sum "Si O2"
_cell_formula_units_Z 32
_cell_length_a 20.523966
_cell_length_b 8.761015
_cell_length_c 23.673877
_cell_angle_alpha 90.000000
_cell_angle_beta 18.934478
_cell_angle_gamma 90.000000
_cell_volume 1381.280748
_symmetry_space_group_name_H-M "C C"
_symmetry_group_IT_number 9
_symmetry_cell_setting 'monoclinic'
loop_
_space_group_symop_operation_xyz
x,y,z
x,-y,1/2+z
1/2+x,1/2+y,z
1/2+x,1/2-y,1/2+z
loop_
_atom_site_type_symbol
_atom_site_label
_atom_site_fract_x
_atom_site_fract_y
_atom_site_fract_z
Si Si1 0.060410 0.987650 0.741590
Si Si2 0.497566 0.554980 0.027435
Si Si3 0.182024 0.940353 0.260196
Si Si4 0.273195 0.523657 0.387965
Si Si5 0.726126 0.803688 0.220922
Si Si6 0.893560 0.633066 0.771338
Si Si7 0.617311 0.984562 0.899302
Si Si8 0.940080 0.349716 0.363008
O O1 0.105587 0.089073 0.759450
O O2 0.263177 0.921764 0.546081
O O3 0.925279 0.064386 0.803990
O O4 0.932075 0.836042 0.865168
O O5 0.546046 0.605988 0.924148
O O6 0.686408 0.579520 0.912765
O O7 0.432932 0.376603 0.072834
O O8 0.293743 0.610965 0.224661
O O9 0.196080 0.125611 0.250402
O O10 0.414276 0.896187 0.078244
O O11 0.384537 0.682111 0.279193
O O12 0.205723 0.450145 0.384771
O O13 0.075038 0.571186 0.584933
O O14 0.572274 0.885429 0.390458
O O15 0.653648 0.868158 0.219734
O O16 0.921384 0.590748 0.814459
#
# Coordination Sequence:
#
# PCOD9133929 Si02
#       8
#     4   4   4   4   4   4   4   4
#     4  10  19  29  49  74 103 132 164 209 261 308
#     4  10  21  32  52  74 107 138 169 203 255 305
#     4  11  19  35  51  82 106 134 168 204 258 304
#     4  11  21  34  51  74 107 134 174 213 254 308
#     4   9  21  32  53  77 109 133 164 212 250 307
#     4  11  21  34  51  75 104 138 171 213 258 304
#     4  10  20  34  49  77 106 136 171 203 252 308
#     4  10  18  30  48  75 102 133 163 207 266 302
#
# _framework density 23.166906000000001
#
# number of rings (size 3 to 8) (size 9 to 14) (size 15 to 20)
#    0.750    1.000    2.500    5.250    7.000    0.000 
#    0.000    0.000    0.000    0.000    0.000   10.500 
#    0.000    0.000    0.000    0.000    0.000    0.000 
#
# Total GULP energy -89277.432368 kJ/mol
# GULP energy per Si atom -5579.839523 kJ/mol
# Density = 2.311418 g / cm^3
# Si number density = 23.166906 Si / 1000 Ang^3
#
#
#
# Elastic Constant Matrix: (Units=GPa)
#
#
# Indices 1 2 3 4 5 6 
#
# 1 200.4018 9.3344 40.5782 -0.0013 -0.9375 0.0007
# 2 9.3344 25.9270 -3.0707 0.0189 -3.2406 0.0028
# 3 40.5782 -3.0707 113.0402 0.0154 14.9826 0.0031
# 4 -0.0013 0.0189 0.0154 24.2035 -0.0021 0.4976
# 5 -0.9375 -3.2406 14.9826 -0.0021 48.8665 -0.0014
# 6 0.0007 0.0028 0.0031 0.4976 -0.0014 15.5349
#
#
#
# Elastic Compliance Matrix: (Units=1/GPa)
#
#
# Indices 1 2 3 4 5 6 
#
# 1 0.005523 -0.002163 -0.002123 0.000003 0.000613 0.000001
# 2 -0.002163 0.039800 0.001578 -0.000032 0.002114 -0.000006
# 3 -0.002123 0.001578 0.010051 -0.000008 -0.003018 -0.000002
# 4 0.000003 -0.000032 -0.000008 0.041344 0.000002 -0.001324
# 5 0.000613 0.002114 -0.003018 0.000002 0.021541 0.000002
# 6 0.000001 -0.000006 -0.000002 -0.001324 0.000002 0.064414
#
#
# Mechanical properties :
#
#
# Convention : Reuss Voigt Hill
#
# Bulk Modulus (GPa) = 20.01712 48.11696 34.06704
# Shear Modulus (GPa) = 24.42089 37.22277 30.82183
#
# Velocity S-wave (km/s) = 3.25026 4.01274 3.65146
# Velocity P-wave (km/s) = 4.76914 6.50263 5.70215
#
# Compressibility (1/GPa) = 0.04995724
#
# Stress axis : x y z
#
# Youngs Moduli (GPa) = 181.04631 25.12576 99.48966
#
# Poissons Ratio (x) = 0.05436 0.21120
# Poissons Ratio (y) = 0.39167 -0.15695
# Poissons Ratio (z) = 0.38433 -0.03964
#
# Static dielectric constant tensor:
#      x y z
#    x 1.918930 0.000000 -0.004050 
#    y 0.000000 1.888860 0.000000 
#    z -0.004050 0.000000 1.927500 
# 
# From -- ./inp_files/10777.got.cif
#   From: 2010.05.17/outbox.cif.g08.bks.cpg/sg9_6_cif.got.tgz:10777.got - 2010.06.03 20:04:27.
