data_PCOD9133814
_publ_section_title
;
Structure prediction by ZEFSAII (Michael W. Deem and Ramdas Pophale) SiO2 
 PCOD9133814
Probable space group: C C
;
_chemical_formula_sum "Si O2"
_cell_formula_units_Z 28
_cell_length_a 6.321091
_cell_length_b 12.620784
_cell_length_c 15.086350
_cell_angle_alpha 90.000000
_cell_angle_beta 67.436373
_cell_angle_gamma 90.000000
_cell_volume 1111.419005
_symmetry_space_group_name_H-M "C C"
_symmetry_group_IT_number 9
_symmetry_cell_setting 'monoclinic'
loop_
_space_group_symop_operation_xyz
x,y,z
x,-y,1/2+z
1/2+x,1/2+y,z
1/2+x,1/2-y,1/2+z
loop_
_atom_site_type_symbol
_atom_site_label
_atom_site_fract_x
_atom_site_fract_y
_atom_site_fract_z
Si Si1 0.439250 0.938905 0.568140
Si Si2 0.681996 0.990478 0.369172
Si Si3 0.607600 0.075681 0.693860
Si Si4 0.922823 0.234451 0.108547
Si Si5 0.538792 0.376422 0.744737
Si Si6 0.091702 0.874467 0.066565
Si Si7 0.327675 0.692595 0.437564
O O1 0.594416 0.909540 0.458133
O O2 0.284440 0.870607 0.660508
O O3 0.605619 0.994447 0.612017
O O4 0.249191 0.022833 0.559752
O O5 0.546416 0.969973 0.300047
O O6 0.652356 0.105838 0.421820
O O7 0.952332 0.012951 0.302397
O O8 0.458866 0.168154 0.671931
O O9 0.864523 0.117811 0.661929
O O10 0.878881 0.140993 0.184309
O O11 0.728678 0.270117 0.073492
O O12 0.159991 0.225704 0.014051
O O13 0.489782 0.288357 0.827341
O O14 0.991218 0.860323 0.984444
#
# Coordination Sequence:
#
# PCOD9133814 Si02
#       7
#     4   4   4   4   4   4   4
#     4  11  21  37  63  92 124 165 215 268 307 384
#     4  10  20  38  63  92 126 160 224 260 309 397
#     4  10  20  38  60  93 118 166 219 256 319 385
#     4  10  21  39  62  87 131 167 206 265 330 384
#     4  10  22  39  63  93 129 165 209 268 324 381
#     4  10  16  39  63  82 123 170 203 265 317 379
#     4   9  20  38  60  87 123 163 216 248 324 384
#
# _framework density 25.193020000000001
#
# number of rings (size 3 to 8) (size 9 to 14) (size 15 to 20)
#    0.857    1.143    5.714    0.000    2.000    1.143 
#    5.143    0.000    6.286    0.000    0.000    0.000 
#    0.000    0.000    0.000    0.000    0.000    0.000 
#
# Total GULP energy -77935.725250 kJ/mol
# GULP energy per Si atom -5566.837518 kJ/mol
# Density = 2.513568 g / cm^3
# Si number density = 25.193020 Si / 1000 Ang^3
#
#
#
# Elastic Constant Matrix: (Units=GPa)
#
#
# Indices 1 2 3 4 5 6 
#
# 1 87.7313 21.3540 47.3978 0.0000 6.7443 0.0000
# 2 21.3540 36.2791 39.6334 0.0000 -0.4482 0.0000
# 3 47.3978 39.6334 217.4460 0.0000 11.7225 0.0000
# 4 0.0000 0.0000 0.0000 37.6284 0.0000 7.0930
# 5 6.7443 -0.4482 11.7225 0.0000 33.5658 0.0000
# 6 0.0000 0.0000 0.0000 7.0930 0.0000 30.1398
#
#
#
# Elastic Compliance Matrix: (Units=1/GPa)
#
#
# Indices 1 2 3 4 5 6 
#
# 1 0.014090 -0.006370 -0.001787 0.000000 -0.002292 0.000000
# 2 -0.006370 0.037539 -0.005656 0.000000 0.003756 0.000000
# 3 -0.001787 -0.005656 0.006119 0.000000 -0.001854 0.000000
# 4 0.000000 0.000000 0.000000 0.027809 0.000000 -0.006545
# 5 -0.002292 0.003756 -0.001854 0.000000 0.030950 0.000000
# 6 0.000000 0.000000 0.000000 -0.006545 0.000000 0.034719
#
#
# Mechanical properties :
#
#
# Convention : Reuss Voigt Hill
#
# Bulk Modulus (GPa) = 33.19751 62.02519 47.61135
# Shear Modulus (GPa) = 26.46988 35.80489 31.13738
#
# Velocity S-wave (km/s) = 3.24494 3.77400 3.51943
# Velocity P-wave (km/s) = 5.21971 6.60789 5.95439
#
# Compressibility (1/GPa) = 0.03012274
#
# Stress axis : x y z
#
# Youngs Moduli (GPa) = 70.97008 26.63895 163.42090
#
# Poissons Ratio (x) = 0.16969 0.29199
# Poissons Ratio (y) = 0.45208 0.92433
# Poissons Ratio (z) = 0.12680 0.15067
#
# Static dielectric constant tensor:
#      x y z
#    x 1.988480 0.000000 -0.054220 
#    y 0.000000 2.161100 0.000000 
#    z -0.054220 0.000000 2.063890 
# 
# From -- ./inp_files/21910.got.cif
#   From: 2010.05.17/outbox.cif.g08.bks.cpg/sg9_11_cif.got.tgz:21910.got - 2010.06.03 20:04:27.
