data_PCOD9133409
_publ_section_title
;
Structure prediction by ZEFSAII (Michael W. Deem and Ramdas Pophale) SiO2 
 PCOD9133409
Probable space group: C M
;
_chemical_formula_sum "Si O2"
_cell_formula_units_Z 24
_cell_length_a 10.805866
_cell_length_b 19.538121
_cell_length_c 5.014731
_cell_angle_alpha 90.000000
_cell_angle_beta 115.575326
_cell_angle_gamma 90.000000
_cell_volume 955.004608
_symmetry_space_group_name_H-M "C M"
_symmetry_group_IT_number 8
_symmetry_cell_setting 'monoclinic'
loop_
_space_group_symop_operation_xyz
x,y,z
x,-y,z
1/2+x,1/2+y,z
1/2+x,1/2-y,z
loop_
_atom_site_type_symbol
_atom_site_label
_atom_site_fract_x
_atom_site_fract_y
_atom_site_fract_z
Si Si1 0.585031 0.000000 0.870270
Si Si2 0.201090 0.686843 0.801654
Si Si3 0.104927 0.000000 0.305145
Si Si4 0.409088 0.387202 0.352698
Si Si5 0.956040 0.384401 0.414560
Si Si6 0.428931 0.246952 0.659394
Si Si7 0.790435 0.500000 0.978376
Si Si8 0.271070 0.500000 0.546534
O O1 0.497067 0.065555 0.696953
O O2 0.713779 0.000000 0.787456
O O3 0.642213 0.000000 0.220974
O O4 0.280488 0.632141 0.050867
O O5 0.317934 0.733632 0.778232
O O6 0.104454 0.649963 0.488047
O O7 0.083928 0.723232 0.872367
O O8 0.231001 0.000000 0.628898
O O9 0.162395 0.000000 0.062293
O O10 0.017031 0.932476 0.290503
O O11 0.454909 0.314268 0.507096
O O12 0.360634 0.434677 0.550860
O O13 0.873412 0.318318 0.440269
O O14 0.877139 0.432171 0.135628
#
# Coordination Sequence:
#
# PCOD9133409 Si02
#       8
#     2   4   2   4   4   4   2   2
#     4  11  20  43  68 108 135 193 241 319 370 466
#     4  10  23  46  70 111 150 205 256 323 387 464
#     4  11  30  46  77 110 154 205 257 325 399 471
#     4  11  25  42  73 105 146 205 250 332 376 482
#     4   9  23  44  74 105 149 205 248 325 377 480
#     4  10  24  44  70 113 149 205 256 322 385 467
#     4  11  26  52  71 116 151 208 252 328 396 476
#     4  11  22  39  72 100 146 178 262 304 387 449
#
# _framework density 25.130766999999999
#
# number of rings (size 3 to 8) (size 9 to 14) (size 15 to 20)
#    1.000    0.667    1.667    1.000    4.667    6.667 
#    6.000    0.000    0.000    0.000    0.000    0.000 
#    0.000    0.000    0.000    0.000    0.000    0.000 
#
# Total GULP energy -67142.359991 kJ/mol
# GULP energy per Si atom -5595.196666 kJ/mol
# Density = 2.507357 g / cm^3
# Si number density = 25.130767 Si / 1000 Ang^3
#
#
#
# Elastic Constant Matrix: (Units=GPa)
#
#
# Indices 1 2 3 4 5 6 
#
# 1 168.7079 44.3263 24.7960 0.0000 2.7079 0.0000
# 2 44.3263 175.5613 31.4120 0.0000 10.0572 0.0000
# 3 24.7960 31.4120 77.4678 0.0000 23.1016 0.0000
# 4 0.0000 0.0000 0.0000 29.6833 0.0000 19.2794
# 5 2.7079 10.0572 23.1016 0.0000 34.9293 0.0000
# 6 0.0000 0.0000 0.0000 19.2794 0.0000 43.6167
#
#
#
# Elastic Compliance Matrix: (Units=1/GPa)
#
#
# Indices 1 2 3 4 5 6 
#
# 1 0.006548 -0.001383 -0.001872 0.000000 0.001128 0.000000
# 2 -0.001383 0.006434 -0.002050 0.000000 -0.000389 0.000000
# 3 -0.001872 -0.002050 0.017589 0.000000 -0.010897 0.000000
# 4 0.000000 0.000000 0.000000 0.047256 0.000000 -0.020888
# 5 0.001128 -0.000389 -0.010897 0.000000 0.035861 0.000000
# 6 0.000000 0.000000 0.000000 -0.020888 0.000000 0.032160
#
#
# Mechanical properties :
#
#
# Convention : Reuss Voigt Hill
#
# Bulk Modulus (GPa) = 50.09698 69.20063 59.64881
# Shear Modulus (GPa) = 30.65401 43.05937 36.85669
#
# Velocity S-wave (km/s) = 3.49632 4.14383 3.83377
# Velocity P-wave (km/s) = 6.02303 7.10571 6.58665
#
# Compressibility (1/GPa) = 0.01996128
#
# Stress axis : x y z
#
# Youngs Moduli (GPa) = 152.72484 155.41617 56.85478
#
# Poissons Ratio (x) = 0.21494 0.10640
# Poissons Ratio (y) = 0.21121 0.11657
# Poissons Ratio (z) = 0.28583 0.31864
#
# Static dielectric constant tensor:
#      x y z
#    x 2.031200 0.000000 0.012530 
#    y 0.000000 2.025960 0.000000 
#    z 0.012530 0.000000 1.974010 
# 
# From -- ./inp_files/2804.got.cif
#   From: 2010.05.17/outbox.cif.g08.bks.cpg/sg8_2_cif.got.tgz:2804.got - 2010.06.03 19:46:02.
