data_PCOD9133446
_publ_section_title
;
Structure prediction by ZEFSAII (Michael W. Deem and Ramdas Pophale) SiO2 
 PCOD9133446
Probable space group: C M
;
_chemical_formula_sum "Si O2"
_cell_formula_units_Z 26
_cell_length_a 10.153892
_cell_length_b 8.202072
_cell_length_c 16.771773
_cell_angle_alpha 90.000000
_cell_angle_beta 126.562040
_cell_angle_gamma 90.000000
_cell_volume 1121.929199
_symmetry_space_group_name_H-M "C M"
_symmetry_group_IT_number 8
_symmetry_cell_setting 'monoclinic'
loop_
_space_group_symop_operation_xyz
x,y,z
x,-y,z
1/2+x,1/2+y,z
1/2+x,1/2-y,z
loop_
_atom_site_type_symbol
_atom_site_label
_atom_site_fract_x
_atom_site_fract_y
_atom_site_fract_z
Si Si1 0.675820 0.685896 0.885430
Si Si2 0.454438 0.683901 0.408470
Si Si3 0.814890 0.819924 0.780482
Si Si4 0.006347 0.500000 0.627298
Si Si5 0.155832 0.808580 0.197593
Si Si6 0.793608 0.810091 0.091937
Si Si7 0.806782 0.182359 0.533222
O O1 0.691577 0.500000 0.917641
O O2 0.771017 0.706165 0.837739
O O3 0.484449 0.726267 0.801130
O O4 0.738184 0.792821 0.980808
O O5 0.510980 0.500000 0.411712
O O6 0.310861 0.727800 0.295380
O O7 0.609715 0.802226 0.460094
O O8 0.374154 0.690042 0.466924
O O9 0.841660 0.000000 0.828532
O O10 0.655143 0.857920 0.670568
O O11 0.874737 0.350861 0.594736
O O12 0.174805 0.780762 0.110008
O O13 0.980036 0.745522 0.164132
O O14 0.160623 0.000000 0.216760
O O15 0.791957 0.000000 0.113534
O O16 0.852739 0.000000 0.581915
#
# Coordination Sequence:
#
# PCOD9133446 Si02
#       7
#     4   4   4   2   4   4   4
#     4  11  22  41  66  94 127 172 216 267 337 390
#     4  11  24  43  67  99 136 176 221 270 335 397
#     4   9  23  43  61  92 127 164 210 276 328 390
#     4  10  24  48  68  98 136 168 226 288 328 408
#     4  11  24  40  62  97 132 174 219 269 322 386
#     4  11  24  40  63  94 133 174 217 269 321 392
#     4  11  25  44  69 100 132 181 220 275 339 397
#
# _framework density 23.174368000000001
#
# number of rings (size 3 to 8) (size 9 to 14) (size 15 to 20)
#    0.462    0.923    0.769    3.692    2.154   11.692 
#    0.000    0.000    0.000    0.000    0.000    0.000 
#    0.000    0.000    0.000    0.000    0.000    0.000 
#
# Total GULP energy -72378.960912 kJ/mol
# GULP energy per Si atom -5567.612378 kJ/mol
# Density = 2.312162 g / cm^3
# Si number density = 23.174368 Si / 1000 Ang^3
#
#
#
# Elastic Constant Matrix: (Units=GPa)
#
#
# Indices 1 2 3 4 5 6 
#
# 1 61.4975 17.3775 -7.3817 0.0000 10.8071 0.0000
# 2 17.3775 97.8651 23.3541 0.0000 6.0832 0.0000
# 3 -7.3817 23.3541 57.2681 0.0000 8.6547 0.0000
# 4 0.0000 0.0000 0.0000 16.6463 0.0000 7.8228
# 5 10.8071 6.0832 8.6547 0.0000 35.6274 0.0000
# 6 0.0000 0.0000 0.0000 7.8228 0.0000 23.3763
#
#
#
# Elastic Compliance Matrix: (Units=1/GPa)
#
#
# Indices 1 2 3 4 5 6 
#
# 1 0.019197 -0.004247 0.005167 0.000000 -0.006353 0.000000
# 2 -0.004247 0.012284 -0.005642 0.000000 0.000561 0.000000
# 3 0.005167 -0.005642 0.021302 0.000000 -0.005779 0.000000
# 4 0.000000 0.000000 0.000000 0.071284 0.000000 -0.023855
# 5 -0.006353 0.000561 -0.005779 0.000000 0.031303 0.000000
# 6 0.000000 0.000000 0.000000 -0.023855 0.000000 0.050762
#
#
# Mechanical properties :
#
#
# Convention : Reuss Voigt Hill
#
# Bulk Modulus (GPa) = 23.07390 31.48116 27.27753
# Shear Modulus (GPa) = 21.73708 27.34870 24.54289
#
# Velocity S-wave (km/s) = 3.06597 3.43902 3.25784
# Velocity P-wave (km/s) = 4.74466 5.42062 5.09387
#
# Compressibility (1/GPa) = 0.04333901
#
# Stress axis : x y z
#
# Youngs Moduli (GPa) = 52.09021 81.40922 46.94480
#
# Poissons Ratio (x) = 0.34573 -0.24254
# Poissons Ratio (y) = 0.22122 0.26484
# Poissons Ratio (z) = -0.26912 0.45927
#
# Static dielectric constant tensor:
#      x y z
#    x 1.859250 0.000000 0.005580 
#    y 0.000000 1.835130 0.000000 
#    z 0.005580 0.000000 1.896920 
# 
# From -- ./inp_files/30300.got.cif
#   From: 2010.05.17/outbox.cif.g08.bks.cpg/sg8_16_cif.got.tgz:30300.got - 2010.06.03 19:46:02.
