data_PCOD9133099
_publ_section_title
;
Structure prediction by ZEFSAII (Michael W. Deem and Ramdas Pophale) SiO2 
 PCOD9133099
Probable space group: C M
;
_chemical_formula_sum "Si O2"
_cell_formula_units_Z 20
_cell_length_a 9.786098
_cell_length_b 9.701197
_cell_length_c 8.787857
_cell_angle_alpha 90.000000
_cell_angle_beta 81.286894
_cell_angle_gamma 90.000000
_cell_volume 824.663248
_symmetry_space_group_name_H-M "C M"
_symmetry_group_IT_number 8
_symmetry_cell_setting 'monoclinic'
loop_
_space_group_symop_operation_xyz
x,y,z
x,-y,z
1/2+x,1/2+y,z
1/2+x,1/2-y,z
loop_
_atom_site_type_symbol
_atom_site_label
_atom_site_fract_x
_atom_site_fract_y
_atom_site_fract_z
Si Si1 0.903461 0.000000 0.789630
Si Si2 0.537614 0.289789 0.518640
Si Si3 0.273564 0.000000 0.867741
Si Si4 0.239342 0.726812 0.015537
Si Si5 0.541856 0.000000 0.660580
Si Si6 0.546813 0.000000 0.002009
Si Si7 0.827731 0.342727 0.325117
O O1 0.965960 0.119393 0.660643
O O2 0.846107 0.123970 0.915287
O O3 0.678739 0.351170 0.431436
O O4 0.428275 0.255161 0.404478
O O5 0.580868 0.140516 0.576707
O O6 0.199603 0.143850 0.911290
O O7 0.390336 0.000000 0.978770
O O8 0.373309 0.000000 0.705409
O O9 0.103347 0.636245 0.067894
O O10 0.295899 0.779181 0.165795
O O11 0.611088 0.000000 0.816379
O O12 0.884123 0.500000 0.307965
#
# Coordination Sequence:
#
# PCOD9133099 Si02
#       7
#     2   4   2   4   2   2   4
#     4  11  24  48  74 121 150 197 274 320 388 457
#     4  12  27  49  82 115 161 208 265 333 394 474
#     4  10  21  42  70 100 143 190 251 306 376 443
#     4  11  24  44  76 106 155 201 253 321 380 476
#     4  10  23  44  74 107 147 208 249 320 385 458
#     4   9  24  42  68 110 142 187 262 306 379 442
#     4  12  29  51  77 118 163 210 264 323 409 469
#
# _framework density 24.252320999999998
#
# number of rings (size 3 to 8) (size 9 to 14) (size 15 to 20)
#    0.600    0.400    5.000    0.000    8.400    3.200 
#    0.000    5.000    0.000    0.000    0.000    0.000 
#    0.000    0.000    0.000    0.000    0.000    0.000 
#
# Total GULP energy -55700.791008 kJ/mol
# GULP energy per Si atom -5570.079101 kJ/mol
# Density = 2.419712 g / cm^3
# Si number density = 24.252321 Si / 1000 Ang^3
#
#
#
# Elastic Constant Matrix: (Units=GPa)
#
#
# Indices 1 2 3 4 5 6 
#
# 1 77.7937 19.3580 17.1894 0.0000 5.8089 0.0000
# 2 19.3580 176.3498 32.9654 0.0000 -14.7346 0.0000
# 3 17.1894 32.9654 102.1397 0.0000 -9.8419 0.0000
# 4 0.0000 0.0000 0.0000 45.1669 0.0000 -10.5263
# 5 5.8089 -14.7346 -9.8419 0.0000 34.0438 0.0000
# 6 0.0000 0.0000 0.0000 -10.5263 0.0000 17.6027
#
#
#
# Elastic Compliance Matrix: (Units=1/GPa)
#
#
# Indices 1 2 3 4 5 6 
#
# 1 0.013976 -0.001419 -0.002246 0.000000 -0.003648 0.000000
# 2 -0.001419 0.006329 -0.001560 0.000000 0.002531 0.000000
# 3 -0.002246 -0.001560 0.010949 0.000000 0.002873 0.000000
# 4 0.000000 0.000000 0.000000 0.025725 0.000000 0.015384
# 5 -0.003648 0.002531 0.002873 0.000000 0.031922 0.000000
# 6 0.000000 0.000000 0.000000 0.015384 0.000000 0.066009
#
#
# Mechanical properties :
#
#
# Convention : Reuss Voigt Hill
#
# Bulk Modulus (GPa) = 48.06627 55.03431 51.55029
# Shear Modulus (GPa) = 29.01988 38.48070 33.75029
#
# Velocity S-wave (km/s) = 3.46292 3.98764 3.73450
# Velocity P-wave (km/s) = 5.98760 6.62898 6.31643
#
# Compressibility (1/GPa) = 0.02080461
#
# Stress axis : x y z
#
# Youngs Moduli (GPa) = 71.54982 157.99257 91.33421
#
# Poissons Ratio (x) = 0.22423 0.20510
# Poissons Ratio (y) = 0.10155 0.14249
# Poissons Ratio (z) = 0.16067 0.24649
#
# Static dielectric constant tensor:
#      x y z
#    x 2.069560 0.000000 -0.060470 
#    y 0.000000 1.872980 0.000000 
#    z -0.060470 0.000000 1.972470 
# 
# From -- ./inp_files/9658.got.cif
#   From: 2010.05.17/outbox.cif.g08.bks.cpg/sg8_5_cif.got.tgz:9658.got - 2010.06.03 19:46:02.
