data_PCOD9133366
_publ_section_title
;
Structure prediction by ZEFSAII (Michael W. Deem and Ramdas Pophale) SiO2 
 PCOD9133366
Probable space group: C M
;
_chemical_formula_sum "Si O2"
_cell_formula_units_Z 32
_cell_length_a 9.857372
_cell_length_b 31.697536
_cell_length_c 8.590679
_cell_angle_alpha 90.000000
_cell_angle_beta 147.966559
_cell_angle_gamma 90.000000
_cell_volume 1423.735245
_symmetry_space_group_name_H-M "C M"
_symmetry_group_IT_number 8
_symmetry_cell_setting 'monoclinic'
loop_
_space_group_symop_operation_xyz
x,y,z
x,-y,z
1/2+x,1/2+y,z
1/2+x,1/2-y,z
loop_
_atom_site_type_symbol
_atom_site_label
_atom_site_fract_x
_atom_site_fract_y
_atom_site_fract_z
Si Si1 0.278050 0.767489 0.558070
Si Si2 0.962942 0.822281 0.698159
Si Si3 0.329501 0.178331 0.320754
Si Si4 0.517580 0.049080 0.168211
Si Si5 0.769149 0.811902 0.159796
Si Si6 0.036849 0.950432 0.481930
Si Si7 0.454061 0.385656 0.143223
Si Si8 0.711051 0.106924 0.613743
O O1 0.302088 0.717825 0.605722
O O2 0.359451 0.781287 0.461349
O O3 0.988101 0.782525 0.296750
O O4 0.487983 0.791046 0.872414
O O5 0.889486 0.820469 0.446142
O O6 0.913360 0.870540 0.698155
O O7 0.227471 0.813262 0.046951
O O8 0.570548 0.148500 0.539913
O O9 0.133586 0.147762 0.226538
O O10 0.759364 0.057092 0.289773
O O11 0.540138 0.077312 0.343078
O O12 0.531534 0.000000 0.226004
O O13 0.256758 0.056413 0.822890
O O14 0.767956 0.855890 0.064237
O O15 0.082644 0.917883 0.386899
O O16 0.047861 0.000000 0.445692
O O17 0.325578 0.412647 0.880433
#
# Coordination Sequence:
#
# PCOD9133366 Si02
#       8
#     4   4   4   4   4   4   4   4
#     4  11  25  44  63  89 131 168 217 275 328 384
#     4  11  26  39  66  92 125 173 220 270 329 385
#     4  10  24  43  60  94 132 167 218 273 323 386
#     4  10  24  44  69  98 134 170 214 269 325 392
#     4  11  25  42  64  93 123 170 219 267 325 384
#     4  10  23  44  70 101 131 168 216 268 323 393
#     4  10  23  41  64  94 130 172 211 270 321 392
#     4  11  24  41  65  95 132 172 218 268 326 392
#
# _framework density 22.476088000000001
#
# number of rings (size 3 to 8) (size 9 to 14) (size 15 to 20)
#    0.000    1.500    1.250    1.500   12.250    1.500 
#    0.000    0.625    0.000    0.000    0.000    0.000 
#    0.000    0.000    0.000    0.000    0.000    0.000 
#
# Total GULP energy -89315.133402 kJ/mol
# GULP energy per Si atom -5582.195838 kJ/mol
# Density = 2.242493 g / cm^3
# Si number density = 22.476088 Si / 1000 Ang^3
#
#
#
# Elastic Constant Matrix: (Units=GPa)
#
#
# Indices 1 2 3 4 5 6 
#
# 1 32.0900 20.4256 17.1109 0.0000 -9.4035 0.0000
# 2 20.4256 83.8431 33.4086 0.0000 -16.6200 0.0000
# 3 17.1109 33.4086 65.8282 0.0000 -13.2095 0.0000
# 4 0.0000 0.0000 0.0000 37.1402 0.0000 -3.9459
# 5 -9.4035 -16.6200 -13.2095 0.0000 44.9946 0.0000
# 6 0.0000 0.0000 0.0000 -3.9459 0.0000 9.4027
#
#
#
# Elastic Compliance Matrix: (Units=1/GPa)
#
#
# Indices 1 2 3 4 5 6 
#
# 1 0.039772 -0.006372 -0.006279 0.000000 0.004115 0.000000
# 2 -0.006372 0.016509 -0.006127 0.000000 0.002968 0.000000
# 3 -0.006279 -0.006127 0.020418 0.000000 0.002419 0.000000
# 4 0.000000 0.000000 0.000000 0.028181 0.000000 0.011827
# 5 0.004115 0.002968 0.002419 0.000000 0.024891 0.000000
# 6 0.000000 0.000000 0.000000 0.011827 0.000000 0.111316
#
#
# Mechanical properties :
#
#
# Convention : Reuss Voigt Hill
#
# Bulk Modulus (GPa) = 25.54624 35.96130 30.75377
# Shear Modulus (GPa) = 17.14157 25.69525 21.41841
#
# Velocity S-wave (km/s) = 2.76462 3.38483 3.09033
# Velocity P-wave (km/s) = 4.64559 5.59559 5.14257
#
# Compressibility (1/GPa) = 0.03914470
#
# Stress axis : x y z
#
# Youngs Moduli (GPa) = 25.14356 60.57363 48.97674
#
# Poissons Ratio (x) = 0.38595 0.30750
# Poissons Ratio (y) = 0.16020 0.30007
# Poissons Ratio (z) = 0.15786 0.37112
#
# Static dielectric constant tensor:
#      x y z
#    x 1.931320 0.000000 0.006590 
#    y 0.000000 1.818260 0.000000 
#    z 0.006590 0.000000 1.842720 
# 
# From -- ./inp_files/11695.got.cif
#   From: 2010.05.17/outbox.cif.g08.bks.cpg/sg8_6_cif.got.tgz:11695.got - 2010.06.03 19:46:02.
