data_PCOD9133089
_publ_section_title
;
Structure prediction by ZEFSAII (Michael W. Deem and Ramdas Pophale) SiO2 
 PCOD9133089
Probable space group: C M
;
_chemical_formula_sum "Si O2"
_cell_formula_units_Z 26
_cell_length_a 7.002297
_cell_length_b 13.477932
_cell_length_c 15.271117
_cell_angle_alpha 90.000000
_cell_angle_beta 46.410037
_cell_angle_gamma 90.000000
_cell_volume 1043.875428
_symmetry_space_group_name_H-M "C M"
_symmetry_group_IT_number 8
_symmetry_cell_setting 'monoclinic'
loop_
_space_group_symop_operation_xyz
x,y,z
x,-y,z
1/2+x,1/2+y,z
1/2+x,1/2-y,z
loop_
_atom_site_type_symbol
_atom_site_label
_atom_site_fract_x
_atom_site_fract_y
_atom_site_fract_z
Si Si1 0.967490 0.667929 0.313460
Si Si2 0.057247 0.110328 0.295443
Si Si3 0.558189 0.828994 0.845059
Si Si4 0.365178 0.500000 0.756068
Si Si5 0.005317 0.330981 0.673516
Si Si6 0.323666 0.860323 0.550792
Si Si7 0.068889 0.885634 0.091171
O O1 0.775389 0.623158 0.301641
O O2 0.931419 0.620103 0.420550
O O3 0.900301 0.784988 0.346688
O O4 0.268948 0.653435 0.188612
O O5 0.161304 0.112359 0.162956
O O6 0.935764 0.000000 0.344220
O O7 0.734203 0.731752 0.775519
O O8 0.540178 0.884043 0.755210
O O9 0.701984 0.910991 0.857507
O O10 0.265082 0.817337 0.973669
O O11 0.549074 0.415399 0.650319
O O12 0.977678 0.387150 0.591209
O O13 0.250136 0.256048 0.584130
O O14 0.071318 0.000000 0.057757
#
# Coordination Sequence:
#
# PCOD9133089 Si02
#       7
#     4   4   4   2   4   4   4
#     4  12  24  46  71 104 144 184 235 291 350 421
#     4  11  26  45  69 106 143 191 233 277 360 410
#     4  10  21  42  64  94 129 174 226 286 334 415
#     4  10  22  42  62  92 132 172 222 284 338 398
#     4   9  21  40  66  92 127 176 226 270 354 401
#     4  10  22  42  64  97 132 174 221 286 338 416
#     4  11  25  45  67 101 142 184 234 293 352 420
#
# _framework density 24.907188999999999
#
# number of rings (size 3 to 8) (size 9 to 14) (size 15 to 20)
#    0.000    1.538    2.308    1.385    4.308    0.615 
#    5.538    0.000    0.000    0.000    0.000    0.000 
#    0.000    0.000    0.000    0.000    0.000    0.000 
#
# Total GULP energy -72380.897168 kJ/mol
# GULP energy per Si atom -5567.761321 kJ/mol
# Density = 2.485050 g / cm^3
# Si number density = 24.907189 Si / 1000 Ang^3
#
#
#
# Elastic Constant Matrix: (Units=GPa)
#
#
# Indices 1 2 3 4 5 6 
#
# 1 98.8110 10.9121 21.9968 -0.0009 19.8885 0.0007
# 2 10.9121 108.2003 0.0762 -0.0003 3.5484 0.0002
# 3 21.9968 0.0762 77.7832 -0.0006 -2.0422 0.0006
# 4 -0.0009 -0.0003 -0.0006 13.2479 0.0003 -1.5025
# 5 19.8885 3.5484 -2.0422 0.0003 39.0757 -0.0005
# 6 0.0007 0.0002 0.0006 -1.5025 -0.0005 -9.7005
#
#
#
# Elastic Compliance Matrix: (Units=1/GPa)
#
#
# Indices 1 2 3 4 5 6 
#
# 1 0.012330 -0.001032 -0.003653 0.000001 -0.006373 0.000001
# 2 -0.001032 0.009356 0.000275 0.000000 -0.000310 0.000000
# 3 -0.003653 0.000275 0.013956 0.000000 0.002564 0.000000
# 4 0.000001 0.000000 0.000000 0.074180 -0.000001 -0.011489
# 5 -0.006373 -0.000310 0.002564 -0.000001 0.028997 -0.000001
# 6 0.000001 0.000000 0.000000 -0.011489 -0.000001 -0.101308
#
#
# Mechanical properties :
#
#
# Convention : Reuss Voigt Hill
#
# Bulk Modulus (GPa) = 37.28352 38.97386 38.12869
# Shear Modulus (GPa) = 90.45794 25.31192 57.88493
#
# Velocity S-wave (km/s) = 6.03298 3.19133 4.82604
# Velocity P-wave (km/s) = 7.97061 5.40934 6.81145
#
# Compressibility (1/GPa) = 0.02682151
#
# Stress axis : x y z
#
# Youngs Moduli (GPa) = 81.10091 106.88135 71.65164
#
# Poissons Ratio (x) = 0.11030 0.26176
# Poissons Ratio (y) = 0.08369 -0.01967
# Poissons Ratio (z) = 0.29628 -0.02934
#
# Static dielectric constant tensor:
#      x y z
#    x 2.122990 0.000000 -0.011490 
#    y 0.000000 2.001990 0.000000 
#    z -0.011490 0.000000 1.938990 
# 
# From -- ./inp_files/25403.got.cif
#   From: 2010.05.17/outbox.cif.g08.bks.cpg/sg8_13_cif.got.tgz:25403.got - 2010.06.03 19:46:02.
