data_PCOD9133222
_publ_section_title
;
Structure prediction by ZEFSAII (Michael W. Deem and Ramdas Pophale) SiO2 
 PCOD9133222
Probable space group: C M
;
_chemical_formula_sum "Si O2"
_cell_formula_units_Z 32
_cell_length_a 10.123858
_cell_length_b 16.749571
_cell_length_c 11.549784
_cell_angle_alpha 90.000000
_cell_angle_beta 38.151139
_cell_angle_gamma 90.000000
_cell_volume 1209.839934
_symmetry_space_group_name_H-M "C M"
_symmetry_group_IT_number 8
_symmetry_cell_setting 'monoclinic'
loop_
_space_group_symop_operation_xyz
x,y,z
x,-y,z
1/2+x,1/2+y,z
1/2+x,1/2-y,z
loop_
_atom_site_type_symbol
_atom_site_label
_atom_site_fract_x
_atom_site_fract_y
_atom_site_fract_z
Si Si1 0.219860 0.087686 0.364740
Si Si2 0.334500 0.370914 0.472249
Si Si3 0.839361 0.622131 0.873320
Si Si4 0.526126 0.214807 0.441874
Si Si5 0.175837 0.909070 0.671146
Si Si6 0.526036 0.909299 0.978859
Si Si7 0.872221 0.910939 0.178332
Si Si8 0.388055 0.704808 0.764320
O O1 0.214865 0.090980 0.504668
O O2 0.994891 0.090740 0.454657
O O3 0.305419 0.000000 0.275537
O O4 0.404788 0.134067 0.170422
O O5 0.404453 0.277459 0.442683
O O6 0.380420 0.400761 0.311759
O O7 0.084878 0.392307 0.663465
O O8 0.813771 0.716606 0.879647
O O9 0.854310 0.591365 0.994280
O O10 0.619817 0.590992 0.967545
O O11 0.367510 0.142990 0.587955
O O12 0.724705 0.166287 0.250332
O O13 0.544954 0.264583 0.550298
O O14 0.968127 0.854069 0.810905
O O15 0.158276 0.000000 0.718834
O O16 0.708124 0.845523 0.823522
O O17 0.621726 0.000000 0.920164
O O18 0.782535 0.000000 0.210920
#
# Coordination Sequence:
#
# PCOD9133222 Si02
#       8
#     4   4   4   4   4   4   4   4
#     4  10  22  40  68 102 136 178 229 290 351 402
#     4  12  23  44  74  99 136 177 232 286 344 406
#     4  12  25  43  69 102 140 176 231 282 350 404
#     4  12  24  46  66 101 139 186 228 280 345 413
#     4  11  22  42  68  96 134 185 232 280 345 413
#     4  11  23  42  67 102 139 175 230 291 345 409
#     4  12  28  47  71 104 141 186 232 288 350 415
#     4  12  23  42  65 102 135 181 228 287 344 408
#
# _framework density 26.449780000000001
#
# number of rings (size 3 to 8) (size 9 to 14) (size 15 to 20)
#    0.000    0.500    6.250    1.500    1.750    3.000 
#    0.000    1.250    0.000    0.000    0.000    0.000 
#    0.000    0.000    0.000    0.000    0.000    0.000 
#
# Total GULP energy -89319.369691 kJ/mol
# GULP energy per Si atom -5582.460606 kJ/mol
# Density = 2.638958 g / cm^3
# Si number density = 26.449780 Si / 1000 Ang^3
#
#
#
# Elastic Constant Matrix: (Units=GPa)
#
#
# Indices 1 2 3 4 5 6 
#
# 1 62.8785 8.0651 8.3595 0.0033 -7.6098 -0.0050
# 2 8.0651 166.2259 24.1277 -0.0039 -6.2049 -0.0008
# 3 8.3595 24.1277 123.6314 -0.0030 -7.5286 -0.0059
# 4 0.0033 -0.0039 -0.0030 30.2770 -0.0020 -14.0913
# 5 -7.6098 -6.2049 -7.5286 -0.0020 33.6998 0.0052
# 6 -0.0050 -0.0008 -0.0059 -14.0913 0.0052 49.6823
#
#
#
# Elastic Compliance Matrix: (Units=1/GPa)
#
#
# Indices 1 2 3 4 5 6 
#
# 1 0.016498 -0.000556 -0.000797 -0.000001 0.003445 0.000001
# 2 -0.000556 0.006236 -0.001133 0.000001 0.000770 0.000000
# 3 -0.000797 -0.001133 0.008455 0.000001 0.001500 0.000001
# 4 -0.000001 0.000001 0.000001 0.038051 0.000001 0.010792
# 5 0.003445 0.000770 0.001500 0.000001 0.030929 -0.000002
# 6 0.000001 0.000000 0.000001 0.010792 -0.000002 0.023189
#
#
# Mechanical properties :
#
#
# Convention : Reuss Voigt Hill
#
# Bulk Modulus (GPa) = 38.14322 48.20451 43.17387
# Shear Modulus (GPa) = 36.47813 43.54403 40.01108
#
# Velocity S-wave (km/s) = 3.71772 4.06185 3.89359
# Velocity P-wave (km/s) = 5.73418 6.34529 6.04746
#
# Compressibility (1/GPa) = 0.02621698
#
# Stress axis : x y z
#
# Youngs Moduli (GPa) = 60.61368 160.35894 118.27535
#
# Poissons Ratio (x) = 0.08918 0.09429
# Poissons Ratio (y) = 0.03371 0.13395
# Poissons Ratio (z) = 0.04832 0.18161
#
# Static dielectric constant tensor:
#      x y z
#    x 2.099760 0.000000 0.013300 
#    y 0.000000 2.166190 0.000000 
#    z 0.013300 0.000000 2.224270 
# 
# From -- ./inp_files/26275.got.cif
#   From: 2010.05.17/outbox.cif.g08.bks.cpg/sg8_14_cif.got.tgz:26275.got - 2010.06.03 19:46:02.
