data_PCOD9133997
_publ_section_title
;
Structure prediction by ZEFSAII (Michael W. Deem and Ramdas Pophale) SiO2 
 PCOD9133997
Probable space group: C C
;
_chemical_formula_sum "Si O2"
_cell_formula_units_Z 28
_cell_length_a 7.837951
_cell_length_b 20.902277
_cell_length_c 9.137453
_cell_angle_alpha 90.000000
_cell_angle_beta 133.381235
_cell_angle_gamma 90.000000
_cell_volume 1088.017836
_symmetry_space_group_name_H-M "C C"
_symmetry_group_IT_number 9
_symmetry_cell_setting 'monoclinic'
loop_
_space_group_symop_operation_xyz
x,y,z
x,-y,1/2+z
1/2+x,1/2+y,z
1/2+x,1/2-y,1/2+z
loop_
_atom_site_type_symbol
_atom_site_label
_atom_site_fract_x
_atom_site_fract_y
_atom_site_fract_z
Si Si1 0.946980 0.461781 0.837210
Si Si2 0.046219 0.875787 0.610009
Si Si3 0.743646 0.256177 0.579271
Si Si4 0.202476 0.160535 0.667809
Si Si5 0.322595 0.692152 0.249227
Si Si6 0.947853 0.416011 0.511577
Si Si7 0.583559 0.135328 0.656849
O O1 0.674473 0.443031 0.709914
O O2 0.970642 0.449825 0.679727
O O3 0.022003 0.530408 0.939046
O O4 0.074965 0.409900 0.012071
O O5 0.209353 0.829136 0.609054
O O6 0.991690 0.836005 0.723980
O O7 0.804677 0.882259 0.384451
O O8 0.536892 0.253368 0.311597
O O9 0.619409 0.206500 0.614704
O O10 0.309935 0.232143 0.730438
O O11 0.356694 0.129248 0.628022
O O12 0.934964 0.174357 0.470135
O O13 0.206880 0.111836 0.805073
O O14 0.092030 0.650239 0.092784
#
# Coordination Sequence:
#
# PCOD9133997 Si02
#       7
#     4   4   4   4   4   4   4
#     4  12  28  52  69 108 152 202 255 314 386 472
#     4  11  22  41  77 111 142 196 252 313 380 460
#     4  10  18  33  64 113 144 187 244 310 374 456
#     4  12  22  46  80 115 150 194 254 315 385 467
#     4  12  23  45  83 113 147 200 251 315 386 462
#     4  12  30  50  73 109 154 201 256 317 387 463
#     4  11  21  41  74 111 147 190 256 308 380 472
#
# _framework density 25.734873
#
# number of rings (size 3 to 8) (size 9 to 14) (size 15 to 20)
#    0.000    0.571    7.143    0.857    0.000    2.286 
#    2.571    0.000    0.000    0.000    0.000    0.000 
#    0.000    0.000    0.000    0.000    0.000    0.000 
#
# Total GULP energy -78072.577052 kJ/mol
# GULP energy per Si atom -5576.612647 kJ/mol
# Density = 2.567630 g / cm^3
# Si number density = 25.734873 Si / 1000 Ang^3
#
#
#
# Elastic Constant Matrix: (Units=GPa)
#
#
# Indices 1 2 3 4 5 6 
#
# 1 64.7941 14.3787 26.9444 0.0000 -9.6003 0.0000
# 2 14.3787 92.8096 51.8382 0.0000 -23.8832 0.0000
# 3 26.9444 51.8382 181.3542 0.0000 -5.1962 0.0000
# 4 0.0000 0.0000 0.0000 57.6545 0.0000 -54.6209
# 5 -9.6003 -23.8832 -5.1962 0.0000 43.9711 0.0000
# 6 0.0000 0.0000 0.0000 -54.6209 0.0000 102.8639
#
#
#
# Elastic Compliance Matrix: (Units=1/GPa)
#
#
# Indices 1 2 3 4 5 6 
#
# 1 0.016966 -0.000552 -0.002273 0.000000 0.003136 0.000000
# 2 -0.000552 0.015046 -0.004001 0.000000 0.007579 0.000000
# 3 -0.002273 -0.004001 0.006943 0.000000 -0.001849 0.000000
# 4 0.000000 0.000000 0.000000 0.034903 0.000000 0.018534
# 5 0.003136 0.007579 -0.001849 0.000000 0.027325 0.000000
# 6 0.000000 0.000000 0.000000 0.018534 0.000000 0.019563
#
#
# Mechanical properties :
#
#
# Convention : Reuss Voigt Hill
#
# Bulk Modulus (GPa) = 39.52402 58.36450 48.94426
# Shear Modulus (GPa) = 35.00632 57.28434 46.14533
#
# Velocity S-wave (km/s) = 3.69218 4.72311 4.23910
# Velocity P-wave (km/s) = 5.79377 7.24376 6.55896
#
# Compressibility (1/GPa) = 0.02530107
#
# Stress axis : x y z
#
# Youngs Moduli (GPa) = 58.94190 66.46504 144.03877
#
# Poissons Ratio (x) = 0.03668 0.32741
# Poissons Ratio (y) = 0.03253 0.57636
# Poissons Ratio (z) = 0.13398 0.26596
#
# Static dielectric constant tensor:
#      x y z
#    x 2.119960 0.000000 0.030420 
#    y 0.000000 1.757460 0.000000 
#    z 0.030420 0.000000 2.312160 
# 
# From -- ./inp_files/5853.got.cif
#   From: 2010.05.17/outbox.cif.g08.bks.cpg/sg9_3_cif.got.tgz:5853.got - 2010.06.03 20:04:27.
