data_PCOD9133573
_publ_section_title
;
Structure prediction by ZEFSAII (Michael W. Deem and Ramdas Pophale) SiO2 
 PCOD9133573
Probable space group: C M
;
_chemical_formula_sum "Si O2"
_cell_formula_units_Z 24
_cell_length_a 8.602751
_cell_length_b 20.469261
_cell_length_c 9.036328
_cell_angle_alpha 90.000000
_cell_angle_beta 131.455492
_cell_angle_gamma 90.000000
_cell_volume 1192.575511
_symmetry_space_group_name_H-M "C M"
_symmetry_group_IT_number 8
_symmetry_cell_setting 'monoclinic'
loop_
_space_group_symop_operation_xyz
x,y,z
x,-y,z
1/2+x,1/2+y,z
1/2+x,1/2-y,z
loop_
_atom_site_type_symbol
_atom_site_label
_atom_site_fract_x
_atom_site_fract_y
_atom_site_fract_z
Si Si1 0.553260 0.349625 0.532390
Si Si2 0.270236 0.575495 0.118027
Si Si3 0.298927 0.925725 0.933884
Si Si4 0.277236 0.805513 0.131501
Si Si5 0.835395 0.810486 0.946943
Si Si6 0.230137 0.277619 0.544915
O O1 0.423189 0.388602 0.328785
O O2 0.666941 0.399374 0.712941
O O3 0.395697 0.305449 0.532153
O O4 0.717708 0.300473 0.560774
O O5 0.327833 0.500000 0.128952
O O6 0.271943 0.620370 0.973986
O O7 0.040300 0.576899 0.041627
O O8 0.243420 0.000000 0.935961
O O9 0.264679 0.875054 0.043888
O O10 0.500152 0.797411 0.346347
O O11 0.245029 0.748385 0.988875
O O12 0.083214 0.800764 0.117619
O O13 0.778815 0.804995 0.739311
#
# Coordination Sequence:
#
# PCOD9133573 Si02
#       6
#     4   4   4   4   4   4
#     4  12  24  42  68  99 132 169 223 271 329 391
#     4  11  26  46  66  94 135 179 220 269 330 393
#     4  11  24  43  66  92 131 180 220 265 329 391
#     4  12  23  41  67  98 131 171 216 277 326 386
#     4  12  24  41  67  99 135 167 220 276 327 384
#     4  12  24  39  68 102 127 166 217 276 324 385
#
# _framework density 20.124510000000001
#
# number of rings (size 3 to 8) (size 9 to 14) (size 15 to 20)
#    0.000    0.333    6.667    2.500    2.333    0.667 
#    0.000    0.833    0.000    0.000    0.000    0.000 
#    0.000    0.000    0.000    0.000    0.000    0.000 
#
# Total GULP energy -67165.889778 kJ/mol
# GULP energy per Si atom -5597.157481 kJ/mol
# Density = 2.007871 g / cm^3
# Si number density = 20.124510 Si / 1000 Ang^3
#
#
#
# Elastic Constant Matrix: (Units=GPa)
#
#
# Indices 1 2 3 4 5 6 
#
# 1 44.9040 46.7319 -10.2017 0.0000 -8.8489 0.0000
# 2 46.7319 175.7978 36.4137 0.0000 -14.1974 0.0000
# 3 -10.2017 36.4137 101.0997 0.0000 -7.5893 0.0000
# 4 0.0000 0.0000 0.0000 30.8534 0.0000 -4.3887
# 5 -8.8489 -14.1974 -7.5893 0.0000 21.5334 0.0000
# 6 0.0000 0.0000 0.0000 -4.3887 0.0000 33.9770
#
#
#
# Elastic Compliance Matrix: (Units=1/GPa)
#
#
# Indices 1 2 3 4 5 6 
#
# 1 0.037832 -0.010920 0.008605 0.000000 0.011379 0.000000
# 2 -0.010920 0.009545 -0.004524 0.000000 0.000211 0.000000
# 3 0.008605 -0.004524 0.012768 0.000000 0.005053 0.000000
# 4 0.000000 0.000000 0.000000 0.033018 0.000000 0.004265
# 5 0.011379 0.000211 0.005053 0.000000 0.053036 0.000000
# 6 0.000000 0.000000 0.000000 0.004265 0.000000 0.029983
#
#
# Mechanical properties :
#
#
# Convention : Reuss Voigt Hill
#
# Bulk Modulus (GPa) = 21.52070 51.96548 36.74309
# Shear Modulus (GPa) = 24.34871 33.86326 29.10598
#
# Velocity S-wave (km/s) = 3.48214 4.10651 3.80714
# Velocity P-wave (km/s) = 5.18498 6.95432 6.13378
#
# Compressibility (1/GPa) = 0.04646689
#
# Stress axis : x y z
#
# Youngs Moduli (GPa) = 26.43285 104.76273 78.31886
#
# Poissons Ratio (x) = 1.14402 -0.67392
# Poissons Ratio (y) = 0.28865 0.35432
# Poissons Ratio (z) = -0.22745 0.47395
#
# Static dielectric constant tensor:
#      x y z
#    x 1.711740 0.000000 0.006320 
#    y 0.000000 1.685840 0.000000 
#    z 0.006320 0.000000 1.717650 
# 
# From -- ./inp_files/8635.got.cif
#   From: 2010.05.17/outbox.cif.g08.bks.cpg/sg8_5_cif.got.tgz:8635.got - 2010.06.03 19:46:02.
