data_PCOD9133789
_publ_section_title
;
Structure prediction by ZEFSAII (Michael W. Deem and Ramdas Pophale) SiO2 
 PCOD9133789
Probable space group: C C
;
_chemical_formula_sum "Si O2"
_cell_formula_units_Z 32
_cell_length_a 17.436519
_cell_length_b 15.884112
_cell_length_c 10.850342
_cell_angle_alpha 90.000000
_cell_angle_beta 26.615744
_cell_angle_gamma 90.000000
_cell_volume 1346.321540
_symmetry_space_group_name_H-M "C C"
_symmetry_group_IT_number 9
_symmetry_cell_setting 'monoclinic'
loop_
_space_group_symop_operation_xyz
x,y,z
x,-y,1/2+z
1/2+x,1/2+y,z
1/2+x,1/2-y,1/2+z
loop_
_atom_site_type_symbol
_atom_site_label
_atom_site_fract_x
_atom_site_fract_y
_atom_site_fract_z
Si Si1 0.945260 0.769808 0.183890
Si Si2 0.340207 0.841298 0.248539
Si Si3 0.723521 0.625637 0.423434
Si Si4 0.985751 0.823655 0.857388
Si Si5 0.784941 0.154986 0.294829
Si Si6 0.919425 0.356226 0.403908
Si Si7 0.431793 0.513378 0.941988
Si Si8 0.673792 0.879990 0.684369
O O1 0.867168 0.675541 0.296511
O O2 0.776437 0.828277 0.436723
O O3 0.075261 0.805745 0.099285
O O4 0.030093 0.789472 0.930299
O O5 0.135293 0.838517 0.542081
O O6 0.381338 0.740991 0.185491
O O7 0.371679 0.884971 0.336023
O O8 0.469892 0.884540 0.966973
O O9 0.615630 0.548446 0.632704
O O10 0.819701 0.601794 0.158583
O O11 0.879656 0.744091 0.964093
O O12 0.915072 0.915316 0.983802
O O13 0.625556 0.139737 0.614002
O O14 0.705268 0.167957 0.271173
O O15 0.892475 0.070572 0.118798
O O16 0.284516 0.537631 0.054280
#
# Coordination Sequence:
#
# PCOD9133789 Si02
#       8
#     4   4   4   4   4   4   4   4
#     4  10  19  34  59  81 110 148 186 230 273 336
#     4  10  16  33  57  78 102 147 188 227 262 337
#     4  10  19  35  58  83 111 147 187 232 276 333
#     4  10  20  34  55  78 113 140 186 229 280 332
#     4   8  17  31  52  77 108 139 184 220 275 321
#     4   9  18  33  54  80 100 147 185 225 266 334
#     4   9  19  36  50  78 113 144 174 233 283 321
#     4   8  18  32  53  75 111 146 176 228 277 326
#
# _framework density 23.768469
#
# number of rings (size 3 to 8) (size 9 to 14) (size 15 to 20)
#    0.750    2.000    1.250    0.750    0.000    0.000 
#    4.500    3.750    0.000    0.000    0.000    0.000 
#    0.000    0.000    0.000    0.000    0.000    0.000 
#
# Total GULP energy -89072.730404 kJ/mol
# GULP energy per Si atom -5567.045650 kJ/mol
# Density = 2.371437 g / cm^3
# Si number density = 23.768469 Si / 1000 Ang^3
#
#
#
# Elastic Constant Matrix: (Units=GPa)
#
#
# Indices 1 2 3 4 5 6 
#
# 1 24.7112 3.3355 1.7229 -0.0007 1.7732 0.0004
# 2 3.3355 70.4031 43.0620 -0.0004 2.7733 0.0002
# 3 1.7229 43.0620 157.2361 -0.0014 0.1356 0.0009
# 4 -0.0007 -0.0004 -0.0014 14.0510 0.0007 7.1607
# 5 1.7732 2.7733 0.1356 0.0007 18.0003 -0.0004
# 6 0.0004 0.0002 0.0009 7.1607 -0.0004 5.5979
#
#
#
# Elastic Compliance Matrix: (Units=1/GPa)
#
#
# Indices 1 2 3 4 5 6 
#
# 1 0.040980 -0.001827 0.000055 0.000012 -0.003756 -0.000018
# 2 -0.001827 0.017265 -0.004706 0.000000 -0.002445 0.000000
# 3 0.000055 -0.004706 0.007648 0.000003 0.000662 -0.000005
# 4 0.000012 0.000000 0.000003 0.204453 -0.000015 -0.261534
# 5 -0.003756 -0.002445 0.000662 -0.000015 0.056296 0.000024
# 6 -0.000018 0.000000 -0.000005 -0.261534 0.000024 0.513190
#
#
# Mechanical properties :
#
#
# Convention : Reuss Voigt Hill
#
# Bulk Modulus (GPa) = 18.89095 38.73236 28.81166
# Shear Modulus (GPa) = 5.74425 21.14519 13.44472
#
# Velocity S-wave (km/s) = 1.55628 2.98591 2.38093
# Velocity P-wave (km/s) = 3.34582 5.31212 4.43920
#
# Compressibility (1/GPa) = 0.05293540
#
# Stress axis : x y z
#
# Youngs Moduli (GPa) = 24.40225 57.91936 130.75993
#
# Poissons Ratio (x) = 0.10582 -0.00713
# Poissons Ratio (y) = 0.04458 0.61540
# Poissons Ratio (z) = -0.00133 0.27259
#
# Static dielectric constant tensor:
#      x y z
#    x 2.023970 0.000000 -0.038170 
#    y 0.000000 1.876570 0.000000 
#    z -0.038170 0.000000 1.998000 
# 
# From -- ./inp_files/28141.got.cif
#   From: 2010.05.17/outbox.cif.g08.bks.cpg/sg9_15_cif.got.tgz:28141.got - 2010.06.03 20:04:27.
