data_PCOD9133363
_publ_section_title
;
Structure prediction by ZEFSAII (Michael W. Deem and Ramdas Pophale) SiO2 
 PCOD9133363
Probable space group: C M
;
_chemical_formula_sum "Si O2"
_cell_formula_units_Z 30
_cell_length_a 5.201241
_cell_length_b 32.396671
_cell_length_c 7.520563
_cell_angle_alpha 90.000000
_cell_angle_beta 73.615446
_cell_angle_gamma 90.000000
_cell_volume 1215.774215
_symmetry_space_group_name_H-M "C M"
_symmetry_group_IT_number 8
_symmetry_cell_setting 'monoclinic'
loop_
_space_group_symop_operation_xyz
x,y,z
x,-y,z
1/2+x,1/2+y,z
1/2+x,1/2-y,z
loop_
_atom_site_type_symbol
_atom_site_label
_atom_site_fract_x
_atom_site_fract_y
_atom_site_fract_z
Si Si1 0.820100 0.061849 0.316210
Si Si2 0.222840 0.730246 0.433100
Si Si3 0.921556 0.500000 0.568773
Si Si4 0.917404 0.570415 0.091887
Si Si5 0.930740 0.772258 0.990773
Si Si6 0.607083 0.860956 0.534907
Si Si7 0.757982 0.862982 0.917979
Si Si8 0.719149 0.423032 0.752419
O O1 0.643908 0.051589 0.174398
O O2 0.791154 0.109833 0.377957
O O3 0.133595 0.055509 0.224198
O O4 0.654989 0.035884 0.492359
O O5 0.482028 0.737372 0.505037
O O6 0.343433 0.734381 0.212127
O O7 0.096112 0.685149 0.469793
O O8 0.694521 0.463519 0.642104
O O9 0.903071 0.561455 0.883747
O O10 0.992505 0.619658 0.070345
O O11 0.735412 0.742372 0.917427
O O12 0.873017 0.819853 0.960787
O O13 0.699829 0.858865 0.720984
O O14 0.334164 0.886675 0.605736
O O15 0.969414 0.900390 0.892677
#
# Coordination Sequence:
#
# PCOD9133363 Si02
#       8
#     4   4   2   4   4   4   4   4
#     4  11  25  46  72 104 132 188 225 298 336 425
#     4  10  23  41  63  97 135 182 231 289 342 402
#     4  10  26  50  70 106 148 176 236 290 362 418
#     4  11  24  46  73 102 136 179 242 270 353 410
#     4  10  24  42  66 100 139 185 238 291 340 404
#     4  10  25  41  68 101 142 180 231 279 362 413
#     4  11  24  45  72 104 144 189 233 287 354 420
#     4  10  24  48  70 105 139 192 221 296 350 423
#
# _framework density 24.675633999999999
#
# number of rings (size 3 to 8) (size 9 to 14) (size 15 to 20)
#    0.000    1.600    1.333    0.800    9.333    4.800 
#    4.800    0.667    0.000    0.000    0.000    0.000 
#    0.000    0.000    0.000    0.000    0.000    0.000 
#
# Total GULP energy -83559.291711 kJ/mol
# GULP energy per Si atom -5570.619447 kJ/mol
# Density = 2.461947 g / cm^3
# Si number density = 24.675634 Si / 1000 Ang^3
#
#
#
# Elastic Constant Matrix: (Units=GPa)
#
#
# Indices 1 2 3 4 5 6 
#
# 1 83.0176 -2.6041 3.1598 0.0000 1.4794 0.0000
# 2 -2.6041 69.8464 -20.9232 0.0000 -14.9722 0.0000
# 3 3.1598 -20.9232 53.6721 0.0000 -6.7142 0.0000
# 4 0.0000 0.0000 0.0000 440.9706 0.0000 171.9250
# 5 1.4794 -14.9722 -6.7142 0.0000 27.6725 0.0000
# 6 0.0000 0.0000 0.0000 171.9250 0.0000 83.0536
#
#
#
# Elastic Compliance Matrix: (Units=1/GPa)
#
#
# Indices 1 2 3 4 5 6 
#
# 1 0.012092 0.000035 -0.000801 0.000000 -0.000822 0.000000
# 2 0.000035 0.019937 0.009405 0.000000 0.013067 0.000000
# 3 -0.000801 0.009405 0.023706 0.000000 0.010883 0.000000
# 4 0.000000 0.000000 0.000000 0.011754 0.000000 -0.024331
# 5 -0.000822 0.013067 0.010883 0.000000 0.045891 0.000000
# 6 0.000000 0.000000 0.000000 -0.024331 0.000000 0.062407
#
#
# Mechanical properties :
#
#
# Convention : Reuss Voigt Hill
#
# Bulk Modulus (GPa) = 13.69662 18.42232 16.05947
# Shear Modulus (GPa) = 27.34504 125.46625 76.40565
#
# Velocity S-wave (km/s) = 3.33254 7.13839 5.57057
# Velocity P-wave (km/s) = 4.51337 8.68471 6.92079
#
# Compressibility (1/GPa) = 0.07301072
#
# Stress axis : x y z
#
# Youngs Moduli (GPa) = 82.70018 50.15899 42.18258
#
# Poissons Ratio (x) = -0.00173 0.03380
# Poissons Ratio (y) = -0.00286 -0.39671
# Poissons Ratio (z) = 0.06626 -0.47172
#
# Static dielectric constant tensor:
#      x y z
#    x 2.069410 0.000000 0.014570 
#    y 0.000000 1.875090 0.000000 
#    z 0.014570 0.000000 2.026100 
# 
# From -- ./inp_files/7198.got.cif
#   From: 2010.05.17/outbox.cif.g08.bks.cpg/sg8_4_cif.got.tgz:7198.got - 2010.06.03 19:46:02.
