data_PCOD9133666
_publ_section_title
;
Structure prediction by ZEFSAII (Michael W. Deem and Ramdas Pophale) SiO2 
 PCOD9133666
Probable space group: C M
;
_chemical_formula_sum "Si O2"
_cell_formula_units_Z 16
_cell_length_a 24.000000
_cell_length_b 9.000000
_cell_length_c 15.000000
_cell_angle_alpha 90.000000
_cell_angle_beta 150.000000
_cell_angle_gamma 90.000000
_cell_volume 1620.000000
_symmetry_space_group_name_H-M "C M"
_symmetry_group_IT_number 8
_symmetry_cell_setting 'monoclinic'
loop_
_space_group_symop_operation_xyz
x,y,z
x,-y,z
1/2+x,1/2+y,z
1/2+x,1/2-y,z
loop_
_atom_site_type_symbol
_atom_site_label
_atom_site_fract_x
_atom_site_fract_y
_atom_site_fract_z
Si Si1 0.681260 0.822815 0.515610
Si Si2 0.060043 0.176956 0.065225
Si Si3 0.740889 0.822426 0.918398
Si Si4 0.103483 0.177187 0.582942
Si Si5 0.849088 0.180573 0.247752
Si Si6 0.295491 0.320478 0.373140
Si Si7 0.891752 0.180655 0.687082
Si Si8 0.471383 0.325195 0.133764
O O1 0.676678 0.750045 0.606560
O O2 0.783843 0.773781 0.595491
O O3 0.567604 0.773154 0.310458
O O4 0.687435 0.000000 0.533796
O O5 0.174513 0.263593 0.234795
O O6 0.978963 0.197758 0.037918
O O7 0.082438 0.000000 0.090996
O O8 0.999415 0.228599 0.891215
O O9 0.765359 0.773643 0.053440
O O10 0.853535 0.796279 0.016800
O O11 0.719692 0.000000 0.887254
O O12 0.644867 0.734165 0.735567
O O13 0.974397 0.222054 0.393296
O O14 0.110971 0.000000 0.587476
O O15 0.822390 0.232792 0.310569
O O16 0.846963 0.000000 0.246202
O O17 0.295590 0.500000 0.371649
O O18 0.379336 0.271341 0.567722
O O19 0.892367 0.000000 0.688571
O O20 0.497146 0.500000 0.186390
#
# Coordination Sequence:
#
# PCOD9133666 Si02
#       8
#     4   4   4   4   4   4   4   4
#     4  11  20  34  58  86 113 148 187 226 277 338
#     4  10  20  35  56  82 111 146 183 228 282 331
#     4  10  20  38  59  82 112 150 186 227 282 338
#     4  11  22  38  58  86 114 146 186 231 281 335
#     4   9  20  38  59  78 109 151 188 228 284 333
#     4  10  20  38  59  80 107 147 193 234 272 324
#     4   9  19  35  56  81 112 147 183 220 274 336
#     4  10  19  34  57  81 114 151 184 226 284 337
#
# _framework density 9.8765429999999999
#
# number of rings (size 3 to 8) (size 9 to 14) (size 15 to 20)
#    0.000    2.000    2.500    1.500    0.000    3.500 
#    0.000    6.250    0.000    0.000    0.000    0.000 
#    0.000    0.000    0.000    0.000    0.000    0.000 
#
# Total GULP energy -89316.165323 kJ/mol
# GULP energy per Si atom -5582.260333 kJ/mol
# Density = 0.985406 g / cm^3
# Si number density = 9.876543 Si / 1000 Ang^3
#
#
#
# Elastic Constant Matrix: (Units=GPa)
#
#
# Indices 1 2 3 4 5 6 
#
# 1 73.0764 6.0888 4.0646 0.0000 -34.2265 0.0000
# 2 6.0888 13.9309 10.1304 0.0000 -8.5299 0.0000
# 3 4.0646 10.1304 76.8873 0.0000 -37.9839 0.0000
# 4 0.0000 0.0000 0.0000 24.0241 0.0000 -2.7226
# 5 -34.2265 -8.5299 -37.9839 0.0000 35.3239 0.0000
# 6 0.0000 0.0000 0.0000 -2.7226 0.0000 19.4715
#
#
#
# Elastic Compliance Matrix: (Units=1/GPa)
#
#
# Indices 1 2 3 4 5 6 
#
# 1 0.099693 0.010989 0.090263 0.000000 0.196309 0.000000
# 2 0.010989 0.085631 0.007705 0.000000 0.039610 0.000000
# 3 0.090263 0.007705 0.109529 0.000000 0.207096 0.000000
# 4 0.000000 0.000000 0.000000 0.042295 0.000000 0.005914
# 5 0.196309 0.039610 0.207096 0.000000 0.450776 0.000000
# 6 0.000000 0.000000 0.000000 0.005914 0.000000 0.052184
#
#
# Mechanical properties :
#
#
# Convention : Reuss Voigt Hill
#
# Bulk Modulus (GPa) = 1.95021 22.71803 12.33412
# Shear Modulus (GPa) = 6.30424 25.33795 15.82109
#
# Velocity S-wave (km/s) = 1.78842 3.58541 2.83316
# Velocity P-wave (km/s) = 2.29217 5.35408 4.11827
#
# Compressibility (1/GPa) = 0.51276528
#
# Stress axis : x y z
#
# Youngs Moduli (GPa) = 10.03081 11.67807 9.12999
#
# Poissons Ratio (x) = -0.12833 -0.82410
# Poissons Ratio (y) = -0.11022 -0.07035
# Poissons Ratio (z) = -0.90541 -0.08998
#
# Static dielectric constant tensor:
#      x y z
#    x 1.701230 0.000000 -0.034260 
#    y 0.000000 1.653170 0.000000 
#    z -0.034260 0.000000 1.712430 
# 
# From -- ./inp_files/26519.got.cif
#   From: 2010.05.17/outbox.ucp.g08.bks.cvg/sg8_14_cif.got.tgz:26519.got - 2010.06.11 13:00:03.
