data_PCOD9133569
_publ_section_title
;
Structure prediction by ZEFSAII (Michael W. Deem and Ramdas Pophale) SiO2 
 PCOD9133569
Probable space group: C M
;
_chemical_formula_sum "Si O2"
_cell_formula_units_Z 32
_cell_length_a 13.943530
_cell_length_b 15.429580
_cell_length_c 12.108951
_cell_angle_alpha 90.000000
_cell_angle_beta 149.191518
_cell_angle_gamma 90.000000
_cell_volume 1334.281652
_symmetry_space_group_name_H-M "C M"
_symmetry_group_IT_number 8
_symmetry_cell_setting 'monoclinic'
loop_
_space_group_symop_operation_xyz
x,y,z
x,-y,z
1/2+x,1/2+y,z
1/2+x,1/2-y,z
loop_
_atom_site_type_symbol
_atom_site_label
_atom_site_fract_x
_atom_site_fract_y
_atom_site_fract_z
Si Si1 0.116360 0.894832 0.597440
Si Si2 0.217903 0.598676 0.131378
Si Si3 0.716205 0.601626 0.456535
Si Si4 0.272732 0.599208 0.956011
Si Si5 0.916584 0.161464 0.881436
Si Si6 0.953395 0.661419 0.035236
Si Si7 0.319999 0.100826 0.326150
Si Si8 0.105870 0.606864 0.419258
O O1 0.217952 0.864821 0.583493
O O2 0.232595 0.856656 0.813430
O O3 0.902446 0.864566 0.373163
O O4 0.120454 0.000000 0.608460
O O5 0.272776 0.500000 0.155935
O O6 0.175551 0.638134 0.968954
O O7 0.053344 0.593105 0.054725
O O8 0.768917 0.500000 0.517896
O O9 0.821931 0.638593 0.453595
O O10 0.494876 0.604075 0.206292
O O11 0.216564 0.500000 0.884352
O O12 0.266627 0.639568 0.829912
O O13 0.989997 0.253122 0.999041
O O14 0.804190 0.143535 0.658662
O O15 0.103907 0.104755 0.072915
O O16 0.042327 0.651519 0.242586
O O17 0.452282 0.133425 0.359647
O O18 0.368689 0.000000 0.386714
O O19 0.111272 0.500000 0.414107
#
# Coordination Sequence:
#
# PCOD9133569 Si02
#       8
#     4   4   4   4   4   4   4   4
#     4   9  18  35  59  87 123 165 208 260 316 370
#     4   9  19  38  65  92 119 156 205 262 317 371
#     4   7  12  27  55  87 111 137 186 250 305 348
#     4   8  15  33  61  87 112 151 206 259 303 358
#     4  11  24  40  62  90 127 168 205 261 326 374
#     4  12  26  39  59  93 131 167 207 258 317 385
#     4   9  19  39  66  92 120 162 217 268 311 369
#     4  11  25  45  67  92 126 172 222 260 302 381
#
# _framework density 23.982942000000001
#
# number of rings (size 3 to 8) (size 9 to 14) (size 15 to 20)
#    0.000    2.500    0.000    4.500    0.000    7.000 
#    0.000    3.750    0.000    0.000    0.000    0.000 
#    0.000    0.000    0.000    0.000    0.000    0.000 
#
# Total GULP energy -89237.420641 kJ/mol
# GULP energy per Si atom -5577.338790 kJ/mol
# Density = 2.392836 g / cm^3
# Si number density = 23.982942 Si / 1000 Ang^3
#
#
#
# Elastic Constant Matrix: (Units=GPa)
#
#
# Indices 1 2 3 4 5 6 
#
# 1 59.0890 -3.9536 25.0797 0.0000 -2.5335 0.0000
# 2 -3.9536 48.5013 7.7627 0.0000 -9.3762 0.0000
# 3 25.0797 7.7627 163.1154 0.0000 -33.3313 0.0000
# 4 0.0000 0.0000 0.0000 13.5352 0.0000 -9.6490
# 5 -2.5335 -9.3762 -33.3313 0.0000 33.0712 0.0000
# 6 0.0000 0.0000 0.0000 -9.6490 0.0000 -1.6823
#
#
#
# Elastic Compliance Matrix: (Units=1/GPa)
#
#
# Indices 1 2 3 4 5 6 
#
# 1 0.018329 0.001751 -0.003165 0.000000 -0.001289 0.000000
# 2 0.001751 0.021991 -0.000018 0.000000 0.006351 0.000000
# 3 -0.003165 -0.000018 0.008271 0.000000 0.008088 0.000000
# 4 0.000000 0.000000 0.000000 0.014519 0.000000 -0.083272
# 5 -0.001289 0.006351 0.008088 0.000000 0.040092 0.000000
# 6 0.000000 0.000000 0.000000 -0.083272 0.000000 -0.116810
#
#
# Mechanical properties :
#
#
# Convention : Reuss Voigt Hill
#
# Bulk Modulus (GPa) = 21.86847 36.49815 29.18331
# Shear Modulus (GPa) = 1111.68184 25.10593 568.39388
#
# Velocity S-wave (km/s) = 21.55311 3.23898 15.41148
# Velocity P-wave (km/s) = 25.07030 5.40734 18.13504
#
# Compressibility (1/GPa) = 0.04572793
#
# Stress axis : x y z
#
# Youngs Moduli (GPa) = 54.55877 45.47230 120.90575
#
# Poissons Ratio (x) = -0.07964 0.38266
# Poissons Ratio (y) = -0.09556 0.00219
# Poissons Ratio (z) = 0.17267 0.00082
#
# Static dielectric constant tensor:
#      x y z
#    x 1.936580 0.000000 -0.005930 
#    y 0.000000 1.879930 0.000000 
#    z -0.005930 0.000000 1.974470 
# 
# From -- ./inp_files/22428.got.cif
#   From: 2010.05.17/outbox.cif.g08.bks.cpg/sg8_12_cif.got.tgz:22428.got - 2010.06.03 19:46:02.
