data_PCOD9133533
_publ_section_title
;
Structure prediction by ZEFSAII (Michael W. Deem and Ramdas Pophale) SiO2 
 PCOD9133533
Probable space group: C M
;
_chemical_formula_sum "Si O2"
_cell_formula_units_Z 24
_cell_length_a 7.712805
_cell_length_b 16.403864
_cell_length_c 7.563945
_cell_angle_alpha 90.000000
_cell_angle_beta 90.035902
_cell_angle_gamma 90.000000
_cell_volume 956.988653
_symmetry_space_group_name_H-M "C M"
_symmetry_group_IT_number 8
_symmetry_cell_setting 'monoclinic'
loop_
_space_group_symop_operation_xyz
x,y,z
x,-y,z
1/2+x,1/2+y,z
1/2+x,1/2-y,z
loop_
_atom_site_type_symbol
_atom_site_label
_atom_site_fract_x
_atom_site_fract_y
_atom_site_fract_z
Si Si1 0.040760 0.826114 0.223550
Si Si2 0.649972 0.669161 0.715212
Si Si3 0.299298 0.329927 0.561887
Si Si4 0.189295 0.500000 0.590408
Si Si5 0.104822 0.000000 0.663962
Si Si6 0.969416 0.000000 0.051174
Si Si7 0.881411 0.332154 0.070373
Si Si8 0.064245 0.500000 0.976787
O O1 0.247715 0.828940 0.232807
O O2 0.924193 0.818012 0.396057
O O3 0.996972 0.748138 0.099045
O O4 0.000780 0.915941 0.150386
O O5 0.439068 0.659661 0.724822
O O6 0.688824 0.752270 0.614755
O O7 0.694675 0.584393 0.615372
O O8 0.763276 0.671823 0.893102
O O9 0.176394 0.407545 0.520549
O O10 0.403759 0.500000 0.603220
O O11 0.067868 0.500000 0.763431
O O12 0.090023 0.000000 0.877561
O O13 0.768020 0.000000 0.009337
O O14 0.982802 0.417255 0.053885
#
# Coordination Sequence:
#
# PCOD9133533 Si02
#       8
#     4   4   4   2   2   2   4   2
#     4  12  25  44  70  99 142 175 222 276 345 400
#     4  11  23  42  68  99 130 175 229 269 333 392
#     4  11  25  44  67  99 136 180 213 277 342 401
#     4   9  23  40  67  93 134 170 223 267 332 395
#     4   9  19  40  64  98 126 173 217 275 321 391
#     4  11  22  42  69  98 137 174 221 278 340 396
#     4  12  25  43  69 105 130 179 229 281 328 398
#     4  11  26  42  70 103 129 173 235 286 323 390
#
# _framework density 25.078669000000001
#
# number of rings (size 3 to 8) (size 9 to 14) (size 15 to 20)
#    0.000    1.000    1.667    4.500    9.333    0.000 
#    0.000    2.500    3.667    0.000    0.000    0.000 
#    0.000    0.000    0.000    0.000    0.000    0.000 
#
# Total GULP energy -67046.686605 kJ/mol
# GULP energy per Si atom -5587.223884 kJ/mol
# Density = 2.502159 g / cm^3
# Si number density = 25.078669 Si / 1000 Ang^3
#
#
#
# Elastic Constant Matrix: (Units=GPa)
#
#
# Indices 1 2 3 4 5 6 
#
# 1 60.5360 57.5291 6.9016 0.0000 -18.4013 0.0000
# 2 57.5291 252.9117 39.9162 0.0000 -12.2093 0.0000
# 3 6.9016 39.9162 50.7536 0.0000 -10.4305 0.0000
# 4 0.0000 0.0000 0.0000 27.5945 0.0000 -12.6559
# 5 -18.4013 -12.2093 -10.4305 0.0000 28.8959 0.0000
# 6 0.0000 0.0000 0.0000 -12.6559 0.0000 55.0246
#
#
#
# Elastic Compliance Matrix: (Units=1/GPa)
#
#
# Indices 1 2 3 4 5 6 
#
# 1 0.026526 -0.005950 0.004350 0.000000 0.015948 0.000000
# 2 -0.005950 0.005861 -0.004397 0.000000 -0.002900 0.000000
# 3 0.004350 -0.004397 0.024580 0.000000 0.009785 0.000000
# 4 0.000000 0.000000 0.000000 0.040513 0.000000 0.009318
# 5 0.015948 -0.002900 0.009785 0.000000 0.047070 0.000000
# 6 0.000000 0.000000 0.000000 0.009318 0.000000 0.020317
#
#
# Mechanical properties :
#
#
# Convention : Reuss Voigt Hill
#
# Bulk Modulus (GPa) = 22.23500 63.65501 42.94501
# Shear Modulus (GPa) = 26.06179 39.62663 32.84421
#
# Velocity S-wave (km/s) = 3.22716 3.97935 3.62283
# Velocity P-wave (km/s) = 4.77194 6.82282 5.88737
#
# Compressibility (1/GPa) = 0.04497414
#
# Stress axis : x y z
#
# Youngs Moduli (GPa) = 37.69919 170.60775 40.68293
#
# Poissons Ratio (x) = 1.01519 -0.17699
# Poissons Ratio (y) = 0.22433 0.17887
# Poissons Ratio (z) = -0.16401 0.75010
#
# Static dielectric constant tensor:
#      x y z
#    x 2.046300 0.000000 0.101230 
#    y 0.000000 2.154740 0.000000 
#    z 0.101230 0.000000 2.104470 
# 
# From -- ./inp_files/7870.got.cif
#   From: 2010.05.17/outbox.cif.g08.bks.cpg/sg8_4_cif.got.tgz:7870.got - 2010.06.03 19:46:02.
