data_PCOD9133384
_publ_section_title
;
Structure prediction by ZEFSAII (Michael W. Deem and Ramdas Pophale) SiO2 
 PCOD9133384
Probable space group: C M
;
_chemical_formula_sum "Si O2"
_cell_formula_units_Z 28
_cell_length_a 9.551369
_cell_length_b 15.572185
_cell_length_c 8.850876
_cell_angle_alpha 90.000000
_cell_angle_beta 64.762725
_cell_angle_gamma 90.000000
_cell_volume 1190.786619
_symmetry_space_group_name_H-M "C M"
_symmetry_group_IT_number 8
_symmetry_cell_setting 'monoclinic'
loop_
_space_group_symop_operation_xyz
x,y,z
x,-y,z
1/2+x,1/2+y,z
1/2+x,1/2-y,z
loop_
_atom_site_type_symbol
_atom_site_label
_atom_site_fract_x
_atom_site_fract_y
_atom_site_fract_z
Si Si1 0.910410 0.097536 0.858120
Si Si2 0.375568 0.221499 0.036282
Si Si3 0.120263 0.405453 0.782449
Si Si4 0.572851 0.909376 0.446307
Si Si5 0.117389 0.901587 0.253317
Si Si6 0.321799 0.293312 0.357529
Si Si7 0.224805 0.133398 0.545872
O O1 0.791721 0.102128 0.771717
O O2 0.085801 0.109120 0.719367
O O3 0.895086 0.000000 0.929730
O O4 0.870649 0.181464 0.975272
O O5 0.222089 0.161734 0.102556
O O6 0.406579 0.230912 0.200666
O O7 0.510587 0.168920 0.893695
O O8 0.061153 0.500000 0.861271
O O9 0.114771 0.406889 0.604319
O O10 0.670414 0.829721 0.341505
O O11 0.390277 0.903727 0.513897
O O12 0.625800 0.000000 0.355425
O O13 0.176832 0.894926 0.399058
O O14 0.941961 0.867639 0.337039
O O15 0.126752 0.000000 0.198519
O O16 0.259036 0.235440 0.522129
#
# Coordination Sequence:
#
# PCOD9133384 Si02
#       7
#     4   4   4   4   4   4   4
#     4  11  24  43  66  92 127 170 213 259 314 376
#     4  11  24  41  63  94 128 166 210 260 313 374
#     4  10  23  43  66  92 124 165 211 260 315 373
#     4  11  23  40  64  92 122 158 205 259 309 364
#     4  11  23  42  68  95 127 167 211 260 315 377
#     4  11  24  41  63  92 127 165 207 256 312 372
#     4  11  23  42  65  93 125 163 210 260 313 370
#
# _framework density 23.513869
#
# number of rings (size 3 to 8) (size 9 to 14) (size 15 to 20)
#    0.000    1.143    0.000    6.429    0.000    8.000 
#    0.000    2.857    0.000    0.000    0.000    0.000 
#    0.000    0.000    0.000    0.000    0.000    0.000 
#
# Total GULP energy -78274.922075 kJ/mol
# GULP energy per Si atom -5591.065862 kJ/mol
# Density = 2.346035 g / cm^3
# Si number density = 23.513869 Si / 1000 Ang^3
#
#
#
# Elastic Constant Matrix: (Units=GPa)
#
#
# Indices 1 2 3 4 5 6 
#
# 1 109.2509 30.9651 20.2052 0.0000 -25.1671 0.0000
# 2 30.9651 190.6391 39.9833 0.0000 -23.4645 0.0000
# 3 20.2052 39.9833 80.3022 0.0000 -22.5499 0.0000
# 4 0.0000 0.0000 0.0000 24.1021 0.0000 -6.9681
# 5 -25.1671 -23.4645 -22.5499 0.0000 28.5411 0.0000
# 6 0.0000 0.0000 0.0000 -6.9681 0.0000 28.2754
#
#
#
# Elastic Compliance Matrix: (Units=1/GPa)
#
#
# Indices 1 2 3 4 5 6 
#
# 1 0.011570 -0.000717 0.000187 0.000000 0.009761 0.000000
# 2 -0.000717 0.006142 -0.002104 0.000000 0.002755 0.000000
# 3 0.000187 -0.002104 0.016725 0.000000 0.011649 0.000000
# 4 0.000000 0.000000 0.000000 0.044673 0.000000 0.011009
# 5 0.009761 0.002755 0.011649 0.000000 0.055112 0.000000
# 6 0.000000 0.000000 0.000000 0.011009 0.000000 0.038079
#
#
# Mechanical properties :
#
#
# Convention : Reuss Voigt Hill
#
# Bulk Modulus (GPa) = 34.28395 62.49993 48.39194
# Shear Modulus (GPa) = 26.69588 35.45295 31.07441
#
# Velocity S-wave (km/s) = 3.37311 3.88718 3.63924
# Velocity P-wave (km/s) = 5.45733 6.83993 6.18737
#
# Compressibility (1/GPa) = 0.02916816
#
# Stress axis : x y z
#
# Youngs Moduli (GPa) = 86.42719 162.80217 59.79123
#
# Poissons Ratio (x) = 0.11675 -0.01116
# Poissons Ratio (y) = 0.06198 0.12582
# Poissons Ratio (z) = -0.01614 0.34259
#
# Static dielectric constant tensor:
#      x y z
#    x 1.855360 0.000000 0.011970 
#    y 0.000000 1.936190 0.000000 
#    z 0.011970 0.000000 1.872110 
# 
# From -- ./inp_files/18838.got.cif
#   From: 2010.05.17/outbox.cif.g08.bks.cpg/sg8_10_cif.got.tgz:18838.got - 2010.06.03 19:46:02.
