data_PCOD9133718
_publ_section_title
;
Structure prediction by ZEFSAII (Michael W. Deem and Ramdas Pophale) SiO2 
 PCOD9133718
Probable space group: C M
;
_chemical_formula_sum "Si O2"
_cell_formula_units_Z 16
_cell_length_a 15.000000
_cell_length_b 18.000000
_cell_length_c 12.000000
_cell_angle_alpha 90.000000
_cell_angle_beta 30.000000
_cell_angle_gamma 90.000000
_cell_volume 1620.000000
_symmetry_space_group_name_H-M "C M"
_symmetry_group_IT_number 8
_symmetry_cell_setting 'monoclinic'
loop_
_space_group_symop_operation_xyz
x,y,z
x,-y,z
1/2+x,1/2+y,z
1/2+x,1/2-y,z
loop_
_atom_site_type_symbol
_atom_site_label
_atom_site_fract_x
_atom_site_fract_y
_atom_site_fract_z
Si Si1 0.823510 0.800618 0.134700
Si Si2 0.405900 0.804665 0.628298
Si Si3 0.109144 0.413657 0.760654
Si Si4 0.798324 0.663593 0.988205
Si Si5 0.209041 0.350117 0.896036
Si Si6 0.851014 0.657381 0.436356
Si Si7 0.398065 0.679053 0.316463
Si Si8 0.973825 0.088048 0.793360
O O1 0.615338 0.789133 0.386893
O O2 0.850295 0.735276 0.010598
O O3 0.911884 0.810049 0.164790
O O4 0.878763 0.872184 0.002143
O O5 0.284365 0.731250 0.779424
O O6 0.358653 0.847541 0.563709
O O7 0.384877 0.842527 0.771406
O O8 0.140754 0.500000 0.728645
O O9 0.150197 0.384074 0.841325
O O10 0.250433 0.379115 0.519008
O O11 0.904116 0.397942 0.945443
O O12 0.586563 0.665651 0.181020
O O13 0.370633 0.386335 0.792502
O O14 0.038378 0.354721 0.166158
O O15 0.819399 0.743681 0.446089
O O16 0.682170 0.612315 0.572246
O O17 0.960513 0.000000 0.816938
#
# Coordination Sequence:
#
# PCOD9133718 Si02
#       8
#     4   4   4   4   4   4   4   4
#     4  12  23  44  72 104 136 179 240 291 347 408
#     4  12  20  44  76 108 129 176 239 300 343 400
#     4  12  28  45  67 102 145 187 226 279 353 429
#     4  12  24  44  72 106 135 178 235 293 342 408
#     4  12  24  47  74 102 142 181 236 300 352 407
#     4  12  24  44  73 108 135 181 241 294 348 408
#     4  12  23  43  74 100 137 180 234 294 344 405
#     4  12  27  45  68 104 148 190 229 281 356 435
#
# _framework density 9.8765429999999999
#
# number of rings (size 3 to 8) (size 9 to 14) (size 15 to 20)
#    0.000    0.000    7.500    3.375    0.000    3.000 
#    0.000    1.875    0.000    0.000    0.000    0.000 
#    0.000    0.000    0.000    0.000    0.000    0.000 
#
# Total GULP energy -89196.919801 kJ/mol
# GULP energy per Si atom -5574.807488 kJ/mol
# Density = 0.985406 g / cm^3
# Si number density = 9.876543 Si / 1000 Ang^3
#
#
#
# Elastic Constant Matrix: (Units=GPa)
#
#
# Indices 1 2 3 4 5 6 
#
# 1 188.6961 33.4201 37.6290 -0.0042 -0.2595 0.0021
# 2 33.4201 65.5430 21.6518 -0.0031 -13.3278 0.0012
# 3 37.6290 21.6518 107.1881 -0.0098 -6.5996 0.0041
# 4 -0.0042 -0.0031 -0.0098 4.4049 0.0073 0.0638
# 5 -0.2595 -13.3278 -6.5996 0.0073 42.8243 -0.0022
# 6 0.0021 0.0012 0.0041 0.0638 -0.0022 18.5376
#
#
#
# Elastic Compliance Matrix: (Units=1/GPa)
#
#
# Indices 1 2 3 4 5 6 
#
# 1 0.006123 -0.002798 -0.001651 0.000002 -0.001088 0.000000
# 2 -0.002798 0.018586 -0.002440 -0.000004 0.005391 0.000000
# 3 -0.001651 -0.002440 0.010454 0.000019 0.000842 -0.000002
# 4 0.000002 -0.000004 0.000019 0.227031 -0.000037 -0.000781
# 5 -0.001088 0.005391 0.000842 -0.000037 0.025152 0.000003
# 6 0.000000 0.000000 -0.000002 -0.000781 0.000003 0.053947
#
#
# Mechanical properties :
#
#
# Convention : Reuss Voigt Hill
#
# Bulk Modulus (GPa) = 46.76353 60.75877 53.76115
# Shear Modulus (GPa) = 13.80453 31.06845 22.43649
#
# Velocity S-wave (km/s) = 2.64645 3.97021 3.37389
# Velocity P-wave (km/s) = 5.75011 7.20018 6.51561
#
# Compressibility (1/GPa) = 0.02138418
#
# Stress axis : x y z
#
# Youngs Moduli (GPa) = 163.32284 53.80351 95.65865
#
# Poissons Ratio (x) = 0.15053 0.15796
# Poissons Ratio (y) = 0.45694 0.23343
# Poissons Ratio (z) = 0.26970 0.13129
#
# Static dielectric constant tensor:
#      x y z
#    x 1.732820 0.000000 -0.011560 
#    y 0.000000 1.699890 0.000000 
#    z -0.011560 0.000000 1.732980 
# 
# From -- ./inp_files/22392.got.cif
#   From: 2010.05.17/outbox.ucp.g08.bks.cvg/sg8_12_cif.got.tgz:22392.got - 2010.06.11 13:00:03.
