data_PCOD9133367
_publ_section_title
;
Structure prediction by ZEFSAII (Michael W. Deem and Ramdas Pophale) SiO2 
 PCOD9133367
Probable space group: C M
;
_chemical_formula_sum "Si O2"
_cell_formula_units_Z 28
_cell_length_a 11.098204
_cell_length_b 21.581561
_cell_length_c 5.276889
_cell_angle_alpha 90.000000
_cell_angle_beta 116.042430
_cell_angle_gamma 90.000000
_cell_volume 1135.577279
_symmetry_space_group_name_H-M "C M"
_symmetry_group_IT_number 8
_symmetry_cell_setting 'monoclinic'
loop_
_space_group_symop_operation_xyz
x,y,z
x,-y,z
1/2+x,1/2+y,z
1/2+x,1/2-y,z
loop_
_atom_site_type_symbol
_atom_site_label
_atom_site_fract_x
_atom_site_fract_y
_atom_site_fract_z
Si Si1 0.077190 0.173014 0.895040
Si Si2 0.854087 0.835432 0.340677
Si Si3 0.373157 0.069475 0.326209
Si Si4 0.423513 0.573596 0.028383
Si Si5 0.311081 0.138998 0.773900
Si Si6 0.652412 0.871312 0.529367
Si Si7 0.507386 0.234244 0.200185
O O1 0.930571 0.190699 0.655441
O O2 0.044629 0.106205 0.989262
O O3 0.176091 0.171090 0.750239
O O4 0.110962 0.223413 0.138685
O O5 0.710563 0.858991 0.299093
O O6 0.890279 0.781831 0.177911
O O7 0.929273 0.897657 0.314713
O O8 0.324859 0.084681 0.997815
O O9 0.533430 0.080390 0.458478
O O10 0.339912 0.000000 0.369077
O O11 0.318987 0.115405 0.495022
O O12 0.424353 0.500000 0.015776
O O13 0.280983 0.602555 0.798886
O O14 0.433833 0.183791 0.958205
O O15 0.579400 0.804285 0.493137
#
# Coordination Sequence:
#
# PCOD9133367 Si02
#       7
#     4   4   4   4   4   4   4
#     4  10  24  43  66  99 137 181 230 290 350 418
#     4  10  23  41  66 100 135 181 229 284 355 414
#     4  11  26  46  70 102 136 184 237 292 351 417
#     4  10  23  42  66 100 136 180 234 289 347 418
#     4  11  26  45  70 102 139 184 235 286 355 418
#     4  10  23  42  68  98 133 179 230 286 354 408
#     4  10  23  41  70 101 138 177 229 289 356 423
#
# _framework density 24.657060000000001
#
# number of rings (size 3 to 8) (size 9 to 14) (size 15 to 20)
#    0.000    1.714    0.000    1.714   12.000    7.429 
#    0.000    0.000    0.000    0.000    0.000    0.000 
#    0.000    0.000    0.000    0.000    0.000    0.000 
#
# Total GULP energy -78134.483076 kJ/mol
# GULP energy per Si atom -5581.034505 kJ/mol
# Density = 2.460094 g / cm^3
# Si number density = 24.657060 Si / 1000 Ang^3
#
#
#
# Elastic Constant Matrix: (Units=GPa)
#
#
# Indices 1 2 3 4 5 6 
#
# 1 110.4422 14.5906 15.1092 0.0000 -15.6179 0.0000
# 2 14.5906 158.2746 25.2145 0.0000 -6.2782 0.0000
# 3 15.1092 25.2145 62.4703 0.0000 -3.9364 0.0000
# 4 0.0000 0.0000 0.0000 32.2903 0.0000 -2.9191
# 5 -15.6179 -6.2782 -3.9364 0.0000 40.3841 0.0000
# 6 0.0000 0.0000 0.0000 -2.9191 0.0000 24.9625
#
#
#
# Elastic Compliance Matrix: (Units=1/GPa)
#
#
# Indices 1 2 3 4 5 6 
#
# 1 0.009889 -0.000454 -0.001984 0.000000 0.003561 0.000000
# 2 -0.000454 0.006798 -0.002594 0.000000 0.000628 0.000000
# 3 -0.001984 -0.002594 0.017569 0.000000 0.000542 0.000000
# 4 0.000000 0.000000 0.000000 0.031300 0.000000 0.003660
# 5 0.003561 0.000628 0.000542 0.000000 0.026290 0.000000
# 6 0.000000 0.000000 0.000000 0.003660 0.000000 0.040488
#
#
# Mechanical properties :
#
#
# Convention : Reuss Voigt Hill
#
# Bulk Modulus (GPa) = 41.33822 49.00172 45.16997
# Shear Modulus (GPa) = 33.23058 37.94557 35.58807
#
# Velocity S-wave (km/s) = 3.67510 3.92718 3.80323
# Velocity P-wave (km/s) = 5.90001 6.36240 6.13556
#
# Compressibility (1/GPa) = 0.02419069
#
# Stress axis : x y z
#
# Youngs Moduli (GPa) = 101.11745 147.09648 56.91896
#
# Poissons Ratio (x) = 0.06683 0.11294
# Poissons Ratio (y) = 0.04594 0.14767
# Poissons Ratio (z) = 0.20063 0.38164
#
# Static dielectric constant tensor:
#      x y z
#    x 2.010910 0.000000 0.025610 
#    y 0.000000 1.927950 0.000000 
#    z 0.025610 0.000000 2.008500 
# 
# From -- ./inp_files/2916.got.cif
#   From: 2010.05.17/outbox.cif.g08.bks.cpg/sg8_2_cif.got.tgz:2916.got - 2010.06.03 19:46:02.
