data_PCOD9133679
_publ_section_title
;
Structure prediction by ZEFSAII (Michael W. Deem and Ramdas Pophale) SiO2 
 PCOD9133679
Probable space group: C M
;
_chemical_formula_sum "Si O2"
_cell_formula_units_Z 16
_cell_length_a 21.000000
_cell_length_b 9.000000
_cell_length_c 9.000000
_cell_angle_alpha 90.000000
_cell_angle_beta 90.000000
_cell_angle_gamma 90.000000
_cell_volume 1701.000000
_symmetry_space_group_name_H-M "C M"
_symmetry_group_IT_number 8
_symmetry_cell_setting 'monoclinic'
loop_
_space_group_symop_operation_xyz
x,y,z
x,-y,z
1/2+x,1/2+y,z
1/2+x,1/2-y,z
loop_
_atom_site_type_symbol
_atom_site_label
_atom_site_fract_x
_atom_site_fract_y
_atom_site_fract_z
Si Si1 0.460830 0.169551 0.079970
Si Si2 0.242431 0.323141 0.773979
Si Si3 0.356851 0.676034 0.574022
Si Si4 0.967968 0.333114 0.721761
Si Si5 0.603327 0.173298 0.772685
Si Si6 0.587524 0.325203 0.086234
Si Si7 0.228296 0.177493 0.096840
Si Si8 0.347256 0.677549 0.241195
O O1 0.526980 0.234389 0.141233
O O2 0.401648 0.265883 0.131464
O O3 0.451642 0.000000 0.126325
O O4 0.465953 0.172477 0.900939
O O5 0.252321 0.500000 0.801440
O O6 0.297632 0.263915 0.668636
O O7 0.172372 0.305970 0.703189
O O8 0.239737 0.241726 0.931634
O O9 0.347216 0.500000 0.565106
O O10 0.420765 0.713961 0.658699
O O11 0.362190 0.731132 0.407016
O O12 0.948496 0.500000 0.677218
O O13 0.040866 0.307365 0.674889
O O14 0.600732 0.000000 0.827299
O O15 0.596508 0.281972 0.912620
O O16 0.575535 0.500000 0.100903
O O17 0.656696 0.287553 0.150474
O O18 0.280345 0.253651 0.197335
O O19 0.235116 0.000000 0.092746
O O20 0.344500 0.500000 0.235180
#
# Coordination Sequence:
#
# PCOD9133679 Si02
#       8
#     4   4   4   4   4   4   4   4
#     4  10  20  35  56  81 105 132 172 216 258 308
#     4   9  17  33  56  77 100 133 171 211 255 301
#     4  10  22  36  50  72 102 136 173 212 253 302
#     4   9  18  32  52  77 102 128 162 208 257 305
#     4   8  15  29  50  76 103 130 166 210 252 299
#     4   9  17  30  51  79 108 134 164 208 259 307
#     4  10  20  34  54  81 108 134 170 213 256 307
#     4  11  23  37  51  71 104 143 180 216 256 303
#
# _framework density 9.4062319999999993
#
# number of rings (size 3 to 8) (size 9 to 14) (size 15 to 20)
#    0.000    2.500    0.000    3.000    0.000    7.500 
#    0.000    1.250    0.000    1.500    0.000    0.000 
#    0.000    0.000    0.000    0.000    0.000    0.000 
#
# Total GULP energy -89127.565616 kJ/mol
# GULP energy per Si atom -5570.472851 kJ/mol
# Density = 0.938482 g / cm^3
# Si number density = 9.406232 Si / 1000 Ang^3
#
#
#
# Elastic Constant Matrix: (Units=GPa)
#
#
# Indices 1 2 3 4 5 6 
#
# 1 43.1164 29.5481 2.7232 0.0000 56.4286 0.0000
# 2 29.5481 35.1644 9.0954 0.0000 13.3123 0.0000
# 3 2.7232 9.0954 10.4868 0.0000 21.0076 0.0000
# 4 0.0000 0.0000 0.0000 6.3518 0.0000 5.5988
# 5 56.4286 13.3123 21.0076 0.0000 -39.6405 0.0000
# 6 0.0000 0.0000 0.0000 5.5988 0.0000 30.3713
#
#
#
# Elastic Compliance Matrix: (Units=1/GPa)
#
#
# Indices 1 2 3 4 5 6 
#
# 1 0.018835 -0.016481 -0.016113 0.000000 0.012738 0.000000
# 2 -0.016481 0.050692 -0.012995 0.000000 -0.013324 0.000000
# 3 -0.016113 -0.012995 0.080279 0.000000 0.015243 0.000000
# 4 0.000000 0.000000 0.000000 0.187980 0.000000 -0.034653
# 5 0.012738 -0.013324 0.015243 0.000000 -0.003491 0.000000
# 6 0.000000 0.000000 0.000000 -0.034653 0.000000 0.039314
#
#
# Mechanical properties :
#
#
# Convention : Reuss Voigt Hill
#
# Bulk Modulus (GPa) = 17.05698 19.05565 18.05632
# Shear Modulus (GPa) = 10.32352 2.57657 6.45005
#
# Velocity S-wave (km/s) = 2.34510 1.17157 1.85366
# Velocity P-wave (km/s) = 4.05206 3.46141 3.76833
#
# Compressibility (1/GPa) = 0.05862702
#
# Stress axis : x y z
#
# Youngs Moduli (GPa) = 53.09259 19.72692 12.45653
#
# Poissons Ratio (x) = 0.32512 0.20072
# Poissons Ratio (y) = 0.87503 0.16187
# Poissons Ratio (z) = 0.85550 0.25635
#
# Static dielectric constant tensor:
#      x y z
#    x 1.687670 0.000000 0.004990 
#    y 0.000000 1.636930 0.000000 
#    z 0.004990 0.000000 1.636570 
# 
# From -- ./inp_files/15809.got.cif
#   From: 2010.05.17/outbox.ucp.g08.bks.cvg/sg8_8_cif.got.tgz:15809.got - 2010.06.11 13:00:03.
