data_PCOD9133528
_publ_section_title
;
Structure prediction by ZEFSAII (Michael W. Deem and Ramdas Pophale) SiO2 
 PCOD9133528
Probable space group: C M
;
_chemical_formula_sum "Si O2"
_cell_formula_units_Z 24
_cell_length_a 17.466163
_cell_length_b 15.091433
_cell_length_c 9.685266
_cell_angle_alpha 90.000000
_cell_angle_beta 26.901784
_cell_angle_gamma 90.000000
_cell_volume 1155.106719
_symmetry_space_group_name_H-M "C M"
_symmetry_group_IT_number 8
_symmetry_cell_setting 'monoclinic'
loop_
_space_group_symop_operation_xyz
x,y,z
x,-y,z
1/2+x,1/2+y,z
1/2+x,1/2-y,z
loop_
_atom_site_type_symbol
_atom_site_label
_atom_site_fract_x
_atom_site_fract_y
_atom_site_fract_z
Si Si1 0.225730 0.681210 0.389760
Si Si2 0.281910 0.187510 0.761423
Si Si3 0.675469 0.177880 0.152792
Si Si4 0.057348 0.500000 0.983371
Si Si5 0.603309 0.500000 0.109829
Si Si6 0.523290 0.194788 0.987755
Si Si7 0.831940 0.000000 0.782965
Si Si8 0.823551 0.000000 0.321159
O O1 0.169724 0.697006 0.324551
O O2 0.356088 0.749240 0.245502
O O3 0.323999 0.587799 0.232079
O O4 0.079933 0.680350 0.738230
O O5 0.481234 0.176484 0.409389
O O6 0.267065 0.243663 0.925195
O O7 0.169185 0.248697 0.835933
O O8 0.205955 0.090365 0.915229
O O9 0.781040 0.088165 0.949638
O O10 0.200349 0.500000 0.868782
O O11 0.149531 0.500000 0.687241
O O12 0.978157 0.597477 0.120891
O O13 0.511194 0.500000 0.409859
O O14 0.462611 0.500000 0.216093
#
# Coordination Sequence:
#
# PCOD9133528 Si02
#       8
#     4   4   4   2   2   4   2   2
#     4  11  23  42  64  95 131 170 212 268 331 392
#     4  12  24  42  67  99 133 174 223 273 323 394
#     4  12  25  41  66 100 136 174 217 270 336 392
#     4   9  20  37  64  94 120 162 217 265 317 375
#     4  11  23  42  68 102 127 169 229 283 316 384
#     4  11  22  41  67  92 127 172 219 267 323 389
#     4  11  22  41  68  96 135 172 217 277 332 383
#     4   9  19  38  64  88 124 167 207 263 325 374
#
# _framework density 20.777301999999999
#
# number of rings (size 3 to 8) (size 9 to 14) (size 15 to 20)
#    0.000    1.000    3.333    4.000    2.333    0.000 
#    0.000    3.333    0.000    0.000    0.000    0.000 
#    0.000    0.000    0.000    0.000    0.000    0.000 
#
# Total GULP energy -66911.802461 kJ/mol
# GULP energy per Si atom -5575.983538 kJ/mol
# Density = 2.073001 g / cm^3
# Si number density = 20.777302 Si / 1000 Ang^3
#
#
#
# Elastic Constant Matrix: (Units=GPa)
#
#
# Indices 1 2 3 4 5 6 
#
# 1 80.1284 18.7721 15.2253 -0.0008 20.8161 0.0006
# 2 18.7721 154.5767 22.3184 -0.0008 -2.7510 -0.0013
# 3 15.2253 22.3184 72.8452 -0.0014 5.4394 0.0006
# 4 -0.0008 -0.0008 -0.0014 35.9655 0.0009 8.1700
# 5 20.8161 -2.7510 5.4394 0.0009 38.4501 -0.0006
# 6 0.0006 -0.0013 0.0006 8.1700 -0.0006 -83.8916
#
#
#
# Elastic Compliance Matrix: (Units=1/GPa)
#
#
# Indices 1 2 3 4 5 6 
#
# 1 0.015398 -0.001715 -0.002083 0.000000 -0.008164 0.000000
# 2 -0.001715 0.006983 -0.001908 0.000000 0.001698 0.000000
# 3 -0.002083 -0.001908 0.014830 0.000000 -0.001107 0.000000
# 4 0.000000 0.000000 0.000000 0.027203 -0.000001 0.002649
# 5 -0.008164 0.001698 -0.001107 -0.000001 0.030706 0.000000
# 6 0.000000 0.000000 0.000000 0.002649 0.000000 -0.011662
#
#
# Mechanical properties :
#
#
# Convention : Reuss Voigt Hill
#
# Bulk Modulus (GPa) = 38.75939 46.68688 42.72314
# Shear Modulus (GPa) = 48.32304 14.85375 31.58840
#
# Velocity S-wave (km/s) = 4.82785 2.67667 3.90337
# Velocity P-wave (km/s) = 7.05497 5.66318 6.39704
#
# Compressibility (1/GPa) = 0.02580020
#
# Stress axis : x y z
#
# Youngs Moduli (GPa) = 64.94141 143.20115 67.42905
#
# Poissons Ratio (x) = 0.24552 0.14049
# Poissons Ratio (y) = 0.11134 0.12865
# Poissons Ratio (z) = 0.13531 0.27322
#
# Static dielectric constant tensor:
#      x y z
#    x 1.727440 0.000000 0.012000 
#    y 0.000000 2.183940 0.000000 
#    z 0.012000 0.000000 1.763930 
# 
# From -- ./inp_files/7859.got.cif
#   From: 2010.05.17/outbox.cif.g08.bks.cpg/sg8_4_cif.got.tgz:7859.got - 2010.06.03 19:46:02.
