data_PCOD9133168
_publ_section_title
;
Structure prediction by ZEFSAII (Michael W. Deem and Ramdas Pophale) SiO2 
 PCOD9133168
Probable space group: C M
;
_chemical_formula_sum "Si O2"
_cell_formula_units_Z 28
_cell_length_a 8.769336
_cell_length_b 13.242260
_cell_length_c 12.025839
_cell_angle_alpha 90.000000
_cell_angle_beta 69.972886
_cell_angle_gamma 90.000000
_cell_volume 1312.064437
_symmetry_space_group_name_H-M "C M"
_symmetry_group_IT_number 8
_symmetry_cell_setting 'monoclinic'
loop_
_space_group_symop_operation_xyz
x,y,z
x,-y,z
1/2+x,1/2+y,z
1/2+x,1/2-y,z
loop_
_atom_site_type_symbol
_atom_site_label
_atom_site_fract_x
_atom_site_fract_y
_atom_site_fract_z
Si Si1 0.104970 0.614991 0.867960
Si Si2 0.753164 0.118970 0.402178
Si Si3 0.166761 0.883425 0.692630
Si Si4 0.055364 0.252075 0.271553
Si Si5 0.025533 0.302839 0.647145
Si Si6 0.404444 0.383427 0.946846
Si Si7 0.378050 0.192298 0.102824
O O1 0.140596 0.500000 0.829419
O O2 0.062667 0.671382 0.766048
O O3 0.260789 0.652106 0.898787
O O4 0.953596 0.623058 0.989298
O O5 0.646265 0.173787 0.333407
O O6 0.651238 0.137086 0.539462
O O7 0.920261 0.182120 0.362053
O O8 0.776652 0.000000 0.376168
O O9 0.063900 0.816383 0.631652
O O10 0.343899 0.834636 0.661970
O O11 0.069457 0.882080 0.834100
O O12 0.181390 0.000000 0.655152
O O13 0.190341 0.182842 0.178109
O O14 0.973636 0.316579 0.193912
O O15 0.370922 0.500000 0.987038
O O16 0.405339 0.306028 0.047921
#
# Coordination Sequence:
#
# PCOD9133168 Si02
#       7
#     4   4   4   4   4   4   4
#     4  11  23  38  63 100 134 175 219 275 350 413
#     4  11  25  49  72  96 135 184 232 286 339 395
#     4  11  24  41  66 101 141 182 219 268 339 410
#     4  10  25  43  68  96 128 180 236 280 334 394
#     4  12  24  43  71 101 141 177 226 284 338 406
#     4  10  22  39  62  95 136 182 217 263 345 418
#     4  11  21  41  64  95 135 166 221 288 339 400
#
# _framework density 21.340416000000001
#
# number of rings (size 3 to 8) (size 9 to 14) (size 15 to 20)
#    0.000    1.143    2.857    3.000    2.000    3.429 
#    0.000    7.143    0.000    0.000    0.000    0.000 
#    0.000    0.000    0.000    0.000    0.000    0.000 
#
# Total GULP energy -78289.458529 kJ/mol
# GULP energy per Si atom -5592.104181 kJ/mol
# Density = 2.129184 g / cm^3
# Si number density = 21.340416 Si / 1000 Ang^3
#
#
#
# Elastic Constant Matrix: (Units=GPa)
#
#
# Indices 1 2 3 4 5 6 
#
# 1 74.1943 25.0679 18.9270 0.0000 -23.6291 0.0000
# 2 25.0679 117.0227 7.5814 0.0000 5.0776 0.0000
# 3 18.9270 7.5814 66.2838 0.0000 -21.1074 0.0000
# 4 0.0000 0.0000 0.0000 12.3648 0.0000 0.0097
# 5 -23.6291 5.0776 -21.1074 0.0000 35.3490 0.0000
# 6 0.0000 0.0000 0.0000 0.0097 0.0000 27.1610
#
#
#
# Elastic Compliance Matrix: (Units=1/GPa)
#
#
# Indices 1 2 3 4 5 6 
#
# 1 0.019478 -0.004692 -0.000820 0.000000 0.013204 0.000000
# 2 -0.004692 0.009887 -0.001534 0.000000 -0.005473 0.000000
# 3 -0.000820 -0.001534 0.019006 0.000000 0.011021 0.000000
# 4 0.000000 0.000000 0.000000 0.080875 0.000000 -0.000029
# 5 0.013204 -0.005473 0.011021 0.000000 0.044482 0.000000
# 6 0.000000 0.000000 0.000000 -0.000029 0.000000 0.036818
#
#
# Mechanical properties :
#
#
# Convention : Reuss Voigt Hill
#
# Bulk Modulus (GPa) = 29.17297 40.07258 34.62278
# Shear Modulus (GPa) = 21.18065 28.70325 24.94195
#
# Velocity S-wave (km/s) = 3.15384 3.67143 3.42243
# Velocity P-wave (km/s) = 5.19251 6.06556 5.64594
#
# Compressibility (1/GPa) = 0.03427831
#
# Stress axis : x y z
#
# Youngs Moduli (GPa) = 51.33989 101.13961 52.61576
#
# Poissons Ratio (x) = 0.47457 0.04316
# Poissons Ratio (y) = 0.24090 0.08070
# Poissons Ratio (z) = 0.04212 0.15512
#
# Static dielectric constant tensor:
#      x y z
#    x 1.780790 0.000000 -0.007480 
#    y 0.000000 1.777820 0.000000 
#    z -0.007480 0.000000 1.770450 
# 
# From -- ./inp_files/18756.got.cif
#   From: 2010.05.17/outbox.cif.g08.bks.cpg/sg8_10_cif.got.tgz:18756.got - 2010.06.03 19:46:02.
