data_PCOD9133078
_publ_section_title
;
Structure prediction by ZEFSAII (Michael W. Deem and Ramdas Pophale) SiO2 
 PCOD9133078
Probable space group: C M
;
_chemical_formula_sum "Si O2"
_cell_formula_units_Z 28
_cell_length_a 7.906289
_cell_length_b 13.263028
_cell_length_c 14.085490
_cell_angle_alpha 90.000000
_cell_angle_beta 49.372772
_cell_angle_gamma 90.000000
_cell_volume 1121.004462
_symmetry_space_group_name_H-M "C M"
_symmetry_group_IT_number 8
_symmetry_cell_setting 'monoclinic'
loop_
_space_group_symop_operation_xyz
x,y,z
x,-y,z
1/2+x,1/2+y,z
1/2+x,1/2-y,z
loop_
_atom_site_type_symbol
_atom_site_label
_atom_site_fract_x
_atom_site_fract_y
_atom_site_fract_z
Si Si1 0.598250 0.802008 0.298410
Si Si2 0.676628 0.380476 0.672827
Si Si3 0.997264 0.614953 0.871711
Si Si4 0.102387 0.619133 0.629709
Si Si5 0.105797 0.177357 0.481816
Si Si6 0.267688 0.380516 0.951805
Si Si7 0.584244 0.688072 0.124301
O O1 0.365256 0.860513 0.370592
O O2 0.617987 0.767437 0.399873
O O3 0.601962 0.700644 0.231109
O O4 0.837953 0.849104 0.189998
O O5 0.670180 0.500000 0.651159
O O6 0.606539 0.327904 0.598345
O O7 0.523653 0.372475 0.824192
O O8 0.922264 0.347014 0.616973
O O9 0.072954 0.500000 0.834302
O O10 0.027394 0.662299 0.758790
O O11 0.149064 0.656834 0.898610
O O12 0.753700 0.620495 0.004191
O O13 0.059231 0.500000 0.644543
O O14 0.371005 0.629749 0.532111
O O15 0.221291 0.500000 0.987688
O O16 0.160891 0.302065 0.064577
#
# Coordination Sequence:
#
# PCOD9133078 Si02
#       7
#     4   4   4   4   4   4   4
#     4  10  26  42  63  88 135 189 245 288 331 414
#     4  10  22  41  69 106 140 174 227 294 366 439
#     4  10  21  41  68 100 142 184 225 292 366 428
#     4  10  22  41  69 103 138 177 230 294 361 430
#     4  11  23  45  65  88 135 187 229 291 348 403
#     4  10  21  41  70 103 143 184 229 293 369 433
#     4  11  22  45  64 100 138 183 241 298 344 419
#
# _framework density 24.977601
#
# number of rings (size 3 to 8) (size 9 to 14) (size 15 to 20)
#    0.000    1.714    2.857    0.429    6.000    1.143 
#    0.000    8.571    0.000    0.000    0.000    0.000 
#    0.000    0.000    0.000    0.000    0.000    0.000 
#
# Total GULP energy -77948.550611 kJ/mol
# GULP energy per Si atom -5567.753615 kJ/mol
# Density = 2.492075 g / cm^3
# Si number density = 24.977601 Si / 1000 Ang^3
#
#
#
# Elastic Constant Matrix: (Units=GPa)
#
#
# Indices 1 2 3 4 5 6 
#
# 1 145.9272 15.3872 53.6395 -0.0003 -27.5645 0.0007
# 2 15.3872 70.0526 6.2629 -0.0002 11.6462 0.0003
# 3 53.6395 6.2629 129.2041 -0.0005 -15.1231 0.0006
# 4 -0.0003 -0.0002 -0.0005 4.5931 0.0001 -9.4768
# 5 -27.5645 11.6462 -15.1231 0.0001 42.5945 -0.0005
# 6 0.0007 0.0003 0.0006 -9.4768 -0.0005 25.2291
#
#
#
# Elastic Compliance Matrix: (Units=1/GPa)
#
#
# Indices 1 2 3 4 5 6 
#
# 1 0.009350 -0.002726 -0.003082 -0.000001 0.005702 0.000000
# 2 -0.002726 0.015947 -0.000374 0.000001 -0.006257 0.000000
# 3 -0.003082 -0.000374 0.009198 0.000003 0.001373 0.000001
# 4 -0.000001 0.000001 0.000003 0.967759 0.000001 0.363518
# 5 0.005702 -0.006257 0.001373 0.000001 0.029366 0.000001
# 6 0.000000 0.000000 0.000001 0.363518 0.000001 0.176184
#
#
# Mechanical properties :
#
#
# Convention : Reuss Voigt Hill
#
# Bulk Modulus (GPa) = 45.18395 55.08477 50.13436
# Shear Modulus (GPa) = 4.07317 32.47630 18.27473
#
# Velocity S-wave (km/s) = 1.27838 3.60976 2.70783
# Velocity P-wave (km/s) = 4.50645 6.28295 5.46733
#
# Compressibility (1/GPa) = 0.02213175
#
# Stress axis : x y z
#
# Youngs Moduli (GPa) = 106.94976 62.70589 108.71760
#
# Poissons Ratio (x) = 0.17095 0.33509
# Poissons Ratio (y) = 0.29156 0.04062
# Poissons Ratio (z) = 0.32964 0.02343
#
# Static dielectric constant tensor:
#      x y z
#    x 2.042690 0.000000 -0.058970 
#    y 0.000000 2.158620 0.000000 
#    z -0.058970 0.000000 2.144840 
# 
# From -- ./inp_files/25353.got.cif
#   From: 2010.05.17/outbox.cif.g08.bks.cpg/sg8_13_cif.got.tgz:25353.got - 2010.06.03 19:46:02.
