data_PCOD9133357
_publ_section_title
;
Structure prediction by ZEFSAII (Michael W. Deem and Ramdas Pophale) SiO2 
 PCOD9133357
Probable space group: C M
;
_chemical_formula_sum "Si O2"
_cell_formula_units_Z 24
_cell_length_a 7.445740
_cell_length_b 17.144232
_cell_length_c 10.977705
_cell_angle_alpha 90.000000
_cell_angle_beta 44.903724
_cell_angle_gamma 90.000000
_cell_volume 989.216776
_symmetry_space_group_name_H-M "C M"
_symmetry_group_IT_number 8
_symmetry_cell_setting 'monoclinic'
loop_
_space_group_symop_operation_xyz
x,y,z
x,-y,z
1/2+x,1/2+y,z
1/2+x,1/2-y,z
loop_
_atom_site_type_symbol
_atom_site_label
_atom_site_fract_x
_atom_site_fract_y
_atom_site_fract_z
Si Si1 0.292990 0.412407 0.873870
Si Si2 0.970077 0.797627 0.967556
Si Si3 0.497321 0.143111 0.803384
Si Si4 0.321839 0.855654 0.503773
Si Si5 0.267315 0.255293 0.324421
Si Si6 0.271085 0.413394 0.427169
O O1 0.335188 0.500000 0.895005
O O2 0.548427 0.381215 0.682530
O O3 0.272304 0.353710 0.995538
O O4 0.063283 0.408467 0.888930
O O5 0.042994 0.729473 0.838179
O O6 0.850004 0.761244 0.145696
O O7 0.212470 0.849134 0.889025
O O8 0.662190 0.109570 0.612485
O O9 0.301073 0.826227 0.375758
O O10 0.470764 0.779611 0.486808
O O11 0.532588 0.916913 0.446338
O O12 0.404483 0.333654 0.316459
O O13 0.390825 0.500000 0.372941
#
# Coordination Sequence:
#
# PCOD9133357 Si02
#       6
#     4   4   4   4   4   4
#     4  12  27  45  70 101 135 181 227 281 340 399
#     4  12  24  44  69 103 139 176 222 286 336 401
#     4  12  25  41  72  99 136 177 232 274 330 407
#     4  10  23  40  70  93 133 179 224 278 327 397
#     4  10  24  40  67 101 130 174 229 271 340 398
#     4  10  23  42  64  95 133 175 224 274 331 392
#
# _framework density 24.261617999999999
#
# number of rings (size 3 to 8) (size 9 to 14) (size 15 to 20)
#    1.000    0.000    3.333    3.000    4.667    1.333 
#    0.000    0.000    0.000    0.000    0.000    0.000 
#    0.000    0.000    0.000    0.000    0.000    0.000 
#
# Total GULP energy -66912.824499 kJ/mol
# GULP energy per Si atom -5576.068708 kJ/mol
# Density = 2.420640 g / cm^3
# Si number density = 24.261618 Si / 1000 Ang^3
#
#
#
# Elastic Constant Matrix: (Units=GPa)
#
#
# Indices 1 2 3 4 5 6 
#
# 1 89.7864 26.8765 13.3281 0.0000 17.9889 0.0000
# 2 26.8765 145.0651 47.3340 0.0000 22.1310 0.0000
# 3 13.3281 47.3340 83.3739 0.0000 22.8070 0.0000
# 4 0.0000 0.0000 0.0000 -2.6619 0.0000 -9.6770
# 5 17.9889 22.1310 22.8070 0.0000 40.9747 0.0000
# 6 0.0000 0.0000 0.0000 -9.6770 0.0000 19.7797
#
#
#
# Elastic Compliance Matrix: (Units=1/GPa)
#
#
# Indices 1 2 3 4 5 6 
#
# 1 0.012554 -0.001683 0.000245 0.000000 -0.004739 0.000000
# 2 -0.001683 0.008864 -0.004312 0.000000 -0.001648 0.000000
# 3 0.000245 -0.004312 0.016273 0.000000 -0.006836 0.000000
# 4 0.000000 0.000000 0.000000 -0.135204 0.000000 -0.066147
# 5 -0.004739 -0.001648 -0.006836 0.000000 0.031181 0.000000
# 6 0.000000 0.000000 0.000000 -0.066147 0.000000 0.018196
#
#
# Mechanical properties :
#
#
# Convention : Reuss Voigt Hill
#
# Bulk Modulus (GPa) = 38.18129 54.81138 46.49634
# Shear Modulus (GPa) = -179.18225 26.99762 -76.09232
#
# Velocity S-wave (km/s) = -8.60317 3.33944 -5.60637
# Velocity P-wave (km/s) = 9.10574 6.12454 4.76469
#
# Compressibility (1/GPa) = 0.02619084
#
# Stress axis : x y z
#
# Youngs Moduli (GPa) = 79.65317 112.81825 61.45024
#
# Poissons Ratio (x) = 0.18986 -0.01505
# Poissons Ratio (y) = 0.13405 0.26499
# Poissons Ratio (z) = -0.01950 0.48651
#
# Static dielectric constant tensor:
#      x y z
#    x 2.062760 0.000000 -0.002380 
#    y 0.000000 1.943350 0.000000 
#    z -0.002380 0.000000 1.932770 
# 
# From -- ./inp_files/18987.got.cif
#   From: 2010.05.17/outbox.cif.g08.bks.cpg/sg8_10_cif.got.tgz:18987.got - 2010.06.03 19:46:02.
