data_PCOD9133594
_publ_section_title
;
Structure prediction by ZEFSAII (Michael W. Deem and Ramdas Pophale) SiO2 
 PCOD9133594
Probable space group: C M
;
_chemical_formula_sum "Si O2"
_cell_formula_units_Z 32
_cell_length_a 14.316631
_cell_length_b 19.816014
_cell_length_c 11.805534
_cell_angle_alpha 90.000000
_cell_angle_beta 29.023431
_cell_angle_gamma 90.000000
_cell_volume 1624.928473
_symmetry_space_group_name_H-M "C M"
_symmetry_group_IT_number 8
_symmetry_cell_setting 'monoclinic'
loop_
_space_group_symop_operation_xyz
x,y,z
x,-y,z
1/2+x,1/2+y,z
1/2+x,1/2-y,z
loop_
_atom_site_type_symbol
_atom_site_label
_atom_site_fract_x
_atom_site_fract_y
_atom_site_fract_z
Si Si1 0.931930 0.868373 0.816290
Si Si2 0.307764 0.237186 0.029282
Si Si3 0.319715 0.923388 0.474656
Si Si4 0.203038 0.322013 0.675535
Si Si5 0.149679 0.759938 0.429905
Si Si6 0.322565 0.819660 0.668531
Si Si7 0.003431 0.809808 0.175252
Si Si8 0.621440 0.078952 0.970448
O O1 0.091740 0.916285 0.698961
O O2 0.041480 0.814451 0.619946
O O3 0.845371 0.817340 0.001426
O O4 0.778836 0.905661 0.900763
O O5 0.202837 0.210109 0.251645
O O6 0.163797 0.230380 0.077138
O O7 0.509243 0.197366 0.812242
O O8 0.374423 0.871915 0.515466
O O9 0.422266 0.905766 0.246961
O O10 0.375308 0.000000 0.443066
O O11 0.264855 0.251173 0.668958
O O12 0.369772 0.345678 0.411757
O O13 0.159219 0.374447 0.821912
O O14 0.347890 0.736659 0.276906
O O15 0.003011 0.699031 0.556378
O O16 0.138631 0.844346 0.937321
O O17 0.625517 0.000000 0.935423
#
# Coordination Sequence:
#
# PCOD9133594 Si02
#       8
#     4   4   4   4   4   4   4   4
#     4  12  21  36  60  94 129 156 206 264 315 380
#     4  12  22  34  61  95 129 164 205 269 318 373
#     4  11  25  43  64  91 130 172 213 264 323 385
#     4  12  22  38  62  94 128 166 214 263 318 378
#     4  12  22  34  61  95 129 164 205 269 318 373
#     4  12  22  38  62  94 128 166 214 263 318 378
#     4  12  22  38  57  98 129 164 212 264 326 370
#     4  11  25  43  64  91 130 172 213 264 323 385
#
# _framework density 19.693175
#
# number of rings (size 3 to 8) (size 9 to 14) (size 15 to 20)
#    0.000    0.250    7.500    1.875    3.500    0.000 
#    0.000    0.625    0.000    3.000    0.000    0.000 
#    0.000    0.000    0.000    0.000    0.000    0.000 
#
# Total GULP energy -89370.504543 kJ/mol
# GULP energy per Si atom -5585.656534 kJ/mol
# Density = 1.964835 g / cm^3
# Si number density = 19.693175 Si / 1000 Ang^3
#
#
#
# Elastic Constant Matrix: (Units=GPa)
#
#
# Indices 1 2 3 4 5 6 
#
# 1 94.2136 21.0721 6.3311 -0.0295 -17.7305 0.0241
# 2 21.0721 88.5341 26.0861 -0.0231 13.3892 0.0257
# 3 6.3311 26.0861 96.5569 -0.0356 5.9590 0.0285
# 4 -0.0295 -0.0231 -0.0356 21.6372 0.0145 7.1725
# 5 -17.7305 13.3892 5.9590 0.0145 47.6165 -0.0131
# 6 0.0241 0.0257 0.0285 7.1725 -0.0131 24.9233
#
#
#
# Elastic Compliance Matrix: (Units=1/GPa)
#
#
# Indices 1 2 3 4 5 6 
#
# 1 0.012565 -0.003820 -0.000148 0.000012 0.005771 -0.000008
# 2 -0.003820 0.013892 -0.003198 0.000012 -0.004928 -0.000013
# 3 -0.000148 -0.003198 0.011265 0.000020 -0.000566 -0.000016
# 4 0.000012 0.000012 0.000020 0.051091 -0.000021 -0.014703
# 5 0.005771 -0.004928 -0.000566 -0.000021 0.024607 0.000019
# 6 -0.000008 -0.000013 -0.000016 -0.014703 0.000019 0.044354
#
#
# Mechanical properties :
#
#
# Convention : Reuss Voigt Hill
#
# Bulk Modulus (GPa) = 42.75440 42.92036 42.83738
# Shear Modulus (GPa) = 27.79285 33.88977 30.84131
#
# Velocity S-wave (km/s) = 3.76079 4.15286 3.96168
# Velocity P-wave (km/s) = 6.37303 6.69603 6.53653
#
# Compressibility (1/GPa) = 0.02338941
#
# Stress axis : x y z
#
# Youngs Moduli (GPa) = 79.58910 71.98422 88.76804
#
# Poissons Ratio (x) = 0.27495 0.01314
# Poissons Ratio (y) = 0.30400 0.28392
# Poissons Ratio (z) = 0.01178 0.23024
#
# Static dielectric constant tensor:
#      x y z
#    x 1.713070 0.000000 0.012120 
#    y 0.000000 1.660170 0.000000 
#    z 0.012120 0.000000 1.787120 
# 
# From -- ./inp_files/22376.got.cif
#   From: 2010.05.17/outbox.cif.g08.bks.cpg/sg8_12_cif.got.tgz:22376.got - 2010.06.03 19:46:02.
