data_PCOD9133639
_publ_section_title
;
Structure prediction by ZEFSAII (Michael W. Deem and Ramdas Pophale) SiO2 
 PCOD9133639
Probable space group: C M
;
_chemical_formula_sum "Si O2"
_cell_formula_units_Z 32
_cell_length_a 23.999383
_cell_length_b 7.290920
_cell_length_c 11.979075
_cell_angle_alpha 90.000000
_cell_angle_beta 144.718303
_cell_angle_gamma 90.000000
_cell_volume 1210.683249
_symmetry_space_group_name_H-M "C M"
_symmetry_group_IT_number 8
_symmetry_cell_setting 'monoclinic'
loop_
_space_group_symop_operation_xyz
x,y,z
x,-y,z
1/2+x,1/2+y,z
1/2+x,1/2-y,z
loop_
_atom_site_type_symbol
_atom_site_label
_atom_site_fract_x
_atom_site_fract_y
_atom_site_fract_z
Si Si1 0.029370 0.283898 0.629470
Si Si2 0.291720 0.774940 0.901644
Si Si3 0.934271 0.293204 0.681004
Si Si4 0.078140 0.780197 0.474199
Si Si5 0.146881 0.224352 0.109817
Si Si6 0.848465 0.291526 0.764813
Si Si7 0.245856 0.792610 0.060881
Si Si8 0.127872 0.207344 0.328870
O O1 0.038506 0.500000 0.665939
O O2 0.010290 0.262719 0.467165
O O3 0.133678 0.198982 0.831788
O O4 0.945395 0.214834 0.574689
O O5 0.183284 0.717935 0.689604
O O6 0.357418 0.713898 0.904525
O O7 0.302369 0.711910 0.046858
O O8 0.294649 0.000000 0.906894
O O9 0.891491 0.500000 0.602487
O O10 0.887884 0.204820 0.715251
O O11 0.046294 0.294719 0.897936
O O12 0.065308 0.708598 0.327275
O O13 0.081103 0.000000 0.469187
O O14 0.145863 0.286871 0.236183
O O15 0.148468 0.000000 0.110049
O O16 0.229526 0.285198 0.158253
O O17 0.888984 0.500000 0.834101
O O18 0.734326 0.304176 0.556114
O O19 0.282424 0.000000 0.135036
O O20 0.091332 0.000000 0.248460
#
# Coordination Sequence:
#
# PCOD9133639 Si02
#       8
#     4   4   4   4   4   4   4   4
#     4   9  15  22  34  55  80 102 128 160 193 231
#     4   7  10  18  35  56  73  92 124 163 192 218
#     4   9  17  27  40  59  83 111 135 157 194 242
#     4   8  13  23  39  57  75  96 127 165 201 231
#     4   9  16  26  42  63  84 104 130 166 201 233
#     4   8  13  23  40  59  79 104 134 165 196 233
#     4   8  13  22  37  57  78  99 126 161 198 230
#     4   8  14  25  43  64  80 100 134 171 201 230
#
# _framework density 26.431359
#
# number of rings (size 3 to 8) (size 9 to 14) (size 15 to 20)
#    0.000    3.750    0.000    2.625    0.000    0.500 
#    0.000    0.625    0.000    9.000    0.000    5.250 
#    0.000    0.000    0.000    0.000    0.000    0.000 
#
# Total GULP energy -89135.967912 kJ/mol
# GULP energy per Si atom -5570.997995 kJ/mol
# Density = 2.637120 g / cm^3
# Si number density = 26.431359 Si / 1000 Ang^3
#
#
#
# Elastic Constant Matrix: (Units=GPa)
#
#
# Indices 1 2 3 4 5 6 
#
# 1 271.3068 11.7562 58.9043 0.0000 -103.5248 0.0000
# 2 11.7562 123.0686 -3.0446 0.0000 -8.7939 0.0000
# 3 58.9043 -3.0446 77.3300 0.0000 -13.3071 0.0000
# 4 0.0000 0.0000 0.0000 -8.2921 0.0000 1.3088
# 5 -103.5248 -8.7939 -13.3071 0.0000 74.1553 0.0000
# 6 0.0000 0.0000 0.0000 1.3088 0.0000 -0.3530
#
#
#
# Elastic Compliance Matrix: (Units=1/GPa)
#
#
# Indices 1 2 3 4 5 6 
#
# 1 0.009519 -0.000154 -0.005132 0.000000 0.012350 0.000000
# 2 -0.000154 0.008217 0.000590 0.000000 0.000865 0.000000
# 3 -0.005132 0.000590 0.016142 0.000000 -0.004198 0.000000
# 4 0.000000 0.000000 0.000000 -0.290710 0.000000 -1.077768
# 5 0.012350 0.000865 -0.004198 0.000000 0.030076 0.000000
# 6 0.000000 0.000000 0.000000 -1.077768 0.000000 -6.828302
#
#
# Mechanical properties :
#
#
# Convention : Reuss Voigt Hill
#
# Bulk Modulus (GPa) = 40.84084 67.43748 54.13916
# Shear Modulus (GPa) = -0.71048 40.04134 19.66543
#
# Velocity S-wave (km/s) = -0.51902 3.89642 2.73063
# Velocity P-wave (km/s) = 3.88922 6.76848 5.51989
#
# Compressibility (1/GPa) = 0.02448529
#
# Stress axis : x y z
#
# Youngs Moduli (GPa) = 105.04859 121.70374 61.95193
#
# Poissons Ratio (x) = 0.01872 0.31793
# Poissons Ratio (y) = 0.01616 -0.03653
# Poissons Ratio (z) = 0.53910 -0.07176
#
# Static dielectric constant tensor:
#      x y z
#    x 2.202130 0.000000 -0.070210 
#    y 0.000000 2.239720 0.000000 
#    z -0.070210 0.000000 2.101170 
# 
# From -- ./inp_files/23062.got.cif
#   From: 2010.05.17/outbox.cif.g08.bks.cpg/sg8_12_cif.got.tgz:23062.got - 2010.06.03 19:46:02.
