data_PCOD9133214
_publ_section_title
;
Structure prediction by ZEFSAII (Michael W. Deem and Ramdas Pophale) SiO2 
 PCOD9133214
Probable space group: C M
;
_chemical_formula_sum "Si O2"
_cell_formula_units_Z 32
_cell_length_a 18.628287
_cell_length_b 13.718959
_cell_length_c 12.889702
_cell_angle_alpha 90.000000
_cell_angle_beta 29.459908
_cell_angle_gamma 90.000000
_cell_volume 1620.086536
_symmetry_space_group_name_H-M "C M"
_symmetry_group_IT_number 8
_symmetry_cell_setting 'monoclinic'
loop_
_space_group_symop_operation_xyz
x,y,z
x,-y,z
1/2+x,1/2+y,z
1/2+x,1/2-y,z
loop_
_atom_site_type_symbol
_atom_site_label
_atom_site_fract_x
_atom_site_fract_y
_atom_site_fract_z
Si Si1 0.686320 0.383594 0.978470
Si Si2 0.372850 0.280449 0.837604
Si Si3 0.847522 0.117020 0.443754
Si Si4 0.866038 0.382243 0.555454
Si Si5 0.206239 0.270570 0.434239
Si Si6 0.181578 0.382778 0.251031
Si Si7 0.411528 0.883401 0.260955
Si Si8 0.753118 0.883333 0.791674
O O1 0.707638 0.500000 0.964834
O O2 0.788249 0.321786 0.926899
O O3 0.736311 0.357201 0.798099
O O4 0.517786 0.360234 0.210277
O O5 0.540223 0.263992 0.653447
O O6 0.352523 0.335465 0.754039
O O7 0.292320 0.344409 0.025194
O O8 0.752292 0.162399 0.472579
O O9 0.797456 0.149282 0.620945
O O10 0.833329 0.000000 0.458070
O O11 0.868038 0.500000 0.548418
O O12 0.863929 0.352915 0.437781
O O13 0.018948 0.354268 0.416886
O O14 0.216187 0.331368 0.315848
O O15 0.315289 0.178618 0.302678
O O16 0.187156 0.500000 0.253040
O O17 0.390728 0.000000 0.275561
O O18 0.583439 0.863145 0.030587
O O19 0.770855 0.000000 0.774348
#
# Coordination Sequence:
#
# PCOD9133214 Si02
#       8
#     4   4   4   4   4   4   4   4
#     4  10  22  40  65  96 126 168 224 276 323 384
#     4  12  25  39  67  99 131 171 220 272 331 389
#     4  10  24  43  64  93 129 170 217 270 330 393
#     4   9  18  39  69  92 120 167 224 275 313 374
#     4  12  27  39  64  98 139 173 208 266 339 401
#     4  11  24  45  67  96 134 177 223 268 331 398
#     4  10  22  42  66  95 128 170 220 270 326 390
#     4  10  22  43  69  91 123 170 221 273 322 387
#
# _framework density 19.752032
#
# number of rings (size 3 to 8) (size 9 to 14) (size 15 to 20)
#    0.000    1.500    2.500    1.500    5.250    2.500 
#    0.000    1.875    0.000    0.000    0.000    0.000 
#    0.000    0.000    0.000    0.000    0.000    0.000 
#
# Total GULP energy -89480.150448 kJ/mol
# GULP energy per Si atom -5592.509403 kJ/mol
# Density = 1.970708 g / cm^3
# Si number density = 19.752032 Si / 1000 Ang^3
#
#
#
# Elastic Constant Matrix: (Units=GPa)
#
#
# Indices 1 2 3 4 5 6 
#
# 1 92.5184 32.5612 33.7047 0.0000 1.3117 0.0000
# 2 32.5612 85.3262 30.3490 0.0000 0.0577 0.0000
# 3 33.7047 30.3490 92.3043 0.0000 6.4043 0.0000
# 4 0.0000 0.0000 0.0000 30.4844 0.0000 3.5191
# 5 1.3117 0.0577 6.4043 0.0000 40.1297 0.0000
# 6 0.0000 0.0000 0.0000 3.5191 0.0000 42.5755
#
#
#
# Elastic Compliance Matrix: (Units=1/GPa)
#
#
# Indices 1 2 3 4 5 6 
#
# 1 0.013498 -0.003844 -0.003676 0.000000 0.000151 0.000000
# 2 -0.003844 0.014385 -0.003371 0.000000 0.000643 0.000000
# 3 -0.003676 -0.003371 0.013424 0.000000 -0.002017 0.000000
# 4 0.000000 0.000000 0.000000 0.033120 0.000000 -0.002738
# 5 0.000151 0.000643 -0.002017 0.000000 0.025235 0.000000
# 6 0.000000 0.000000 0.000000 -0.002738 0.000000 0.023714
#
#
# Mechanical properties :
#
#
# Convention : Reuss Voigt Hill
#
# Bulk Modulus (GPa) = 51.21050 51.48651 51.34851
# Shear Modulus (GPa) = 32.96725 34.20688 33.58706
#
# Velocity S-wave (km/s) = 4.08984 4.16602 4.12811
# Velocity P-wave (km/s) = 6.94877 7.01883 6.98389
#
# Compressibility (1/GPa) = 0.01952725
#
# Stress axis : x y z
#
# Youngs Moduli (GPa) = 74.08312 69.51654 74.49300
#
# Poissons Ratio (x) = 0.26721 0.27380
# Poissons Ratio (y) = 0.28477 0.25110
# Poissons Ratio (z) = 0.27229 0.23432
#
# Static dielectric constant tensor:
#      x y z
#    x 1.641610 0.000000 0.019540 
#    y 0.000000 1.737690 0.000000 
#    z 0.019540 0.000000 1.683100 
# 
# From -- ./inp_files/23317.got.cif
#   From: 2010.05.17/outbox.cif.g08.bks.cpg/sg8_12_cif.got.tgz:23317.got - 2010.06.03 19:46:02.
