data_PCOD9133852
_publ_section_title
;
Structure prediction by ZEFSAII (Michael W. Deem and Ramdas Pophale) SiO2 
 PCOD9133852
Probable space group: C C
;
_chemical_formula_sum "Si O2"
_cell_formula_units_Z 32
_cell_length_a 17.474534
_cell_length_b 6.907503
_cell_length_c 10.660235
_cell_angle_alpha 90.000000
_cell_angle_beta 106.672403
_cell_angle_gamma 90.000000
_cell_volume 1232.654027
_symmetry_space_group_name_H-M "C C"
_symmetry_group_IT_number 9
_symmetry_cell_setting 'monoclinic'
loop_
_space_group_symop_operation_xyz
x,y,z
x,-y,1/2+z
1/2+x,1/2+y,z
1/2+x,1/2-y,1/2+z
loop_
_atom_site_type_symbol
_atom_site_label
_atom_site_fract_x
_atom_site_fract_y
_atom_site_fract_z
Si Si1 0.146470 0.799154 0.135650
Si Si2 0.481368 0.666523 0.670942
Si Si3 0.127488 0.775889 0.855123
Si Si4 0.947728 0.740056 0.675389
Si Si5 0.201346 0.796152 0.407455
Si Si6 0.409935 0.303480 0.378432
Si Si7 0.880388 0.265769 0.407390
Si Si8 0.242039 0.806341 0.692065
O O1 0.165990 0.683072 0.271673
O O2 0.060526 0.888664 0.130647
O O3 0.212313 0.970373 0.159733
O O4 0.137430 0.695973 0.999552
O O5 0.431978 0.471347 0.668619
O O6 0.484384 0.733022 0.817321
O O7 0.437755 0.806330 0.553292
O O8 0.195779 0.728078 0.790055
O O9 0.041735 0.727660 0.755749
O O10 0.146676 0.008279 0.886945
O O11 0.924481 0.701826 0.519702
O O12 0.903299 0.660872 0.778680
O O13 0.293283 0.831750 0.410276
O O14 0.211536 0.710451 0.549510
O O15 0.390954 0.530768 0.398379
O O16 0.333689 0.225485 0.266417
#
# Coordination Sequence:
#
# PCOD9133852 Si02
#       8
#     4   4   4   4   4   4   4   4
#     4  10  20  33  58  81 111 144 186 227 276 326
#     4  10  17  33  52  79 110 139 186 226 263 321
#     4  10  20  34  55  83 112 140 188 231 275 324
#     4  10  19  31  52  80 110 139 180 232 265 315
#     4  10  20  33  53  82 112 149 177 231 278 330
#     4  10  22  32  53  82 117 145 181 229 281 321
#     4  10  20  34  51  79 115 143 183 226 278 324
#     4  10  20  34  50  84 115 145 177 234 276 329
#
# _framework density 25.960246000000001
#
# number of rings (size 3 to 8) (size 9 to 14) (size 15 to 20)
#    0.000    2.000    5.000    0.000    3.500    0.000 
#    0.000    0.000    0.000    0.000   13.000    0.000 
#    0.000    0.000    0.000    0.000    0.000    0.000 
#
# Total GULP energy -89217.815173 kJ/mol
# GULP energy per Si atom -5576.113448 kJ/mol
# Density = 2.590116 g / cm^3
# Si number density = 25.960246 Si / 1000 Ang^3
#
#
#
# Elastic Constant Matrix: (Units=GPa)
#
#
# Indices 1 2 3 4 5 6 
#
# 1 103.7767 -6.7629 24.0531 0.0000 -12.4809 0.0000
# 2 -6.7629 88.9131 -13.9422 0.0000 10.5197 0.0000
# 3 24.0531 -13.9422 220.2631 0.0000 -27.0681 0.0000
# 4 0.0000 0.0000 0.0000 -27.6058 0.0000 19.1981
# 5 -12.4809 10.5197 -27.0681 0.0000 51.5264 0.0000
# 6 0.0000 0.0000 0.0000 19.1981 0.0000 5.8206
#
#
#
# Elastic Compliance Matrix: (Units=1/GPa)
#
#
# Indices 1 2 3 4 5 6 
#
# 1 0.010088 0.000409 -0.000840 0.000000 0.001919 0.000000
# 2 0.000409 0.011588 0.000439 0.000000 -0.002036 0.000000
# 3 -0.000840 0.000439 0.004943 0.000000 0.002303 0.000000
# 4 0.000000 0.000000 0.000000 -0.010998 0.000000 0.036274
# 5 0.001919 -0.002036 0.002303 0.000000 0.021498 0.000000
# 6 0.000000 0.000000 0.000000 0.036274 0.000000 0.052161
#
#
# Mechanical properties :
#
#
# Convention : Reuss Voigt Hill
#
# Bulk Modulus (GPa) = 37.54749 46.62763 42.08756
# Shear Modulus (GPa) = 50.94632 33.25523 42.10078
#
# Velocity S-wave (km/s) = 4.43479 3.58300 4.03145
# Velocity P-wave (km/s) = 6.38107 5.92599 6.15773
#
# Compressibility (1/GPa) = 0.02663294
#
# Stress axis : x y z
#
# Youngs Moduli (GPa) = 99.12600 86.29818 202.32323
#
# Poissons Ratio (x) = -0.03526 0.16994
# Poissons Ratio (y) = -0.04050 -0.08874
# Poissons Ratio (z) = 0.08326 -0.03785
#
# Static dielectric constant tensor:
#      x y z
#    x 2.008420 0.000000 -0.026460 
#    y 0.000000 2.158390 0.000000 
#    z -0.026460 0.000000 2.145370 
# 
# From -- ./inp_files/18197.got.cif
#   From: 2010.05.17/outbox.cif.g08.bks.cpg/sg9_10_cif.got.tgz:18197.got - 2010.06.03 20:04:27.
