data_PCOD9133323
_publ_section_title
;
Structure prediction by ZEFSAII (Michael W. Deem and Ramdas Pophale) SiO2 
 PCOD9133323
Probable space group: C M
;
_chemical_formula_sum "Si O2"
_cell_formula_units_Z 20
_cell_length_a 8.664581
_cell_length_b 15.991543
_cell_length_c 12.542781
_cell_angle_alpha 90.000000
_cell_angle_beta 31.839153
_cell_angle_gamma 90.000000
_cell_volume 916.820350
_symmetry_space_group_name_H-M "C M"
_symmetry_group_IT_number 8
_symmetry_cell_setting 'monoclinic'
loop_
_space_group_symop_operation_xyz
x,y,z
x,-y,z
1/2+x,1/2+y,z
1/2+x,1/2-y,z
loop_
_atom_site_type_symbol
_atom_site_label
_atom_site_fract_x
_atom_site_fract_y
_atom_site_fract_z
Si Si1 0.896340 0.090858 0.279630
Si Si2 0.913217 0.724162 0.206289
Si Si3 0.747223 0.176521 0.572483
Si Si4 0.807438 0.179771 0.778146
Si Si5 0.881951 0.408825 0.410638
O O1 0.020121 0.182389 0.173523
O O2 0.802971 0.101737 0.457737
O O3 0.615778 0.087834 0.367233
O O4 0.050568 0.000000 0.176024
O O5 0.563023 0.722876 0.393585
O O6 0.961233 0.659720 0.275150
O O7 0.075267 0.688707 0.007764
O O8 0.492120 0.233319 0.672589
O O9 0.682146 0.160767 0.734600
O O10 0.064898 0.112955 0.644682
O O11 0.870284 0.500000 0.364926
#
# Coordination Sequence:
#
# PCOD9133323 Si02
#       5
#     4   4   4   4   4
#     4  11  22  43  68  94 133 174 212 270 329 380
#     4  11  23  42  71  94 132 177 218 268 328 388
#     4  11  22  41  63  97 128 169 217 272 317 381
#     4  11  23  38  70  93 129 172 222 258 330 383
#     4  10  22  44  68  96 134 172 219 270 324 390
#
# _framework density 21.814523999999999
#
# number of rings (size 3 to 8) (size 9 to 14) (size 15 to 20)
#    0.000    1.200    6.000    0.000    5.600    4.000 
#    0.000    1.000    0.000    0.000    0.000    0.000 
#    0.000    0.000    0.000    0.000    0.000    0.000 
#
# Total GULP energy -55783.064847 kJ/mol
# GULP energy per Si atom -5578.306485 kJ/mol
# Density = 2.176487 g / cm^3
# Si number density = 21.814524 Si / 1000 Ang^3
#
#
#
# Elastic Constant Matrix: (Units=GPa)
#
#
# Indices 1 2 3 4 5 6 
#
# 1 81.9604 19.3240 39.4940 -0.0082 28.8158 0.0395
# 2 19.3240 141.0524 31.8987 0.0348 16.9135 0.0085
# 3 39.4940 31.8987 140.0810 -0.0099 28.7378 0.0575
# 4 -0.0082 0.0348 -0.0099 15.5935 0.0086 2.5791
# 5 28.8158 16.9135 28.7378 0.0086 37.5935 -0.0111
# 6 0.0395 0.0085 0.0575 2.5791 -0.0111 23.5909
#
#
#
# Elastic Compliance Matrix: (Units=1/GPa)
#
#
# Indices 1 2 3 4 5 6 
#
# 1 0.017485 -0.000477 -0.002509 0.000020 -0.011270 -0.000030
# 2 -0.000477 0.007682 -0.001163 -0.000017 -0.002202 0.000002
# 3 -0.002509 -0.001163 0.009024 0.000013 -0.004452 -0.000021
# 4 0.000020 -0.000017 0.000013 0.065310 -0.000034 -0.007140
# 5 -0.011270 -0.002202 -0.004452 -0.000034 0.039632 0.000053
# 6 -0.000030 0.000002 -0.000021 -0.007140 0.000053 0.043170
#
#
# Mechanical properties :
#
#
# Convention : Reuss Voigt Hill
#
# Bulk Modulus (GPa) = 38.62030 60.50303 49.56166
# Shear Modulus (GPa) = 25.09630 33.51406 29.30518
#
# Velocity S-wave (km/s) = 3.39549 3.92384 3.66919
# Velocity P-wave (km/s) = 5.75455 6.95156 6.38118
#
# Compressibility (1/GPa) = 0.02589312
#
# Stress axis : x y z
#
# Youngs Moduli (GPa) = 57.19293 130.17571 110.81139
#
# Poissons Ratio (x) = 0.06204 0.27803
# Poissons Ratio (y) = 0.02726 0.12890
# Poissons Ratio (z) = 0.14350 0.15143
#
# Static dielectric constant tensor:
#      x y z
#    x 1.818240 0.000000 0.003190 
#    y 0.000000 1.851080 -0.000010 
#    z 0.003190 -0.000010 1.789410 
# 
# From -- ./inp_files/8272.got.cif
#   From: 2010.05.17/outbox.cif.g08.bks.cpg/sg8_5_cif.got.tgz:8272.got - 2010.06.03 19:46:02.
