data_PCOD9133685
_publ_section_title
;
Structure prediction by ZEFSAII (Michael W. Deem and Ramdas Pophale) SiO2 
 PCOD9133685
Probable space group: C M
;
_chemical_formula_sum "Si O2"
_cell_formula_units_Z 16
_cell_length_a 30.000000
_cell_length_b 9.000000
_cell_length_c 12.000000
_cell_angle_alpha 90.000000
_cell_angle_beta 30.000000
_cell_angle_gamma 90.000000
_cell_volume 1620.000000
_symmetry_space_group_name_H-M "C M"
_symmetry_group_IT_number 8
_symmetry_cell_setting 'monoclinic'
loop_
_space_group_symop_operation_xyz
x,y,z
x,-y,z
1/2+x,1/2+y,z
1/2+x,1/2-y,z
loop_
_atom_site_type_symbol
_atom_site_label
_atom_site_fract_x
_atom_site_fract_y
_atom_site_fract_z
Si Si1 0.065430 0.673634 0.301790
Si Si2 0.843370 0.678104 0.552833
Si Si3 0.296374 0.680331 0.123951
Si Si4 0.106162 0.322538 0.465150
Si Si5 0.376489 0.676901 0.709851
Si Si6 0.451383 0.678909 0.940501
Si Si7 0.169440 0.676248 0.844065
Si Si8 0.508180 0.679788 0.068635
O O1 0.035445 0.500000 0.367544
O O2 0.113724 0.700522 0.315526
O O3 0.980291 0.779754 0.480582
O O4 0.124682 0.692384 0.063685
O O5 0.846998 0.500000 0.542644
O O6 0.831224 0.736988 0.705457
O O7 0.763875 0.742285 0.649253
O O8 0.934941 0.748970 0.309306
O O9 0.294540 0.500000 0.129986
O O10 0.341554 0.720558 0.907922
O O11 0.355177 0.729411 0.101763
O O12 0.194733 0.730626 0.336566
O O13 0.096350 0.500000 0.502602
O O14 0.022077 0.240972 0.699162
O O15 0.362994 0.500000 0.724710
O O16 0.452630 0.500000 0.934494
O O17 0.478970 0.721342 0.005943
O O18 0.179932 0.500000 0.799007
O O19 0.102823 0.751742 0.900142
O O20 0.508893 0.500000 0.077279
#
# Coordination Sequence:
#
# PCOD9133685 Si02
#       8
#     4   4   4   4   4   4   4   4
#     4  10  20  35  58  90 125 156 195 249 304 361
#     4  12  25  41  62  91 127 160 201 252 307 370
#     4   9  19  37  60  87 119 159 197 239 294 356
#     4  10  20  36  60  88 120 156 198 244 297 359
#     4  11  20  35  63  90 121 161 202 244 301 366
#     4  10  22  41  61  85 118 155 202 253 299 353
#     4  11  23  41  65  91 123 161 203 251 308 366
#     4  11  24  42  63  88 121 162 210 258 306 361
#
# _framework density 9.8765429999999999
#
# number of rings (size 3 to 8) (size 9 to 14) (size 15 to 20)
#    0.000    1.500    2.500    3.000    0.000    4.500 
#    0.000    4.375    0.000    0.000    0.000    0.000 
#    0.000    0.000    0.000    0.000    0.000    0.000 
#
# Total GULP energy -89405.154268 kJ/mol
# GULP energy per Si atom -5587.822142 kJ/mol
# Density = 0.985406 g / cm^3
# Si number density = 9.876543 Si / 1000 Ang^3
#
#
#
# Elastic Constant Matrix: (Units=GPa)
#
#
# Indices 1 2 3 4 5 6 
#
# 1 147.7204 31.9159 8.6099 0.0000 -19.8913 0.0000
# 2 31.9159 62.4917 1.7225 0.0000 -5.5076 0.0000
# 3 8.6099 1.7225 13.4953 0.0000 -17.6846 0.0000
# 4 0.0000 0.0000 0.0000 23.8739 0.0000 -4.8430
# 5 -19.8913 -5.5076 -17.6846 0.0000 39.0477 0.0000
# 6 0.0000 0.0000 0.0000 -4.8430 0.0000 31.5126
#
#
#
# Elastic Compliance Matrix: (Units=1/GPa)
#
#
# Indices 1 2 3 4 5 6 
#
# 1 0.008074 -0.003808 0.000051 0.000000 0.003599 0.000000
# 2 -0.003808 0.018028 0.002260 0.000000 0.001627 0.000000
# 3 0.000051 0.002260 0.182603 0.000000 0.083045 0.000000
# 4 0.000000 0.000000 0.000000 0.043235 0.000000 0.006644
# 5 0.003599 0.001627 0.083045 0.000000 0.065283 0.000000
# 6 0.000000 0.000000 0.000000 0.006644 0.000000 0.032754
#
#
# Mechanical properties :
#
#
# Convention : Reuss Voigt Hill
#
# Bulk Modulus (GPa) = 4.86119 34.24487 19.55303
# Shear Modulus (GPa) = 11.86126 30.98414 21.42270
#
# Velocity S-wave (km/s) = 2.45312 3.96482 3.29678
# Velocity P-wave (km/s) = 3.23883 6.19143 4.94084
#
# Compressibility (1/GPa) = 0.20571103
#
# Stress axis : x y z
#
# Youngs Moduli (GPa) = 123.85633 55.46968 5.47637
#
# Poissons Ratio (x) = 0.21121 -0.00028
# Poissons Ratio (y) = 0.47161 -0.01238
# Poissons Ratio (z) = -0.00634 -0.12535
#
# Static dielectric constant tensor:
#      x y z
#    x 1.717710 0.000000 -0.018010 
#    y 0.000000 1.653710 0.000000 
#    z -0.018010 0.000000 1.688650 
# 
# From -- ./inp_files/21536.got.cif
#   From: 2010.05.17/outbox.ucp.g08.bks.cvg/sg8_11_cif.got.tgz:21536.got - 2010.06.11 13:00:03.
