data_PCOD9133426
_publ_section_title
;
Structure prediction by ZEFSAII (Michael W. Deem and Ramdas Pophale) SiO2 
 PCOD9133426
Probable space group: C M
;
_chemical_formula_sum "Si O2"
_cell_formula_units_Z 30
_cell_length_a 7.969973
_cell_length_b 16.551412
_cell_length_c 11.288968
_cell_angle_alpha 90.000000
_cell_angle_beta 69.968079
_cell_angle_gamma 90.000000
_cell_volume 1399.084085
_symmetry_space_group_name_H-M "C M"
_symmetry_group_IT_number 8
_symmetry_cell_setting 'monoclinic'
loop_
_space_group_symop_operation_xyz
x,y,z
x,-y,z
1/2+x,1/2+y,z
1/2+x,1/2-y,z
loop_
_atom_site_type_symbol
_atom_site_label
_atom_site_fract_x
_atom_site_fract_y
_atom_site_fract_z
Si Si1 0.802181 0.000000 0.304730
Si Si2 0.848460 0.840991 0.429845
Si Si3 0.234510 0.213283 0.283249
Si Si4 0.351869 0.591486 0.679396
Si Si5 0.471533 0.150596 0.833665
Si Si6 0.831269 0.863319 0.096173
Si Si7 0.460758 0.094240 0.093403
Si Si8 0.593205 0.664767 0.827052
O O1 0.767612 0.073501 0.408971
O O2 0.841669 0.069948 0.194493
O O3 0.745365 0.763569 0.402671
O O4 0.870979 0.847642 0.564542
O O5 0.043353 0.828530 0.324139
O O6 0.272889 0.279568 0.172421
O O7 0.377282 0.143312 0.223498
O O8 0.398670 0.500000 0.633032
O O9 0.483227 0.617251 0.753697
O O10 0.143080 0.595715 0.765413
O O11 0.550619 0.240939 0.817693
O O12 0.304119 0.147341 0.784985
O O13 0.399857 0.127469 0.981631
O O14 0.671558 0.890302 0.048687
O O15 0.006346 0.854680 0.975726
O O16 0.420069 0.000000 0.115266
#
# Coordination Sequence:
#
# PCOD9133426 Si02
#       8
#     2   4   4   4   4   4   4   4
#     4  10  24  42  70  98 138 186 226 286 370 410
#     4  11  26  47  70  99 140 191 238 293 350 427
#     4  11  25  42  71 102 136 184 238 285 354 435
#     4  12  28  51  73 102 149 190 245 303 358 423
#     4  12  26  45  73 110 139 193 240 297 360 435
#     4  11  22  44  69 104 145 183 227 294 369 429
#     4  12  24  41  68 109 149 177 230 303 366 428
#     4  12  26  44  77 107 142 188 246 295 363 434
#
# _framework density 21.442599999999999
#
# number of rings (size 3 to 8) (size 9 to 14) (size 15 to 20)
#    0.000    0.533    6.667    0.400    7.467    1.067 
#    0.000    0.000    2.933    0.000    0.000    0.000 
#    0.000    0.000    0.000    0.000    0.000    0.000 
#
# Total GULP energy -83578.079549 kJ/mol
# GULP energy per Si atom -5571.871970 kJ/mol
# Density = 2.139380 g / cm^3
# Si number density = 21.442600 Si / 1000 Ang^3
#
#
#
# Elastic Constant Matrix: (Units=GPa)
#
#
# Indices 1 2 3 4 5 6 
#
# 1 117.8654 31.0363 20.0329 0.0000 13.5856 0.0000
# 2 31.0363 112.8043 11.9799 0.0000 3.4196 0.0000
# 3 20.0329 11.9799 66.9103 0.0000 21.4189 0.0000
# 4 0.0000 0.0000 0.0000 26.7911 0.0000 -5.3958
# 5 13.5856 3.4196 21.4189 0.0000 25.4742 0.0000
# 6 0.0000 0.0000 0.0000 -5.3958 0.0000 9.4409
#
#
#
# Elastic Compliance Matrix: (Units=1/GPa)
#
#
# Indices 1 2 3 4 5 6 
#
# 1 0.009783 -0.002441 -0.001268 0.000000 -0.003824 0.000000
# 2 -0.002441 0.009647 -0.001366 0.000000 0.001156 0.000000
# 3 -0.001268 -0.001366 0.020927 0.000000 -0.016736 0.000000
# 4 0.000000 0.000000 0.000000 0.042181 0.000000 0.024108
# 5 -0.003824 0.001156 -0.016736 0.000000 0.055211 0.000000
# 6 0.000000 0.000000 0.000000 0.024108 0.000000 0.119701
#
#
# Mechanical properties :
#
#
# Convention : Reuss Voigt Hill
#
# Bulk Modulus (GPa) = 33.10589 47.07536 40.09062
# Shear Modulus (GPa) = 18.00700 27.97663 22.99181
#
# Velocity S-wave (km/s) = 2.90103 3.61601 3.27807
# Velocity P-wave (km/s) = 5.16664 6.27980 5.75022
#
# Compressibility (1/GPa) = 0.03020611
#
# Stress axis : x y z
#
# Youngs Moduli (GPa) = 102.21496 103.66333 47.78504
#
# Poissons Ratio (x) = 0.25306 0.06059
# Poissons Ratio (y) = 0.24952 0.06529
# Poissons Ratio (z) = 0.12961 0.14163
#
# Static dielectric constant tensor:
#      x y z
#    x 1.823300 0.000000 0.004200 
#    y 0.000000 1.778660 0.000000 
#    z 0.004200 0.000000 1.834790 
# 
# From -- ./inp_files/18855.got.cif
#   From: 2010.05.17/outbox.cif.g08.bks.cpg/sg8_10_cif.got.tgz:18855.got - 2010.06.03 19:46:02.
