data_PCOD9133687
_publ_section_title
;
Structure prediction by ZEFSAII (Michael W. Deem and Ramdas Pophale) SiO2 
 PCOD9133687
Probable space group: C M
;
_chemical_formula_sum "Si O2"
_cell_formula_units_Z 16
_cell_length_a 24.000000
_cell_length_b 9.000000
_cell_length_c 15.000000
_cell_angle_alpha 90.000000
_cell_angle_beta 30.000000
_cell_angle_gamma 90.000000
_cell_volume 1620.000000
_symmetry_space_group_name_H-M "C M"
_symmetry_group_IT_number 8
_symmetry_cell_setting 'monoclinic'
loop_
_space_group_symop_operation_xyz
x,y,z
x,-y,z
1/2+x,1/2+y,z
1/2+x,1/2-y,z
loop_
_atom_site_type_symbol
_atom_site_label
_atom_site_fract_x
_atom_site_fract_y
_atom_site_fract_z
Si Si1 0.932550 0.321502 0.203390
Si Si2 0.014027 0.321794 0.902357
Si Si3 0.252682 0.822461 0.595216
Si Si4 0.617959 0.327084 0.070650
Si Si5 0.202499 0.678463 0.127609
Si Si6 0.854950 0.673134 0.641271
Si Si7 0.944906 0.680171 0.797327
Si Si8 0.549323 0.677937 0.482648
O O1 0.950764 0.500000 0.184422
O O2 0.818825 0.288774 0.413032
O O3 0.029110 0.239779 0.125001
O O4 0.936162 0.279242 0.094245
O O5 0.019479 0.500000 0.893512
O O6 0.976540 0.277356 0.855090
O O7 0.134984 0.257756 0.757760
O O8 0.327632 0.782406 0.577437
O O9 0.234837 0.000000 0.626468
O O10 0.593268 0.500000 0.125179
O O11 0.627270 0.232667 0.148402
O O12 0.738088 0.321805 0.855816
O O13 0.207280 0.500000 0.124090
O O14 0.151792 0.747781 0.288043
O O15 0.323910 0.750322 0.945349
O O16 0.894428 0.500000 0.587780
O O17 0.942770 0.776070 0.569786
O O18 0.941457 0.500000 0.793925
O O19 0.027861 0.749426 0.609082
O O20 0.560751 0.500000 0.472594
#
# Coordination Sequence:
#
# PCOD9133687 Si02
#       8
#     4   4   4   4   4   4   4   4
#     4  10  21  38  61  90 124 162 204 249 303 364
#     4  10  23  41  62  88 120 159 204 256 306 357
#     4  10  21  38  61  89 122 161 201 246 302 363
#     4  11  21  36  62  94 127 162 202 251 306 365
#     4  12  25  42  65  93 125 164 206 254 313 372
#     4  10  20  36  60  91 129 165 199 249 308 365
#     4  11  24  44  64  88 125 165 211 262 308 363
#     4  12  25  41  65  95 124 162 207 255 314 373
#
# _framework density 9.8765429999999999
#
# number of rings (size 3 to 8) (size 9 to 14) (size 15 to 20)
#    0.000    1.250    2.500    3.750    0.000    4.500 
#    0.000    1.250    0.000    0.000    0.000    0.000 
#    0.000    0.000    0.000    0.000    0.000    0.000 
#
# Total GULP energy -89469.130913 kJ/mol
# GULP energy per Si atom -5591.820682 kJ/mol
# Density = 0.985406 g / cm^3
# Si number density = 9.876543 Si / 1000 Ang^3
#
#
#
# Elastic Constant Matrix: (Units=GPa)
#
#
# Indices 1 2 3 4 5 6 
#
# 1 94.7922 19.9847 14.0743 0.0000 39.6526 0.0000
# 2 19.9847 86.5508 20.9690 0.0000 20.6226 0.0000
# 3 14.0743 20.9690 78.6015 0.0000 38.5195 0.0000
# 4 0.0000 0.0000 0.0000 25.2213 0.0000 -1.3437
# 5 39.6526 20.6226 38.5195 0.0000 38.1062 0.0000
# 6 0.0000 0.0000 0.0000 -1.3437 0.0000 30.7955
#
#
#
# Elastic Compliance Matrix: (Units=1/GPa)
#
#
# Indices 1 2 3 4 5 6 
#
# 1 0.027434 0.000507 0.017988 0.000000 -0.047005 0.000000
# 2 0.000507 0.013274 0.000292 0.000000 -0.008006 0.000000
# 3 0.017988 0.000292 0.037005 0.000000 -0.056282 0.000000
# 4 0.000000 0.000000 0.000000 0.039741 0.000000 0.001734
# 5 -0.047005 -0.008006 -0.056282 0.000000 0.136381 0.000000
# 6 0.000000 0.000000 0.000000 0.001734 0.000000 0.032548
#
#
# Mechanical properties :
#
#
# Convention : Reuss Voigt Hill
#
# Bulk Modulus (GPa) = 8.67400 41.11118 24.89259
# Shear Modulus (GPa) = 17.40706 32.48570 24.94638
#
# Velocity S-wave (km/s) = 2.97178 4.05975 3.55760
# Velocity P-wave (km/s) = 4.02194 6.54471 5.43181
#
# Compressibility (1/GPa) = 0.11528707
#
# Stress axis : x y z
#
# Youngs Moduli (GPa) = 36.45051 75.33637 27.02301
#
# Poissons Ratio (x) = -0.03823 -0.48608
# Poissons Ratio (y) = -0.01849 -0.00788
# Poissons Ratio (z) = -0.65566 -0.02197
#
# Static dielectric constant tensor:
#      x y z
#    x 1.684800 0.000000 0.022960 
#    y 0.000000 1.659860 0.000000 
#    z 0.022960 0.000000 1.715680 
# 
# From -- ./inp_files/26529.got.cif
#   From: 2010.05.17/outbox.ucp.g08.bks.cvg/sg8_14_cif.got.tgz:26529.got - 2010.06.11 13:00:03.
