data_PCOD9133670
_publ_section_title
;
Structure prediction by ZEFSAII (Michael W. Deem and Ramdas Pophale) SiO2 
 PCOD9133670
Probable space group: C M
;
_chemical_formula_sum "Si O2"
_cell_formula_units_Z 16
_cell_length_a 21.000000
_cell_length_b 9.000000
_cell_length_c 27.000000
_cell_angle_alpha 90.000000
_cell_angle_beta 20.000000
_cell_angle_gamma 90.000000
_cell_volume 1745.328791
_symmetry_space_group_name_H-M "C M"
_symmetry_group_IT_number 8
_symmetry_cell_setting 'monoclinic'
loop_
_space_group_symop_operation_xyz
x,y,z
x,-y,z
1/2+x,1/2+y,z
1/2+x,1/2-y,z
loop_
_atom_site_type_symbol
_atom_site_label
_atom_site_fract_x
_atom_site_fract_y
_atom_site_fract_z
Si Si1 0.956830 0.823550 0.044560
Si Si2 0.409419 0.325737 0.595940
Si Si3 0.391237 0.326838 0.272936
Si Si4 0.815835 0.178112 0.835074
Si Si5 0.671962 0.179365 0.336119
Si Si6 0.525375 0.324564 0.881202
Si Si7 0.823215 0.675354 0.938245
Si Si8 0.590995 0.177130 0.558737
O O1 0.774855 0.784745 0.209823
O O2 0.994049 0.000000 0.025826
O O3 0.932745 0.803359 0.003241
O O4 0.133143 0.736413 0.938693
O O5 0.452167 0.500000 0.571683
O O6 0.486074 0.265133 0.487471
O O7 0.492907 0.222339 0.578573
O O8 0.194649 0.290296 0.757184
O O9 0.337232 0.500000 0.311774
O O10 0.308127 0.269129 0.281796
O O11 0.300166 0.273587 0.390786
O O12 0.608704 0.318635 0.110911
O O13 0.832113 0.257288 0.876532
O O14 0.991523 0.230956 0.674030
O O15 0.808530 0.000000 0.845187
O O16 0.644820 0.000000 0.357428
O O17 0.579697 0.500000 0.839238
O O18 0.419213 0.278086 0.909174
O O19 0.881735 0.500000 0.895907
O O20 0.573140 0.000000 0.581838
#
# Coordination Sequence:
#
# PCOD9133670 Si02
#       8
#     4   4   4   4   4   4   4   4
#     4  10  20  37  61  84 113 153 197 238 288 345
#     4  11  21  34  54  86 118 151 191 238 290 342
#     4   8  16  32  57  83 108 145 192 233 281 340
#     4  12  23  35  56  89 120 148 193 245 288 341
#     4   9  17  34  58  84 111 148 192 236 286 344
#     4  11  23  39  59  85 117 156 195 238 289 347
#     4  11  22  40  61  83 116 156 193 237 291 352
#     4  10  19  35  58  84 113 151 193 239 287 341
#
# _framework density 9.1673270000000002
#
# number of rings (size 3 to 8) (size 9 to 14) (size 15 to 20)
#    0.000    1.750    2.500    4.125    0.000    1.000 
#    0.000    3.125    0.000    3.000    0.000    0.000 
#    0.000    0.000    0.000    0.000    0.000    0.000 
#
# Total GULP energy -89096.188211 kJ/mol
# GULP energy per Si atom -5568.511763 kJ/mol
# Density = 0.914646 g / cm^3
# Si number density = 9.167327 Si / 1000 Ang^3
#
#
#
# Elastic Constant Matrix: (Units=GPa)
#
#
# Indices 1 2 3 4 5 6 
#
# 1 71.3402 18.0449 15.9507 0.0042 23.8417 -0.0001
# 2 18.0449 78.7501 18.0848 -0.0066 16.7491 -0.0021
# 3 15.9507 18.0848 68.7644 -0.0082 40.3393 -0.0011
# 4 0.0042 -0.0066 -0.0082 8.0091 -0.0044 -4.0375
# 5 23.8417 16.7491 40.3393 -0.0044 23.0482 -0.0024
# 6 -0.0001 -0.0021 -0.0011 -4.0375 -0.0024 24.8294
#
#
#
# Elastic Compliance Matrix: (Units=1/GPa)
#
#
# Indices 1 2 3 4 5 6 
#
# 1 0.004484 -0.005247 -0.030821 -0.000008 0.053119 0.000002
# 2 -0.005247 0.013538 -0.009124 0.000013 0.011558 0.000004
# 3 -0.030821 -0.009124 -0.056066 0.000034 0.136640 0.000015
# 4 -0.000008 0.000013 0.000034 0.136008 -0.000032 0.022116
# 5 0.053119 0.011558 0.136640 -0.000032 -0.259109 -0.000023
# 6 0.000002 0.000004 0.000015 0.022116 -0.000023 0.043871
#
#
# Mechanical properties :
#
#
# Convention : Reuss Voigt Hill
#
# Bulk Modulus (GPa) = -7.78645 35.89062 14.05209
# Shear Modulus (GPa) = -71.73654 22.29560 -24.72047
#
# Velocity S-wave (km/s) = -6.26188 3.49095 -3.67589
# Velocity P-wave (km/s) = 7.51915 5.98889 3.21487
#
# Compressibility (1/GPa) = -0.12842831
#
# Stress axis : x y z
#
# Youngs Moduli (GPa) = 223.03538 73.86811 -17.83624
#
# Poissons Ratio (x) = 0.38759 -0.54973
# Poissons Ratio (y) = 1.17028 -0.16273
# Poissons Ratio (z) = 6.87422 0.67395
#
# Static dielectric constant tensor:
#      x y z
#    x 1.655600 -0.000010 -0.041670 
#    y -0.000010 1.622980 0.000020 
#    z -0.041670 0.000020 1.746970 
# 
# From -- ./inp_files/31654.got.cif
#   From: 2010.05.17/outbox.ucp.g08.bks.cvg/sg8_16_cif.got.tgz:31654.got - 2010.06.11 13:00:03.
