data_PCOD9133712
_publ_section_title
;
Structure prediction by ZEFSAII (Michael W. Deem and Ramdas Pophale) SiO2 
 PCOD9133712
Probable space group: C M
;
_chemical_formula_sum "Si O2"
_cell_formula_units_Z 16
_cell_length_a 12.000000
_cell_length_b 18.000000
_cell_length_c 15.000000
_cell_angle_alpha 90.000000
_cell_angle_beta 30.000000
_cell_angle_gamma 90.000000
_cell_volume 1620.000000
_symmetry_space_group_name_H-M "C M"
_symmetry_group_IT_number 8
_symmetry_cell_setting 'monoclinic'
loop_
_space_group_symop_operation_xyz
x,y,z
x,-y,z
1/2+x,1/2+y,z
1/2+x,1/2-y,z
loop_
_atom_site_type_symbol
_atom_site_label
_atom_site_fract_x
_atom_site_fract_y
_atom_site_fract_z
Si Si1 0.205220 0.093417 0.055700
Si Si2 0.865520 0.913026 0.799547
Si Si3 0.681198 0.174448 0.766997
Si Si4 0.397229 0.911252 0.228978
Si Si5 0.106073 0.837227 0.922012
Si Si6 0.583778 0.162240 0.278530
Si Si7 0.287791 0.911337 0.627500
Si Si8 0.020358 0.835492 0.364337
O O1 0.043176 0.117024 0.253556
O O2 0.208258 0.000000 0.045437
O O3 0.448222 0.128463 0.915604
O O4 0.151477 0.136647 0.996028
O O5 0.842169 0.869825 0.723358
O O6 0.065667 0.888130 0.725548
O O7 0.900912 0.000000 0.756262
O O8 0.631190 0.905166 0.013587
O O9 0.640235 0.253029 0.852088
O O10 0.805518 0.173784 0.582554
O O11 0.444502 0.871839 0.291679
O O12 0.210979 0.870520 0.297336
O O13 0.348248 0.000000 0.274028
O O14 0.256755 0.886146 0.750868
O O15 0.845421 0.855166 0.087253
O O16 0.489493 0.126422 0.434769
O O17 0.563951 0.251147 0.301862
O O18 0.307561 0.000000 0.609528
#
# Coordination Sequence:
#
# PCOD9133712 Si02
#       8
#     4   4   4   4   4   4   4   4
#     4  12  29  49  71 105 150 194 239 293 363 436
#     4  10  21  41  72 103 136 178 229 292 359 418
#     4  12  26  46  75 103 140 188 241 301 355 425
#     4  11  23  43  73 104 138 179 231 292 355 417
#     4  12  27  46  74 103 143 191 241 293 356 431
#     4  12  25  43  73 106 140 184 236 301 357 420
#     4  11  24  44  71 107 143 182 237 296 362 429
#     4  12  27  44  73 107 142 184 244 296 357 420
#
# _framework density 9.8765429999999999
#
# number of rings (size 3 to 8) (size 9 to 14) (size 15 to 20)
#    0.000    0.500    5.000    2.250    5.250    6.500 
#    0.000    0.000    0.000    0.000    0.000    0.000 
#    0.000    0.000    0.000    0.000    0.000    0.000 
#
# Total GULP energy -89242.955817 kJ/mol
# GULP energy per Si atom -5577.684739 kJ/mol
# Density = 0.985406 g / cm^3
# Si number density = 9.876543 Si / 1000 Ang^3
#
#
#
# Elastic Constant Matrix: (Units=GPa)
#
#
# Indices 1 2 3 4 5 6 
#
# 1 124.6095 41.2548 23.8176 0.0210 29.5371 -0.0161
# 2 41.2548 131.1041 29.8669 0.0277 12.7163 -0.0190
# 3 23.8176 29.8669 116.2312 -0.0029 28.9136 -0.0120
# 4 0.0210 0.0277 -0.0029 36.6789 -0.0109 8.6200
# 5 29.5371 12.7163 28.9136 -0.0109 45.1663 0.0143
# 6 -0.0161 -0.0190 -0.0120 8.6200 0.0143 42.5878
#
#
#
# Elastic Compliance Matrix: (Units=1/GPa)
#
#
# Indices 1 2 3 4 5 6 
#
# 1 0.010333 -0.002682 0.000077 -0.000007 -0.006052 0.000006
# 2 -0.002682 0.008847 -0.001832 -0.000006 0.000436 0.000003
# 3 0.000077 -0.001832 0.010637 -0.000001 -0.006344 0.000004
# 4 -0.000007 -0.000006 -0.000001 0.028625 0.000016 -0.005794
# 5 -0.006052 0.000436 -0.006344 0.000016 0.030036 -0.000017
# 6 0.000006 0.000003 0.000004 -0.005794 -0.000017 0.024654
#
#
# Mechanical properties :
#
#
# Convention : Reuss Voigt Hill
#
# Bulk Modulus (GPa) = 47.75098 62.42483 55.08791
# Shear Modulus (GPa) = 38.76406 43.35363 41.05885
#
# Velocity S-wave (km/s) = 4.43474 4.68993 4.56412
# Velocity P-wave (km/s) = 7.10274 7.81015 7.46483
#
# Compressibility (1/GPa) = 0.02094198
#
# Stress axis : x y z
#
# Youngs Moduli (GPa) = 96.78014 113.03818 94.01523
#
# Poissons Ratio (x) = 0.30317 -0.00726
# Poissons Ratio (y) = 0.25957 0.17225
# Poissons Ratio (z) = -0.00747 0.20710
#
# Static dielectric constant tensor:
#      x y z
#    x 1.697520 0.000000 0.014320 
#    y 0.000000 1.714560 0.000010 
#    z 0.014320 0.000010 1.732470 
# 
# From -- ./inp_files/26261.got.cif
#   From: 2010.05.17/outbox.ucp.g08.bks.cvg/sg8_14_cif.got.tgz:26261.got - 2010.06.11 13:00:03.
