data_PCOD9133724
_publ_section_title
;
Structure prediction by ZEFSAII (Michael W. Deem and Ramdas Pophale) SiO2 
 PCOD9133724
Probable space group: C C
;
_chemical_formula_sum "Si O2"
_cell_formula_units_Z 24
_cell_length_a 27.784289
_cell_length_b 6.946514
_cell_length_c 5.324409
_cell_angle_alpha 90.000000
_cell_angle_beta 100.761016
_cell_angle_gamma 90.000000
_cell_volume 1009.560578
_symmetry_space_group_name_H-M "C C"
_symmetry_group_IT_number 9
_symmetry_cell_setting 'monoclinic'
loop_
_space_group_symop_operation_xyz
x,y,z
x,-y,1/2+z
1/2+x,1/2+y,z
1/2+x,1/2-y,1/2+z
loop_
_atom_site_type_symbol
_atom_site_label
_atom_site_fract_x
_atom_site_fract_y
_atom_site_fract_z
Si Si1 0.895520 0.784453 0.794590
Si Si2 0.148201 0.127160 0.989319
Si Si3 0.356449 0.717652 0.756253
Si Si4 0.044107 0.766935 0.241875
Si Si5 0.254929 0.127443 0.015825
Si Si6 0.505812 0.708119 0.205141
O O1 0.863429 0.694319 0.539700
O O2 0.950764 0.799034 0.752330
O O3 0.873986 0.998953 0.812390
O O4 0.890683 0.699879 0.068079
O O5 0.099454 0.247966 0.891926
O O6 0.146215 0.964207 0.766167
O O7 0.201341 0.221632 0.000621
O O8 0.301127 0.736879 0.608691
O O9 0.008799 0.702008 0.432189
O O10 0.028275 0.993313 0.192142
O O11 0.037471 0.692764 0.954011
O O12 0.257357 0.966916 0.241320
#
# Coordination Sequence:
#
# PCOD9133724 Si02
#       6
#     4   4   4   4   4   4
#     4  10  19  30  48  69  94 125 149 192 235 269
#     4  10  16  27  38  58  84 125 149 174 218 267
#     4  10  18  32  46  65  91 127 156 192 227 273
#     4  10  14  22  36  56  87 116 138 165 215 287
#     4  10  21  32  47  64  92 132 162 191 226 264
#     4  10  16  23  39  64  88 117 136 170 233 284
#
# _framework density 23.772722000000002
#
# number of rings (size 3 to 8) (size 9 to 14) (size 15 to 20)
#    0.000    2.000    3.333    6.000    0.000    0.000 
#    0.000    0.000    0.000    0.000    0.000    0.000 
#    0.000    0.000  192.667    0.667    0.000    0.000 
#
# Total GULP energy -66985.547035 kJ/mol
# GULP energy per Si atom -5582.128920 kJ/mol
# Density = 2.371861 g / cm^3
# Si number density = 23.772722 Si / 1000 Ang^3
#
#
#
# Elastic Constant Matrix: (Units=GPa)
#
#
# Indices 1 2 3 4 5 6 
#
# 1 127.8799 -16.9384 -4.8537 0.0000 19.7080 0.0000
# 2 -16.9384 59.5829 -23.4023 0.0000 0.2393 0.0000
# 3 -4.8537 -23.4023 148.2920 0.0000 -20.7224 0.0000
# 4 0.0000 0.0000 0.0000 -2.2526 0.0000 11.7861
# 5 19.7080 0.2393 -20.7224 0.0000 57.7649 0.0000
# 6 0.0000 0.0000 0.0000 11.7861 0.0000 10.4844
#
#
#
# Elastic Compliance Matrix: (Units=1/GPa)
#
#
# Indices 1 2 3 4 5 6 
#
# 1 0.008610 0.002573 0.000290 0.000000 -0.002844 0.000000
# 2 0.002573 0.018715 0.003057 0.000000 0.000141 0.000000
# 3 0.000290 0.003057 0.007601 0.000000 0.002615 0.000000
# 4 0.000000 0.000000 0.000000 -0.064507 0.000000 0.072516
# 5 -0.002844 0.000141 0.002615 0.000000 0.019219 0.000000
# 6 0.000000 0.000000 0.000000 0.072516 0.000000 0.013860
#
#
# Mechanical properties :
#
#
# Convention : Reuss Voigt Hill
#
# Bulk Modulus (GPa) = 21.38203 27.26289 24.32246
# Shear Modulus (GPa) = 690.09731 38.59594 364.34662
#
# Velocity S-wave (km/s) = 17.05637 4.03369 12.39335
# Velocity P-wave (km/s) = 19.92252 5.76083 14.66448
#
# Compressibility (1/GPa) = 0.04676824
#
# Stress axis : x y z
#
# Youngs Moduli (GPa) = 116.14417 53.43266 131.56370
#
# Poissons Ratio (x) = -0.13749 -0.03822
# Poissons Ratio (y) = -0.29886 -0.40225
# Poissons Ratio (z) = -0.03374 -0.16337
#
# Static dielectric constant tensor:
#      x y z
#    x 1.896210 0.000000 -0.020840 
#    y 0.000000 1.972930 0.000000 
#    z -0.020840 0.000000 2.004840 
# 
# From -- ./inp_files/3119.got.cif
#   From: 2010.05.17/outbox.cif.g08.bks.cpg/sg9_2_cif.got.tgz:3119.got - 2010.06.03 20:04:27.
