data_PCOD9133735
_publ_section_title
;
Structure prediction by ZEFSAII (Michael W. Deem and Ramdas Pophale) SiO2 
 PCOD9133735
Probable space group: C C
;
_chemical_formula_sum "Si O2"
_cell_formula_units_Z 32
_cell_length_a 15.414092
_cell_length_b 24.915946
_cell_length_c 8.722871
_cell_angle_alpha 90.000000
_cell_angle_beta 26.520188
_cell_angle_gamma 90.000000
_cell_volume 1495.853270
_symmetry_space_group_name_H-M "C C"
_symmetry_group_IT_number 9
_symmetry_cell_setting 'monoclinic'
loop_
_space_group_symop_operation_xyz
x,y,z
x,-y,1/2+z
1/2+x,1/2+y,z
1/2+x,1/2-y,1/2+z
loop_
_atom_site_type_symbol
_atom_site_label
_atom_site_fract_x
_atom_site_fract_y
_atom_site_fract_z
Si Si1 0.626720 0.746133 0.642130
Si Si2 0.363519 0.924626 0.788112
Si Si3 0.890057 0.075377 0.996013
Si Si4 0.911151 0.022869 0.276089
Si Si5 0.297230 0.170892 0.600147
Si Si6 0.342503 0.022894 0.007859
Si Si7 0.126841 0.099995 0.141964
Si Si8 0.456266 0.670889 0.684029
O O1 0.634608 0.706243 0.773268
O O2 0.618874 0.706258 0.510888
O O3 0.808798 0.785440 0.352705
O O4 0.444611 0.785422 0.931630
O O5 0.425357 0.944826 0.521875
O O6 0.399574 0.867131 0.809599
O O7 0.126788 0.924911 0.142064
O O8 0.439302 0.969677 0.786838
O O9 0.854003 0.132867 0.974492
O O10 0.814263 0.030327 0.997304
O O11 0.828239 0.055173 0.262223
O O12 0.955225 0.063017 0.346063
O O13 0.126786 0.999971 0.891990
O O14 0.207823 0.134237 0.873055
O O15 0.298592 0.063060 0.937641
O O16 0.045731 0.134232 0.411047
#
# Coordination Sequence:
#
# PCOD9133735 Si02
#       8
#     4   4   4   4   4   4   4   4
#     4  10  24  41  54  72 106 153 184 224 274 318
#     4  10  15  28  50  81 106 138 171 221 255 317
#     4  10  15  28  50  81 106 138 171 221 255 317
#     4  10  15  25  49  89 110 132 169 220 256 324
#     4  11  21  37  57  78 107 142 184 227 273 313
#     4  10  15  25  49  89 110 132 169 220 256 324
#     4  12  18  29  58  86 108 133 182 226 266 312
#     4  11  21  37  57  78 107 142 184 227 273 313
#
# _framework density 21.392472000000001
#
# number of rings (size 3 to 8) (size 9 to 14) (size 15 to 20)
#    0.000    1.500   10.000    0.000    0.000    1.000 
#    0.000    0.000    0.000    6.000    0.000    0.000 
#    0.000    0.000    0.000    0.000    0.000    0.000 
#
# Total GULP energy -89252.519768 kJ/mol
# GULP energy per Si atom -5578.282485 kJ/mol
# Density = 2.134378 g / cm^3
# Si number density = 21.392472 Si / 1000 Ang^3
#
#
#
# Elastic Constant Matrix: (Units=GPa)
#
#
# Indices 1 2 3 4 5 6 
#
# 1 113.0952 75.1175 14.4899 -0.0038 15.9372 0.0038
# 2 75.1175 160.5527 13.8326 -0.0007 9.5597 0.0022
# 3 14.4899 13.8326 29.8825 -0.0147 2.4083 0.0103
# 4 -0.0038 -0.0007 -0.0147 11.6591 0.0013 19.9418
# 5 15.9372 9.5597 2.4083 0.0013 3.6013 -0.0029
# 6 0.0038 0.0022 0.0103 19.9418 -0.0029 27.6646
#
#
#
# Elastic Compliance Matrix: (Units=1/GPa)
#
#
# Indices 1 2 3 4 5 6 
#
# 1 0.029024 -0.006929 -0.002111 -0.000182 -0.108639 0.000117
# 2 -0.006929 0.009161 -0.001471 0.000030 0.007330 -0.000020
# 3 -0.002111 -0.001471 0.036044 -0.000301 -0.010857 0.000203
# 4 -0.000182 0.000030 -0.000301 -0.368216 0.001272 0.265426
# 5 -0.108639 0.007330 -0.010857 0.001272 0.746255 -0.000820
# 6 0.000117 -0.000020 0.000203 0.265426 -0.000820 -0.155183
#
#
# Mechanical properties :
#
#
# Convention : Reuss Voigt Hill
#
# Bulk Modulus (GPa) = 18.79479 56.71228 37.75354
# Shear Modulus (GPa) = 14.88795 21.92435 18.40615
#
# Velocity S-wave (km/s) = 2.64094 3.20482 2.93645
# Velocity P-wave (km/s) = 4.25490 6.34527 5.40216
#
# Compressibility (1/GPa) = 0.05320623
#
# Stress axis : x y z
#
# Youngs Moduli (GPa) = 34.45427 109.16302 27.74407
#
# Poissons Ratio (x) = 0.75638 0.05856
# Poissons Ratio (y) = 0.23873 0.04082
# Poissons Ratio (z) = 0.07272 0.16062
#
# Static dielectric constant tensor:
#      x y z
#    x 1.827340 0.000000 -0.012440 
#    y 0.000000 1.761390 0.000000 
#    z -0.012440 0.000000 1.827710 
# 
# From -- ./inp_files/10156.got.cif
#   From: 2010.05.17/outbox.cif.g08.bks.cpg/sg9_6_cif.got.tgz:10156.got - 2010.06.03 20:04:27.
