data_PCOD9133527
_publ_section_title
;
Structure prediction by ZEFSAII (Michael W. Deem and Ramdas Pophale) SiO2 
 PCOD9133527
Probable space group: C M
;
_chemical_formula_sum "Si O2"
_cell_formula_units_Z 26
_cell_length_a 14.456180
_cell_length_b 7.572279
_cell_length_c 9.928189
_cell_angle_alpha 90.000000
_cell_angle_beta 64.996625
_cell_angle_gamma 90.000000
_cell_volume 984.949518
_symmetry_space_group_name_H-M "C M"
_symmetry_group_IT_number 8
_symmetry_cell_setting 'monoclinic'
loop_
_space_group_symop_operation_xyz
x,y,z
x,-y,z
1/2+x,1/2+y,z
1/2+x,1/2-y,z
loop_
_atom_site_type_symbol
_atom_site_label
_atom_site_fract_x
_atom_site_fract_y
_atom_site_fract_z
Si Si1 0.067390 0.710221 0.620710
Si Si2 0.214108 0.000000 0.819213
Si Si3 0.849033 0.811625 0.811281
Si Si4 0.008816 0.714468 0.360925
Si Si5 0.284021 0.210880 0.432400
Si Si6 0.322342 0.792605 0.118738
Si Si7 0.564520 0.791906 0.033744
O O1 0.059573 0.500000 0.635399
O O2 0.183138 0.760623 0.581621
O O3 0.970805 0.789056 0.755804
O O4 0.051778 0.773630 0.476506
O O5 0.305098 0.151479 0.754694
O O6 0.130543 0.156970 0.907241
O O7 0.828120 0.000000 0.761861
O O8 0.801952 0.799261 0.990080
O O9 0.007951 0.500000 0.363222
O O10 0.892082 0.778192 0.418231
O O11 0.069632 0.762143 0.188671
O O12 0.270739 0.278276 0.286638
O O13 0.295418 0.000000 0.412393
O O14 0.443644 0.782424 0.074683
O O15 0.297319 0.000000 0.112940
O O16 0.592021 0.000000 0.999297
#
# Coordination Sequence:
#
# PCOD9133527 Si02
#       7
#     4   2   4   4   4   4   4
#     4  11  22  41  62  88 128 169 213 260 315 381
#     4  12  24  42  64  94 128 164 218 260 320 384
#     4  12  26  43  62  89 131 171 214 266 317 375
#     4   8  18  39  65  92 129 161 205 259 313 383
#     4   9  19  38  66  95 122 164 207 256 321 376
#     4   9  19  41  67  96 131 162 209 265 312 382
#     4   9  20  40  67 100 128 160 205 266 324 374
#
# _framework density 26.397293000000001
#
# number of rings (size 3 to 8) (size 9 to 14) (size 15 to 20)
#    0.000    2.154    1.538    2.769    3.231    0.615 
#    8.308    0.000    0.000    0.000    0.000    0.000 
#    0.000    0.000    0.000    0.000    0.000    0.000 
#
# Total GULP energy -72604.344902 kJ/mol
# GULP energy per Si atom -5584.949608 kJ/mol
# Density = 2.633721 g / cm^3
# Si number density = 26.397293 Si / 1000 Ang^3
#
#
#
# Elastic Constant Matrix: (Units=GPa)
#
#
# Indices 1 2 3 4 5 6 
#
# 1 93.4649 15.6218 46.4972 0.0000 -19.2278 0.0000
# 2 15.6218 141.4121 10.0485 0.0000 -5.0087 0.0000
# 3 46.4972 10.0485 130.3663 0.0000 -15.3236 0.0000
# 4 0.0000 0.0000 0.0000 21.4934 0.0000 -28.9636
# 5 -19.2278 -5.0087 -15.3236 0.0000 57.3016 0.0000
# 6 0.0000 0.0000 0.0000 -28.9636 0.0000 28.4620
#
#
#
# Elastic Compliance Matrix: (Units=1/GPa)
#
#
# Indices 1 2 3 4 5 6 
#
# 1 0.013776 -0.001088 -0.004437 0.000000 0.003341 0.000000
# 2 -0.001088 0.007210 -0.000141 0.000000 0.000227 0.000000
# 3 -0.004437 -0.000141 0.009382 0.000000 0.001008 0.000000
# 4 0.000000 0.000000 0.000000 -0.125303 0.000000 -0.127511
# 5 0.003341 0.000227 0.001008 0.000000 0.018862 0.000000
# 6 0.000000 0.000000 0.000000 -0.127511 0.000000 -0.094624
#
#
# Mechanical properties :
#
#
# Convention : Reuss Voigt Hill
#
# Bulk Modulus (GPa) = 52.53124 56.61979 54.57551
# Shear Modulus (GPa) = -32.67551 40.98978 4.15713
#
# Velocity S-wave (km/s) = -3.52211 3.94484 1.25629
# Velocity P-wave (km/s) = 1.84476 6.49959 4.77743
#
# Compressibility (1/GPa) = 0.01903629
#
# Stress axis : x y z
#
# Youngs Moduli (GPa) = 72.59232 138.69994 106.58190
#
# Poissons Ratio (x) = 0.15093 0.47287
# Poissons Ratio (y) = 0.07899 0.01501
# Poissons Ratio (z) = 0.32207 0.01954
#
# Static dielectric constant tensor:
#      x y z
#    x 2.112620 0.000000 0.049220 
#    y 0.000000 1.997590 0.000000 
#    z 0.049220 0.000000 2.101080 
# 
# From -- ./inp_files/21283.got.cif
#   From: 2010.05.17/outbox.cif.g08.bks.cpg/sg8_11_cif.got.tgz:21283.got - 2010.06.03 19:46:02.
