data_PCOD9133430
_publ_section_title
;
Structure prediction by ZEFSAII (Michael W. Deem and Ramdas Pophale) SiO2 
 PCOD9133430
Probable space group: C M
;
_chemical_formula_sum "Si O2"
_cell_formula_units_Z 20
_cell_length_a 9.498279
_cell_length_b 18.340285
_cell_length_c 5.069172
_cell_angle_alpha 90.000000
_cell_angle_beta 96.114373
_cell_angle_gamma 90.000000
_cell_volume 878.032084
_symmetry_space_group_name_H-M "C M"
_symmetry_group_IT_number 8
_symmetry_cell_setting 'monoclinic'
loop_
_space_group_symop_operation_xyz
x,y,z
x,-y,z
1/2+x,1/2+y,z
1/2+x,1/2-y,z
loop_
_atom_site_type_symbol
_atom_site_label
_atom_site_fract_x
_atom_site_fract_y
_atom_site_fract_z
Si Si1 0.667800 0.420974 0.517820
Si Si2 0.738296 0.915812 0.046105
Si Si3 0.545512 0.355045 0.989777
Si Si4 0.962589 0.371128 0.733811
Si Si5 0.541225 0.197372 0.243474
O O1 0.611392 0.500000 0.587149
O O2 0.629522 0.406879 0.208936
O O3 0.835097 0.417413 0.597201
O O4 0.600874 0.362600 0.704237
O O5 0.610373 0.912793 0.807518
O O6 0.755569 0.000000 0.137286
O O7 0.676408 0.856878 0.243825
O O8 0.883617 0.882367 0.969862
O O9 0.566049 0.275616 0.122366
O O10 0.987789 0.306495 0.529467
O O11 0.929924 0.339830 0.017678
#
# Coordination Sequence:
#
# PCOD9133430 Si02
#       5
#     4   4   4   4   4
#     4  12  26  45  70 103 141 181 225 285 351 414
#     4  10  25  45  71 101 137 183 232 286 342 411
#     4  12  27  44  72 100 144 179 233 283 351 406
#     4  10  24  43  72  95 137 177 236 272 346 402
#     4  10  25  43  71  99 136 178 234 282 339 405
#
# _framework density 22.778212
#
# number of rings (size 3 to 8) (size 9 to 14) (size 15 to 20)
#    1.200    0.000    0.000    4.800    8.400    1.600 
#    0.000    0.000    0.000    0.000    0.000    0.000 
#    0.000    0.000    0.000    0.000    0.000    0.000 
#
# Total GULP energy -55804.134199 kJ/mol
# GULP energy per Si atom -5580.413420 kJ/mol
# Density = 2.272637 g / cm^3
# Si number density = 22.778212 Si / 1000 Ang^3
#
#
#
# Elastic Constant Matrix: (Units=GPa)
#
#
# Indices 1 2 3 4 5 6 
#
# 1 92.5322 7.6185 14.7212 0.0000 13.2879 0.0000
# 2 7.6185 127.6335 -8.3948 0.0000 -8.0941 0.0000
# 3 14.7212 -8.3948 75.3193 0.0000 -2.9207 0.0000
# 4 0.0000 0.0000 0.0000 34.5214 0.0000 -12.3411
# 5 13.2879 -8.0941 -2.9207 0.0000 30.2670 0.0000
# 6 0.0000 0.0000 0.0000 -12.3411 0.0000 18.3435
#
#
#
# Elastic Compliance Matrix: (Units=1/GPa)
#
#
# Indices 1 2 3 4 5 6 
#
# 1 0.012210 -0.001289 -0.002762 0.000000 -0.005972 0.000000
# 2 -0.001289 0.008178 0.001275 0.000000 0.002876 0.000000
# 3 -0.002762 0.001275 0.014072 0.000000 0.002911 0.000000
# 4 0.000000 0.000000 0.000000 0.038141 0.000000 0.025660
# 5 -0.005972 0.002876 0.002911 0.000000 0.036711 0.000000
# 6 0.000000 0.000000 0.000000 0.025660 0.000000 0.071779
#
#
# Mechanical properties :
#
#
# Convention : Reuss Voigt Hill
#
# Bulk Modulus (GPa) = 34.59249 35.93055 35.26152
# Shear Modulus (GPa) = 25.47397 35.39571 30.43484
#
# Velocity S-wave (km/s) = 3.34780 3.94627 3.65929
# Velocity P-wave (km/s) = 5.49211 6.04751 5.77649
#
# Compressibility (1/GPa) = 0.02890801
#
# Stress axis : x y z
#
# Youngs Moduli (GPa) = 81.89918 122.27732 71.06522
#
# Poissons Ratio (x) = 0.15764 0.19626
# Poissons Ratio (y) = 0.10558 -0.09061
# Poissons Ratio (z) = 0.22618 -0.15590
#
# Static dielectric constant tensor:
#      x y z
#    x 1.837500 0.000000 0.003220 
#    y 0.000000 1.668090 0.000000 
#    z 0.003220 0.000000 1.806700 
# 
# From -- ./inp_files/1202.got.cif
#   From: 2010.05.17/outbox.cif.g08.bks.cpg/sg8_1_cif.got.tgz:1202.got - 2010.06.03 19:46:02.
