data_PCOD9133571
_publ_section_title
;
Structure prediction by ZEFSAII (Michael W. Deem and Ramdas Pophale) SiO2 
 PCOD9133571
Probable space group: C M
;
_chemical_formula_sum "Si O2"
_cell_formula_units_Z 28
_cell_length_a 7.345365
_cell_length_b 17.252386
_cell_length_c 11.714244
_cell_angle_alpha 90.000000
_cell_angle_beta 49.869384
_cell_angle_gamma 90.000000
_cell_volume 1135.005856
_symmetry_space_group_name_H-M "C M"
_symmetry_group_IT_number 8
_symmetry_cell_setting 'monoclinic'
loop_
_space_group_symop_operation_xyz
x,y,z
x,-y,z
1/2+x,1/2+y,z
1/2+x,1/2-y,z
loop_
_atom_site_type_symbol
_atom_site_label
_atom_site_fract_x
_atom_site_fract_y
_atom_site_fract_z
Si Si1 0.201980 0.582367 0.002040
Si Si2 0.814864 0.853709 0.188991
Si Si3 0.976033 0.819916 0.545672
Si Si4 0.521691 0.778864 0.953063
Si Si5 0.911709 0.343186 0.764901
Si Si6 0.633813 0.587387 0.263135
Si Si7 0.896149 0.356164 0.532390
O O1 0.270278 0.500000 0.919808
O O2 0.329177 0.591800 0.072033
O O3 0.214005 0.663450 0.932752
O O4 0.916666 0.581408 0.135459
O O5 0.861705 0.767963 0.112287
O O6 0.566992 0.874351 0.355128
O O7 0.384236 0.832151 0.915363
O O8 0.890737 0.602238 0.658839
O O9 0.007073 0.727922 0.520566
O O10 0.080604 0.862059 0.394095
O O11 0.132278 0.848123 0.588832
O O12 0.003588 0.873659 0.209411
O O13 0.694559 0.715845 0.824135
O O14 0.197385 0.336479 0.655557
O O15 0.538741 0.500000 0.314786
#
# Coordination Sequence:
#
# PCOD9133571 Si02
#       7
#     4   4   4   4   4   4   4
#     4  11  25  45  69 102 149 188 230 296 365 421
#     4  12  24  42  72 107 138 178 245 298 343 418
#     4  12  21  39  65  98 136 175 229 284 350 409
#     4  12  24  43  69 106 140 184 238 292 348 422
#     4  12  23  41  64 100 138 178 228 296 343 410
#     4  11  24  42  66 102 145 185 229 297 366 421
#     4  12  22  38  71  99 133 176 225 301 350 391
#
# _framework density 24.669477000000001
#
# number of rings (size 3 to 8) (size 9 to 14) (size 15 to 20)
#    0.000    0.286    7.143    2.143    2.000    0.000 
#    0.000    0.714    0.000    1.714    0.000    0.000 
#    0.000    0.000    0.000    0.000    0.000    0.000 
#
# Total GULP energy -77951.455803 kJ/mol
# GULP energy per Si atom -5567.961129 kJ/mol
# Density = 2.461333 g / cm^3
# Si number density = 24.669477 Si / 1000 Ang^3
#
#
#
# Elastic Constant Matrix: (Units=GPa)
#
#
# Indices 1 2 3 4 5 6 
#
# 1 198.5034 9.6453 14.6626 0.0000 20.1380 0.0000
# 2 9.6453 61.7457 17.8565 0.0000 5.7528 0.0000
# 3 14.6626 17.8565 98.1549 0.0000 1.6146 0.0000
# 4 0.0000 0.0000 0.0000 3.4955 0.0000 -0.1457
# 5 20.1380 5.7528 1.6146 0.0000 43.7369 0.0000
# 6 0.0000 0.0000 0.0000 -0.1457 0.0000 9.8670
#
#
#
# Elastic Compliance Matrix: (Units=1/GPa)
#
#
# Indices 1 2 3 4 5 6 
#
# 1 0.005350 -0.000416 -0.000684 0.000000 -0.002383 0.000000
# 2 -0.000416 0.017329 -0.003058 0.000000 -0.001975 0.000000
# 3 -0.000684 -0.003058 0.010841 0.000000 0.000317 0.000000
# 4 0.000000 0.000000 0.000000 0.286260 0.000000 0.004227
# 5 -0.002383 -0.001975 0.000317 0.000000 0.024209 0.000000
# 6 0.000000 0.000000 0.000000 0.004227 0.000000 0.101411
#
#
# Mechanical properties :
#
#
# Convention : Reuss Voigt Hill
#
# Bulk Modulus (GPa) = 39.67591 49.19253 44.43422
# Shear Modulus (GPa) = 10.81976 32.50253 21.66114
#
# Velocity S-wave (km/s) = 2.09652 3.63370 2.96641
# Velocity P-wave (km/s) = 4.68812 6.13099 5.45745
#
# Compressibility (1/GPa) = 0.02520421
#
# Stress axis : x y z
#
# Youngs Moduli (GPa) = 186.90701 57.70765 92.23997
#
# Poissons Ratio (x) = 0.02399 0.06313
# Poissons Ratio (y) = 0.07771 0.28206
# Poissons Ratio (z) = 0.12792 0.17646
#
# Static dielectric constant tensor:
#      x y z
#    x 1.956420 0.000000 0.033310 
#    y 0.000000 2.071850 0.000000 
#    z 0.033310 0.000000 2.109650 
# 
# From -- ./inp_files/28948.got.cif
#   From: 2010.05.17/outbox.cif.g08.bks.cpg/sg8_15_cif.got.tgz:28948.got - 2010.06.03 19:46:02.
