data_PCOD9133508
_publ_section_title
;
Structure prediction by ZEFSAII (Michael W. Deem and Ramdas Pophale) SiO2 
 PCOD9133508
Probable space group: C M
;
_chemical_formula_sum "Si O2"
_cell_formula_units_Z 18
_cell_length_a 7.242874
_cell_length_b 14.649231
_cell_length_c 7.385055
_cell_angle_alpha 90.000000
_cell_angle_beta 59.973487
_cell_angle_gamma 90.000000
_cell_volume 678.412801
_symmetry_space_group_name_H-M "C M"
_symmetry_group_IT_number 8
_symmetry_cell_setting 'monoclinic'
loop_
_space_group_symop_operation_xyz
x,y,z
x,-y,z
1/2+x,1/2+y,z
1/2+x,1/2-y,z
loop_
_atom_site_type_symbol
_atom_site_label
_atom_site_fract_x
_atom_site_fract_y
_atom_site_fract_z
Si Si1 0.016030 0.850373 0.819820
Si Si2 0.496449 0.000000 0.070675
Si Si3 0.178983 0.859440 0.357933
Si Si4 0.982537 0.635297 0.747036
Si Si5 0.801843 0.854349 0.276992
O O1 0.034080 0.881076 0.604043
O O2 0.240403 0.875884 0.800289
O O3 0.006335 0.740869 0.798270
O O4 0.836265 0.883394 0.050604
O O5 0.383868 0.078504 0.254438
O O6 0.539338 0.077503 0.892401
O O7 0.255835 0.754498 0.309899
O O8 0.027558 0.875685 0.260944
O O9 0.125739 0.610652 0.502780
#
# Coordination Sequence:
#
# PCOD9133508 Si02
#       5
#     4   2   4   4   4
#     4  11  21  44  69  98 125 181 223 263 311 416
#     4  12  24  44  62 106 140 166 204 300 324 380
#     4  11  24  41  74  96 135 169 226 268 336 372
#     4  11  24  41  74  96 135 169 226 268 336 372
#     4  11  21  44  69  98 125 181 223 263 311 416
#
# _framework density 26.532520000000002
#
# number of rings (size 3 to 8) (size 9 to 14) (size 15 to 20)
#    0.000    0.889    4.444    5.333    0.000    1.778 
#    4.000    0.000    0.000    5.333    0.000    0.000 
#    0.000    0.000    0.000    0.000    0.000    0.000 
#
# Total GULP energy -50170.104469 kJ/mol
# GULP energy per Si atom -5574.456052 kJ/mol
# Density = 2.647213 g / cm^3
# Si number density = 26.532520 Si / 1000 Ang^3
#
#
#
# Elastic Constant Matrix: (Units=GPa)
#
#
# Indices 1 2 3 4 5 6 
#
# 1 107.1127 -31.3885 17.8180 0.0000 8.2915 0.0000
# 2 -31.3885 39.9441 4.2942 0.0000 0.7612 0.0000
# 3 17.8180 4.2942 222.8389 0.0000 32.8151 0.0000
# 4 0.0000 0.0000 0.0000 -71.3017 0.0000 -5.3049
# 5 8.2915 0.7612 32.8151 0.0000 56.1214 0.0000
# 6 0.0000 0.0000 0.0000 -5.3049 0.0000 -72.8258
#
#
#
# Elastic Compliance Matrix: (Units=1/GPa)
#
#
# Indices 1 2 3 4 5 6 
#
# 1 0.012535 0.009983 -0.000987 0.000000 -0.001410 0.000000
# 2 0.009983 0.033038 -0.001260 0.000000 -0.001186 0.000000
# 3 -0.000987 -0.001260 0.004997 0.000000 -0.002759 0.000000
# 4 0.000000 0.000000 0.000000 -0.014101 0.000000 0.001027
# 5 -0.001410 -0.001186 -0.002759 0.000000 0.019656 0.000000
# 6 0.000000 0.000000 0.000000 0.001027 0.000000 -0.013806
#
#
# Mechanical properties :
#
#
# Convention : Reuss Voigt Hill
#
# Bulk Modulus (GPa) = 15.14211 39.03810 27.09010
# Shear Modulus (GPa) = 102.33249 7.67691 55.00470
#
# Velocity S-wave (km/s) = 6.21711 1.70284 4.55808
# Velocity P-wave (km/s) = 7.56677 4.31410 6.15904
#
# Compressibility (1/GPa) = 0.06604101
#
# Stress axis : x y z
#
# Youngs Moduli (GPa) = 79.77836 30.26837 200.11889
#
# Poissons Ratio (x) = -0.30217 0.19751
# Poissons Ratio (y) = -0.79642 0.25219
# Poissons Ratio (z) = 0.07874 0.03814
#
# Static dielectric constant tensor:
#      x y z
#    x 2.079270 0.000000 -0.031480 
#    y 0.000000 2.137290 0.000000 
#    z -0.031480 0.000000 2.040080 
# 
# From -- ./inp_files/7620.got.cif
#   From: 2010.05.17/outbox.cif.g08.bks.cpg/sg8_4_cif.got.tgz:7620.got - 2010.06.03 19:46:02.
