data_PCOD9133858
_publ_section_title
;
Structure prediction by ZEFSAII (Michael W. Deem and Ramdas Pophale) SiO2 
 PCOD9133858
Probable space group: C C
;
_chemical_formula_sum "Si O2"
_cell_formula_units_Z 28
_cell_length_a 28.367305
_cell_length_b 6.674426
_cell_length_c 8.691127
_cell_angle_alpha 90.000000
_cell_angle_beta 40.412993
_cell_angle_gamma 90.000000
_cell_volume 1066.790518
_symmetry_space_group_name_H-M "C C"
_symmetry_group_IT_number 9
_symmetry_cell_setting 'monoclinic'
loop_
_space_group_symop_operation_xyz
x,y,z
x,-y,1/2+z
1/2+x,1/2+y,z
1/2+x,1/2-y,1/2+z
loop_
_atom_site_type_symbol
_atom_site_label
_atom_site_fract_x
_atom_site_fract_y
_atom_site_fract_z
Si Si1 0.365560 0.582735 0.096470
Si Si2 0.407728 0.074736 0.737698
Si Si3 0.615754 0.786103 0.182223
Si Si4 0.250782 0.273295 0.654772
Si Si5 0.278995 0.827844 0.781551
Si Si6 0.652933 0.853968 0.411094
Si Si7 0.478808 0.741460 0.336805
O O1 0.378979 0.750039 0.193127
O O2 0.327473 0.667886 0.038982
O O3 0.441069 0.468985 0.892093
O O4 0.341770 0.067859 0.027614
O O5 0.473574 0.141188 0.687737
O O6 0.435405 0.885059 0.568668
O O7 0.608055 0.764926 0.382785
O O8 0.555258 0.691478 0.224605
O O9 0.696913 0.717924 0.930463
O O10 0.609668 0.020167 0.145578
O O11 0.256468 0.107934 0.508000
O O12 0.204896 0.469049 0.712223
O O13 0.208391 0.789236 0.857511
O O14 0.313204 0.611080 0.747721
#
# Coordination Sequence:
#
# PCOD9133858 Si02
#       7
#     4   4   4   4   4   4   4
#     4  10  21  41  68  99 129 175 224 282 337 398
#     4  11  25  39  64  97 135 181 218 279 346 405
#     4  10  18  32  58  94 126 170 222 274 325 407
#     4   9  17  33  66 100 119 168 234 273 331 407
#     4  10  17  33  61  96 121 161 225 277 322 391
#     4   9  15  28  54  91 121 159 227 264 316 399
#     4  11  25  42  61 101 139 174 224 277 343 417
#
# _framework density 26.246950999999999
#
# number of rings (size 3 to 8) (size 9 to 14) (size 15 to 20)
#    0.857    1.143    1.429    4.286    0.000    4.571 
#    0.000    0.000    0.000    3.429   37.143    0.000 
#    0.000    0.000    0.000    0.000    0.000    0.000 
#
# Total GULP energy -78160.281776 kJ/mol
# GULP energy per Si atom -5582.877270 kJ/mol
# Density = 2.618721 g / cm^3
# Si number density = 26.246951 Si / 1000 Ang^3
#
#
#
# Elastic Constant Matrix: (Units=GPa)
#
#
# Indices 1 2 3 4 5 6 
#
# 1 242.0950 26.5022 34.0986 0.0000 12.5109 0.0000
# 2 26.5022 75.0302 26.9893 0.0000 5.4084 0.0000
# 3 34.0986 26.9893 74.4590 0.0000 14.2177 0.0000
# 4 0.0000 0.0000 0.0000 19.2234 0.0000 5.4487
# 5 12.5109 5.4084 14.2177 0.0000 38.1027 0.0000
# 6 0.0000 0.0000 0.0000 5.4487 0.0000 31.7007
#
#
#
# Elastic Compliance Matrix: (Units=1/GPa)
#
#
# Indices 1 2 3 4 5 6 
#
# 1 0.004496 -0.000972 -0.001563 0.000000 -0.000755 0.000000
# 2 -0.000972 0.015537 -0.005197 0.000000 0.000053 0.000000
# 3 -0.001563 -0.005197 0.017002 0.000000 -0.005093 0.000000
# 4 0.000000 0.000000 0.000000 0.054684 0.000000 -0.009399
# 5 -0.000755 0.000053 -0.005093 0.000000 0.028386 0.000000
# 6 0.000000 0.000000 0.000000 -0.009399 0.000000 0.033160
#
#
# Mechanical properties :
#
#
# Convention : Reuss Voigt Hill
#
# Bulk Modulus (GPa) = 46.35434 62.97383 54.66408
# Shear Modulus (GPa) = 28.42230 38.07164 33.24697
#
# Velocity S-wave (km/s) = 3.29428 3.81270 3.56293
# Velocity P-wave (km/s) = 5.67177 6.58992 6.14801
#
# Compressibility (1/GPa) = 0.02157295
#
# Stress axis : x y z
#
# Youngs Moduli (GPa) = 222.41544 64.36374 58.81637
#
# Poissons Ratio (x) = 0.06253 0.09191
# Poissons Ratio (y) = 0.21609 0.30566
# Poissons Ratio (z) = 0.34755 0.33448
#
# Static dielectric constant tensor:
#      x y z
#    x 2.049770 0.000000 0.003240 
#    y 0.000000 2.157550 0.000000 
#    z 0.003240 0.000000 2.164590 
# 
# From -- ./inp_files/10768.got.cif
#   From: 2010.05.17/outbox.cif.g08.bks.cpg/sg9_6_cif.got.tgz:10768.got - 2010.06.03 20:04:27.
