data_PCOD9133501
_publ_section_title
;
Structure prediction by ZEFSAII (Michael W. Deem and Ramdas Pophale) SiO2 
 PCOD9133501
Probable space group: C M
;
_chemical_formula_sum "Si O2"
_cell_formula_units_Z 32
_cell_length_a 13.215711
_cell_length_b 21.334267
_cell_length_c 11.109488
_cell_angle_alpha 90.000000
_cell_angle_beta 33.178634
_cell_angle_gamma 90.000000
_cell_volume 1714.150644
_symmetry_space_group_name_H-M "C M"
_symmetry_group_IT_number 8
_symmetry_cell_setting 'monoclinic'
loop_
_space_group_symop_operation_xyz
x,y,z
x,-y,z
1/2+x,1/2+y,z
1/2+x,1/2-y,z
loop_
_atom_site_type_symbol
_atom_site_label
_atom_site_fract_x
_atom_site_fract_y
_atom_site_fract_z
Si Si1 0.001810 0.571261 0.882600
Si Si2 0.809328 0.850331 0.721000
Si Si3 0.286961 0.283901 0.259775
Si Si4 0.215488 0.711145 0.052527
Si Si5 0.202521 0.791238 0.771528
Si Si6 0.165633 0.070640 0.400274
Si Si7 0.943918 0.666439 0.730221
Si Si8 0.792218 0.677215 0.422538
O O1 0.067419 0.500000 0.794886
O O2 0.148628 0.611477 0.813846
O O3 0.948712 0.608454 0.814823
O O4 0.820254 0.568111 0.144528
O O5 0.789993 0.778684 0.693093
O O6 0.995243 0.888974 0.520366
O O7 0.790463 0.840755 0.884243
O O8 0.232096 0.297378 0.177951
O O9 0.242716 0.213647 0.348597
O O10 0.158090 0.320587 0.482259
O O11 0.507460 0.292620 0.035288
O O12 0.995713 0.704364 0.247578
O O13 0.330149 0.775109 0.905295
O O14 0.338451 0.837844 0.707317
O O15 0.177977 0.806913 0.656018
O O16 0.260649 0.105583 0.419095
O O17 0.105890 0.000000 0.489848
#
# Coordination Sequence:
#
# PCOD9133501 Si02
#       8
#     4   4   4   4   4   4   4   4
#     4  11  24  42  62  89 126 169 210 251 300 367
#     4  11  21  40  62  94 124 159 203 254 313 364
#     4  12  21  38  60  93 127 157 197 254 325 365
#     4  11  22  35  62  93 123 159 196 263 315 363
#     4  11  23  37  63  95 123 160 195 263 318 368
#     4  11  24  40  63  88 122 167 208 252 297 367
#     4  11  23  37  59  91 125 161 203 254 310 370
#     4  12  21  39  61  89 127 160 204 249 316 370
#
# _framework density 18.668137999999999
#
# number of rings (size 3 to 8) (size 9 to 14) (size 15 to 20)
#    0.000    0.750    5.000    5.625    1.750    1.000 
#    0.000    0.625    0.000    3.750    0.000    0.000 
#    0.000    0.000    0.000    0.000    0.000    0.000 
#
# Total GULP energy -89181.805955 kJ/mol
# GULP energy per Si atom -5573.862872 kJ/mol
# Density = 1.862565 g / cm^3
# Si number density = 18.668138 Si / 1000 Ang^3
#
#
#
# Elastic Constant Matrix: (Units=GPa)
#
#
# Indices 1 2 3 4 5 6 
#
# 1 95.1823 63.4954 25.6548 0.0019 0.8870 -0.0005
# 2 63.4954 101.0263 29.6404 0.0014 5.8421 -0.0018
# 3 25.6548 29.6404 86.2624 0.0038 -0.7571 -0.0027
# 4 0.0019 0.0014 0.0038 20.1553 -0.0011 0.6303
# 5 0.8870 5.8421 -0.7571 -0.0011 27.2851 -0.0011
# 6 -0.0005 -0.0018 -0.0027 0.6303 -0.0011 15.2357
#
#
#
# Elastic Compliance Matrix: (Units=1/GPa)
#
#
# Indices 1 2 3 4 5 6 
#
# 1 0.018384 -0.011184 -0.001609 -0.000001 0.001752 -0.000001
# 2 -0.011184 0.017979 -0.002883 0.000000 -0.003566 0.000001
# 3 -0.001609 -0.002883 0.013071 -0.000002 0.001032 0.000002
# 4 -0.000001 0.000000 -0.000002 0.049679 0.000002 -0.002055
# 5 0.001752 -0.003566 0.001032 0.000002 0.037385 0.000002
# 6 -0.000001 0.000001 0.000002 -0.002055 0.000002 0.065720
#
#
# Mechanical properties :
#
#
# Convention : Reuss Voigt Hill
#
# Bulk Modulus (GPa) = 55.30283 57.78356 56.54319
# Shear Modulus (GPa) = 20.86824 23.44726 22.15775
#
# Velocity S-wave (km/s) = 3.34706 3.54786 3.44892
# Velocity P-wave (km/s) = 6.68024 6.91399 6.79812
#
# Compressibility (1/GPa) = 0.01808226
#
# Stress axis : x y z
#
# Youngs Moduli (GPa) = 54.39475 55.61898 76.50592
#
# Poissons Ratio (x) = 0.62202 0.12313
# Poissons Ratio (y) = 0.60833 0.22058
# Poissons Ratio (z) = 0.08754 0.16036
#
# Static dielectric constant tensor:
#      x y z
#    x 1.688260 0.000000 -0.038090 
#    y 0.000000 1.645020 0.000000 
#    z -0.038090 0.000000 1.702920 
# 
# From -- ./inp_files/22394.got.cif
#   From: 2010.05.17/outbox.cif.g08.bks.cpg/sg8_12_cif.got.tgz:22394.got - 2010.06.03 19:46:02.
