data_PCOD9133211
_publ_section_title
;
Structure prediction by ZEFSAII (Michael W. Deem and Ramdas Pophale) SiO2 
 PCOD9133211
Probable space group: C M
;
_chemical_formula_sum "Si O2"
_cell_formula_units_Z 26
_cell_length_a 20.671737
_cell_length_b 11.869441
_cell_length_c 4.827466
_cell_angle_alpha 90.000000
_cell_angle_beta 70.809618
_cell_angle_gamma 90.000000
_cell_volume 1118.657022
_symmetry_space_group_name_H-M "C M"
_symmetry_group_IT_number 8
_symmetry_cell_setting 'monoclinic'
loop_
_space_group_symop_operation_xyz
x,y,z
x,-y,z
1/2+x,1/2+y,z
1/2+x,1/2-y,z
loop_
_atom_site_type_symbol
_atom_site_label
_atom_site_fract_x
_atom_site_fract_y
_atom_site_fract_z
Si Si1 0.916240 0.000000 0.435550
Si Si2 0.589331 0.776176 0.649201
Si Si3 0.304598 0.868984 0.705553
Si Si4 0.129046 0.500000 0.902770
Si Si5 0.715263 0.811466 0.130693
Si Si6 0.396558 0.130262 0.075117
Si Si7 0.004723 0.215577 0.238720
Si Si8 0.319531 0.500000 0.075203
O O1 0.963022 0.891230 0.404349
O O2 0.885952 0.000000 0.170679
O O3 0.849260 0.000000 0.723563
O O4 0.664634 0.754474 0.420974
O O5 0.538790 0.772971 0.456703
O O6 0.591845 0.900705 0.772895
O O7 0.564152 0.693056 0.927415
O O8 0.328037 0.856199 0.357098
O O9 0.285864 0.000000 0.781203
O O10 0.249818 0.780052 0.885760
O O11 0.372937 0.846607 0.796140
O O12 0.170510 0.401282 0.020139
O O13 0.773389 0.889908 0.189631
O O14 0.452995 0.208483 0.131645
O O15 0.417856 0.000000 0.067947
#
# Coordination Sequence:
#
# PCOD9133211 Si02
#       8
#     2   4   4   2   4   4   4   2
#     4  12  26  49  71 111 141 199 237 292 371 418
#     4  12  27  44  67 104 139 183 233 293 344 430
#     4  10  22  42  66  98 139 173 231 281 346 430
#     4  11  25  46  66 106 132 176 243 286 358 407
#     4  11  25  44  72 107 138 185 232 300 364 416
#     4  10  22  40  65 100 132 180 228 286 348 405
#     4  12  26  45  71  99 145 189 235 288 346 436
#     4  11  25  41  81 103 149 177 240 318 355 427
#
# _framework density 23.242155
#
# number of rings (size 3 to 8) (size 9 to 14) (size 15 to 20)
#    0.000    0.923    1.538    4.615    8.615    0.000 
#    2.769    0.000    1.692    0.000    0.000    0.000 
#    0.000    0.000    0.000    0.000    0.000    0.000 
#
# Total GULP energy -72551.527572 kJ/mol
# GULP energy per Si atom -5580.886736 kJ/mol
# Density = 2.318925 g / cm^3
# Si number density = 23.242155 Si / 1000 Ang^3
#
#
#
# Elastic Constant Matrix: (Units=GPa)
#
#
# Indices 1 2 3 4 5 6 
#
# 1 72.8288 44.9620 14.0127 0.0000 3.4367 0.0000
# 2 44.9620 71.5077 5.4059 0.0000 -7.7974 0.0000
# 3 14.0127 5.4059 77.8741 0.0000 -10.2282 0.0000
# 4 0.0000 0.0000 0.0000 18.1642 0.0000 2.4951
# 5 3.4367 -7.7974 -10.2282 0.0000 43.7969 0.0000
# 6 0.0000 0.0000 0.0000 2.4951 0.0000 22.1393
#
#
#
# Elastic Compliance Matrix: (Units=1/GPa)
#
#
# Indices 1 2 3 4 5 6 
#
# 1 0.024469 -0.015696 -0.004057 0.000000 -0.005662 0.000000
# 2 -0.015696 0.024365 0.001923 0.000000 0.006019 0.000000
# 3 -0.004057 0.001923 0.013952 0.000000 0.003919 0.000000
# 4 0.000000 0.000000 0.000000 0.055919 0.000000 -0.006302
# 5 -0.005662 0.006019 0.003919 0.000000 0.025264 0.000000
# 6 0.000000 0.000000 0.000000 -0.006302 0.000000 0.045879
#
#
# Mechanical properties :
#
#
# Convention : Reuss Voigt Hill
#
# Bulk Modulus (GPa) = 36.86376 38.99686 37.93031
# Shear Modulus (GPa) = 21.31757 27.34210 24.32983
#
# Velocity S-wave (km/s) = 3.03181 3.43359 3.23894
# Velocity P-wave (km/s) = 5.30575 5.70389 5.50842
#
# Compressibility (1/GPa) = 0.02712691
#
# Stress axis : x y z
#
# Youngs Moduli (GPa) = 40.86848 41.04326 71.67177
#
# Poissons Ratio (x) = 0.64421 0.29077
# Poissons Ratio (y) = 0.64147 -0.13786
# Poissons Ratio (z) = 0.16580 -0.07895
#
# Static dielectric constant tensor:
#      x y z
#    x 1.883590 0.000000 -0.051350 
#    y 0.000000 1.817440 0.000000 
#    z -0.051350 0.000000 1.909530 
# 
# From -- ./inp_files/5448.got.cif
#   From: 2010.05.17/outbox.cif.g08.bks.cpg/sg8_3_cif.got.tgz:5448.got - 2010.06.03 19:46:02.
