data_PCOD9133375
_publ_section_title
;
Structure prediction by ZEFSAII (Michael W. Deem and Ramdas Pophale) SiO2 
 PCOD9133375
Probable space group: C M
;
_chemical_formula_sum "Si O2"
_cell_formula_units_Z 20
_cell_length_a 12.507105
_cell_length_b 17.443644
_cell_length_c 7.159047
_cell_angle_alpha 90.000000
_cell_angle_beta 151.374392
_cell_angle_gamma 90.000000
_cell_volume 748.274749
_symmetry_space_group_name_H-M "C M"
_symmetry_group_IT_number 8
_symmetry_cell_setting 'monoclinic'
loop_
_space_group_symop_operation_xyz
x,y,z
x,-y,z
1/2+x,1/2+y,z
1/2+x,1/2-y,z
loop_
_atom_site_type_symbol
_atom_site_label
_atom_site_fract_x
_atom_site_fract_y
_atom_site_fract_z
Si Si1 0.027590 0.201581 0.234450
Si Si2 0.274635 0.090417 0.377862
Si Si3 0.651944 0.132633 0.262007
Si Si4 0.120554 0.380699 0.622333
Si Si5 0.489642 0.584873 0.472679
O O1 0.068303 0.138234 0.136233
O O2 0.119050 0.278466 0.277205
O O3 0.109275 0.154078 0.544428
O O4 0.756736 0.200407 0.842797
O O5 0.378042 0.119663 0.341722
O O6 0.235642 0.000000 0.312297
O O7 0.461283 0.110164 0.821203
O O8 0.616475 0.090921 0.405264
O O9 0.875566 0.111978 0.490001
O O10 0.278700 0.425285 0.007019
O O11 0.594748 0.500000 0.649858
#
# Coordination Sequence:
#
# PCOD9133375 Si02
#       5
#     4   4   4   4   4
#     4  10  23  42  64  92 129 166 209 265 319 377
#     4  11  24  41  65  94 131 168 212 263 322 379
#     4  11  21  41  67  93 123 167 216 261 315 378
#     4   9  22  39  63  89 127 164 209 255 321 365
#     4   9  21  41  63  86 127 167 202 256 322 371
#
# _framework density 26.728151
#
# number of rings (size 3 to 8) (size 9 to 14) (size 15 to 20)
#    1.200    0.800    0.000    4.200    2.800    3.200 
#    3.600    0.000    0.000    0.000    0.000    0.000 
#    0.000    0.000    0.000    0.000    0.000    0.000 
#
# Total GULP energy -55751.879819 kJ/mol
# GULP energy per Si atom -5575.187982 kJ/mol
# Density = 2.666732 g / cm^3
# Si number density = 26.728151 Si / 1000 Ang^3
#
#
#
# Elastic Constant Matrix: (Units=GPa)
#
#
# Indices 1 2 3 4 5 6 
#
# 1 215.0655 91.6018 20.1847 0.0000 -21.9880 0.0000
# 2 91.6018 236.0604 19.9059 0.0000 14.2654 0.0000
# 3 20.1847 19.9059 44.0021 0.0000 -14.7455 0.0000
# 4 0.0000 0.0000 0.0000 19.0519 0.0000 9.5340
# 5 -21.9880 14.2654 -14.7455 0.0000 67.7690 0.0000
# 6 0.0000 0.0000 0.0000 9.5340 0.0000 45.6906
#
#
#
# Elastic Compliance Matrix: (Units=1/GPa)
#
#
# Indices 1 2 3 4 5 6 
#
# 1 0.005978 -0.002378 -0.000915 0.000000 0.002241 0.000000
# 2 -0.002378 0.005490 -0.002199 0.000000 -0.002405 0.000000
# 3 -0.000915 -0.002199 0.026099 0.000000 0.005845 0.000000
# 4 0.000000 0.000000 0.000000 0.058608 0.000000 -0.012229
# 5 0.002241 -0.002405 0.005845 0.000000 0.017261 0.000000
# 6 0.000000 0.000000 0.000000 -0.012229 0.000000 0.024438
#
#
# Mechanical properties :
#
#
# Convention : Reuss Voigt Hill
#
# Bulk Modulus (GPa) = 37.61867 84.27920 60.94894
# Shear Modulus (GPa) = 31.70199 50.73132 41.21665
#
# Velocity S-wave (km/s) = 3.44770 4.36139 3.93118
# Velocity P-wave (km/s) = 5.47302 7.54736 6.59229
#
# Compressibility (1/GPa) = 0.02658254
#
# Stress axis : x y z
#
# Youngs Moduli (GPa) = 167.29393 182.16076 38.31505
#
# Poissons Ratio (x) = 0.43313 0.03508
# Poissons Ratio (y) = 0.39778 0.08425
# Poissons Ratio (z) = 0.15315 0.40054
#
# Static dielectric constant tensor:
#      x y z
#    x 2.074660 0.000000 -0.005690 
#    y 0.000000 2.162820 0.000000 
#    z -0.005690 0.000000 2.227550 
# 
# From -- ./inp_files/13530.got.cif
#   From: 2010.05.17/outbox.cif.g08.bks.cpg/sg8_7_cif.got.tgz:13530.got - 2010.06.03 19:46:02.
