data_PCOD9133475
_publ_section_title
;
Structure prediction by ZEFSAII (Michael W. Deem and Ramdas Pophale) SiO2 
 PCOD9133475
Probable space group: C M
;
_chemical_formula_sum "Si O2"
_cell_formula_units_Z 32
_cell_length_a 10.953678
_cell_length_b 19.635959
_cell_length_c 14.397592
_cell_angle_alpha 90.000000
_cell_angle_beta 150.404381
_cell_angle_gamma 90.000000
_cell_volume 1529.393805
_symmetry_space_group_name_H-M "C M"
_symmetry_group_IT_number 8
_symmetry_cell_setting 'monoclinic'
loop_
_space_group_symop_operation_xyz
x,y,z
x,-y,z
1/2+x,1/2+y,z
1/2+x,1/2-y,z
loop_
_atom_site_type_symbol
_atom_site_label
_atom_site_fract_x
_atom_site_fract_y
_atom_site_fract_z
Si Si1 0.977630 0.919964 0.572230
Si Si2 0.873819 0.305040 0.392830
Si Si3 0.648884 0.191672 0.759583
Si Si4 0.966783 0.581099 0.776584
Si Si5 0.711062 0.303971 0.095357
Si Si6 0.392473 0.649380 0.175070
Si Si7 0.658997 0.664368 0.854042
Si Si8 0.220079 0.349536 0.249502
O O1 0.749085 0.895190 0.359077
O O2 0.221910 0.899743 0.673437
O O3 0.002248 0.887033 0.689210
O O4 0.977375 0.000000 0.580597
O O5 0.652800 0.345846 0.296210
O O6 0.790335 0.226320 0.327978
O O7 0.092594 0.305886 0.612389
O O8 0.899426 0.326318 0.301710
O O9 0.512391 0.128375 0.716945
O O10 0.572360 0.261064 0.761861
O O11 0.943754 0.191365 0.967044
O O12 0.960466 0.500000 0.753724
O O13 0.202182 0.601781 0.995316
O O14 0.669547 0.342861 0.971765
O O15 0.788100 0.227475 0.114286
O O16 0.402665 0.626556 0.288738
O O17 0.949955 0.652843 0.025059
#
# Coordination Sequence:
#
# PCOD9133475 Si02
#       8
#     4   4   4   4   4   4   4   4
#     4  11  25  42  62  94 127 166 209 252 318 376
#     4  11  22  35  61  94 124 156 203 260 311 365
#     4  12  22  39  64  93 126 160 207 262 306 365
#     4  11  22  40  65  91 126 165 203 255 316 374
#     4  11  21  37  60  93 123 157 206 254 305 362
#     4  11  19  38  59  94 124 154 208 253 311 370
#     4  12  22  38  66  92 125 167 209 256 306 364
#     4  11  21  35  61  93 127 157 201 258 311 366
#
# _framework density 20.923324000000001
#
# number of rings (size 3 to 8) (size 9 to 14) (size 15 to 20)
#    0.000    0.750    8.750    0.750    0.000    4.000 
#    0.000    1.250    0.000    0.000    0.000    0.000 
#    0.000    0.000    0.000    0.000    0.000    0.000 
#
# Total GULP energy -89319.979876 kJ/mol
# GULP energy per Si atom -5582.498742 kJ/mol
# Density = 2.087570 g / cm^3
# Si number density = 20.923324 Si / 1000 Ang^3
#
#
#
# Elastic Constant Matrix: (Units=GPa)
#
#
# Indices 1 2 3 4 5 6 
#
# 1 73.9239 24.6808 18.6601 -0.0001 -32.9942 0.0000
# 2 24.6808 51.5419 23.7106 0.0000 -15.7668 0.0000
# 3 18.6601 23.7106 108.8383 -0.0005 -37.4363 -0.0002
# 4 -0.0001 0.0000 -0.0005 17.7161 -0.0003 -4.3943
# 5 -32.9942 -15.7668 -37.4363 -0.0003 53.2254 -0.0001
# 6 0.0000 0.0000 -0.0002 -4.3943 -0.0001 23.6120
#
#
#
# Elastic Compliance Matrix: (Units=1/GPa)
#
#
# Indices 1 2 3 4 5 6 
#
# 1 0.020919 -0.007263 0.002264 0.000000 0.012408 0.000000
# 2 -0.007263 0.024773 -0.004190 0.000000 -0.000110 0.000000
# 3 0.002264 -0.004190 0.012886 0.000001 0.009225 0.000000
# 4 0.000000 0.000000 0.000001 0.059178 0.000001 0.011013
# 5 0.012408 -0.000110 0.009225 0.000001 0.032936 0.000000
# 6 0.000000 0.000000 0.000000 0.011013 0.000000 0.044401
#
#
# Mechanical properties :
#
#
# Convention : Reuss Voigt Hill
#
# Bulk Modulus (GPa) = 24.87539 40.93413 32.90476
# Shear Modulus (GPa) = 22.03909 30.06087 26.04998
#
# Velocity S-wave (km/s) = 3.24902 3.79452 3.53231
# Velocity P-wave (km/s) = 5.09799 6.22930 5.69182
#
# Compressibility (1/GPa) = 0.04020038
#
# Stress axis : x y z
#
# Youngs Moduli (GPa) = 47.80356 40.36657 77.60509
#
# Poissons Ratio (x) = 0.29317 -0.17567
# Poissons Ratio (y) = 0.34718 0.32514
# Poissons Ratio (z) = -0.10821 0.16912
#
# Static dielectric constant tensor:
#      x y z
#    x 1.826450 0.000000 -0.002600 
#    y 0.000000 1.702280 0.000000 
#    z -0.002600 0.000000 1.776480 
# 
# From -- ./inp_files/26265.got.cif
#   From: 2010.05.17/outbox.cif.g08.bks.cpg/sg8_14_cif.got.tgz:26265.got - 2010.06.03 19:46:02.
