data_PCOD9133205
_publ_section_title
;
Structure prediction by ZEFSAII (Michael W. Deem and Ramdas Pophale) SiO2 
 PCOD9133205
Probable space group: C M
;
_chemical_formula_sum "Si O2"
_cell_formula_units_Z 32
_cell_length_a 12.729304
_cell_length_b 12.737613
_cell_length_c 16.936696
_cell_angle_alpha 90.000000
_cell_angle_beta 152.522312
_cell_angle_gamma 90.000000
_cell_volume 1267.073959
_symmetry_space_group_name_H-M "C M"
_symmetry_group_IT_number 8
_symmetry_cell_setting 'monoclinic'
loop_
_space_group_symop_operation_xyz
x,y,z
x,-y,z
1/2+x,1/2+y,z
1/2+x,1/2-y,z
loop_
_atom_site_type_symbol
_atom_site_label
_atom_site_fract_x
_atom_site_fract_y
_atom_site_fract_z
Si Si1 0.044130 0.656209 0.106900
Si Si2 0.416258 0.386046 0.475281
Si Si3 0.234920 0.378776 0.071976
Si Si4 0.489422 0.888219 0.648683
Si Si5 0.528323 0.616410 0.044337
Si Si6 0.611809 0.827975 0.565259
Si Si7 0.119660 0.728966 0.403880
Si Si8 0.123342 0.830775 0.930916
O O1 0.269910 0.611817 0.297561
O O2 0.051303 0.623774 0.020769
O O3 0.065167 0.782766 0.123066
O O4 0.819411 0.627202 0.004977
O O5 0.511622 0.500000 0.557098
O O6 0.594560 0.292718 0.584174
O O7 0.225902 0.350085 0.411590
O O8 0.277428 0.500000 0.077754
O O9 0.454120 0.315815 0.254248
O O10 0.145206 0.296481 0.947481
O O11 0.757076 0.878675 0.844087
O O12 0.473087 0.884679 0.541949
O O13 0.337990 0.794878 0.579709
O O14 0.406535 0.000000 0.623940
O O15 0.579247 0.500000 0.108741
O O16 0.650220 0.633648 0.040437
O O17 0.527290 0.830504 0.419167
O O18 0.871722 0.865005 0.739434
#
# Coordination Sequence:
#
# PCOD9133205 Si02
#       8
#     4   4   4   4   4   4   4   4
#     4  11  21  39  59  90 124 160 206 254 305 361
#     4  11  24  41  63  92 125 164 210 257 312 370
#     4  11  23  39  60  89 125 164 209 257 307 367
#     4   9  19  37  61  89 120 157 201 252 307 365
#     4   9  20  38  61  89 121 159 205 252 307 368
#     4  10  22  40  64  88 123 163 200 258 304 369
#     4  11  21  39  61  90 122 161 207 254 307 366
#     4  10  22  41  61  89 126 160 206 254 313 364
#
# _framework density 25.255039
#
# number of rings (size 3 to 8) (size 9 to 14) (size 15 to 20)
#    0.000    1.750    2.500    1.500    0.000    4.000 
#    0.000    0.625    0.000    2.250    0.000    0.000 
#    0.000    0.000    0.000    0.000    0.000    0.000 
#
# Total GULP energy -89518.322219 kJ/mol
# GULP energy per Si atom -5594.895139 kJ/mol
# Density = 2.519756 g / cm^3
# Si number density = 25.255039 Si / 1000 Ang^3
#
#
#
# Elastic Constant Matrix: (Units=GPa)
#
#
# Indices 1 2 3 4 5 6 
#
# 1 100.6837 -12.9195 4.5282 -0.0094 12.5747 0.0055
# 2 -12.9195 141.1254 -6.1281 -0.0274 -6.3723 0.0150
# 3 4.5282 -6.1281 53.4175 -0.0120 11.4326 0.0159
# 4 -0.0094 -0.0274 -0.0120 20.6432 0.0064 -0.2197
# 5 12.5747 -6.3723 11.4326 0.0064 35.2272 0.0040
# 6 0.0055 0.0150 0.0159 -0.2197 0.0040 2.0162
#
#
#
# Elastic Compliance Matrix: (Units=1/GPa)
#
#
# Indices 1 2 3 4 5 6 
#
# 1 0.010484 0.000796 -0.000029 0.000007 -0.003589 -0.000026
# 2 0.000796 0.007222 0.000583 0.000009 0.000833 -0.000061
# 3 -0.000029 0.000583 0.020166 0.000013 -0.006429 -0.000149
# 4 0.000007 0.000009 0.000013 0.048498 -0.000014 0.005285
# 5 -0.003589 0.000833 -0.006429 -0.000014 0.031905 -0.000010
# 6 -0.000026 -0.000061 -0.000149 0.005285 -0.000010 0.496556
#
#
# Mechanical properties :
#
#
# Convention : Reuss Voigt Hill
#
# Bulk Modulus (GPa) = 24.64810 29.57643 27.11227
# Shear Modulus (GPa) = 7.99163 32.22705 20.10934
#
# Velocity S-wave (km/s) = 1.78080 3.57608 2.82485
# Velocity P-wave (km/s) = 3.74288 5.36541 4.62584
#
# Compressibility (1/GPa) = 0.04057108
#
# Stress axis : x y z
#
# Youngs Moduli (GPa) = 95.38509 138.47101 49.58906
#
# Poissons Ratio (x) = -0.11028 0.00145
# Poissons Ratio (y) = -0.07597 -0.02890
# Poissons Ratio (z) = 0.00279 -0.08069
#
# Static dielectric constant tensor:
#      x y z
#    x 1.992580 0.000000 -0.013270 
#    y 0.000000 2.019990 0.000000 
#    z -0.013270 0.000000 1.982990 
# 
# From -- ./inp_files/17595.got.cif
#   From: 2010.05.17/outbox.cif.g08.bks.cpg/sg8_9_cif.got.tgz:17595.got - 2010.06.03 19:46:02.
