data_PCOD9133199
_publ_section_title
;
Structure prediction by ZEFSAII (Michael W. Deem and Ramdas Pophale) SiO2 
 PCOD9133199
Probable space group: C M
;
_chemical_formula_sum "Si O2"
_cell_formula_units_Z 28
_cell_length_a 7.661900
_cell_length_b 13.004373
_cell_length_c 14.388217
_cell_angle_alpha 90.000000
_cell_angle_beta 67.646432
_cell_angle_gamma 90.000000
_cell_volume 1325.886388
_symmetry_space_group_name_H-M "C M"
_symmetry_group_IT_number 8
_symmetry_cell_setting 'monoclinic'
loop_
_space_group_symop_operation_xyz
x,y,z
x,-y,z
1/2+x,1/2+y,z
1/2+x,1/2-y,z
loop_
_atom_site_type_symbol
_atom_site_label
_atom_site_fract_x
_atom_site_fract_y
_atom_site_fract_z
Si Si1 0.418150 0.379423 0.060560
Si Si2 0.554527 0.619811 0.829877
Si Si3 0.452940 0.173885 0.660637
Si Si4 0.012885 0.611186 0.444716
Si Si5 0.270843 0.193435 0.340084
Si Si6 0.331408 0.382946 0.691999
Si Si7 0.136094 0.802486 0.181750
O O1 0.353907 0.500000 0.069134
O O2 0.267557 0.292932 0.122175
O O3 0.582066 0.370188 0.104433
O O4 0.493573 0.345931 0.944086
O O5 0.599639 0.500000 0.829111
O O6 0.748250 0.666348 0.750615
O O7 0.380942 0.627650 0.791950
O O8 0.460392 0.112596 0.563617
O O9 0.466102 0.293317 0.626732
O O10 0.620961 0.139067 0.695372
O O11 0.103815 0.500000 0.404627
O O12 0.833685 0.625627 0.413878
O O13 0.141233 0.711047 0.399056
O O14 0.200433 0.136967 0.261146
O O15 0.453623 0.247492 0.260203
O O16 0.379508 0.500000 0.656548
#
# Coordination Sequence:
#
# PCOD9133199 Si02
#       7
#     4   4   4   4   4   4   4
#     4  10  22  40  63  91 126 165 207 257 317 377
#     4  10  23  42  64  96 133 173 218 263 317 382
#     4  12  23  42  65  94 133 176 213 267 317 381
#     4  11  23  41  64  90 126 166 207 258 317 376
#     4   9  21  40  60  92 119 154 210 259 314 375
#     4  11  24  40  62  91 128 175 218 262 313 369
#     4   9  20  39  64  88 121 157 205 260 315 376
#
# _framework density 21.11795
#
# number of rings (size 3 to 8) (size 9 to 14) (size 15 to 20)
#    0.000    1.714    1.429    2.143    2.000    5.714 
#    2.571    4.286    0.000    0.000    0.000    0.000 
#    0.000    0.000    0.000    0.000    0.000    0.000 
#
# Total GULP energy -77956.577934 kJ/mol
# GULP energy per Si atom -5568.326995 kJ/mol
# Density = 2.106988 g / cm^3
# Si number density = 21.117950 Si / 1000 Ang^3
#
#
#
# Elastic Constant Matrix: (Units=GPa)
#
#
# Indices 1 2 3 4 5 6 
#
# 1 63.6798 22.4689 47.7733 0.0000 22.5642 0.0000
# 2 22.4689 109.3848 35.5699 0.0000 -0.1815 0.0000
# 3 47.7733 35.5699 130.9556 0.0000 16.4406 0.0000
# 4 0.0000 0.0000 0.0000 -1.2400 0.0000 2.7906
# 5 22.5642 -0.1815 16.4406 0.0000 34.9516 0.0000
# 6 0.0000 0.0000 0.0000 2.7906 0.0000 27.4561
#
#
#
# Elastic Compliance Matrix: (Units=1/GPa)
#
#
# Indices 1 2 3 4 5 6 
#
# 1 0.027402 -0.003273 -0.007316 0.000000 -0.014266 0.000000
# 2 -0.003273 0.010485 -0.002047 0.000000 0.003130 0.000000
# 3 -0.007316 -0.002047 0.010914 0.000000 -0.000421 0.000000
# 4 0.000000 0.000000 0.000000 -0.656312 0.000000 0.066706
# 5 -0.014266 0.003130 -0.000421 0.000000 0.038035 0.000000
# 6 0.000000 0.000000 0.000000 0.066706 0.000000 0.029642
#
#
# Mechanical properties :
#
#
# Convention : Reuss Voigt Hill
#
# Bulk Modulus (GPa) = 42.50162 57.29382 49.89772
# Shear Modulus (GPa) = -9.86745 25.44740 7.78997
#
# Velocity S-wave (km/s) = -2.16395 3.47510 1.92271
# Velocity P-wave (km/s) = 3.73175 6.57959 5.34869
#
# Compressibility (1/GPa) = 0.02352852
#
# Stress axis : x y z
#
# Youngs Moduli (GPa) = 36.49308 95.37252 91.62461
#
# Poissons Ratio (x) = 0.31218 0.67037
# Poissons Ratio (y) = 0.11945 0.18754
# Poissons Ratio (z) = 0.26700 0.19522
#
# Static dielectric constant tensor:
#      x y z
#    x 1.859020 0.000000 0.082220 
#    y 0.000000 1.806730 0.000000 
#    z 0.082220 0.000000 1.810810 
# 
# From -- ./inp_files/18773.got.cif
#   From: 2010.05.17/outbox.cif.g08.bks.cpg/sg8_10_cif.got.tgz:18773.got - 2010.06.03 19:46:02.
