data_PCOD9133811
_publ_section_title
;
Structure prediction by ZEFSAII (Michael W. Deem and Ramdas Pophale) SiO2 
 PCOD9133811
Probable space group: C C
;
_chemical_formula_sum "Si O2"
_cell_formula_units_Z 32
_cell_length_a 9.230457
_cell_length_b 14.296741
_cell_length_c 18.789373
_cell_angle_alpha 90.000000
_cell_angle_beta 37.519425
_cell_angle_gamma 90.000000
_cell_volume 1510.120096
_symmetry_space_group_name_H-M "C C"
_symmetry_group_IT_number 9
_symmetry_cell_setting 'monoclinic'
loop_
_space_group_symop_operation_xyz
x,y,z
x,-y,1/2+z
1/2+x,1/2+y,z
1/2+x,1/2-y,1/2+z
loop_
_atom_site_type_symbol
_atom_site_label
_atom_site_fract_x
_atom_site_fract_y
_atom_site_fract_z
Si Si1 0.152240 0.365099 0.417270
Si Si2 0.246036 0.388774 0.642356
Si Si3 0.647472 0.317236 0.661605
Si Si4 0.871331 0.267836 0.722673
Si Si5 0.861111 0.339696 0.015122
Si Si6 0.004293 0.860162 0.409158
Si Si7 0.406004 0.810705 0.152099
Si Si8 0.213251 0.456717 0.802729
O O1 0.225713 0.271551 0.346332
O O2 0.286656 0.369950 0.439638
O O3 0.242214 0.447372 0.332045
O O4 0.874096 0.370116 0.540905
O O5 0.445924 0.412139 0.505550
O O6 0.297265 0.288339 0.662917
O O7 0.228277 0.462344 0.711946
O O8 0.006782 0.362783 0.693248
O O9 0.711859 0.284212 0.715732
O O10 0.607636 0.228383 0.625155
O O11 0.418542 0.384711 0.748363
O O12 0.086951 0.193973 0.621292
O O13 0.942093 0.364611 0.064052
O O14 0.004392 0.247179 0.935443
O O15 0.953912 0.417376 0.925582
O O16 0.233214 0.869634 0.270526
#
# Coordination Sequence:
#
# PCOD9133811 Si02
#       8
#     4   4   4   4   4   4   4   4
#     4  12  23  38  62  95 125 158 204 260 311 364
#     4   9  18  37  63  84 119 166 199 239 306 370
#     4  11  23  37  61  98 119 156 212 266 287 360
#     4  10  21  37  68  86 119 158 218 246 296 363
#     4  10  18  38  62  85 118 170 198 246 307 374
#     4  10  16  37  65  87 111 169 209 240 294 379
#     4   9  18  33  63  91 114 151 219 249 287 350
#     4  11  25  39  60  90 133 158 199 254 326 360
#
# _framework density 21.190367999999999
#
# number of rings (size 3 to 8) (size 9 to 14) (size 15 to 20)
#    0.000    2.000    7.500    0.000    3.500    1.000 
#    0.000    1.250   11.000    0.000    0.000    0.000 
#    0.000    0.000    0.000    0.000    0.000    0.000 
#
# Total GULP energy -89183.161408 kJ/mol
# GULP energy per Si atom -5573.947588 kJ/mol
# Density = 2.114214 g / cm^3
# Si number density = 21.190368 Si / 1000 Ang^3
#
#
#
# Elastic Constant Matrix: (Units=GPa)
#
#
# Indices 1 2 3 4 5 6 
#
# 1 121.9272 14.2816 36.4436 0.0028 25.2433 0.0009
# 2 14.2816 17.8622 23.0525 -0.0008 8.1231 -0.0001
# 3 36.4436 23.0525 101.9789 -0.0023 26.8223 -0.0019
# 4 0.0028 -0.0008 -0.0023 2.4452 -0.0009 -6.1067
# 5 25.2433 8.1231 26.8223 -0.0009 48.8669 0.0025
# 6 0.0009 -0.0001 -0.0019 -6.1067 0.0025 -6.7612
#
#
#
# Elastic Compliance Matrix: (Units=1/GPa)
#
#
# Indices 1 2 3 4 5 6 
#
# 1 0.009918 -0.004167 -0.001680 -0.000004 -0.003509 0.000005
# 2 -0.004167 0.081434 -0.016275 0.000006 -0.002452 -0.000004
# 3 -0.001680 -0.016275 0.015363 -0.000002 -0.004860 -0.000004
# 4 -0.000004 0.000006 -0.000002 0.125618 0.000010 -0.113457
# 5 -0.003509 -0.002452 -0.004860 0.000010 0.025351 0.000001
# 6 0.000005 -0.000004 -0.000004 -0.113457 0.000001 -0.045430
#
#
# Mechanical properties :
#
#
# Convention : Reuss Voigt Hill
#
# Bulk Modulus (GPa) = 16.00667 43.25821 29.63244
# Shear Modulus (GPa) = 18.02964 20.10954 19.06959
#
# Velocity S-wave (km/s) = 2.92008 3.08392 3.00312
# Velocity P-wave (km/s) = 4.35193 5.75666 5.10286
#
# Compressibility (1/GPa) = 0.06247396
#
# Stress axis : x y z
#
# Youngs Moduli (GPa) = 100.82514 12.27987 65.09032
#
# Poissons Ratio (x) = 0.05117 0.10933
# Poissons Ratio (y) = 0.42010 1.05932
# Poissons Ratio (z) = 0.16935 0.19985
#
# Static dielectric constant tensor:
#      x y z
#    x 1.775350 0.000000 -0.008990 
#    y 0.000000 1.772980 0.000000 
#    z -0.008990 0.000000 1.836490 
# 
# From -- ./inp_files/15106.got.cif
#   From: 2010.05.17/outbox.cif.g08.bks.cpg/sg9_8_cif.got.tgz:15106.got - 2010.06.03 20:04:27.
