data_PCOD9133324
_publ_section_title
;
Structure prediction by ZEFSAII (Michael W. Deem and Ramdas Pophale) SiO2 
 PCOD9133324
Probable space group: C M
;
_chemical_formula_sum "Si O2"
_cell_formula_units_Z 24
_cell_length_a 6.589834
_cell_length_b 20.333164
_cell_length_c 8.790054
_cell_angle_alpha 90.000000
_cell_angle_beta 124.767668
_cell_angle_gamma 90.000000
_cell_volume 967.527432
_symmetry_space_group_name_H-M "C M"
_symmetry_group_IT_number 8
_symmetry_cell_setting 'monoclinic'
loop_
_space_group_symop_operation_xyz
x,y,z
x,-y,z
1/2+x,1/2+y,z
1/2+x,1/2-y,z
loop_
_atom_site_type_symbol
_atom_site_label
_atom_site_fract_x
_atom_site_fract_y
_atom_site_fract_z
Si Si1 0.516980 0.223408 0.599840
Si Si2 0.559640 0.612673 0.089651
Si Si3 0.004565 0.238388 0.884625
Si Si4 0.095638 0.427327 0.701006
Si Si5 0.110601 0.430958 0.360058
Si Si6 0.816035 0.186657 0.255199
O O1 0.319503 0.265010 0.644370
O O2 0.466272 0.145575 0.627934
O O3 0.399143 0.252326 0.394583
O O4 0.708859 0.239277 0.832820
O O5 0.505646 0.651085 0.222670
O O6 0.812598 0.573683 0.222461
O O7 0.597066 0.666370 0.973543
O O8 0.310469 0.577459 0.920440
O O9 0.105811 0.289388 0.053164
O O10 0.968158 0.500000 0.669280
O O11 0.196244 0.431016 0.571663
O O12 0.189420 0.500000 0.321348
O O13 0.223008 0.369016 0.327455
#
# Coordination Sequence:
#
# PCOD9133324 Si02
#       6
#     4   4   4   4   4   4
#     4  11  24  39  67 101 136 178 229 291 346 405
#     4  11  24  43  72 101 134 183 233 290 348 407
#     4  11  22  41  63 103 135 173 230 291 347 401
#     4  10  22  44  68  97 142 185 228 284 349 418
#     4  11  26  45  68  99 140 187 231 284 353 420
#     4  12  25  42  70 103 140 178 239 290 338 411
#
# _framework density 24.805498
#
# number of rings (size 3 to 8) (size 9 to 14) (size 15 to 20)
#    0.000    1.000    3.333    4.500    7.000    1.333 
#    0.000    0.000    0.000    2.000    0.000    0.000 
#    0.000    0.000    0.000    0.000    0.000    0.000 
#
# Total GULP energy -66893.890561 kJ/mol
# GULP energy per Si atom -5574.490880 kJ/mol
# Density = 2.474904 g / cm^3
# Si number density = 24.805498 Si / 1000 Ang^3
#
#
#
# Elastic Constant Matrix: (Units=GPa)
#
#
# Indices 1 2 3 4 5 6 
#
# 1 74.0814 28.7077 69.7980 0.0000 8.8915 0.0000
# 2 28.7077 180.8809 42.5390 0.0000 -1.0266 0.0000
# 3 69.7980 42.5390 162.8398 0.0000 -12.9571 0.0000
# 4 0.0000 0.0000 0.0000 15.8490 0.0000 7.8501
# 5 8.8915 -1.0266 -12.9571 0.0000 39.6303 0.0000
# 6 0.0000 0.0000 0.0000 7.8501 0.0000 3.8645
#
#
#
# Elastic Compliance Matrix: (Units=1/GPa)
#
#
# Indices 1 2 3 4 5 6 
#
# 1 0.026167 -0.001480 -0.011602 0.000000 -0.009702 0.000000
# 2 -0.001480 0.005979 -0.000913 0.000000 0.000188 0.000000
# 3 -0.011602 -0.000913 0.011866 0.000000 0.006459 0.000000
# 4 0.000000 0.000000 0.000000-10.293917 0.000000 20.910296
# 5 -0.009702 0.000188 0.006459 0.000000 0.029527 0.000000
# 6 0.000000 0.000000 0.000000 20.910296 0.000000-42.216851
#
#
# Mechanical properties :
#
#
# Convention : Reuss Voigt Hill
#
# Bulk Modulus (GPa) = 62.40388 77.76572 70.08480
# Shear Modulus (GPa) = -0.09541 30.31926 15.11193
#
# Velocity S-wave (km/s) = -0.19634 3.49990 2.47091
# Velocity P-wave (km/s) = 5.01602 6.91019 6.03785
#
# Compressibility (1/GPa) = 0.01602464
#
# Stress axis : x y z
#
# Youngs Moduli (GPa) = 38.21559 167.25061 84.27334
#
# Poissons Ratio (x) = 0.24748 0.97770
# Poissons Ratio (y) = 0.05655 0.07692
# Poissons Ratio (z) = 0.44336 0.15265
#
# Static dielectric constant tensor:
#      x y z
#    x 2.171200 0.000000 0.054710 
#    y 0.000000 2.024500 0.000000 
#    z 0.054710 0.000000 1.887530 
# 
# From -- ./inp_files/8753.got.cif
#   From: 2010.05.17/outbox.cif.g08.bks.cpg/sg8_5_cif.got.tgz:8753.got - 2010.06.03 19:46:02.
