data_PCOD9133129
_publ_section_title
;
Structure prediction by ZEFSAII (Michael W. Deem and Ramdas Pophale) SiO2 
 PCOD9133129
Probable space group: C M
;
_chemical_formula_sum "Si O2"
_cell_formula_units_Z 24
_cell_length_a 24.008340
_cell_length_b 11.221531
_cell_length_c 23.403543
_cell_angle_alpha 90.000000
_cell_angle_beta 12.870275
_cell_angle_gamma 90.000000
_cell_volume 1404.438131
_symmetry_space_group_name_H-M "C M"
_symmetry_group_IT_number 8
_symmetry_cell_setting 'monoclinic'
loop_
_space_group_symop_operation_xyz
x,y,z
x,-y,z
1/2+x,1/2+y,z
1/2+x,1/2-y,z
loop_
_atom_site_type_symbol
_atom_site_label
_atom_site_fract_x
_atom_site_fract_y
_atom_site_fract_z
Si Si1 0.075378 0.500000 0.416758
Si Si2 0.576877 0.853587 0.869140
Si Si3 0.075296 0.000000 0.989085
Si Si4 0.078260 0.500000 0.239098
Si Si5 0.075712 0.262990 0.003035
Si Si6 0.076706 0.280497 0.330219
Si Si7 0.078357 0.000000 0.663849
Si Si8 0.575482 0.631554 0.553883
O O1 0.075571 0.377557 0.381901
O O2 0.823781 0.500000 0.703441
O O3 0.327182 0.500000 0.199951
O O4 0.826547 0.800289 0.588289
O O5 0.576676 0.000000 0.870758
O O6 0.577143 0.799606 0.934082
O O7 0.327081 0.800060 0.087931
O O8 0.075118 0.124591 0.019519
O O9 0.077368 0.375491 0.276588
O O10 0.827727 0.500000 0.451830
O O11 0.330434 0.500000 0.949666
O O12 0.825413 0.311356 0.281285
O O13 0.324955 0.311037 0.782332
O O14 0.077263 0.889451 0.620293
O O15 0.574365 0.500000 0.528842
#
# Coordination Sequence:
#
# PCOD9133129 Si02
#       8
#     2   4   2   2   4   4   2   4
#     4  11  18  38  50  78 120 156 186 246 269 326
#     4  12  23  36  56  86 131 165 198 224 293 371
#     4  12  22  33  56  78 122 160 203 218 290 334
#     4  11  22  40  70  92 110 154 204 264 331 322
#     4  12  21  37  55  88 121 170 191 235 286 367
#     4  11  22  37  58  89 120 149 201 251 288 364
#     4  10  22  41  64  98 110 146 205 274 318 332
#     4  10  22  37  60  85 121 144 198 254 297 345
#
# _framework density 17.088685000000002
#
# number of rings (size 3 to 8) (size 9 to 14) (size 15 to 20)
#    0.500    0.333    3.333    6.000    0.000    2.667 
#    0.000    0.000    0.000    0.000   43.333    0.000 
#    0.000    0.000    0.000    0.000    0.000    0.000 
#
# Total GULP energy -66834.901367 kJ/mol
# GULP energy per Si atom -5569.575114 kJ/mol
# Density = 1.704979 g / cm^3
# Si number density = 17.088685 Si / 1000 Ang^3
#
#
#
# Elastic Constant Matrix: (Units=GPa)
#
#
# Indices 1 2 3 4 5 6 
#
# 1 91.9497 37.2091 73.5973 -0.0177 -7.0781 -0.0012
# 2 37.2091 165.8670 77.9553 -0.0986 -7.6386 0.0064
# 3 73.5973 77.9553 204.8151 -0.1190 -16.0333 -0.0160
# 4 -0.0177 -0.0986 -0.1190 26.0397 0.0117 -1.6492
# 5 -7.0781 -7.6386 -16.0333 0.0117 25.6915 0.0080
# 6 -0.0012 0.0064 -0.0160 -1.6492 0.0080 10.8617
#
#
#
# Elastic Compliance Matrix: (Units=1/GPa)
#
#
# Indices 1 2 3 4 5 6 
#
# 1 0.015427 -0.001033 -0.005090 -0.000018 0.000766 -0.000008
# 2 -0.001033 0.007417 -0.002420 0.000016 0.000411 -0.000006
# 3 -0.005090 -0.002420 0.007850 0.000023 0.002777 0.000014
# 4 -0.000018 0.000016 0.000023 0.038776 -0.000005 0.005888
# 5 0.000766 0.000411 0.002777 -0.000005 0.040990 -0.000027
# 6 -0.000008 -0.000006 0.000014 0.005888 -0.000027 0.092960
#
#
# Mechanical properties :
#
#
# Convention : Reuss Voigt Hill
#
# Bulk Modulus (GPa) = 73.48758 93.35056 83.41907
# Shear Modulus (GPa) = 22.21818 30.77660 26.49739
#
# Velocity S-wave (km/s) = 3.60970 4.24841 3.94201
# Velocity P-wave (km/s) = 7.77626 8.87756 8.34510
#
# Compressibility (1/GPa) = 0.01360774
#
# Stress axis : x y z
#
# Youngs Moduli (GPa) = 64.82224 134.82997 127.39074
#
# Poissons Ratio (x) = 0.13929 0.64844
# Poissons Ratio (y) = 0.06697 0.30823
# Poissons Ratio (z) = 0.32996 0.32623
#
# Static dielectric constant tensor:
#      x y z
#    x 1.588050 0.000000 -0.003150 
#    y 0.000000 1.536060 0.000040 
#    z -0.003150 0.000040 1.603480 
# 
# From -- ./inp_files/32511.got.cif
#   From: 2010.05.17/outbox.cif.g08.bks.cpg/sg8_17_cif.got.tgz:32511.got - 2010.06.03 19:46:02.
