data_PCOD9133461
_publ_section_title
;
Structure prediction by ZEFSAII (Michael W. Deem and Ramdas Pophale) SiO2 
 PCOD9133461
Probable space group: C M
;
_chemical_formula_sum "Si O2"
_cell_formula_units_Z 26
_cell_length_a 14.717353
_cell_length_b 7.781044
_cell_length_c 18.458734
_cell_angle_alpha 90.000000
_cell_angle_beta 31.850864
_cell_angle_gamma 90.000000
_cell_volume 1115.487929
_symmetry_space_group_name_H-M "C M"
_symmetry_group_IT_number 8
_symmetry_cell_setting 'monoclinic'
loop_
_space_group_symop_operation_xyz
x,y,z
x,-y,z
1/2+x,1/2+y,z
1/2+x,1/2-y,z
loop_
_atom_site_type_symbol
_atom_site_label
_atom_site_fract_x
_atom_site_fract_y
_atom_site_fract_z
Si Si1 0.704830 0.693707 0.041270
Si Si2 0.350339 0.697161 0.092569
Si Si3 0.363742 0.794216 0.780534
Si Si4 0.139913 0.500000 0.886195
Si Si5 0.267206 0.694594 0.517195
Si Si6 0.847682 0.688300 0.313847
Si Si7 0.060467 0.297870 0.410602
O O1 0.772083 0.500000 0.004664
O O2 0.769972 0.797918 0.066205
O O3 0.498539 0.693491 0.181840
O O4 0.770660 0.755049 0.919412
O O5 0.410779 0.500000 0.066432
O O6 0.199001 0.738081 0.252622
O O7 0.493149 0.845525 0.997657
O O8 0.287526 0.655090 0.777352
O O9 0.566155 0.769909 0.658946
O O10 0.337363 0.000000 0.782895
O O11 0.286125 0.500000 0.477395
O O12 0.349910 0.808963 0.398706
O O13 0.379498 0.713948 0.513036
O O14 0.888430 0.500000 0.257884
O O15 0.658998 0.739942 0.415569
O O16 0.032608 0.500000 0.433155
#
# Coordination Sequence:
#
# PCOD9133461 Si02
#       7
#     4   4   4   2   4   4   4
#     4  11  22  43  68 100 137 181 229 285 348 408
#     4  11  24  41  66 105 141 176 232 289 341 408
#     4  10  26  46  69 100 139 183 232 281 343 418
#     4  12  24  42  72  96 136 184 224 286 350 402
#     4  11  24  47  70  96 140 184 225 284 345 409
#     4  12  25  40  69 103 135 178 233 286 344 409
#     4  11  24  42  66 101 138 180 230 286 341 410
#
# _framework density 23.308185000000002
#
# number of rings (size 3 to 8) (size 9 to 14) (size 15 to 20)
#    0.000    0.923    2.308    4.154    8.615    2.462 
#    2.769    0.000    0.000    0.000    0.000    0.000 
#    0.000    0.000    0.000    0.000    0.000    0.000 
#
# Total GULP energy -72452.844286 kJ/mol
# GULP energy per Si atom -5573.295714 kJ/mol
# Density = 2.325513 g / cm^3
# Si number density = 23.308185 Si / 1000 Ang^3
#
#
#
# Elastic Constant Matrix: (Units=GPa)
#
#
# Indices 1 2 3 4 5 6 
#
# 1 62.7839 16.4847 14.2856 0.0000 -15.4825 0.0000
# 2 16.4847 116.3750 26.1712 0.0000 -25.0213 0.0000
# 3 14.2856 26.1712 74.1259 0.0000 -29.5578 0.0000
# 4 0.0000 0.0000 0.0000 19.8034 0.0000 -8.9353
# 5 -15.4825 -25.0213 -29.5578 0.0000 38.3228 0.0000
# 6 0.0000 0.0000 0.0000 -8.9353 0.0000 25.2208
#
#
#
# Elastic Compliance Matrix: (Units=1/GPa)
#
#
# Indices 1 2 3 4 5 6 
#
# 1 0.017841 -0.001091 -0.000669 0.000000 0.005980 0.000000
# 2 -0.001091 0.010156 -0.001310 0.000000 0.005180 0.000000
# 3 -0.000669 -0.001310 0.019688 0.000000 0.014060 0.000000
# 4 0.000000 0.000000 0.000000 0.060104 0.000000 0.021294
# 5 0.005980 0.005180 0.014060 0.000000 0.042736 0.000000
# 6 0.000000 0.000000 0.000000 0.021294 0.000000 0.047194
#
#
# Mechanical properties :
#
#
# Convention : Reuss Voigt Hill
#
# Bulk Modulus (GPa) = 24.07014 40.79641 32.43328
# Shear Modulus (GPa) = 22.96665 29.75895 26.36280
#
# Velocity S-wave (km/s) = 3.14243 3.57705 3.36676
# Velocity P-wave (km/s) = 4.84931 5.88230 5.39061
#
# Compressibility (1/GPa) = 0.04154525
#
# Stress axis : x y z
#
# Youngs Moduli (GPa) = 56.05109 98.46675 50.79154
#
# Poissons Ratio (x) = 0.10744 0.03396
# Poissons Ratio (y) = 0.06116 0.06654
# Poissons Ratio (z) = 0.03748 0.12899
#
# Static dielectric constant tensor:
#      x y z
#    x 1.921660 0.000000 -0.019650 
#    y 0.000000 1.821450 0.000000 
#    z -0.019650 0.000000 1.854610 
# 
# From -- ./inp_files/17301.got.cif
#   From: 2010.05.17/outbox.cif.g08.bks.cpg/sg8_9_cif.got.tgz:17301.got - 2010.06.03 19:46:02.
