data_PCOD9133544
_publ_section_title
;
Structure prediction by ZEFSAII (Michael W. Deem and Ramdas Pophale) SiO2 
 PCOD9133544
Probable space group: C M
;
_chemical_formula_sum "Si O2"
_cell_formula_units_Z 20
_cell_length_a 9.197915
_cell_length_b 21.614475
_cell_length_c 5.339427
_cell_angle_alpha 90.000000
_cell_angle_beta 123.432046
_cell_angle_gamma 90.000000
_cell_volume 885.881868
_symmetry_space_group_name_H-M "C M"
_symmetry_group_IT_number 8
_symmetry_cell_setting 'monoclinic'
loop_
_space_group_symop_operation_xyz
x,y,z
x,-y,z
1/2+x,1/2+y,z
1/2+x,1/2-y,z
loop_
_atom_site_type_symbol
_atom_site_label
_atom_site_fract_x
_atom_site_fract_y
_atom_site_fract_z
Si Si1 0.483530 0.244657 0.142100
Si Si2 0.158229 0.126949 0.436537
Si Si3 0.615658 0.187877 0.757333
Si Si4 0.835262 0.928953 0.924303
Si Si5 0.179100 0.072189 0.959126
O O1 0.610360 0.304153 0.306195
O O2 0.495173 0.208943 0.414766
O O3 0.540268 0.204932 0.956601
O O4 0.294997 0.273082 0.911216
O O5 0.234347 0.115286 0.782123
O O6 0.971521 0.090846 0.270284
O O7 0.255691 0.093222 0.300238
O O8 0.676912 0.117722 0.780456
O O9 0.785812 0.000000 0.894415
O O10 0.970705 0.920272 0.820712
O O11 0.213506 0.000000 0.941667
#
# Coordination Sequence:
#
# PCOD9133544 Si02
#       5
#     4   4   4   4   4
#     4  11  23  38  58  86 121 158 199 238 294 354
#     4   9  17  29  48  74 114 143 177 228 291 336
#     4  11  23  38  60  88 121 156 196 242 297 353
#     4   8  18  31  53  83 112 141 192 251 289 323
#     4   9  15  26  47  77 108 138 176 241 295 318
#
# _framework density 22.576374000000001
#
# number of rings (size 3 to 8) (size 9 to 14) (size 15 to 20)
#    1.200    1.200    0.000    3.600    5.600    0.000 
#    0.000    0.000    0.000    0.000    0.000   61.600 
#    0.000    0.000    0.000    0.000    0.000    0.000 
#
# Total GULP energy -55804.494097 kJ/mol
# GULP energy per Si atom -5580.449410 kJ/mol
# Density = 2.252499 g / cm^3
# Si number density = 22.576374 Si / 1000 Ang^3
#
#
#
# Elastic Constant Matrix: (Units=GPa)
#
#
# Indices 1 2 3 4 5 6 
#
# 1 70.0749 57.5766 19.4046 0.0000 -1.2671 0.0000
# 2 57.5766 146.3445 42.7683 0.0000 -13.5860 0.0000
# 3 19.4046 42.7683 102.2296 0.0000 -30.5222 0.0000
# 4 0.0000 0.0000 0.0000 4.9360 0.0000 -8.2502
# 5 -1.2671 -13.5860 -30.5222 0.0000 30.4539 0.0000
# 6 0.0000 0.0000 0.0000 -8.2502 0.0000 28.9806
#
#
#
# Elastic Compliance Matrix: (Units=1/GPa)
#
#
# Indices 1 2 3 4 5 6 
#
# 1 0.021622 -0.008356 -0.002073 0.000000 -0.004906 0.000000
# 2 -0.008356 0.011016 -0.002368 0.000000 0.002194 0.000000
# 3 -0.002073 -0.002368 0.015447 0.000000 0.014339 0.000000
# 4 0.000000 0.000000 0.000000 0.386502 0.000000 0.110029
# 5 -0.004906 0.002194 0.014339 0.000000 0.047983 0.000000
# 6 0.000000 0.000000 0.000000 0.110029 0.000000 0.065829
#
#
# Mechanical properties :
#
#
# Convention : Reuss Voigt Hill
#
# Bulk Modulus (GPa) = 44.46105 62.01643 53.23874
# Shear Modulus (GPa) = 8.59861 26.13407 17.36634
#
# Velocity S-wave (km/s) = 1.95370 3.40602 2.77650
# Velocity P-wave (km/s) = 4.98253 6.55723 5.82335
#
# Compressibility (1/GPa) = 0.02249160
#
# Stress axis : x y z
#
# Youngs Moduli (GPa) = 46.24990 90.77358 64.73738
#
# Poissons Ratio (x) = 0.75853 0.13419
# Poissons Ratio (y) = 0.38648 0.15327
# Poissons Ratio (z) = 0.09587 0.21491
#
# Static dielectric constant tensor:
#      x y z
#    x 1.871120 0.000000 0.032620 
#    y 0.000000 1.837760 0.000000 
#    z 0.032620 0.000000 1.860680 
# 
# From -- ./inp_files/1261.got.cif
#   From: 2010.05.17/outbox.cif.g08.bks.cpg/sg8_1_cif.got.tgz:1261.got - 2010.06.03 19:46:02.
