data_PCOD9133628
_publ_section_title
;
Structure prediction by ZEFSAII (Michael W. Deem and Ramdas Pophale) SiO2 
 PCOD9133628
Probable space group: C M
;
_chemical_formula_sum "Si O2"
_cell_formula_units_Z 32
_cell_length_a 21.603473
_cell_length_b 8.656880
_cell_length_c 16.081920
_cell_angle_alpha 90.000000
_cell_angle_beta 153.428484
_cell_angle_gamma 90.000000
_cell_volume 1345.351782
_symmetry_space_group_name_H-M "C M"
_symmetry_group_IT_number 8
_symmetry_cell_setting 'monoclinic'
loop_
_space_group_symop_operation_xyz
x,y,z
x,-y,z
1/2+x,1/2+y,z
1/2+x,1/2-y,z
loop_
_atom_site_type_symbol
_atom_site_label
_atom_site_fract_x
_atom_site_fract_y
_atom_site_fract_z
Si Si1 0.773830 0.682193 0.662400
Si Si2 0.006006 0.815314 0.552424
Si Si3 0.110454 0.683622 0.254599
Si Si4 0.897476 0.681472 0.579641
Si Si5 0.186541 0.818528 0.989958
Si Si6 0.810187 0.682193 0.907200
Si Si7 0.973562 0.183622 0.315001
Si Si8 0.578011 0.815314 0.017176
O O1 0.769308 0.500000 0.635469
O O2 0.792009 0.687943 0.784800
O O3 0.621431 0.748259 0.459944
O O4 0.921547 0.742579 0.809247
O O5 0.901288 0.730917 0.487447
O O6 0.162470 0.757421 0.760353
O O7 0.983914 0.796316 0.427812
O O8 0.998152 0.000000 0.559552
O O9 0.115714 0.500000 0.277098
O O10 0.256800 0.757968 0.452945
O O11 0.100103 0.703684 0.141788
O O12 0.962586 0.748259 0.109656
O O13 0.900792 0.500000 0.592998
O O14 0.042009 0.749999 0.784800
O O15 0.182729 0.769084 0.082152
O O16 0.183223 0.000000 0.976598
O O17 0.327217 0.757969 0.116654
O O18 0.814709 0.500000 0.934131
O O19 0.968303 0.000000 0.292501
O O20 0.585866 0.000000 0.010048
#
# Coordination Sequence:
#
# PCOD9133628 Si02
#       8
#     4   4   4   4   4   4   4   4
#     4   7  12  26  52  83 108 131 163 203 248 303
#     4   9  17  33  58  84 108 135 168 207 254 308
#     4   9  17  33  58  84 108 135 168 207 254 308
#     4  12  25  38  51  71 103 141 181 220 259 304
#     4  12  25  38  51  71 103 141 181 220 259 304
#     4   7  12  26  52  83 108 131 163 203 248 303
#     4   9  17  33  58  84 108 135 168 207 254 308
#     4   9  17  33  58  84 108 135 168 207 254 308
#
# _framework density 23.785602999999998
#
# number of rings (size 3 to 8) (size 9 to 14) (size 15 to 20)
#    0.000    2.750    0.000    6.000    0.000    4.000 
#    0.000    2.500    0.000    4.500    0.000    0.000 
#    0.000    0.000    0.000    0.000    0.000    0.000 
#
# Total GULP energy -89384.442955 kJ/mol
# GULP energy per Si atom -5586.527685 kJ/mol
# Density = 2.373147 g / cm^3
# Si number density = 23.785603 Si / 1000 Ang^3
#
#
#
# Elastic Constant Matrix: (Units=GPa)
#
#
# Indices 1 2 3 4 5 6 
#
# 1 86.9397 21.6763 29.6303 0.0000 34.0084 0.0000
# 2 21.6763 45.7144 50.5481 0.0000 16.9365 0.0000
# 3 29.6303 50.5481 194.4450 0.0000 39.1824 0.0000
# 4 0.0000 0.0000 0.0000 31.4777 0.0000 8.6480
# 5 34.0084 16.9365 39.1824 0.0000 60.7938 0.0000
# 6 0.0000 0.0000 0.0000 8.6480 0.0000 9.0058
#
#
#
# Elastic Compliance Matrix: (Units=1/GPa)
#
#
# Indices 1 2 3 4 5 6 
#
# 1 0.015587 -0.005110 0.000486 0.000000 -0.007610 0.000000
# 2 -0.005110 0.033208 -0.007546 0.000000 -0.001530 0.000000
# 3 0.000486 -0.007546 0.007656 0.000000 -0.003104 0.000000
# 4 0.000000 0.000000 0.000000 0.043153 0.000000 -0.041439
# 5 -0.007610 -0.001530 -0.003104 0.000000 0.023133 0.000000
# 6 0.000000 0.000000 0.000000 -0.041439 0.000000 0.150833
#
#
# Mechanical properties :
#
#
# Convention : Reuss Voigt Hill
#
# Bulk Modulus (GPa) = 31.13994 58.97873 45.05933
# Shear Modulus (GPa) = 16.20154 35.27175 25.73664
#
# Velocity S-wave (km/s) = 2.61271 3.85503 3.29299
# Velocity P-wave (km/s) = 4.71403 6.68317 5.78303
#
# Compressibility (1/GPa) = 0.03211310
#
# Stress axis : x y z
#
# Youngs Moduli (GPa) = 64.15597 30.11288 130.61798
#
# Poissons Ratio (x) = 0.15386 -0.06354
# Poissons Ratio (y) = 0.32781 0.98565
# Poissons Ratio (z) = -0.03121 0.22723
#
# Static dielectric constant tensor:
#      x y z
#    x 2.021610 0.000000 -0.039410 
#    y 0.000000 1.787060 0.000000 
#    z -0.039410 0.000000 1.997660 
# 
# From -- ./inp_files/31661.got.cif
#   From: 2010.05.17/outbox.cif.g08.bks.cpg/sg8_16_cif.got.tgz:31661.got - 2010.06.03 19:46:02.
