data_PCOD9133490
_publ_section_title
;
Structure prediction by ZEFSAII (Michael W. Deem and Ramdas Pophale) SiO2 
 PCOD9133490
Probable space group: C M
;
_chemical_formula_sum "Si O2"
_cell_formula_units_Z 26
_cell_length_a 14.467151
_cell_length_b 16.977581
_cell_length_c 7.545714
_cell_angle_alpha 90.000000
_cell_angle_beta 148.540766
_cell_angle_gamma 90.000000
_cell_volume 967.251966
_symmetry_space_group_name_H-M "C M"
_symmetry_group_IT_number 8
_symmetry_cell_setting 'monoclinic'
loop_
_space_group_symop_operation_xyz
x,y,z
x,-y,z
1/2+x,1/2+y,z
1/2+x,1/2-y,z
loop_
_atom_site_type_symbol
_atom_site_label
_atom_site_fract_x
_atom_site_fract_y
_atom_site_fract_z
Si Si1 0.074381 0.500000 0.101581
Si Si2 0.795856 0.729691 0.752116
Si Si3 0.043143 0.368244 0.363504
Si Si4 0.728740 0.133493 0.090866
Si Si5 0.063032 0.914499 0.440106
Si Si6 0.027080 0.220770 0.813778
Si Si7 0.267861 0.916140 0.154324
O O1 0.126719 0.569176 0.040842
O O2 0.039170 0.431297 0.198492
O O3 0.717905 0.816584 0.636532
O O4 0.650088 0.660384 0.486237
O O5 0.943851 0.735240 0.844096
O O6 0.896056 0.699624 0.089448
O O7 0.970647 0.408749 0.422940
O O8 0.857968 0.096284 0.154552
O O9 0.871612 0.175021 0.459280
O O10 0.615128 0.209500 0.845707
O O11 0.161216 0.919255 0.792391
O O12 0.092303 0.000000 0.399132
O O13 0.178996 0.156819 0.107490
O O14 0.241537 0.000000 0.204961
#
# Coordination Sequence:
#
# PCOD9133490 Si02
#       7
#     2   4   4   4   4   4   4
#     4  12  20  36  66  86 112 152 202 234 272 348
#     4  11  21  35  58  87 116 150 189 241 284 340
#     4  11  22  38  61  86 117 150 195 234 289 335
#     4  11  22  38  61  86 117 150 195 234 289 335
#     4   9  19  34  58  85 113 149 195 237 278 339
#     4  11  21  35  58  87 116 150 189 241 284 340
#     4   9  19  34  58  85 113 149 195 237 278 339
#
# _framework density 26.880277
#
# number of rings (size 3 to 8) (size 9 to 14) (size 15 to 20)
#    0.000    1.538    4.615    0.923    2.154    0.000 
#    0.000    0.000    3.385    5.538    0.000    0.000 
#    0.000    0.000    0.000    0.000    0.000    0.000 
#
# Total GULP energy -72534.120582 kJ/mol
# GULP energy per Si atom -5579.547737 kJ/mol
# Density = 2.681910 g / cm^3
# Si number density = 26.880277 Si / 1000 Ang^3
#
#
#
# Elastic Constant Matrix: (Units=GPa)
#
#
# Indices 1 2 3 4 5 6 
#
# 1 124.4897 64.4458 15.2428 0.0000 24.9635 0.0000
# 2 64.4458 220.8273 27.5674 0.0000 21.4716 0.0000
# 3 15.2428 27.5674 47.2532 0.0000 11.4532 0.0000
# 4 0.0000 0.0000 0.0000 17.2999 0.0000 4.7471
# 5 24.9635 21.4716 11.4532 0.0000 32.1074 0.0000
# 6 0.0000 0.0000 0.0000 4.7471 0.0000 63.4409
#
#
#
# Elastic Compliance Matrix: (Units=1/GPa)
#
#
# Indices 1 2 3 4 5 6 
#
# 1 0.010642 -0.002418 -0.000447 0.000000 -0.006498 0.000000
# 2 -0.002418 0.005618 -0.002236 0.000000 -0.001079 0.000000
# 3 -0.000447 -0.002236 0.024262 0.000000 -0.006812 0.000000
# 4 0.000000 0.000000 0.000000 0.059016 0.000000 -0.004416
# 5 -0.006498 -0.001079 -0.006812 0.000000 0.039349 0.000000
# 6 0.000000 0.000000 0.000000 -0.004416 0.000000 0.016093
#
#
# Mechanical properties :
#
#
# Convention : Reuss Voigt Hill
#
# Bulk Modulus (GPa) = 32.98151 67.45358 50.21754
# Shear Modulus (GPa) = 28.52405 41.59057 35.05731
#
# Velocity S-wave (km/s) = 3.26107 3.93778 3.61529
# Velocity P-wave (km/s) = 5.14547 6.76930 6.01245
#
# Compressibility (1/GPa) = 0.03032002
#
# Stress axis : x y z
#
# Youngs Moduli (GPa) = 93.96378 177.99169 41.21608
#
# Poissons Ratio (x) = 0.43042 0.01844
# Poissons Ratio (y) = 0.22723 0.09216
# Poissons Ratio (z) = 0.04203 0.39799
#
# Static dielectric constant tensor:
#      x y z
#    x 2.079470 0.000000 -0.077500 
#    y 0.000000 1.997040 0.000000 
#    z -0.077500 0.000000 2.342280 
# 
# From -- ./inp_files/10677.got.cif
#   From: 2010.05.17/outbox.cif.g08.bks.cpg/sg8_6_cif.got.tgz:10677.got - 2010.06.03 19:46:02.
