data_PCOD9133207
_publ_section_title
;
Structure prediction by ZEFSAII (Michael W. Deem and Ramdas Pophale) SiO2 
 PCOD9133207
Probable space group: C M
;
_chemical_formula_sum "Si O2"
_cell_formula_units_Z 20
_cell_length_a 13.365338
_cell_length_b 14.662317
_cell_length_c 7.003149
_cell_angle_alpha 90.000000
_cell_angle_beta 41.383073
_cell_angle_gamma 90.000000
_cell_volume 907.270221
_symmetry_space_group_name_H-M "C M"
_symmetry_group_IT_number 8
_symmetry_cell_setting 'monoclinic'
loop_
_space_group_symop_operation_xyz
x,y,z
x,-y,z
1/2+x,1/2+y,z
1/2+x,1/2-y,z
loop_
_atom_site_type_symbol
_atom_site_label
_atom_site_fract_x
_atom_site_fract_y
_atom_site_fract_z
Si Si1 0.625000 0.500000 0.860370
Si Si2 0.297332 0.000000 0.979716
Si Si3 0.566714 0.659346 0.352107
Si Si4 0.067061 0.801541 0.903053
Si Si5 0.871072 0.000000 0.566179
Si Si6 0.143845 0.500000 0.580679
Si Si7 0.224604 0.301114 0.377004
O O1 0.773854 0.500000 0.782127
O O2 0.610075 0.404587 0.774147
O O3 0.485758 0.500000 0.215143
O O4 0.464797 0.000000 0.816491
O O5 0.206819 0.910563 0.174780
O O6 0.421302 0.593774 0.596246
O O7 0.602421 0.745752 0.429545
O O8 0.566198 0.692146 0.133198
O O9 0.185832 0.731208 0.647564
O O10 0.897182 0.777688 0.083604
O O11 0.707209 0.000000 0.706913
O O12 0.205172 0.408837 0.394683
#
# Coordination Sequence:
#
# PCOD9133207 Si02
#       7
#     2   2   4   4   2   2   4
#     4   8  16  40  60  85 126 169 198 249 327 369
#     4   8  18  35  61  90 125 161 201 265 310 364
#     4   9  20  41  63  91 122 168 211 247 317 378
#     4  10  22  40  64  92 128 164 209 260 311 374
#     4   8  16  39  61  82 129 165 193 262 317 362
#     4  12  20  38  60  93 132 159 206 266 318 351
#     4  12  23  38  66  93 124 169 212 254 313 376
#
# _framework density 22.044149000000001
#
# number of rings (size 3 to 8) (size 9 to 14) (size 15 to 20)
#    0.000    2.800    4.000    1.200    0.000    6.400 
#    0.000    2.000    0.000    0.000    0.000    0.000 
#    0.000    0.000    0.000    0.000    0.000    0.000 
#
# Total GULP energy -55814.044759 kJ/mol
# GULP energy per Si atom -5581.404476 kJ/mol
# Density = 2.199398 g / cm^3
# Si number density = 22.044149 Si / 1000 Ang^3
#
#
#
# Elastic Constant Matrix: (Units=GPa)
#
#
# Indices 1 2 3 4 5 6 
#
# 1 110.7705 30.4407 27.3990 0.0000 -25.1214 0.0000
# 2 30.4407 128.7627 18.1171 0.0000 3.2523 0.0000
# 3 27.3990 18.1171 55.1142 0.0000 -17.0389 0.0000
# 4 0.0000 0.0000 0.0000 6.1858 0.0000 2.0160
# 5 -25.1214 3.2523 -17.0389 0.0000 39.4239 0.0000
# 6 0.0000 0.0000 0.0000 2.0160 0.0000 43.1692
#
#
#
# Elastic Compliance Matrix: (Units=1/GPa)
#
#
# Indices 1 2 3 4 5 6 
#
# 1 0.011972 -0.002558 -0.003101 0.000000 0.006499 0.000000
# 2 -0.002558 0.008844 -0.002730 0.000000 -0.003540 0.000000
# 3 -0.003101 -0.002730 0.023133 0.000000 0.008247 0.000000
# 4 0.000000 0.000000 0.000000 0.164160 0.000000 -0.007666
# 5 0.006499 -0.003540 0.008247 0.000000 0.033363 0.000000
# 6 0.000000 0.000000 0.000000 -0.007666 0.000000 0.023523
#
#
# Mechanical properties :
#
#
# Convention : Reuss Voigt Hill
#
# Bulk Modulus (GPa) = 36.80476 49.61791 43.21134
# Shear Modulus (GPa) = 17.19216 32.33513 24.76364
#
# Velocity S-wave (km/s) = 2.79569 3.83408 3.35530
# Velocity P-wave (km/s) = 5.21089 6.49288 5.88689
#
# Compressibility (1/GPa) = 0.02717040
#
# Stress axis : x y z
#
# Youngs Moduli (GPa) = 83.53034 113.06499 43.22840
#
# Poissons Ratio (x) = 0.28922 0.13407
# Poissons Ratio (y) = 0.21367 0.11801
# Poissons Ratio (z) = 0.25906 0.30866
#
# Static dielectric constant tensor:
#      x y z
#    x 1.863560 0.000000 0.036160 
#    y 0.000000 1.826220 0.000000 
#    z 0.036160 0.000000 1.791130 
# 
# From -- ./inp_files/10550.got.cif
#   From: 2010.05.17/outbox.cif.g08.bks.cpg/sg8_6_cif.got.tgz:10550.got - 2010.06.03 19:46:02.
