data_PCOD9133916
_publ_section_title
;
Structure prediction by ZEFSAII (Michael W. Deem and Ramdas Pophale) SiO2 
 PCOD9133916
Probable space group: C C
;
_chemical_formula_sum "Si O2"
_cell_formula_units_Z 32
_cell_length_a 8.062500
_cell_length_b 31.375896
_cell_length_c 6.921150
_cell_angle_alpha 90.000000
_cell_angle_beta 135.143441
_cell_angle_gamma 90.000000
_cell_volume 1234.920892
_symmetry_space_group_name_H-M "C C"
_symmetry_group_IT_number 9
_symmetry_cell_setting 'monoclinic'
loop_
_space_group_symop_operation_xyz
x,y,z
x,-y,1/2+z
1/2+x,1/2+y,z
1/2+x,1/2-y,1/2+z
loop_
_atom_site_type_symbol
_atom_site_label
_atom_site_fract_x
_atom_site_fract_y
_atom_site_fract_z
Si Si1 0.025680 0.917333 0.144750
Si Si2 0.769961 0.768505 0.065864
Si Si3 0.892702 0.738513 0.726669
Si Si4 0.315361 0.938360 0.756762
Si Si5 0.438960 0.858088 0.368406
Si Si6 0.724987 0.061873 0.054429
Si Si7 0.097115 0.640290 0.430304
Si Si8 0.515539 0.999714 0.643527
O O1 0.137679 0.936483 0.432169
O O2 0.204992 0.885941 0.182825
O O3 0.915403 0.944304 0.878969
O O4 0.814818 0.889125 0.055211
O O5 0.017236 0.755384 0.367864
O O6 0.833497 0.762088 0.886028
O O7 0.703038 0.815554 0.087015
O O8 0.662567 0.748341 0.408333
O O9 0.904429 0.687331 0.746125
O O10 0.407489 0.890791 0.877537
O O11 0.520412 0.967867 0.832848
O O12 0.291745 0.968732 0.921983
O O13 0.652870 0.888755 0.472445
O O14 0.481639 0.848212 0.629577
O O15 0.507094 0.038302 0.979251
O O16 0.727187 0.033606 0.864201
#
# Coordination Sequence:
#
# PCOD9133916 Si02
#       8
#     4   4   4   4   4   4   4   4
#     4  10  18  32  52  79 102 152 177 226 278 336
#     4  10  18  27  46  79 114 147 182 233 284 341
#     4  10  18  27  46  79 114 147 182 233 284 341
#     4  10  21  36  54  77 110 147 179 238 274 341
#     4  10  18  31  48  75 113 142 177 225 291 323
#     4  10  21  36  54  77 110 147 179 238 274 341
#     4  10  18  31  48  75 113 142 177 225 291 323
#     4  10  20  40  52  77 112 140 191 228 286 330
#
# _framework density 25.912593999999999
#
# number of rings (size 3 to 8) (size 9 to 14) (size 15 to 20)
#    0.000    2.000    6.250    1.500    3.500    1.000 
#    0.000    0.000    0.000    0.000    0.000    1.750 
#    0.000    0.000    0.000    0.000    0.000    0.000 
#
# Total GULP energy -89078.564171 kJ/mol
# GULP energy per Si atom -5567.410261 kJ/mol
# Density = 2.585362 g / cm^3
# Si number density = 25.912594 Si / 1000 Ang^3
#
#
#
# Elastic Constant Matrix: (Units=GPa)
#
#
# Indices 1 2 3 4 5 6 
#
# 1 70.1535 8.8142 17.0819 0.0000 8.3860 0.0000
# 2 8.8142 126.0811 19.2851 0.0000 -3.3530 0.0000
# 3 17.0819 19.2851 176.3016 0.0000 -2.5189 0.0000
# 4 0.0000 0.0000 0.0000 27.8049 0.0000 -7.1038
# 5 8.3860 -3.3530 -2.5189 0.0000 29.4835 0.0000
# 6 0.0000 0.0000 0.0000 -7.1038 0.0000 -3.2286
#
#
#
# Elastic Compliance Matrix: (Units=1/GPa)
#
#
# Indices 1 2 3 4 5 6 
#
# 1 0.015274 -0.000969 -0.001439 0.000000 -0.004578 0.000000
# 2 -0.000969 0.008149 -0.000781 0.000000 0.001136 0.000000
# 3 -0.001439 -0.000781 0.005909 0.000000 0.000825 0.000000
# 4 0.000000 0.000000 0.000000 0.023023 0.000000 -0.050656
# 5 -0.004578 0.001136 0.000825 0.000000 0.035419 0.000000
# 6 0.000000 0.000000 0.000000 -0.050656 0.000000 -0.198273
#
#
# Mechanical properties :
#
#
# Convention : Reuss Voigt Hill
#
# Bulk Modulus (GPa) = 43.56949 51.43318 47.50133
# Shear Modulus (GPa) = -51.82973 32.63564 -9.59704
#
# Velocity S-wave (km/s) = -4.47718 3.55272 -1.92657
# Velocity P-wave (km/s) = 3.14267 6.05978 3.66364
#
# Compressibility (1/GPa) = 0.02295184
#
# Stress axis : x y z
#
# Youngs Moduli (GPa) = 65.47121 122.71645 169.23927
#
# Poissons Ratio (x) = 0.11896 0.24358
# Poissons Ratio (y) = 0.06347 0.13221
# Poissons Ratio (z) = 0.09423 0.09587
#
# Static dielectric constant tensor:
#      x y z
#    x 2.957730 0.000000 -0.400490 
#    y 0.000000 2.059190 0.000000 
#    z -0.400490 0.000000 2.278320 
# 
# From -- ./inp_files/2245.got.cif
#   From: 2010.05.17/outbox.cif.g08.bks.cpg/sg9_2_cif.got.tgz:2245.got - 2010.06.03 20:04:27.
