data_PCOD9133071
_publ_section_title
;
Structure prediction by ZEFSAII (Michael W. Deem and Ramdas Pophale) SiO2 
 PCOD9133071
Probable space group: C M
;
_chemical_formula_sum "Si O2"
_cell_formula_units_Z 32
_cell_length_a 15.019774
_cell_length_b 8.508163
_cell_length_c 12.423088
_cell_angle_alpha 90.000000
_cell_angle_beta 103.864264
_cell_angle_gamma 90.000000
_cell_volume 1541.303305
_symmetry_space_group_name_H-M "C M"
_symmetry_group_IT_number 8
_symmetry_cell_setting 'monoclinic'
loop_
_space_group_symop_operation_xyz
x,y,z
x,-y,z
1/2+x,1/2+y,z
1/2+x,1/2-y,z
loop_
_atom_site_type_symbol
_atom_site_label
_atom_site_fract_x
_atom_site_fract_y
_atom_site_fract_z
Si Si1 0.683740 0.683927 0.616600
Si Si2 0.667813 0.814136 0.004291
Si Si3 0.248775 0.185691 0.236900
Si Si4 0.869855 0.814073 0.959391
Si Si5 0.440997 0.689624 0.201755
Si Si6 0.618406 0.813769 0.376914
Si Si7 0.564106 0.186443 0.767207
Si Si8 0.373428 0.686999 0.716561
O O1 0.675544 0.500000 0.635035
O O2 0.627846 0.732053 0.494950
O O3 0.645603 0.776933 0.708548
O O4 0.789636 0.731271 0.632549
O O5 0.765812 0.799322 0.971969
O O6 0.592980 0.760404 0.895811
O O7 0.654949 0.000000 0.024164
O O8 0.679208 0.720328 0.117589
O O9 0.346031 0.260371 0.231593
O O10 0.204521 0.262904 0.328764
O O11 0.258887 0.000000 0.254340
O O12 0.875827 0.749777 0.840900
O O13 0.889728 0.000000 0.956075
O O14 0.932637 0.752038 0.075012
O O15 0.446221 0.500000 0.202225
O O16 0.527376 0.759084 0.288353
O O17 0.617484 0.000000 0.390945
O O18 0.473212 0.272685 0.700957
O O19 0.549350 0.000000 0.767011
O O20 0.357920 0.500000 0.712226
#
# Coordination Sequence:
#
# PCOD9133071 Si02
#       8
#     4   4   4   4   4   4   4   4
#     4  12  26  46  67  93 126 168 217 268 320 379
#     4   9  18  37  62  90 129 172 211 260 317 374
#     4  11  23  40  63  96 132 169 212 262 316 378
#     4   8  16  34  61  90 127 167 204 253 314 371
#     4  10  21  41  65  96 131 168 210 263 319 377
#     4  12  26  45  68  94 125 170 217 265 319 381
#     4  11  23  41  64  95 130 169 213 263 317 379
#     4  11  22  40  64  96 130 169 212 262 320 377
#
# _framework density 20.761648999999998
#
# number of rings (size 3 to 8) (size 9 to 14) (size 15 to 20)
#    0.000    1.500    1.250    5.250    1.750    2.000 
#    0.000    6.250    0.000    0.000    0.000    0.000 
#    0.000    0.000    0.000    0.000    0.000    0.000 
#
# Total GULP energy -89457.580066 kJ/mol
# GULP energy per Si atom -5591.098754 kJ/mol
# Density = 2.071439 g / cm^3
# Si number density = 20.761649 Si / 1000 Ang^3
#
#
#
# Elastic Constant Matrix: (Units=GPa)
#
#
# Indices 1 2 3 4 5 6 
#
# 1 40.2431 -4.1155 2.0856 0.0000 12.2091 0.0000
# 2 -4.1155 43.4000 -2.7904 0.0000 4.1374 0.0000
# 3 2.0856 -2.7904 69.5731 0.0000 16.0066 0.0000
# 4 0.0000 0.0000 0.0000 27.3338 0.0000 3.3338
# 5 12.2091 4.1374 16.0066 0.0000 30.1575 0.0000
# 6 0.0000 0.0000 0.0000 3.3338 0.0000 31.1754
#
#
#
# Elastic Compliance Matrix: (Units=1/GPa)
#
#
# Indices 1 2 3 4 5 6 
#
# 1 0.029332 0.004251 0.002458 0.000000 -0.013762 0.000000
# 2 0.004251 0.024187 0.002281 0.000000 -0.006250 0.000000
# 3 0.002458 0.002281 0.016736 0.000000 -0.010191 0.000000
# 4 0.000000 0.000000 0.000000 0.037068 0.000000 -0.003964
# 5 -0.013762 -0.006250 -0.010191 0.000000 0.044997 0.000000
# 6 0.000000 0.000000 0.000000 -0.003964 0.000000 0.032500
#
#
# Mechanical properties :
#
#
# Convention : Reuss Voigt Hill
#
# Bulk Modulus (GPa) = 11.33356 15.95285 13.64321
# Shear Modulus (GPa) = 25.47741 28.26912 26.87327
#
# Velocity S-wave (km/s) = 3.50685 3.69399 3.60164
# Velocity P-wave (km/s) = 4.67633 5.08867 4.88686
#
# Compressibility (1/GPa) = 0.08823351
#
# Stress axis : x y z
#
# Youngs Moduli (GPa) = 34.09276 41.34445 59.75259
#
# Poissons Ratio (x) = -0.17577 -0.14684
# Poissons Ratio (y) = -0.14494 -0.13627
# Poissons Ratio (z) = -0.08378 -0.09429
#
# Static dielectric constant tensor:
#      x y z
#    x 1.741150 0.000000 0.001800 
#    y 0.000000 1.692320 0.000000 
#    z 0.001800 0.000000 1.739400 
# 
# From -- ./inp_files/21600.got.cif
#   From: 2010.05.17/outbox.cif.g08.bks.cpg/sg8_11_cif.got.tgz:21600.got - 2010.06.03 19:46:02.
