data_PCOD9133313
_publ_section_title
;
Structure prediction by ZEFSAII (Michael W. Deem and Ramdas Pophale) SiO2 
 PCOD9133313
Probable space group: C M
;
_chemical_formula_sum "Si O2"
_cell_formula_units_Z 24
_cell_length_a 9.246130
_cell_length_b 22.176762
_cell_length_c 5.094671
_cell_angle_alpha 90.000000
_cell_angle_beta 107.932086
_cell_angle_gamma 90.000000
_cell_volume 993.911064
_symmetry_space_group_name_H-M "C M"
_symmetry_group_IT_number 8
_symmetry_cell_setting 'monoclinic'
loop_
_space_group_symop_operation_xyz
x,y,z
x,-y,z
1/2+x,1/2+y,z
1/2+x,1/2-y,z
loop_
_atom_site_type_symbol
_atom_site_label
_atom_site_fract_x
_atom_site_fract_y
_atom_site_fract_z
Si Si1 0.930740 0.000000 0.456240
Si Si2 0.618219 0.321212 0.089426
Si Si3 0.481386 0.266840 0.493958
Si Si4 0.341968 0.622843 0.166216
Si Si5 0.877509 0.602043 0.075091
Si Si6 0.635226 0.500000 0.070584
Si Si7 0.044589 0.371208 0.653941
O O1 0.841373 0.061944 0.337607
O O2 0.073790 0.000000 0.333300
O O3 0.994401 0.000000 0.786976
O O4 0.602899 0.276026 0.325236
O O5 0.510557 0.375401 0.131913
O O6 0.786898 0.336309 0.090979
O O7 0.534994 0.298750 0.786906
O O8 0.345900 0.311688 0.315735
O O9 0.490163 0.197542 0.583718
O O10 0.210719 0.624439 0.874940
O O11 0.748858 0.554426 0.066365
O O12 0.015727 0.598091 0.357390
O O13 0.933883 0.600281 0.811002
#
# Coordination Sequence:
#
# PCOD9133313 Si02
#       7
#     2   4   4   4   4   2   4
#     4  12  24  46  80 106 138 191 257 294 346 446
#     4  10  22  43  73  98 135 189 248 281 351 433
#     4  10  23  44  71  98 143 189 244 284 360 429
#     4  10  27  45  74 106 143 192 246 294 364 422
#     4  12  26  45  70 110 140 190 237 302 370 426
#     4  12  24  48  76 104 140 191 247 300 354 444
#     4  12  28  43  70 107 154 183 240 308 375 417
#
# _framework density 24.147031999999999
#
# number of rings (size 3 to 8) (size 9 to 14) (size 15 to 20)
#    1.000    0.000    1.667    4.000    4.667    2.667 
#    0.000    0.000    0.000    0.000    0.000    0.000 
#    0.000    0.000    0.000    0.000    0.000    0.000 
#
# Total GULP energy -66987.531885 kJ/mol
# GULP energy per Si atom -5582.294324 kJ/mol
# Density = 2.409207 g / cm^3
# Si number density = 24.147032 Si / 1000 Ang^3
#
#
#
# Elastic Constant Matrix: (Units=GPa)
#
#
# Indices 1 2 3 4 5 6 
#
# 1 87.2251 -4.1007 31.3215 0.0000 17.5620 0.0000
# 2 -4.1007 85.0045 -18.4567 0.0000 1.1984 0.0000
# 3 31.3215 -18.4567 170.6155 0.0000 38.7849 0.0000
# 4 0.0000 0.0000 0.0000 28.3465 0.0000 -6.7024
# 5 17.5620 1.1984 38.7849 0.0000 69.1839 0.0000
# 6 0.0000 0.0000 0.0000 -6.7024 0.0000 4.6671
#
#
#
# Elastic Compliance Matrix: (Units=1/GPa)
#
#
# Indices 1 2 3 4 5 6 
#
# 1 0.012557 0.000250 -0.001779 0.000000 -0.002194 0.000000
# 2 0.000250 0.012122 0.001521 0.000000 -0.001126 0.000000
# 3 -0.001779 0.001521 0.007169 0.000000 -0.003594 0.000000
# 4 0.000000 0.000000 0.000000 0.053416 0.000000 0.076710
# 5 -0.002194 -0.001126 -0.003594 0.000000 0.017046 0.000000
# 6 0.000000 0.000000 0.000000 0.076710 0.000000 0.324426
#
#
# Mechanical properties :
#
#
# Convention : Reuss Voigt Hill
#
# Bulk Modulus (GPa) = 31.41302 40.04149 35.72725
# Shear Modulus (GPa) = 11.43218 42.71157 27.07187
#
# Velocity S-wave (km/s) = 2.17823 4.21029 3.35195
# Velocity P-wave (km/s) = 4.40040 6.34458 5.45973
#
# Compressibility (1/GPa) = 0.03183393
#
# Stress axis : x y z
#
# Youngs Moduli (GPa) = 79.63612 82.49192 139.48296
#
# Poissons Ratio (x) = -0.02065 0.24818
# Poissons Ratio (y) = -0.01994 -0.21222
# Poissons Ratio (z) = 0.14170 -0.12551
#
# Static dielectric constant tensor:
#      x y z
#    x 1.907010 0.000000 0.004950 
#    y 0.000000 2.125940 0.000000 
#    z 0.004950 0.000000 1.849610 
# 
# From -- ./inp_files/1628.got.cif
#   From: 2010.05.17/outbox.cif.g08.bks.cpg/sg8_1_cif.got.tgz:1628.got - 2010.06.03 19:46:02.
