data_PCOD9133575
_publ_section_title
;
Structure prediction by ZEFSAII (Michael W. Deem and Ramdas Pophale) SiO2 
 PCOD9133575
Probable space group: C M
;
_chemical_formula_sum "Si O2"
_cell_formula_units_Z 24
_cell_length_a 9.595348
_cell_length_b 19.970352
_cell_length_c 7.911201
_cell_angle_alpha 90.000000
_cell_angle_beta 134.405896
_cell_angle_gamma 90.000000
_cell_volume 1083.005660
_symmetry_space_group_name_H-M "C M"
_symmetry_group_IT_number 8
_symmetry_cell_setting 'monoclinic'
loop_
_space_group_symop_operation_xyz
x,y,z
x,-y,z
1/2+x,1/2+y,z
1/2+x,1/2-y,z
loop_
_atom_site_type_symbol
_atom_site_label
_atom_site_fract_x
_atom_site_fract_y
_atom_site_fract_z
Si Si1 0.502250 0.574394 0.831340
Si Si2 0.791809 0.271941 0.779972
Si Si3 0.289611 0.383007 0.307869
Si Si4 0.851979 0.425106 0.916973
Si Si5 0.983923 0.837386 0.134749
Si Si6 0.865285 0.739541 0.477226
O O1 0.445888 0.500000 0.833822
O O2 0.410149 0.589325 0.569446
O O3 0.734909 0.576832 0.994707
O O4 0.439575 0.623118 0.925603
O O5 0.914385 0.254344 0.717587
O O6 0.573455 0.243579 0.562973
O O7 0.790515 0.352624 0.788781
O O8 0.872341 0.233341 0.011912
O O9 0.406639 0.378237 0.230667
O O10 0.252631 0.305461 0.321292
O O11 0.084891 0.420399 0.121565
O O12 0.801180 0.500000 0.801405
O O13 0.214711 0.821252 0.334750
#
# Coordination Sequence:
#
# PCOD9133575 Si02
#       6
#     4   4   4   4   4   4
#     4  11  26  47  69  99 142 186 228 282 346 416
#     4  12  23  42  67 102 137 176 233 286 342 403
#     4  12  24  44  70 104 137 178 227 290 343 405
#     4  11  24  43  69 100 141 186 226 277 346 415
#     4  12  26  42  72 103 138 178 236 287 343 404
#     4  12  24  40  67 104 130 174 228 290 337 397
#
# _framework density 22.160549
#
# number of rings (size 3 to 8) (size 9 to 14) (size 15 to 20)
#    0.000    0.333    6.667    1.500    4.667    1.333 
#    0.000    0.833    0.000    2.000    0.000    0.000 
#    0.000    0.000    0.000    0.000    0.000    0.000 
#
# Total GULP energy -66959.327891 kJ/mol
# GULP energy per Si atom -5579.943991 kJ/mol
# Density = 2.211011 g / cm^3
# Si number density = 22.160549 Si / 1000 Ang^3
#
#
#
# Elastic Constant Matrix: (Units=GPa)
#
#
# Indices 1 2 3 4 5 6 
#
# 1 89.0084 46.1011 35.1972 0.0000 6.8249 0.0000
# 2 46.1011 94.6207 29.3083 0.0000 -8.6422 0.0000
# 3 35.1972 29.3083 82.6220 0.0000 6.1334 0.0000
# 4 0.0000 0.0000 0.0000 20.5655 0.0000 4.9491
# 5 6.8249 -8.6422 6.1334 0.0000 43.2681 0.0000
# 6 0.0000 0.0000 0.0000 4.9491 0.0000 26.3843
#
#
#
# Elastic Compliance Matrix: (Units=1/GPa)
#
#
# Indices 1 2 3 4 5 6 
#
# 1 0.016995 -0.007233 -0.004415 0.000000 -0.003499 0.000000
# 2 -0.007233 0.015349 -0.002704 0.000000 0.004590 0.000000
# 3 -0.004415 -0.002704 0.015090 0.000000 -0.001983 0.000000
# 4 0.000000 0.000000 0.000000 0.050924 0.000000 -0.009552
# 5 -0.003499 0.004590 -0.001983 0.000000 0.024862 0.000000
# 6 0.000000 0.000000 0.000000 -0.009552 0.000000 0.039693
#
#
# Mechanical properties :
#
#
# Convention : Reuss Voigt Hill
#
# Bulk Modulus (GPa) = 53.38566 54.16271 53.77418
# Shear Modulus (GPa) = 25.27039 28.41988 26.84514
#
# Velocity S-wave (km/s) = 3.38054 3.58502 3.48428
# Velocity P-wave (km/s) = 6.27536 6.45218 6.36438
#
# Compressibility (1/GPa) = 0.01873162
#
# Stress axis : x y z
#
# Youngs Moduli (GPa) = 58.84111 65.14970 66.26705
#
# Poissons Ratio (x) = 0.47120 0.29254
# Poissons Ratio (y) = 0.42557 0.17922
# Poissons Ratio (z) = 0.25976 0.17619
#
# Static dielectric constant tensor:
#      x y z
#    x 1.775650 0.000000 0.021510 
#    y 0.000000 1.818780 0.000000 
#    z 0.021510 0.000000 1.881670 
# 
# From -- ./inp_files/8747.got.cif
#   From: 2010.05.17/outbox.cif.g08.bks.cpg/sg8_5_cif.got.tgz:8747.got - 2010.06.03 19:46:02.
