data_PCOD9133389
_publ_section_title
;
Structure prediction by ZEFSAII (Michael W. Deem and Ramdas Pophale) SiO2 
 PCOD9133389
Probable space group: C M
;
_chemical_formula_sum "Si O2"
_cell_formula_units_Z 28
_cell_length_a 11.621789
_cell_length_b 16.576334
_cell_length_c 6.096161
_cell_angle_alpha 90.000000
_cell_angle_beta 65.040234
_cell_angle_gamma 90.000000
_cell_volume 1064.720690
_symmetry_space_group_name_H-M "C M"
_symmetry_group_IT_number 8
_symmetry_cell_setting 'monoclinic'
loop_
_space_group_symop_operation_xyz
x,y,z
x,-y,z
1/2+x,1/2+y,z
1/2+x,1/2-y,z
loop_
_atom_site_type_symbol
_atom_site_label
_atom_site_fract_x
_atom_site_fract_y
_atom_site_fract_z
Si Si1 0.085600 0.785177 0.193550
Si Si2 0.233435 0.500000 0.185895
Si Si3 0.757766 0.166737 0.083433
Si Si4 0.378305 0.238925 0.637774
Si Si5 0.193260 0.500000 0.718653
Si Si6 0.990736 0.356909 0.947840
Si Si7 0.780105 0.408458 0.431326
Si Si8 0.040538 0.093796 0.882144
O O1 0.199718 0.746015 0.245342
O O2 0.964206 0.800958 0.436916
O O3 0.115174 0.859666 0.015085
O O4 0.035640 0.707845 0.093734
O O5 0.174734 0.589332 0.216101
O O6 0.266357 0.500000 0.424752
O O7 0.276144 0.500000 0.881088
O O8 0.771837 0.205954 0.831908
O O9 0.901054 0.134703 0.005226
O O10 0.458731 0.197800 0.765750
O O11 0.330122 0.163866 0.539703
O O12 0.097107 0.423683 0.810078
O O13 0.860990 0.398413 0.142909
O O14 0.810014 0.500000 0.487210
O O15 0.627202 0.402295 0.593063
O O16 0.020633 0.000000 0.948673
#
# Coordination Sequence:
#
# PCOD9133389 Si02
#       8
#     4   2   4   4   2   4   4   4
#     4  11  24  47  71 108 143 198 257 318 390 471
#     4  12  28  48  75 117 158 210 262 337 404 480
#     4  12  24  48  73 108 151 198 259 325 398 467
#     4  11  25  43  73 104 143 199 258 323 385 477
#     4  12  26  46  77 117 158 200 264 335 400 480
#     4  11  23  42  73 107 147 194 253 323 392 464
#     4  10  23  43  71 103 149 193 254 319 393 474
#     4  11  24  48  74 106 151 199 248 323 394 485
#
# _framework density 26.297976999999999
#
# number of rings (size 3 to 8) (size 9 to 14) (size 15 to 20)
#    0.000    0.857    5.714    0.857    3.000    2.286 
#    6.429    0.000    0.000    0.000    0.000    0.000 
#    0.000    0.000    0.000    0.000    0.000    0.000 
#
# Total GULP energy -78020.020195 kJ/mol
# GULP energy per Si atom -5572.858585 kJ/mol
# Density = 2.623812 g / cm^3
# Si number density = 26.297977 Si / 1000 Ang^3
#
#
#
# Elastic Constant Matrix: (Units=GPa)
#
#
# Indices 1 2 3 4 5 6 
#
# 1 80.7557 43.3324 28.7099 0.0000 -10.1402 0.0000
# 2 43.3324 160.7793 17.3566 0.0000 5.5108 0.0000
# 3 28.7099 17.3566 126.8891 0.0000 -17.5745 0.0000
# 4 0.0000 0.0000 0.0000 39.4988 0.0000 -3.0546
# 5 -10.1402 5.5108 -17.5745 0.0000 48.4245 0.0000
# 6 0.0000 0.0000 0.0000 -3.0546 0.0000 41.9877
#
#
#
# Elastic Compliance Matrix: (Units=1/GPa)
#
#
# Indices 1 2 3 4 5 6 
#
# 1 0.015871 -0.004090 -0.002640 0.000000 0.002831 0.000000
# 2 -0.004090 0.007421 -0.000343 0.000000 -0.001825 0.000000
# 3 -0.002640 -0.000343 0.008901 0.000000 0.002717 0.000000
# 4 0.000000 0.000000 0.000000 0.025460 0.000000 0.001852
# 5 0.002831 -0.001825 0.002717 0.000000 0.022437 0.000000
# 6 0.000000 0.000000 0.000000 0.001852 0.000000 0.023951
#
#
# Mechanical properties :
#
#
# Convention : Reuss Voigt Hill
#
# Bulk Modulus (GPa) = 55.40036 60.80243 58.10140
# Shear Modulus (GPa) = 40.25651 44.58388 42.42019
#
# Velocity S-wave (km/s) = 3.91677 4.12191 4.02065
# Velocity P-wave (km/s) = 6.44724 6.76937 6.61026
#
# Compressibility (1/GPa) = 0.01805042
#
# Stress axis : x y z
#
# Youngs Moduli (GPa) = 63.00664 134.74413 112.34353
#
# Poissons Ratio (x) = 0.55105 0.29654
# Poissons Ratio (y) = 0.25767 0.03849
# Poissons Ratio (z) = 0.16631 0.04617
#
# Static dielectric constant tensor:
#      x y z
#    x 2.264750 0.000000 -0.026320 
#    y 0.000000 2.065550 0.000000 
#    z -0.026320 0.000000 2.099740 
# 
# From -- ./inp_files/4099.got.cif
#   From: 2010.05.17/outbox.cif.g08.bks.cpg/sg8_3_cif.got.tgz:4099.got - 2010.06.03 19:46:02.
