data_PCOD9133428
_publ_section_title
;
Structure prediction by ZEFSAII (Michael W. Deem and Ramdas Pophale) SiO2 
 PCOD9133428
Probable space group: C M
;
_chemical_formula_sum "Si O2"
_cell_formula_units_Z 20
_cell_length_a 5.054718
_cell_length_b 27.975412
_cell_length_c 7.107637
_cell_angle_alpha 90.000000
_cell_angle_beta 127.461086
_cell_angle_gamma 90.000000
_cell_volume 797.795332
_symmetry_space_group_name_H-M "C M"
_symmetry_group_IT_number 8
_symmetry_cell_setting 'monoclinic'
loop_
_space_group_symop_operation_xyz
x,y,z
x,-y,z
1/2+x,1/2+y,z
1/2+x,1/2-y,z
loop_
_atom_site_type_symbol
_atom_site_label
_atom_site_fract_x
_atom_site_fract_y
_atom_site_fract_z
Si Si1 0.707800 0.946042 0.585130
Si Si2 0.180460 0.785215 0.556231
Si Si3 0.520200 0.714787 0.085130
Si Si4 0.492916 0.053957 0.056240
Si Si5 0.600298 0.868154 0.820662
O O1 0.600364 0.941387 0.320686
O O2 0.532152 0.903793 0.621361
O O3 0.603494 0.000000 0.595419
O O4 0.100356 0.942128 0.820685
O O5 0.422354 0.744144 0.571079
O O6 0.313613 0.829404 0.732737
O O7 0.100313 0.809224 0.320673
O O8 0.778375 0.744134 0.070313
O O9 0.386925 0.670606 0.908574
O O10 0.597223 0.000000 0.045947
O O11 0.668534 0.096208 0.019992
#
# Coordination Sequence:
#
# PCOD9133428 Si02
#       5
#     4   4   4   4   4
#     4  10  25  46  70 104 145 184 236 303 367 434
#     4  10  24  43  66 101 145 188 240 305 365 432
#     4  10  24  43  66 101 145 188 240 305 365 432
#     4  10  25  46  70 104 145 184 236 303 367 434
#     4  12  25  38  74  98 138 188 245 294 360 446
#
# _framework density 25.069087
#
# number of rings (size 3 to 8) (size 9 to 14) (size 15 to 20)
#    0.000    1.600    0.000    1.800   11.200    1.600 
#    0.000    6.000    0.000    0.000    0.000    0.000 
#    0.000    0.000    0.000    0.000    0.000    0.000 
#
# Total GULP energy -55729.301396 kJ/mol
# GULP energy per Si atom -5572.930140 kJ/mol
# Density = 2.501203 g / cm^3
# Si number density = 25.069087 Si / 1000 Ang^3
#
#
#
# Elastic Constant Matrix: (Units=GPa)
#
#
# Indices 1 2 3 4 5 6 
#
# 1 89.7370 54.3869 30.9704 0.0000 -6.9425 0.0000
# 2 54.3869 210.2271 49.6080 0.0000 -6.2956 0.0000
# 3 30.9704 49.6080 134.3943 0.0000 -30.4621 0.0000
# 4 0.0000 0.0000 0.0000 14.1871 0.0000 5.7753
# 5 -6.9425 -6.2956 -30.4621 0.0000 31.4232 0.0000
# 6 0.0000 0.0000 0.0000 5.7753 0.0000 16.1913
#
#
#
# Elastic Compliance Matrix: (Units=1/GPa)
#
#
# Indices 1 2 3 4 5 6 
#
# 1 0.013709 -0.003083 -0.001890 0.000000 0.000579 0.000000
# 2 -0.003083 0.005931 -0.001748 0.000000 -0.001187 0.000000
# 3 -0.001890 -0.001748 0.010698 0.000000 0.009603 0.000000
# 4 0.000000 0.000000 0.000000 0.082460 0.000000 -0.029413
# 5 0.000579 -0.001187 0.009603 0.000000 0.041023 0.000000
# 6 0.000000 0.000000 0.000000 -0.029413 0.000000 0.072253
#
#
# Mechanical properties :
#
#
# Convention : Reuss Voigt Hill
#
# Bulk Modulus (GPa) = 59.18368 78.25432 68.71900
# Shear Modulus (GPa) = 20.39571 32.31985 26.35778
#
# Velocity S-wave (km/s) = 2.85543 3.59448 3.24606
# Velocity P-wave (km/s) = 5.87629 6.96493 6.44364
#
# Compressibility (1/GPa) = 0.01689655
#
# Stress axis : x y z
#
# Youngs Moduli (GPa) = 72.94221 168.59479 93.47356
#
# Poissons Ratio (x) = 0.51985 0.17665
# Poissons Ratio (y) = 0.22491 0.16339
# Poissons Ratio (z) = 0.13785 0.29470
#
# Static dielectric constant tensor:
#      x y z
#    x 2.105980 0.000000 0.178190 
#    y 0.000000 1.838180 0.000000 
#    z 0.178190 0.000000 2.413710 
# 
# From -- ./inp_files/6873.got.cif
#   From: 2010.05.17/outbox.cif.g08.bks.cpg/sg8_4_cif.got.tgz:6873.got - 2010.06.03 19:46:02.
