data_PCOD9133548
_publ_section_title
;
Structure prediction by ZEFSAII (Michael W. Deem and Ramdas Pophale) SiO2 
 PCOD9133548
Probable space group: C M
;
_chemical_formula_sum "Si O2"
_cell_formula_units_Z 24
_cell_length_a 9.058714
_cell_length_b 19.674079
_cell_length_c 8.568688
_cell_angle_alpha 90.000000
_cell_angle_beta 48.452712
_cell_angle_gamma 90.000000
_cell_volume 1142.915308
_symmetry_space_group_name_H-M "C M"
_symmetry_group_IT_number 8
_symmetry_cell_setting 'monoclinic'
loop_
_space_group_symop_operation_xyz
x,y,z
x,-y,z
1/2+x,1/2+y,z
1/2+x,1/2-y,z
loop_
_atom_site_type_symbol
_atom_site_label
_atom_site_fract_x
_atom_site_fract_y
_atom_site_fract_z
Si Si1 0.656830 0.190930 0.791860
Si Si2 0.366738 0.421383 0.851156
Si Si3 0.632726 0.074821 0.329433
Si Si4 0.352379 0.333558 0.345257
Si Si5 0.752525 0.295308 0.244735
Si Si6 0.246659 0.838967 0.615030
O O1 0.798557 0.137877 0.780561
O O2 0.683283 0.173158 0.593467
O O3 0.717950 0.271230 0.741808
O O4 0.442564 0.180042 0.015943
O O5 0.383522 0.500000 0.781327
O O6 0.575279 0.393379 0.767200
O O7 0.204580 0.421736 0.101167
O O8 0.826742 0.091920 0.295182
O O9 0.457808 0.126792 0.485095
O O10 0.559014 0.000000 0.415755
O O11 0.555197 0.311306 0.285835
O O12 0.300032 0.284018 0.238663
O O13 0.736838 0.321063 0.434957
#
# Coordination Sequence:
#
# PCOD9133548 Si02
#       6
#     4   4   4   4   4   4
#     4  11  24  39  70 101 131 178 230 288 331 413
#     4  11  24  45  70 101 140 184 230 281 347 419
#     4  11  25  46  68  98 143 184 226 283 348 413
#     4  11  24  41  63 100 133 176 224 283 342 397
#     4  11  23  39  67  99 135 171 223 284 340 399
#     4  11  23  42  72 101 135 179 231 283 343 405
#
# _framework density 20.998930000000001
#
# number of rings (size 3 to 8) (size 9 to 14) (size 15 to 20)
#    0.000    1.000    3.333    3.500    4.667    2.000 
#    0.000    0.833    0.000    0.000    0.000    0.000 
#    0.000    0.000    0.000    0.000    0.000    0.000 
#
# Total GULP energy -66933.456473 kJ/mol
# GULP energy per Si atom -5577.788039 kJ/mol
# Density = 2.095114 g / cm^3
# Si number density = 20.998930 Si / 1000 Ang^3
#
#
#
# Elastic Constant Matrix: (Units=GPa)
#
#
# Indices 1 2 3 4 5 6 
#
# 1 119.0500 74.4130 26.2817 0.0000 -16.9777 0.0000
# 2 74.4130 130.0465 39.4194 0.0000 -9.6986 0.0000
# 3 26.2817 39.4194 88.5503 0.0000 -20.6159 0.0000
# 4 0.0000 0.0000 0.0000 22.2448 0.0000 -1.9488
# 5 -16.9777 -9.6986 -20.6159 0.0000 24.9137 0.0000
# 6 0.0000 0.0000 0.0000 -1.9488 0.0000 22.5036
#
#
#
# Elastic Compliance Matrix: (Units=1/GPa)
#
#
# Indices 1 2 3 4 5 6 
#
# 1 0.014137 -0.007846 0.001027 0.000000 0.007429 0.000000
# 2 -0.007846 0.013245 -0.004474 0.000000 -0.003893 0.000000
# 3 0.001027 -0.004474 0.015777 0.000000 0.012013 0.000000
# 4 0.000000 0.000000 0.000000 0.045298 0.000000 0.003923
# 5 0.007429 -0.003893 0.012013 0.000000 0.053626 0.000000
# 6 0.000000 0.000000 0.000000 0.003923 0.000000 0.044777
#
#
# Mechanical properties :
#
#
# Convention : Reuss Voigt Hill
#
# Bulk Modulus (GPa) = 48.61038 68.65278 58.63158
# Shear Modulus (GPa) = 23.11557 27.10127 25.10842
#
# Velocity S-wave (km/s) = 3.32143 3.59639 3.46164
# Velocity P-wave (km/s) = 6.15698 7.07176 6.63017
#
# Compressibility (1/GPa) = 0.02057174
#
# Stress axis : x y z
#
# Youngs Moduli (GPa) = 70.73600 75.49993 63.38467
#
# Poissons Ratio (x) = 0.59240 -0.06507
# Poissons Ratio (y) = 0.55502 0.28356
# Poissons Ratio (z) = -0.07262 0.33776
#
# Static dielectric constant tensor:
#      x y z
#    x 1.786810 0.000000 0.001100 
#    y 0.000000 1.802300 0.000000 
#    z 0.001100 0.000000 1.737920 
# 
# From -- ./inp_files/8647.got.cif
#   From: 2010.05.17/outbox.cif.g08.bks.cpg/sg8_5_cif.got.tgz:8647.got - 2010.06.03 19:46:02.
