data_PCOD9133110
_publ_section_title
;
Structure prediction by ZEFSAII (Michael W. Deem and Ramdas Pophale) SiO2 
 PCOD9133110
Probable space group: C M
;
_chemical_formula_sum "Si O2"
_cell_formula_units_Z 24
_cell_length_a 8.027197
_cell_length_b 23.316006
_cell_length_c 8.457051
_cell_angle_alpha 90.000000
_cell_angle_beta 143.306518
_cell_angle_gamma 90.000000
_cell_volume 945.800637
_symmetry_space_group_name_H-M "C M"
_symmetry_group_IT_number 8
_symmetry_cell_setting 'monoclinic'
loop_
_space_group_symop_operation_xyz
x,y,z
x,-y,z
1/2+x,1/2+y,z
1/2+x,1/2-y,z
loop_
_atom_site_type_symbol
_atom_site_label
_atom_site_fract_x
_atom_site_fract_y
_atom_site_fract_z
Si Si1 0.350690 0.566484 0.038520
Si Si2 0.612991 0.666423 0.817228
Si Si3 0.090233 0.322462 0.972943
Si Si4 0.131642 0.252093 0.452962
Si Si5 0.299796 0.143501 0.281135
Si Si6 0.286560 0.435790 0.604937
O O1 0.351929 0.500000 0.093530
O O2 0.144129 0.612273 0.960906
O O3 0.640182 0.602052 0.279545
O O4 0.308700 0.563914 0.814853
O O5 0.375592 0.706660 0.565138
O O6 0.533495 0.601296 0.718200
O O7 0.587686 0.668472 0.988739
O O8 0.930636 0.680039 0.019181
O O9 0.372655 0.284065 0.179451
O O10 0.835631 0.295486 0.680907
O O11 0.982340 0.300256 0.452770
O O12 0.506469 0.098497 0.355204
O O13 0.279674 0.500000 0.542827
#
# Coordination Sequence:
#
# PCOD9133110 Si02
#       6
#     4   4   4   4   4   4
#     4  10  24  45  69 103 140 187 238 287 349 411
#     4  10  24  44  66 102 138 180 235 285 352 415
#     4  12  28  42  73 100 145 182 226 297 351 414
#     4  11  26  43  66 102 141 181 234 277 359 412
#     4  10  21  43  69  99 135 181 238 283 337 421
#     4   9  20  41  71  98 136 183 235 287 340 413
#
# _framework density 25.375329000000001
#
# number of rings (size 3 to 8) (size 9 to 14) (size 15 to 20)
#    0.000    1.667    1.667    0.500   11.667    1.333 
#    0.000    0.000    0.000    0.000    0.000    0.000 
#    0.000    0.000    0.000    0.000    0.000    0.000 
#
# Total GULP energy -66881.587719 kJ/mol
# GULP energy per Si atom -5573.465643 kJ/mol
# Density = 2.531757 g / cm^3
# Si number density = 25.375329 Si / 1000 Ang^3
#
#
#
# Elastic Constant Matrix: (Units=GPa)
#
#
# Indices 1 2 3 4 5 6 
#
# 1 54.5229 56.5321 30.6778 0.0000 23.8277 0.0000
# 2 56.5321 273.4687 81.1175 0.0000 28.9165 0.0000
# 3 30.6778 81.1175 167.9929 0.0000 29.1339 0.0000
# 4 0.0000 0.0000 0.0000 36.8307 0.0000 7.3570
# 5 23.8277 28.9165 29.1339 0.0000 26.8128 0.0000
# 6 0.0000 0.0000 0.0000 7.3570 0.0000 37.3754
#
#
#
# Elastic Compliance Matrix: (Units=1/GPa)
#
#
# Indices 1 2 3 4 5 6 
#
# 1 0.034008 -0.004413 0.000415 0.000000 -0.025913 0.000000
# 2 -0.004413 0.005034 -0.001680 0.000000 0.000319 0.000000
# 3 0.000415 -0.001680 0.007933 0.000000 -0.007176 0.000000
# 4 0.000000 0.000000 0.000000 0.028263 0.000000 -0.005563
# 5 -0.025913 0.000319 -0.007176 0.000000 0.067777 0.000000
# 6 0.000000 0.000000 0.000000 -0.005563 0.000000 0.027851
#
#
# Mechanical properties :
#
#
# Convention : Reuss Voigt Hill
#
# Bulk Modulus (GPa) = 28.07634 92.51549 60.29591
# Shear Modulus (GPa) = 25.76070 42.04757 33.90414
#
# Velocity S-wave (km/s) = 3.18966 4.07507 3.65924
# Velocity P-wave (km/s) = 4.96524 7.66026 6.45497
#
# Compressibility (1/GPa) = 0.03561718
#
# Stress axis : x y z
#
# Youngs Moduli (GPa) = 29.40483 198.66347 126.06239
#
# Poissons Ratio (x) = 0.87673 -0.05226
# Poissons Ratio (y) = 0.12977 0.21177
# Poissons Ratio (z) = -0.01219 0.33374
#
# Static dielectric constant tensor:
#      x y z
#    x 2.222120 0.000000 -0.041000 
#    y 0.000000 1.959410 0.000000 
#    z -0.041000 0.000000 2.048600 
# 
# From -- ./inp_files/19392.got.cif
#   From: 2010.05.17/outbox.cif.g08.bks.cpg/sg8_10_cif.got.tgz:19392.got - 2010.06.03 19:46:02.
