data_PCOD9133491
_publ_section_title
;
Structure prediction by ZEFSAII (Michael W. Deem and Ramdas Pophale) SiO2 
 PCOD9133491
Probable space group: C M
;
_chemical_formula_sum "Si O2"
_cell_formula_units_Z 32
_cell_length_a 15.233054
_cell_length_b 8.803793
_cell_length_c 29.680471
_cell_angle_alpha 90.000000
_cell_angle_beta 23.768515
_cell_angle_gamma 90.000000
_cell_volume 1604.273399
_symmetry_space_group_name_H-M "C M"
_symmetry_group_IT_number 8
_symmetry_cell_setting 'monoclinic'
loop_
_space_group_symop_operation_xyz
x,y,z
x,-y,z
1/2+x,1/2+y,z
1/2+x,1/2-y,z
loop_
_atom_site_type_symbol
_atom_site_label
_atom_site_fract_x
_atom_site_fract_y
_atom_site_fract_z
Si Si1 0.198840 0.180986 0.334300
Si Si2 0.342599 0.178972 0.833945
Si Si3 0.943889 0.821303 0.877176
Si Si4 0.595065 0.678102 0.099929
Si Si5 0.358264 0.679601 0.729972
Si Si6 0.921893 0.319359 0.324568
Si Si7 0.257595 0.320176 0.493861
Si Si8 0.826681 0.179241 0.076241
O O1 0.354819 0.267349 0.226092
O O2 0.276990 0.218017 0.348250
O O3 0.949679 0.213347 0.439537
O O4 0.234374 0.000000 0.311917
O O5 0.460358 0.271262 0.817799
O O6 0.401921 0.236834 0.756662
O O7 0.387733 0.000000 0.817326
O O8 0.082163 0.201710 0.962270
O O9 0.126870 0.735741 0.819954
O O10 0.970682 0.000000 0.870355
O O11 0.709926 0.768657 0.005915
O O12 0.599691 0.500000 0.088006
O O13 0.737516 0.719632 0.077297
O O14 0.354824 0.500000 0.738253
O O15 0.543706 0.728523 0.607823
O O16 0.900127 0.500000 0.343557
O O17 0.846969 0.227603 0.403076
O O18 0.171482 0.290472 0.191868
O O19 0.212074 0.500000 0.516334
O O20 0.792148 0.000000 0.080647
#
# Coordination Sequence:
#
# PCOD9133491 Si02
#       8
#     4   4   4   4   4   4   4   4
#     4   9  21  41  62  88 125 168 208 253 317 381
#     4  11  23  41  66  97 129 167 210 262 322 383
#     4  12  25  42  64  93 129 169 214 265 318 379
#     4  11  21  35  61  94 130 166 210 261 316 376
#     4  12  26  46  67  92 127 170 218 268 319 378
#     4   9  19  38  61  90 125 164 207 254 311 375
#     4  11  24  42  65  92 123 166 215 263 316 376
#     4   9  19  37  62  90 130 170 202 252 321 382
#
# _framework density 19.946722999999999
#
# number of rings (size 3 to 8) (size 9 to 14) (size 15 to 20)
#    0.000    1.500    1.250    4.875    1.750    4.500 
#    0.000    3.750    0.000    0.000    0.000    0.000 
#    0.000    0.000    0.000    0.000    0.000    0.000 
#
# Total GULP energy -89471.340433 kJ/mol
# GULP energy per Si atom -5591.958777 kJ/mol
# Density = 1.990132 g / cm^3
# Si number density = 19.946723 Si / 1000 Ang^3
#
#
#
# Elastic Constant Matrix: (Units=GPa)
#
#
# Indices 1 2 3 4 5 6 
#
# 1 28.3861 -2.4946 1.9271 -0.0002 10.8437 0.0002
# 2 -2.4946 45.1619 22.0625 0.0001 -6.7499 -0.0001
# 3 1.9271 22.0625 66.6833 0.0002 9.3131 0.0010
# 4 -0.0002 0.0001 0.0002 31.2148 0.0006 6.1392
# 5 10.8437 -6.7499 9.3131 0.0006 25.3372 -0.0004
# 6 0.0002 -0.0001 0.0010 6.1392 -0.0004 30.6085
#
#
#
# Elastic Compliance Matrix: (Units=1/GPa)
#
#
# Indices 1 2 3 4 5 6 
#
# 1 0.042308 -0.001491 0.001955 0.000001 -0.019223 -0.000001
# 2 -0.001491 0.029602 -0.011534 0.000000 0.012764 0.000001
# 3 0.001955 -0.011534 0.020346 0.000000 -0.011388 -0.000001
# 4 0.000001 0.000000 0.000000 0.033352 -0.000002 -0.006689
# 5 -0.019223 0.012764 -0.011388 -0.000002 0.055281 0.000002
# 6 -0.000001 0.000001 -0.000001 -0.006689 0.000002 0.034012
#
#
# Mechanical properties :
#
#
# Convention : Reuss Voigt Hill
#
# Bulk Modulus (GPa) = 14.26181 20.35792 17.30987
# Shear Modulus (GPa) = 19.20030 25.34783 22.27407
#
# Velocity S-wave (km/s) = 3.10591 3.56866 3.34530
# Velocity P-wave (km/s) = 4.47523 5.21620 4.85986
#
# Compressibility (1/GPa) = 0.07011734
#
# Stress axis : x y z
#
# Youngs Moduli (GPa) = 23.63625 33.78121 49.14927
#
# Poissons Ratio (x) = 0.05038 -0.09611
# Poissons Ratio (y) = 0.03525 0.56687
# Poissons Ratio (z) = -0.04622 0.38962
#
# Static dielectric constant tensor:
#      x y z
#    x 1.705470 0.000000 -0.005130 
#    y 0.000000 1.661320 0.000000 
#    z -0.005130 0.000000 1.689140 
# 
# From -- ./inp_files/32866.got.cif
#   From: 2010.05.17/outbox.cif.g08.bks.cpg/sg8_17_cif.got.tgz:32866.got - 2010.06.03 19:46:02.
