data_PCOD9133172
_publ_section_title
;
Structure prediction by ZEFSAII (Michael W. Deem and Ramdas Pophale) SiO2 
 PCOD9133172
Probable space group: C M
;
_chemical_formula_sum "Si O2"
_cell_formula_units_Z 32
_cell_length_a 13.830878
_cell_length_b 13.682868
_cell_length_c 7.237586
_cell_angle_alpha 90.000000
_cell_angle_beta 78.358835
_cell_angle_gamma 90.000000
_cell_volume 1341.511074
_symmetry_space_group_name_H-M "C M"
_symmetry_group_IT_number 8
_symmetry_cell_setting 'monoclinic'
loop_
_space_group_symop_operation_xyz
x,y,z
x,-y,z
1/2+x,1/2+y,z
1/2+x,1/2-y,z
loop_
_atom_site_type_symbol
_atom_site_label
_atom_site_fract_x
_atom_site_fract_y
_atom_site_fract_z
Si Si1 0.079640 0.391001 0.865240
Si Si2 0.639402 0.266400 0.541799
Si Si3 0.378057 0.252777 0.754069
Si Si4 0.917894 0.110308 0.052283
Si Si5 0.847628 0.608966 0.035696
Si Si6 0.452350 0.615938 0.462750
Si Si7 0.335790 0.884656 0.475218
Si Si8 0.185032 0.609374 0.212157
O O1 0.112530 0.500000 0.792858
O O2 0.114649 0.306431 0.717457
O O3 0.120382 0.375545 0.055047
O O4 0.961092 0.393698 0.926607
O O5 0.548153 0.333078 0.511654
O O6 0.729246 0.338240 0.555807
O O7 0.668623 0.195162 0.362485
O O8 0.359373 0.340836 0.614924
O O9 0.408535 0.171513 0.587317
O O10 0.440589 0.311514 0.885825
O O11 0.304398 0.191421 0.916424
O O12 0.799215 0.106860 0.108521
O O13 0.949711 0.138723 0.246221
O O14 0.953948 0.000000 0.996601
O O15 0.804005 0.500000 0.031146
O O16 0.850449 0.632874 0.251191
O O17 0.454195 0.500000 0.480692
O O18 0.340998 0.000000 0.505396
O O19 0.160945 0.500000 0.295796
#
# Coordination Sequence:
#
# PCOD9133172 Si02
#       8
#     4   4   4   4   4   4   4   4
#     4  10  22  40  66 101 134 168 221 279 333 386
#     4  12  23  41  66  97 132 176 221 267 333 396
#     4  12  21  40  68  94 122 174 223 266 325 387
#     4  10  23  43  64  95 132 171 219 270 329 394
#     4  10  22  40  62  96 135 173 217 266 327 395
#     4  11  25  41  63  94 132 175 221 272 326 394
#     4  11  26  44  67  99 136 174 218 274 333 398
#     4  10  22  39  64  96 129 163 214 278 334 384
#
# _framework density 23.8537
#
# number of rings (size 3 to 8) (size 9 to 14) (size 15 to 20)
#    0.000    1.250    1.250    4.500    3.500    0.000 
#    0.000    5.000    0.000    4.500    0.000    0.000 
#    0.000    0.000    0.000    0.000    0.000    0.000 
#
# Total GULP energy -89405.857431 kJ/mol
# GULP energy per Si atom -5587.866089 kJ/mol
# Density = 2.379941 g / cm^3
# Si number density = 23.853700 Si / 1000 Ang^3
#
#
#
# Elastic Constant Matrix: (Units=GPa)
#
#
# Indices 1 2 3 4 5 6 
#
# 1 54.9354 8.8349 13.5517 0.0000 8.3830 0.0000
# 2 8.8349 183.1542 95.5515 0.0000 1.5375 0.0000
# 3 13.5517 95.5515 166.5301 0.0000 12.3420 0.0000
# 4 0.0000 0.0000 0.0000 47.0627 0.0000 5.4759
# 5 8.3830 1.5375 12.3420 0.0000 28.5334 0.0000
# 6 0.0000 0.0000 0.0000 5.4759 0.0000 30.3082
#
#
#
# Elastic Compliance Matrix: (Units=1/GPa)
#
#
# Indices 1 2 3 4 5 6 
#
# 1 0.019301 -0.000385 -0.000962 0.000000 -0.005234 0.000000
# 2 -0.000385 0.007868 -0.004608 0.000000 0.001682 0.000000
# 3 -0.000962 -0.004608 0.008976 0.000000 -0.003352 0.000000
# 4 0.000000 0.000000 0.000000 0.021705 0.000000 -0.003921
# 5 -0.005234 0.001682 -0.003352 0.000000 0.037943 0.000000
# 6 0.000000 0.000000 0.000000 -0.003921 0.000000 0.033703
#
#
# Mechanical properties :
#
#
# Convention : Reuss Voigt Hill
#
# Bulk Modulus (GPa) = 41.26288 71.16619 56.21453
# Shear Modulus (GPa) = 33.44838 40.29298 36.87068
#
# Velocity S-wave (km/s) = 3.74870 4.11441 3.93580
# Velocity P-wave (km/s) = 6.00607 7.24364 6.65369
#
# Compressibility (1/GPa) = 0.02423486
#
# Stress axis : x y z
#
# Youngs Moduli (GPa) = 51.81061 127.09145 111.41385
#
# Poissons Ratio (x) = 0.04898 0.10714
# Poissons Ratio (y) = 0.01997 0.51340
# Poissons Ratio (z) = 0.04982 0.58564
#
# Static dielectric constant tensor:
#      x y z
#    x 2.045260 0.000000 0.006280 
#    y 0.000000 1.966920 0.000000 
#    z 0.006280 0.000000 1.895220 
# 
# From -- ./inp_files/4969.got.cif
#   From: 2010.05.17/outbox.cif.g08.bks.cpg/sg8_3_cif.got.tgz:4969.got - 2010.06.03 19:46:02.
