data_PCOD9133807
_publ_section_title
;
Structure prediction by ZEFSAII (Michael W. Deem and Ramdas Pophale) SiO2 
 PCOD9133807
Probable space group: C C
;
_chemical_formula_sum "Si O2"
_cell_formula_units_Z 32
_cell_length_a 24.030957
_cell_length_b 14.458825
_cell_length_c 12.923299
_cell_angle_alpha 90.000000
_cell_angle_beta 158.784953
_cell_angle_gamma 90.000000
_cell_volume 1624.910053
_symmetry_space_group_name_H-M "C C"
_symmetry_group_IT_number 9
_symmetry_cell_setting 'monoclinic'
loop_
_space_group_symop_operation_xyz
x,y,z
x,-y,1/2+z
1/2+x,1/2+y,z
1/2+x,1/2-y,1/2+z
loop_
_atom_site_type_symbol
_atom_site_label
_atom_site_fract_x
_atom_site_fract_y
_atom_site_fract_z
Si Si1 0.251400 0.048763 0.366560
Si Si2 0.056463 0.573873 0.663632
Si Si3 0.497739 0.907660 0.689046
Si Si4 0.489413 0.415509 0.248216
Si Si5 0.731261 0.396561 0.492481
Si Si6 0.784397 0.740849 0.893645
Si Si7 0.043041 0.355687 0.368733
Si Si8 0.714846 0.040117 0.737547
O O1 0.359473 0.138742 0.564964
O O2 0.368668 0.978793 0.510736
O O3 0.214059 0.996506 0.407610
O O4 0.103538 0.062684 0.039982
O O5 0.083962 0.627473 0.818665
O O6 0.176610 0.587225 0.780100
O O7 0.054876 0.464023 0.689065
O O8 0.890587 0.601239 0.331545
O O9 0.402411 0.814018 0.523060
O O10 0.641852 0.900195 0.017738
O O11 0.592854 0.382765 0.331350
O O12 0.373408 0.334087 0.078703
O O13 0.388294 0.503866 0.037566
O O14 0.746353 0.321337 0.427494
O O15 0.630215 0.768631 0.566223
O O16 0.113324 0.445906 0.548795
#
# Coordination Sequence:
#
# PCOD9133807 Si02
#       8
#     4   4   4   4   4   4   4   4
#     4   9  18  36  62  83 114 158 206 248 288 361
#     4  10  16  35  69  79 110 170 204 238 308 365
#     4   9  18  36  61  83 113 159 204 237 301 372
#     4  11  22  36  59  93 125 146 206 267 295 359
#     4  11  20  40  64  81 121 172 197 247 317 353
#     4  10  22  37  56  87 128 158 194 255 313 358
#     4   9  18  34  59  89 117 156 200 244 296 375
#     4   9  18  34  60  87 112 153 205 246 288 361
#
# _framework density 19.693397999999998
#
# number of rings (size 3 to 8) (size 9 to 14) (size 15 to 20)
#    0.000    2.500    6.250    0.000    0.000    5.000 
#    0.000    3.750    5.500    0.000    0.000    0.000 
#    0.000    0.000    0.000    0.000    0.000    0.000 
#
# Total GULP energy -89125.899353 kJ/mol
# GULP energy per Si atom -5570.368710 kJ/mol
# Density = 1.964857 g / cm^3
# Si number density = 19.693398 Si / 1000 Ang^3
#
#
#
# Elastic Constant Matrix: (Units=GPa)
#
#
# Indices 1 2 3 4 5 6 
#
# 1 84.5001 15.8352 29.6384 0.0000 -13.5299 0.0000
# 2 15.8352 42.5159 41.5753 0.0000 -7.2540 0.0000
# 3 29.6384 41.5753 125.6287 0.0000 -8.2442 0.0000
# 4 0.0000 0.0000 0.0000 10.9715 0.0000 7.5518
# 5 -13.5299 -7.2540 -8.2442 0.0000 30.6586 0.0000
# 6 0.0000 0.0000 0.0000 7.5518 0.0000 17.5772
#
#
#
# Elastic Compliance Matrix: (Units=1/GPa)
#
#
# Indices 1 2 3 4 5 6 
#
# 1 0.013813 -0.002109 -0.002233 0.000000 0.004996 0.000000
# 2 -0.002109 0.035938 -0.011095 0.000000 0.004589 0.000000
# 3 -0.002233 -0.011095 0.012136 0.000000 -0.000347 0.000000
# 4 0.000000 0.000000 0.000000 0.129415 0.000000 -0.055601
# 5 0.004996 0.004589 -0.000347 0.000000 0.035815 0.000000
# 6 0.000000 0.000000 0.000000 -0.055601 0.000000 0.080780
#
#
# Mechanical properties :
#
#
# Convention : Reuss Voigt Hill
#
# Bulk Modulus (GPa) = 32.24346 47.41585 39.82965
# Shear Modulus (GPa) = 14.32225 22.88119 18.60172
#
# Velocity S-wave (km/s) = 2.69970 3.41232 3.07671
# Velocity P-wave (km/s) = 5.11137 6.29719 5.73501
#
# Compressibility (1/GPa) = 0.03101404
#
# Stress axis : x y z
#
# Youngs Moduli (GPa) = 72.39736 27.82552 82.40179
#
# Poissons Ratio (x) = 0.05867 0.18401
# Poissons Ratio (y) = 0.15265 0.91422
# Poissons Ratio (z) = 0.16167 0.30872
#
# Static dielectric constant tensor:
#      x y z
#    x 1.727670 0.000000 0.003550 
#    y 0.000000 1.760390 0.000000 
#    z 0.003550 0.000000 1.694620 
# 
# From -- ./inp_files/21017.got.cif
#   From: 2010.05.17/outbox.cif.g08.bks.cpg/sg9_11_cif.got.tgz:21017.got - 2010.06.03 20:04:27.
