data_PCOD9133586
_publ_section_title
;
Structure prediction by ZEFSAII (Michael W. Deem and Ramdas Pophale) SiO2 
 PCOD9133586
Probable space group: C M
;
_chemical_formula_sum "Si O2"
_cell_formula_units_Z 22
_cell_length_a 5.334872
_cell_length_b 26.859612
_cell_length_c 6.683133
_cell_angle_alpha 90.000000
_cell_angle_beta 73.839136
_cell_angle_gamma 90.000000
_cell_volume 919.801238
_symmetry_space_group_name_H-M "C M"
_symmetry_group_IT_number 8
_symmetry_cell_setting 'monoclinic'
loop_
_space_group_symop_operation_xyz
x,y,z
x,-y,z
1/2+x,1/2+y,z
1/2+x,1/2-y,z
loop_
_atom_site_type_symbol
_atom_site_label
_atom_site_fract_x
_atom_site_fract_y
_atom_site_fract_z
Si Si1 0.737620 0.579201 0.260340
Si Si2 0.065675 0.500000 0.978032
Si Si3 0.901720 0.720692 0.764935
Si Si4 0.066146 0.340281 0.372053
Si Si5 0.299355 0.414439 0.649135
Si Si6 0.518571 0.638769 0.982246
O O1 0.542980 0.561962 0.475608
O O2 0.833132 0.633844 0.303632
O O3 0.973283 0.543135 0.160823
O O4 0.586909 0.587711 0.084624
O O5 0.138896 0.456228 0.798599
O O6 0.662611 0.759631 0.811023
O O7 0.773611 0.671968 0.891499
O O8 0.977719 0.706595 0.520089
O O9 0.148858 0.382167 0.517048
O O10 0.306312 0.333729 0.167798
O O11 0.405857 0.376381 0.792983
#
# Coordination Sequence:
#
# PCOD9133586 Si02
#       6
#     4   2   4   4   4   4
#     4  11  25  44  71 104 139 194 242 299 360 438
#     4  12  24  42  70 106 144 192 254 294 352 438
#     4  12  28  47  76 113 146 192 253 311 370 454
#     4  11  25  48  74 101 147 194 237 301 382 430
#     4  11  24  46  69 102 146 194 239 304 360 438
#     4  11  25  48  75  98 146 195 239 301 386 431
#
# _framework density 23.918210999999999
#
# number of rings (size 3 to 8) (size 9 to 14) (size 15 to 20)
#    0.000    0.727    3.636    2.727    5.091    2.909 
#    0.000    0.000    0.000    0.000    0.000    0.000 
#    0.000    0.000    0.000    0.000    0.000    0.000 
#
# Total GULP energy -61325.343799 kJ/mol
# GULP energy per Si atom -5575.031254 kJ/mol
# Density = 2.386377 g / cm^3
# Si number density = 23.918211 Si / 1000 Ang^3
#
#
#
# Elastic Constant Matrix: (Units=GPa)
#
#
# Indices 1 2 3 4 5 6 
#
# 1 70.4722 16.6353 37.0151 0.0000 -13.1688 0.0000
# 2 16.6353 66.2427 33.8492 0.0000 -8.6180 0.0000
# 3 37.0151 33.8492 150.7478 0.0000 -28.6896 0.0000
# 4 0.0000 0.0000 0.0000 41.8122 0.0000 -23.0018
# 5 -13.1688 -8.6180 -28.6896 0.0000 52.1941 0.0000
# 6 0.0000 0.0000 0.0000 -23.0018 0.0000 -34.8224
#
#
#
# Elastic Compliance Matrix: (Units=1/GPa)
#
#
# Indices 1 2 3 4 5 6 
#
# 1 0.016813 -0.002309 -0.003211 0.000000 0.002096 0.000000
# 2 -0.002309 0.017399 -0.003243 0.000000 0.000508 0.000000
# 3 -0.003211 -0.003243 0.008817 0.000000 0.003500 0.000000
# 4 0.000000 0.000000 0.000000 0.017542 0.000000 -0.011587
# 5 0.002096 0.000508 0.003500 0.000000 0.021696 0.000000
# 6 0.000000 0.000000 0.000000 -0.011587 0.000000 -0.021063
#
#
# Mechanical properties :
#
#
# Convention : Reuss Voigt Hill
#
# Bulk Modulus (GPa) = 39.21183 51.38465 45.29824
# Shear Modulus (GPa) = 57.31916 25.16766 41.24341
#
# Velocity S-wave (km/s) = 4.90068 3.24734 4.15704
# Velocity P-wave (km/s) = 6.96074 5.96577 6.48238
#
# Compressibility (1/GPa) = 0.02550251
#
# Stress axis : x y z
#
# Youngs Moduli (GPa) = 59.47701 57.47410 113.42343
#
# Poissons Ratio (x) = 0.13269 0.36421
# Poissons Ratio (y) = 0.13732 0.36787
# Poissons Ratio (z) = 0.19099 0.18641
#
# Static dielectric constant tensor:
#      x y z
#    x 1.950140 0.000000 -0.018770 
#    y 0.000000 1.886060 0.000000 
#    z -0.018770 0.000000 1.853270 
# 
# From -- ./inp_files/618.got.cif
#   From: 2010.05.17/outbox.cif.g08.bks.cpg/sg8_1_cif.got.tgz:618.got - 2010.06.03 19:46:02.
