data_PCOD9133407
_publ_section_title
;
Structure prediction by ZEFSAII (Michael W. Deem and Ramdas Pophale) SiO2 
 PCOD9133407
Probable space group: C M
;
_chemical_formula_sum "Si O2"
_cell_formula_units_Z 24
_cell_length_a 8.311102
_cell_length_b 23.936449
_cell_length_c 4.877117
_cell_angle_alpha 90.000000
_cell_angle_beta 70.769622
_cell_angle_gamma 90.000000
_cell_volume 916.107349
_symmetry_space_group_name_H-M "C M"
_symmetry_group_IT_number 8
_symmetry_cell_setting 'monoclinic'
loop_
_space_group_symop_operation_xyz
x,y,z
x,-y,z
1/2+x,1/2+y,z
1/2+x,1/2-y,z
loop_
_atom_site_type_symbol
_atom_site_label
_atom_site_fract_x
_atom_site_fract_y
_atom_site_fract_z
Si Si1 0.533510 0.771709 0.329810
Si Si2 0.825964 0.937294 0.901566
Si Si3 0.983881 0.560229 0.288661
Si Si4 0.677089 0.398797 0.736566
Si Si5 0.283256 0.847651 0.169371
Si Si6 0.261063 0.313465 0.697830
O O1 0.207721 0.845900 0.913345
O O2 0.362500 0.796482 0.282508
O O3 0.441955 0.716079 0.506609
O O4 0.674471 0.780365 0.006883
O O5 0.794200 0.878470 0.759458
O O6 0.015238 0.932792 0.914952
O O7 0.809980 0.000000 0.779919
O O8 0.683555 0.936743 0.219835
O O9 0.941870 0.500000 0.193275
O O10 0.856374 0.569416 0.610958
O O11 0.939372 0.608854 0.101641
O O12 0.653501 0.380178 0.437903
O O13 0.620476 0.805397 0.533076
#
# Coordination Sequence:
#
# PCOD9133407 Si02
#       6
#     4   4   4   4   4   4
#     4  12  27  52  84 118 166 218 278 345 420 493
#     4  11  25  50  84 121 165 215 276 342 412 496
#     4   9  21  43  72 108 154 206 259 328 402 479
#     4  10  23  45  74 109 157 204 266 326 401 483
#     4  10  23  46  74 104 157 204 262 327 395 479
#     4  12  28  54  80 126 161 221 278 344 422 494
#
# _framework density 26.197804999999999
#
# number of rings (size 3 to 8) (size 9 to 14) (size 15 to 20)
#    1.000    0.333    1.667    2.500    2.333    2.667 
#    6.000    3.333    0.000    0.000    0.000    0.000 
#    0.000    0.000    0.000    0.000    0.000    0.000 
#
# Total GULP energy -66821.130781 kJ/mol
# GULP energy per Si atom -5568.427565 kJ/mol
# Density = 2.613818 g / cm^3
# Si number density = 26.197805 Si / 1000 Ang^3
#
#
#
# Elastic Constant Matrix: (Units=GPa)
#
#
# Indices 1 2 3 4 5 6 
#
# 1 90.3447 34.5352 71.6056 0.0000 -5.0140 0.0000
# 2 34.5352 191.9637 49.5850 0.0000 -11.3422 0.0000
# 3 71.6056 49.5850 139.5347 0.0000 -23.5203 0.0000
# 4 0.0000 0.0000 0.0000 28.5645 0.0000 -3.9607
# 5 -5.0140 -11.3422 -23.5203 0.0000 49.5241 0.0000
# 6 0.0000 0.0000 0.0000 -3.9607 0.0000 29.6053
#
#
#
# Elastic Compliance Matrix: (Units=1/GPa)
#
#
# Indices 1 2 3 4 5 6 
#
# 1 0.019237 -0.001055 -0.010011 0.000000 -0.003048 0.000000
# 2 -0.001055 0.005800 -0.001428 0.000000 0.000543 0.000000
# 3 -0.010011 -0.001428 0.013681 0.000000 0.005157 0.000000
# 4 0.000000 0.000000 0.000000 0.035670 0.000000 0.004772
# 5 -0.003048 0.000543 0.005157 0.000000 0.022457 0.000000
# 6 0.000000 0.000000 0.000000 0.004772 0.000000 0.034416
#
#
# Mechanical properties :
#
#
# Convention : Reuss Voigt Hill
#
# Bulk Modulus (GPa) = 72.83416 81.47720 77.15568
# Shear Modulus (GPa) = 31.08932 39.27994 35.18463
#
# Velocity S-wave (km/s) = 3.44861 3.87636 3.66872
# Velocity P-wave (km/s) = 6.61205 7.15564 6.88921
#
# Compressibility (1/GPa) = 0.01372982
#
# Stress axis : x y z
#
# Youngs Moduli (GPa) = 51.98188 172.41013 73.09504
#
# Poissons Ratio (x) = 0.18192 0.73176
# Poissons Ratio (y) = 0.05485 0.10439
# Poissons Ratio (z) = 0.52039 0.24622
#
# Static dielectric constant tensor:
#      x y z
#    x 2.060770 0.000000 -0.074610 
#    y 0.000000 2.192350 0.000000 
#    z -0.074610 0.000000 2.080930 
# 
# From -- ./inp_files/11502.got.cif
#   From: 2010.05.17/outbox.cif.g08.bks.cpg/sg8_6_cif.got.tgz:11502.got - 2010.06.03 19:46:02.
