data_PCOD9133159
_publ_section_title
;
Structure prediction by ZEFSAII (Michael W. Deem and Ramdas Pophale) SiO2 
 PCOD9133159
Probable space group: C M
;
_chemical_formula_sum "Si O2"
_cell_formula_units_Z 32
_cell_length_a 22.819605
_cell_length_b 8.865201
_cell_length_c 11.357586
_cell_angle_alpha 90.000000
_cell_angle_beta 131.188946
_cell_angle_gamma 90.000000
_cell_volume 1729.073570
_symmetry_space_group_name_H-M "C M"
_symmetry_group_IT_number 8
_symmetry_cell_setting 'monoclinic'
loop_
_space_group_symop_operation_xyz
x,y,z
x,-y,z
1/2+x,1/2+y,z
1/2+x,1/2-y,z
loop_
_atom_site_type_symbol
_atom_site_label
_atom_site_fract_x
_atom_site_fract_y
_atom_site_fract_z
Si Si1 0.393850 0.319417 0.466830
Si Si2 0.619116 0.319872 0.640855
Si Si3 0.768261 0.681176 0.683962
Si Si4 0.734131 0.180092 0.385511
Si Si5 0.435008 0.820298 0.017284
Si Si6 0.548041 0.820648 0.775950
Si Si7 0.458121 0.320578 0.299011
Si Si8 0.079824 0.820210 0.070468
O O1 0.407030 0.500000 0.497130
O O2 0.308828 0.283621 0.403004
O O3 0.461029 0.235119 0.628186
O O4 0.406520 0.284069 0.345835
O O5 0.617529 0.500000 0.662723
O O6 0.699963 0.280733 0.685861
O O7 0.601333 0.233331 0.737626
O O8 0.547088 0.289390 0.456915
O O9 0.764583 0.500000 0.659596
O O10 0.753035 0.764466 0.541673
O O11 0.852626 0.717991 0.848244
O O12 0.657276 0.259979 0.235867
O O13 0.722936 0.000000 0.369153
O O14 0.435689 0.769907 0.153833
O O15 0.505056 0.738136 0.043249
O O16 0.446060 0.000000 0.023249
O O17 0.549458 0.000000 0.788996
O O18 0.574498 0.745268 0.931979
O O19 0.451831 0.500000 0.267484
O O20 0.079958 0.000000 0.067823
#
# Coordination Sequence:
#
# PCOD9133159 Si02
#       8
#     4   4   4   4   4   4   4   4
#     4   9  20  39  61  86 118 155 190 229 284 346
#     4   9  19  38  60  82 113 154 195 233 283 344
#     4  10  22  39  59  85 118 155 191 233 287 343
#     4  11  23  39  61  88 115 146 191 243 288 336
#     4  11  23  38  58  87 119 149 192 243 284 332
#     4  11  22  37  60  89 118 149 191 239 282 331
#     4   9  18  35  59  84 114 154 194 230 278 342
#     4  12  25  41  60  81 113 156 194 232 288 348
#
# _framework density 18.507020000000001
#
# number of rings (size 3 to 8) (size 9 to 14) (size 15 to 20)
#    0.000    1.750    0.000    5.250    0.000    8.500 
#    0.000    2.500    0.000    0.000    0.000    0.000 
#    0.000    0.000    0.000    0.000    0.000    0.000 
#
# Total GULP energy -89440.456371 kJ/mol
# GULP energy per Si atom -5590.028523 kJ/mol
# Density = 1.846490 g / cm^3
# Si number density = 18.507020 Si / 1000 Ang^3
#
#
#
# Elastic Constant Matrix: (Units=GPa)
#
#
# Indices 1 2 3 4 5 6 
#
# 1 153.3890 83.3202 104.4719 0.0000 18.2783 0.0000
# 2 83.3202 97.4303 92.0288 0.0000 2.4096 0.0000
# 3 104.4719 92.0288 160.1158 0.0000 -7.5093 0.0000
# 4 0.0000 0.0000 0.0000 30.1237 0.0000 -10.4248
# 5 18.2783 2.4096 -7.5093 0.0000 26.9505 0.0000
# 6 0.0000 0.0000 0.0000 -10.4248 0.0000 21.9565
#
#
#
# Elastic Compliance Matrix: (Units=1/GPa)
#
#
# Indices 1 2 3 4 5 6 
#
# 1 0.017257 -0.007015 -0.007850 0.000000 -0.013264 0.000000
# 2 -0.007015 0.026197 -0.010504 0.000000 -0.000511 0.000000
# 3 -0.007850 -0.010504 0.017933 0.000000 0.011260 0.000000
# 4 0.000000 0.000000 0.000000 0.039723 0.000000 0.018860
# 5 -0.013264 -0.000511 0.011260 0.000000 0.049284 0.000000
# 6 0.000000 0.000000 0.000000 0.018860 0.000000 0.054499
#
#
# Mechanical properties :
#
#
# Convention : Reuss Voigt Hill
#
# Bulk Modulus (GPa) = 93.90521 107.84188 100.87354
# Shear Modulus (GPa) = 19.29150 24.54707 21.91929
#
# Velocity S-wave (km/s) = 3.23211 3.64588 3.44521
# Velocity P-wave (km/s) = 8.04855 8.72471 8.39344
#
# Compressibility (1/GPa) = 0.01064904
#
# Stress axis : x y z
#
# Youngs Moduli (GPa) = 57.94749 38.17200 55.76402
#
# Poissons Ratio (x) = 0.26778 0.43774
# Poissons Ratio (y) = 0.40651 0.58574
# Poissons Ratio (z) = 0.45488 0.40096
#
# Static dielectric constant tensor:
#      x y z
#    x 1.625860 0.000000 0.004430 
#    y 0.000000 1.617250 0.000000 
#    z 0.004430 0.000000 1.600500 
# 
# From -- ./inp_files/23904.got.cif
#   From: 2010.05.17/outbox.cif.g08.bks.cpg/sg8_12_cif.got.tgz:23904.got - 2010.06.03 19:46:02.
