data_PCOD9133270
_publ_section_title
;
Structure prediction by ZEFSAII (Michael W. Deem and Ramdas Pophale) SiO2 
 PCOD9133270
Probable space group: C M
;
_chemical_formula_sum "Si O2"
_cell_formula_units_Z 26
_cell_length_a 10.434613
_cell_length_b 7.699248
_cell_length_c 19.866559
_cell_angle_alpha 90.000000
_cell_angle_beta 136.920102
_cell_angle_gamma 90.000000
_cell_volume 1090.132216
_symmetry_space_group_name_H-M "C M"
_symmetry_group_IT_number 8
_symmetry_cell_setting 'monoclinic'
loop_
_space_group_symop_operation_xyz
x,y,z
x,-y,z
1/2+x,1/2+y,z
1/2+x,1/2-y,z
loop_
_atom_site_type_symbol
_atom_site_label
_atom_site_fract_x
_atom_site_fract_y
_atom_site_fract_z
Si Si1 0.532070 0.292910 0.080130
Si Si2 0.717034 0.297028 0.411188
Si Si3 0.650020 0.000000 0.758778
Si Si4 0.317039 0.703808 0.304764
Si Si5 0.609026 0.807449 0.605443
Si Si6 0.514466 0.300482 0.780237
Si Si7 0.113784 0.294592 0.958194
O O1 0.539889 0.500000 0.086922
O O2 0.694933 0.223406 0.190949
O O3 0.329227 0.237888 0.029885
O O4 0.560727 0.238312 0.014470
O O5 0.725265 0.500000 0.434967
O O6 0.527139 0.225598 0.371236
O O7 0.715092 0.287588 0.329662
O O8 0.917901 0.218419 0.509862
O O9 0.603695 0.148081 0.682294
O O10 0.664388 0.155623 0.820462
O O11 0.332573 0.500000 0.326296
O O12 0.815362 0.729226 0.674907
O O13 0.617744 0.000000 0.574655
O O14 0.546844 0.500000 0.771193
O O15 0.499723 0.305017 0.856105
O O16 0.092013 0.500000 0.937712
#
# Coordination Sequence:
#
# PCOD9133270 Si02
#       7
#     4   4   2   4   4   4   4
#     4  11  25  44  66  92 130 172 216 275 332 394
#     4  10  22  42  65  92 130 173 209 272 330 379
#     4  10  22  44  66  88 144 170 218 280 326 376
#     4  11  24  40  65  96 128 167 221 269 329 395
#     4   8  21  40  62  90 131 165 214 271 315 391
#     4  11  23  41  67  97 130 179 221 267 329 399
#     4  11  25  43  66  96 131 171 216 275 335 387
#
# _framework density 23.850318999999999
#
# number of rings (size 3 to 8) (size 9 to 14) (size 15 to 20)
#    0.462    1.231    0.769    2.308    4.308    7.385 
#    1.385    0.000    0.000    0.000    0.000    0.000 
#    0.000    0.000    0.000    0.000    0.000    0.000 
#
# Total GULP energy -72394.220545 kJ/mol
# GULP energy per Si atom -5568.786196 kJ/mol
# Density = 2.379604 g / cm^3
# Si number density = 23.850319 Si / 1000 Ang^3
#
#
#
# Elastic Constant Matrix: (Units=GPa)
#
#
# Indices 1 2 3 4 5 6 
#
# 1 99.6652 9.3004 3.8480 0.0000 3.4345 0.0000
# 2 9.3004 80.3952 4.8438 0.0000 6.0271 0.0000
# 3 3.8480 4.8438 81.3004 0.0000 14.6992 0.0000
# 4 0.0000 0.0000 0.0000 40.2521 0.0000 -49.2407
# 5 3.4345 6.0271 14.6992 0.0000 41.5280 0.0000
# 6 0.0000 0.0000 0.0000 -49.2407 0.0000 92.1182
#
#
#
# Elastic Compliance Matrix: (Units=1/GPa)
#
#
# Indices 1 2 3 4 5 6 
#
# 1 0.010169 -0.001115 -0.000312 0.000000 -0.000569 0.000000
# 2 -0.001115 0.012713 -0.000414 0.000000 -0.001606 0.000000
# 3 -0.000312 -0.000414 0.013167 0.000000 -0.004574 0.000000
# 4 0.000000 0.000000 0.000000 0.071782 0.000000 0.038370
# 5 -0.000569 -0.001606 -0.004574 0.000000 0.025979 0.000000
# 6 0.000000 0.000000 0.000000 0.038370 0.000000 0.031366
#
#
# Mechanical properties :
#
#
# Convention : Reuss Voigt Hill
#
# Bulk Modulus (GPa) = 30.89638 33.03833 31.96735
# Shear Modulus (GPa) = 27.83220 51.00423 39.41822
#
# Velocity S-wave (km/s) = 3.41978 4.62942 4.06979
# Velocity P-wave (km/s) = 5.34561 6.51597 5.95959
#
# Compressibility (1/GPa) = 0.03236626
#
# Stress axis : x y z
#
# Youngs Moduli (GPa) = 98.33528 78.66014 75.94988
#
# Poissons Ratio (x) = 0.08770 0.02370
# Poissons Ratio (y) = 0.10964 0.03146
# Poissons Ratio (z) = 0.03069 0.03258
#
# Static dielectric constant tensor:
#      x y z
#    x 2.058270 0.000000 0.046520 
#    y 0.000000 1.907560 0.000000 
#    z 0.046520 0.000000 1.921460 
# 
# From -- ./inp_files/30459.got.cif
#   From: 2010.05.17/outbox.cif.g08.bks.cpg/sg8_16_cif.got.tgz:30459.got - 2010.06.03 19:46:02.
