data_PCOD9133802
_publ_section_title
;
Structure prediction by ZEFSAII (Michael W. Deem and Ramdas Pophale) SiO2 
 PCOD9133802
Probable space group: C C
;
_chemical_formula_sum "Si O2"
_cell_formula_units_Z 32
_cell_length_a 9.328513
_cell_length_b 15.850721
_cell_length_c 11.028165
_cell_angle_alpha 90.000000
_cell_angle_beta 101.732963
_cell_angle_gamma 90.000000
_cell_volume 1596.593667
_symmetry_space_group_name_H-M "C C"
_symmetry_group_IT_number 9
_symmetry_cell_setting 'monoclinic'
loop_
_space_group_symop_operation_xyz
x,y,z
x,-y,1/2+z
1/2+x,1/2+y,z
1/2+x,1/2-y,1/2+z
loop_
_atom_site_type_symbol
_atom_site_label
_atom_site_fract_x
_atom_site_fract_y
_atom_site_fract_z
Si Si1 0.161210 0.833884 0.798990
Si Si2 0.209083 0.662610 0.119610
Si Si3 0.298651 0.143030 0.658567
Si Si4 0.498863 0.355239 0.521454
Si Si5 0.562507 0.539427 0.483888
Si Si6 0.966840 0.301531 0.409339
Si Si7 0.472622 0.173010 0.443453
Si Si8 0.279297 0.364542 0.905702
O O1 0.092372 0.752451 0.857268
O O2 0.335250 0.839772 0.831933
O O3 0.095852 0.835068 0.655595
O O4 0.105545 0.913151 0.867672
O O5 0.224497 0.763982 0.142664
O O6 0.334252 0.635925 0.045851
O O7 0.248607 0.623349 0.256410
O O8 0.050314 0.651586 0.032204
O O9 0.177304 0.073834 0.603654
O O10 0.383687 0.138602 0.799888
O O11 0.412583 0.148546 0.566142
O O12 0.557799 0.439805 0.472892
O O13 0.503155 0.272800 0.440948
O O14 0.398560 0.572099 0.479864
O O15 0.853837 0.228469 0.431799
O O16 0.622990 0.128086 0.440755
#
# Coordination Sequence:
#
# PCOD9133802 Si02
#       8
#     4   4   4   4   4   4   4   4
#     4  10  18  38  59  80 119 155 189 243 284 357
#     4  10  17  35  61  83 111 159 199 236 286 347
#     4   9  17  35  59  84 112 159 190 235 295 350
#     4  11  20  37  63  88 111 160 199 236 297 356
#     4  10  20  38  60  84 119 152 191 239 307 343
#     4  10  16  35  61  81 109 155 206 226 282 350
#     4  10  20  35  63  88 114 148 203 243 287 343
#     4  10  20  35  58  90 119 148 191 252 288 344
#
# _framework density 20.042670000000001
#
# number of rings (size 3 to 8) (size 9 to 14) (size 15 to 20)
#    0.000    2.000   10.000    0.000    0.000    1.000 
#    4.500    2.500    8.250    0.000    0.000    0.000 
#    0.000    0.000    0.000    0.000    0.000    0.000 
#
# Total GULP energy -89264.610253 kJ/mol
# GULP energy per Si atom -5579.038141 kJ/mol
# Density = 1.999705 g / cm^3
# Si number density = 20.042670 Si / 1000 Ang^3
#
#
#
# Elastic Constant Matrix: (Units=GPa)
#
#
# Indices 1 2 3 4 5 6 
#
# 1 112.1304 15.0583 23.8235 0.0000 29.7024 0.0000
# 2 15.0583 51.6308 1.7363 0.0000 3.5761 0.0000
# 3 23.8235 1.7363 51.3366 0.0000 32.1091 0.0000
# 4 0.0000 0.0000 0.0000 5.7544 0.0000 0.9242
# 5 29.7024 3.5761 32.1091 0.0000 28.6609 0.0000
# 6 0.0000 0.0000 0.0000 0.9242 0.0000 7.4580
#
#
#
# Elastic Compliance Matrix: (Units=1/GPa)
#
#
# Indices 1 2 3 4 5 6 
#
# 1 0.013590 -0.002661 0.007968 0.000000 -0.022678 0.000000
# 2 -0.002661 0.020187 0.001346 0.000000 -0.001269 0.000000
# 3 0.007968 0.001346 0.070186 0.000000 -0.087055 0.000000
# 4 0.000000 0.000000 0.000000 0.177310 0.000000 -0.021973
# 5 -0.022678 -0.001269 -0.087055 0.000000 0.156080 0.000000
# 6 0.000000 0.000000 0.000000 -0.021973 0.000000 0.136807
#
#
# Mechanical properties :
#
#
# Convention : Reuss Voigt Hill
#
# Bulk Modulus (GPa) = 8.52748 32.92601 20.72674
# Shear Modulus (GPa) = 8.33411 20.00664 14.17037
#
# Velocity S-wave (km/s) = 2.04137 3.16286 2.66185
# Velocity P-wave (km/s) = 3.13372 5.45911 4.45096
#
# Compressibility (1/GPa) = 0.11726795
#
# Stress axis : x y z
#
# Youngs Moduli (GPa) = 73.58413 49.53697 14.24782
#
# Poissons Ratio (x) = 0.13181 -0.11352
# Poissons Ratio (y) = 0.19579 -0.01917
# Poissons Ratio (z) = -0.58629 -0.06666
#
# Static dielectric constant tensor:
#      x y z
#    x 1.738600 0.000000 -0.003700 
#    y 0.000000 1.703060 0.000000 
#    z -0.003700 0.000000 1.712790 
# 
# From -- ./inp_files/15110.got.cif
#   From: 2010.05.17/outbox.cif.g08.bks.cpg/sg9_8_cif.got.tgz:15110.got - 2010.06.03 20:04:27.
