data_PCOD9133481
_publ_section_title
;
Structure prediction by ZEFSAII (Michael W. Deem and Ramdas Pophale) SiO2 
 PCOD9133481
Probable space group: C M
;
_chemical_formula_sum "Si O2"
_cell_formula_units_Z 32
_cell_length_a 20.677059
_cell_length_b 8.476299
_cell_length_c 20.516547
_cell_angle_alpha 90.000000
_cell_angle_beta 150.798825
_cell_angle_gamma 90.000000
_cell_volume 1754.325387
_symmetry_space_group_name_H-M "C M"
_symmetry_group_IT_number 8
_symmetry_cell_setting 'monoclinic'
loop_
_space_group_symop_operation_xyz
x,y,z
x,-y,z
1/2+x,1/2+y,z
1/2+x,1/2-y,z
loop_
_atom_site_type_symbol
_atom_site_label
_atom_site_fract_x
_atom_site_fract_y
_atom_site_fract_z
Si Si1 0.397210 0.690049 0.671840
Si Si2 0.821823 0.686565 0.741733
Si Si3 0.613294 0.691149 0.035478
Si Si4 0.890243 0.187480 0.518836
Si Si5 0.697746 0.308848 0.970961
Si Si6 0.176060 0.315245 0.732543
Si Si7 0.165929 0.187479 0.227337
Si Si8 0.381762 0.812147 0.017807
O O1 0.390585 0.500000 0.673131
O O2 0.319797 0.764662 0.664198
O O3 0.353459 0.733790 0.560719
O O4 0.552456 0.736462 0.816057
O O5 0.809473 0.500000 0.737534
O O6 0.713731 0.770065 0.691910
O O7 0.966179 0.740989 0.895245
O O8 0.601144 0.500000 0.024282
O O9 0.670255 0.738543 0.155342
O O10 0.699074 0.738829 0.047794
O O11 0.773942 0.228592 0.366918
O O12 0.026060 0.271196 0.617639
O O13 0.915252 0.000000 0.541624
O O14 0.701579 0.500000 0.972451
O O15 0.812915 0.254699 0.024201
O O16 0.199361 0.500000 0.763298
O O17 0.275550 0.221073 0.867450
O O18 0.188245 0.000000 0.249640
O O19 0.018589 0.226971 0.122456
O O20 0.405676 0.000000 0.042639
#
# Coordination Sequence:
#
# PCOD9133481 Si02
#       8
#     4   4   4   4   4   4   4   4
#     4   9  18  36  58  82 114 151 189 236 296 351
#     4  11  21  33  56  88 117 147 191 244 289 341
#     4   9  18  35  56  80 114 155 192 231 286 345
#     4  11  23  41  62  84 115 157 199 242 291 352
#     4   8  15  31  56  83 109 142 187 234 280 337
#     4  12  23  37  58  86 119 153 193 244 293 345
#     4  11  23  38  57  84 119 158 195 240 292 347
#     4  11  20  35  59  87 115 149 196 245 287 340
#
# _framework density 18.240629999999999
#
# number of rings (size 3 to 8) (size 9 to 14) (size 15 to 20)
#    0.000    1.750    2.500    4.125    0.000    1.500 
#    0.000    1.875    0.000    6.000    0.000    0.000 
#    0.000    0.000    0.000    0.000    0.000    0.000 
#
# Total GULP energy -89335.309013 kJ/mol
# GULP energy per Si atom -5583.456813 kJ/mol
# Density = 1.819911 g / cm^3
# Si number density = 18.240630 Si / 1000 Ang^3
#
#
#
# Elastic Constant Matrix: (Units=GPa)
#
#
# Indices 1 2 3 4 5 6 
#
# 1 124.8847 7.8743 29.4590 0.0000 -21.0545 0.0000
# 2 7.8743 30.2963 -2.3659 0.0000 -8.9850 0.0000
# 3 29.4590 -2.3659 58.9182 0.0000 -16.0458 0.0000
# 4 0.0000 0.0000 0.0000 26.7664 0.0000 2.0869
# 5 -21.0545 -8.9850 -16.0458 0.0000 27.6993 0.0000
# 6 0.0000 0.0000 0.0000 2.0869 0.0000 22.7644
#
#
#
# Elastic Compliance Matrix: (Units=1/GPa)
#
#
# Indices 1 2 3 4 5 6 
#
# 1 0.009769 -0.001370 -0.003608 0.000000 0.004892 0.000000
# 2 -0.001370 0.038321 0.006323 0.000000 0.015052 0.000000
# 3 -0.003608 0.006323 0.022371 0.000000 0.012268 0.000000
# 4 0.000000 0.000000 0.000000 0.037629 0.000000 -0.003450
# 5 0.004892 0.015052 0.012268 0.000000 0.051809 0.000000
# 6 0.000000 0.000000 0.000000 -0.003450 0.000000 0.044244
#
#
# Mechanical properties :
#
#
# Convention : Reuss Voigt Hill
#
# Bulk Modulus (GPa) = 13.67001 31.55934 22.61468
# Shear Modulus (GPa) = 22.13970 27.38816 24.76393
#
# Velocity S-wave (km/s) = 3.48768 3.87911 3.68859
# Velocity P-wave (km/s) = 4.87125 6.11577 5.52864
#
# Compressibility (1/GPa) = 0.07315282
#
# Stress axis : x y z
#
# Youngs Moduli (GPa) = 102.35996 26.09525 44.69973
#
# Poissons Ratio (x) = 0.03576 0.16126
# Poissons Ratio (y) = 0.14025 -0.28264
# Poissons Ratio (z) = 0.36927 -0.16500
#
# Static dielectric constant tensor:
#      x y z
#    x 1.650340 0.000000 -0.020760 
#    y 0.000000 1.619760 0.000000 
#    z -0.020760 0.000000 1.584970 
# 
# From -- ./inp_files/31346.got.cif
#   From: 2010.05.17/outbox.cif.g08.bks.cpg/sg8_16_cif.got.tgz:31346.got - 2010.06.03 19:46:02.
