data_PCOD9133767
_publ_section_title
;
Structure prediction by ZEFSAII (Michael W. Deem and Ramdas Pophale) SiO2 
 PCOD9133767
Probable space group: C C
;
_chemical_formula_sum "Si O2"
_cell_formula_units_Z 32
_cell_length_a 38.524783
_cell_length_b 6.875447
_cell_length_c 5.287154
_cell_angle_alpha 90.000000
_cell_angle_beta 82.527538
_cell_angle_gamma 90.000000
_cell_volume 1388.542240
_symmetry_space_group_name_H-M "C C"
_symmetry_group_IT_number 9
_symmetry_cell_setting 'monoclinic'
loop_
_space_group_symop_operation_xyz
x,y,z
x,-y,1/2+z
1/2+x,1/2+y,z
1/2+x,1/2-y,1/2+z
loop_
_atom_site_type_symbol
_atom_site_label
_atom_site_fract_x
_atom_site_fract_y
_atom_site_fract_z
Si Si1 0.222540 0.267522 0.681170
Si Si2 0.749955 0.787438 0.154861
Si Si3 0.427598 0.366766 0.336240
Si Si4 0.505532 0.375276 0.229996
Si Si5 0.857286 0.295910 0.040204
Si Si6 0.329316 0.234465 0.068067
Si Si7 0.147832 0.370847 0.595855
Si Si8 0.073495 0.376754 0.773009
O O1 0.247956 0.196413 0.435454
O O2 0.234970 0.494035 0.705423
O O3 0.183266 0.255443 0.615706
O O4 0.226155 0.192588 0.961420
O O5 0.789738 0.774784 0.026876
O O6 0.424336 0.483193 0.075166
O O7 0.467025 0.282567 0.303665
O O8 0.396884 0.210172 0.402560
O O9 0.507202 0.542811 0.443405
O O10 0.538580 0.241263 0.252360
O O11 0.839716 0.506873 0.092660
O O12 0.854851 0.203132 0.318956
O O13 0.835116 0.188694 0.845004
O O14 0.148775 0.460244 0.312877
O O15 0.110463 0.269772 0.680771
O O16 0.073829 0.548274 0.561240
#
# Coordination Sequence:
#
# PCOD9133767 Si02
#       8
#     4   4   4   4   4   4   4   4
#     4  10  17  30  48  78 112 140 189 234 275 324
#     4  10  18  30  48  76 102 139 191 229 279 327
#     4  10  21  40  61  85 111 146 193 241 280 345
#     4  10  21  40  64  88 124 165 201 242 302 361
#     4  10  21  40  55  77 108 145 189 222 297 340
#     4  10  21  37  55  76 108 149 181 229 288 357
#     4  10  16  30  51  78 118 149 182 239 285 326
#     4  10  21  35  58  98 127 155 200 254 296 354
#
# _framework density 23.045755
#
# number of rings (size 3 to 8) (size 9 to 14) (size 15 to 20)
#    0.000    2.000    2.500    2.250    0.000    0.000 
#   18.000    0.000    0.000    0.000   19.500    0.000 
#    0.000    0.000    0.000    0.000    0.000    0.000 
#
# Total GULP energy -89265.855825 kJ/mol
# GULP energy per Si atom -5579.115989 kJ/mol
# Density = 2.299330 g / cm^3
# Si number density = 23.045755 Si / 1000 Ang^3
#
#
#
# Elastic Constant Matrix: (Units=GPa)
#
#
# Indices 1 2 3 4 5 6 
#
# 1 141.4316 -2.5908 -5.3971 0.0000 -23.0739 0.0000
# 2 -2.5908 55.2105 -20.0675 0.0000 -9.3760 0.0000
# 3 -5.3971 -20.0675 126.8321 0.0000 19.6494 0.0000
# 4 0.0000 0.0000 0.0000 -19.0284 0.0000 -0.2616
# 5 -23.0739 -9.3760 19.6494 0.0000 53.9702 0.0000
# 6 0.0000 0.0000 0.0000 -0.2616 0.0000 22.8417
#
#
#
# Elastic Compliance Matrix: (Units=1/GPa)
#
#
# Indices 1 2 3 4 5 6 
#
# 1 0.007648 0.000922 -0.000064 0.000000 0.003453 0.000000
# 2 0.000922 0.019618 0.002707 0.000000 0.002817 0.000000
# 3 -0.000064 0.002707 0.008734 0.000000 -0.002737 0.000000
# 4 0.000000 0.000000 0.000000 -0.052545 0.000000 -0.000602
# 5 0.003453 0.002817 -0.002737 0.000000 0.021491 0.000000
# 6 0.000000 0.000000 0.000000 -0.000602 0.000000 0.043773
#
#
# Mechanical properties :
#
#
# Convention : Reuss Voigt Hill
#
# Bulk Modulus (GPa) = 23.18502 29.70703 26.44603
# Shear Modulus (GPa) = 89.34066 34.99200 62.16633
#
# Velocity S-wave (km/s) = 6.23304 3.90086 5.19940
# Velocity P-wave (km/s) = 7.86660 5.76258 6.89531
#
# Compressibility (1/GPa) = 0.04313130
#
# Stress axis : x y z
#
# Youngs Moduli (GPa) = 130.74603 50.97360 114.49495
#
# Poissons Ratio (x) = -0.04701 0.00728
# Poissons Ratio (y) = -0.12058 -0.30992
# Poissons Ratio (z) = 0.00832 -0.13798
#
# Static dielectric constant tensor:
#      x y z
#    x 1.874430 0.000000 0.029280 
#    y 0.000000 2.355520 0.000000 
#    z 0.029280 0.000000 1.920550 
# 
# From -- ./inp_files/3457.got.cif
#   From: 2010.05.17/outbox.cif.g08.bks.cpg/sg9_2_cif.got.tgz:3457.got - 2010.06.03 20:04:27.
