data_PCOD9133717
_publ_section_title
;
Structure prediction by ZEFSAII (Michael W. Deem and Ramdas Pophale) SiO2 
 PCOD9133717
Probable space group: C M
;
_chemical_formula_sum "Si O2"
_cell_formula_units_Z 16
_cell_length_a 15.000000
_cell_length_b 24.000000
_cell_length_c 9.000000
_cell_angle_alpha 90.000000
_cell_angle_beta 150.000000
_cell_angle_gamma 90.000000
_cell_volume 1620.000000
_symmetry_space_group_name_H-M "C M"
_symmetry_group_IT_number 8
_symmetry_cell_setting 'monoclinic'
loop_
_space_group_symop_operation_xyz
x,y,z
x,-y,z
1/2+x,1/2+y,z
1/2+x,1/2-y,z
loop_
_atom_site_type_symbol
_atom_site_label
_atom_site_fract_x
_atom_site_fract_y
_atom_site_fract_z
Si Si1 0.914290 0.138297 0.198960
Si Si2 0.101183 0.434830 0.615598
Si Si3 0.262297 0.242947 0.950879
Si Si4 0.394443 0.765463 0.597962
Si Si5 0.392754 0.360190 0.528728
Si Si6 0.293561 0.847272 0.213839
Si Si7 0.592884 0.933629 0.245652
Si Si8 0.803842 0.660953 0.741615
O O1 0.894438 0.139456 0.350951
O O2 0.116386 0.130607 0.434767
O O3 0.777203 0.092789 0.939302
O O4 0.857572 0.199307 0.058853
O O5 0.082558 0.500000 0.628850
O O6 0.111876 0.431151 0.451817
O O7 0.932645 0.397507 0.425724
O O8 0.237816 0.204992 0.771769
O O9 0.085347 0.259355 0.789535
O O10 0.369361 0.199109 0.208239
O O11 0.330444 0.701158 0.499314
O O12 0.275489 0.809006 0.332725
O O13 0.397926 0.797947 0.758541
O O14 0.266635 0.407982 0.414029
O O15 0.599398 0.366346 0.877813
O O16 0.563867 0.000000 0.166173
O O17 0.436749 0.889069 0.979643
#
# Coordination Sequence:
#
# PCOD9133717 Si02
#       8
#     4   4   4   4   4   4   4   4
#     4  12  24  42  67 104 134 181 229 281 347 414
#     4  11  26  46  70  98 136 183 234 283 342 411
#     4  11  21  42  65 102 145 176 218 284 351 418
#     4  11  24  39  67 108 145 170 226 281 348 419
#     4  11  25  42  68 101 139 181 226 282 346 411
#     4  11  21  44  67  99 140 179 219 287 346 409
#     4  11  27  49  67  97 139 186 238 285 336 410
#     4  12  26  42  71 103 136 192 224 283 352 408
#
# _framework density 9.8765429999999999
#
# number of rings (size 3 to 8) (size 9 to 14) (size 15 to 20)
#    0.000    0.750    6.250    0.750    7.000    1.500 
#    0.000    0.000    0.000    0.000    0.000    0.000 
#    0.000    0.000    0.000    0.000    0.000    0.000 
#
# Total GULP energy -89312.258240 kJ/mol
# GULP energy per Si atom -5582.016140 kJ/mol
# Density = 0.985406 g / cm^3
# Si number density = 9.876543 Si / 1000 Ang^3
#
#
#
# Elastic Constant Matrix: (Units=GPa)
#
#
# Indices 1 2 3 4 5 6 
#
# 1 67.1162 43.1419 36.9861 0.0000 4.7078 0.0000
# 2 43.1419 166.3222 72.2369 0.0000 7.2652 0.0000
# 3 36.9861 72.2369 113.7761 0.0000 15.8031 0.0000
# 4 0.0000 0.0000 0.0000 31.6249 0.0000 -0.8690
# 5 4.7078 7.2652 15.8031 0.0000 27.3924 0.0000
# 6 0.0000 0.0000 0.0000 -0.8690 0.0000 36.0190
#
#
#
# Elastic Compliance Matrix: (Units=1/GPa)
#
#
# Indices 1 2 3 4 5 6 
#
# 1 0.019274 -0.003146 -0.004266 0.000000 -0.000017 0.000000
# 2 -0.003146 0.008836 -0.004715 0.000000 0.000917 0.000000
# 3 -0.004266 -0.004715 0.014017 0.000000 -0.006103 0.000000
# 4 0.000000 0.000000 0.000000 0.031642 0.000000 0.000763
# 5 -0.000017 0.000917 -0.006103 0.000000 0.039787 0.000000
# 6 0.000000 0.000000 0.000000 0.000763 0.000000 0.027782
#
#
# Mechanical properties :
#
#
# Convention : Reuss Voigt Hill
#
# Bulk Modulus (GPa) = 55.94739 72.43825 64.19282
# Shear Modulus (GPa) = 29.14639 31.99722 30.57181
#
# Velocity S-wave (km/s) = 3.84544 4.02911 3.93835
# Velocity P-wave (km/s) = 6.93552 7.64176 7.29719
#
# Compressibility (1/GPa) = 0.01787393
#
# Stress axis : x y z
#
# Youngs Moduli (GPa) = 51.88432 113.17195 71.34189
#
# Poissons Ratio (x) = 0.35603 0.30432
# Poissons Ratio (y) = 0.16322 0.33636
# Poissons Ratio (z) = 0.22132 0.53358
#
# Static dielectric constant tensor:
#      x y z
#    x 1.732640 0.000000 -0.056970 
#    y 0.000000 1.662510 0.000000 
#    z -0.056970 0.000000 1.803720 
# 
# From -- ./inp_files/13833.got.cif
#   From: 2010.05.17/outbox.ucp.g08.bks.cvg/sg8_7_cif.got.tgz:13833.got - 2010.06.11 13:00:03.
