data_PCOD9133115
_publ_section_title
;
Structure prediction by ZEFSAII (Michael W. Deem and Ramdas Pophale) SiO2 
 PCOD9133115
Probable space group: C M
;
_chemical_formula_sum "Si O2"
_cell_formula_units_Z 32
_cell_length_a 9.578646
_cell_length_b 29.669540
_cell_length_c 12.103853
_cell_angle_alpha 90.000000
_cell_angle_beta 24.418391
_cell_angle_gamma 90.000000
_cell_volume 1422.019679
_symmetry_space_group_name_H-M "C M"
_symmetry_group_IT_number 8
_symmetry_cell_setting 'monoclinic'
loop_
_space_group_symop_operation_xyz
x,y,z
x,-y,z
1/2+x,1/2+y,z
1/2+x,1/2-y,z
loop_
_atom_site_type_symbol
_atom_site_label
_atom_site_fract_x
_atom_site_fract_y
_atom_site_fract_z
Si Si1 0.418310 0.766447 0.978190
Si Si2 0.362823 0.120896 0.459828
Si Si3 0.403716 0.878381 0.195455
Si Si4 0.764498 0.101644 0.391197
Si Si5 0.843651 0.821192 0.508427
Si Si6 0.883136 0.200086 0.812453
Si Si7 0.436737 0.051799 0.830147
Si Si8 0.273318 0.551630 0.816597
O O1 0.528064 0.801764 0.802747
O O2 0.755817 0.764438 0.811990
O O3 0.345639 0.722015 0.959563
O O4 0.097413 0.781716 0.282923
O O5 0.566110 0.117679 0.199173
O O6 0.549911 0.108425 0.435595
O O7 0.229044 0.172433 0.558847
O O8 0.070910 0.083869 0.644763
O O9 0.040070 0.854994 0.450989
O O10 0.620356 0.840259 0.979085
O O11 0.440231 0.925730 0.109552
O O12 0.775782 0.148336 0.450885
O O13 0.130343 0.083826 0.089422
O O14 0.593287 0.067517 0.601703
O O15 0.317027 0.000000 0.909571
O O16 0.712816 0.053314 0.729329
O O17 0.320218 0.500000 0.816127
#
# Coordination Sequence:
#
# PCOD9133115 Si02
#       8
#     4   4   4   4   4   4   4   4
#     4  11  25  42  67  96 132 174 227 282 331 406
#     4  11  25  43  68 100 139 180 226 285 347 404
#     4  10  21  44  67  95 136 176 229 279 339 403
#     4  12  26  43  70 101 139 180 222 284 348 402
#     4  11  23  43  68  95 132 180 225 276 338 405
#     4  10  25  42  65  97 132 175 223 285 337 400
#     4  11  25  46  71 101 135 180 234 280 336 414
#     4  10  23  43  70  99 133 185 234 279 337 412
#
# _framework density 22.503204
#
# number of rings (size 3 to 8) (size 9 to 14) (size 15 to 20)
#    0.000    1.250    2.500    1.875    8.750    2.500 
#    0.000    0.000    0.000    0.000    0.000    0.000 
#    0.000    0.000    0.000    0.000    0.000    0.000 
#
# Total GULP energy -89335.377893 kJ/mol
# GULP energy per Si atom -5583.461118 kJ/mol
# Density = 2.245199 g / cm^3
# Si number density = 22.503204 Si / 1000 Ang^3
#
#
#
# Elastic Constant Matrix: (Units=GPa)
#
#
# Indices 1 2 3 4 5 6 
#
# 1 157.0447 32.6858 5.8653 0.0000 5.8968 0.0000
# 2 32.6858 89.2863 13.2186 0.0000 1.9779 0.0000
# 3 5.8653 13.2186 62.7979 0.0000 14.7222 0.0000
# 4 0.0000 0.0000 0.0000 22.0111 0.0000 14.2724
# 5 5.8968 1.9779 14.7222 0.0000 33.3197 0.0000
# 6 0.0000 0.0000 0.0000 14.2724 0.0000 30.8030
#
#
#
# Elastic Compliance Matrix: (Units=1/GPa)
#
#
# Indices 1 2 3 4 5 6 
#
# 1 0.006933 -0.002535 0.000155 0.000000 -0.001145 0.000000
# 2 -0.002535 0.012493 -0.002593 0.000000 0.000853 0.000000
# 3 0.000155 -0.002593 0.018324 0.000000 -0.007970 0.000000
# 4 0.000000 0.000000 0.000000 0.064943 0.000000 -0.030091
# 5 -0.001145 0.000853 -0.007970 0.000000 0.033686 0.000000
# 6 0.000000 0.000000 0.000000 -0.030091 0.000000 0.046407
#
#
# Mechanical properties :
#
#
# Convention : Reuss Voigt Hill
#
# Bulk Modulus (GPa) = 35.96853 45.85204 40.91029
# Shear Modulus (GPa) = 24.75257 34.38405 29.56831
#
# Velocity S-wave (km/s) = 3.32016 3.91316 3.62879
# Velocity P-wave (km/s) = 5.54224 6.39039 5.98136
#
# Compressibility (1/GPa) = 0.02780208
#
# Stress axis : x y z
#
# Youngs Moduli (GPa) = 144.24784 80.04449 54.57373
#
# Poissons Ratio (x) = 0.20294 -0.00843
# Poissons Ratio (y) = 0.36572 0.14150
# Poissons Ratio (z) = -0.02229 0.20754
#
# Static dielectric constant tensor:
#      x y z
#    x 1.837270 0.000000 -0.014430 
#    y 0.000000 1.858710 0.000000 
#    z -0.014430 0.000000 1.934350 
# 
# From -- ./inp_files/19462.got.cif
#   From: 2010.05.17/outbox.cif.g08.bks.cpg/sg8_10_cif.got.tgz:19462.got - 2010.06.03 19:46:02.
