data_PCOD9133479
_publ_section_title
;
Structure prediction by ZEFSAII (Michael W. Deem and Ramdas Pophale) SiO2 
 PCOD9133479
Probable space group: C M
;
_chemical_formula_sum "Si O2"
_cell_formula_units_Z 32
_cell_length_a 20.655815
_cell_length_b 8.661089
_cell_length_c 25.636102
_cell_angle_alpha 90.000000
_cell_angle_beta 156.561300
_cell_angle_gamma 90.000000
_cell_volume 1824.300307
_symmetry_space_group_name_H-M "C M"
_symmetry_group_IT_number 8
_symmetry_cell_setting 'monoclinic'
loop_
_space_group_symop_operation_xyz
x,y,z
x,-y,z
1/2+x,1/2+y,z
1/2+x,1/2-y,z
loop_
_atom_site_type_symbol
_atom_site_label
_atom_site_fract_x
_atom_site_fract_y
_atom_site_fract_z
Si Si1 0.505280 0.686408 0.276940
Si Si2 0.207371 0.312322 0.981144
Si Si3 0.890013 0.311643 0.804440
Si Si4 0.027139 0.815141 0.508436
Si Si5 0.425381 0.314048 0.048612
Si Si6 0.730388 0.314725 0.349344
Si Si7 0.897419 0.683391 0.303640
Si Si8 0.034144 0.684686 0.022297
O O1 0.504158 0.500000 0.281333
O O2 0.654385 0.729029 0.349107
O O3 0.500336 0.761462 0.329751
O O4 0.340738 0.730215 0.123682
O O5 0.207215 0.500000 0.980215
O O6 0.029432 0.260115 0.866956
O O7 0.278097 0.263660 0.977523
O O8 0.889272 0.500000 0.803130
O O9 0.708965 0.260302 0.656589
O O10 0.948075 0.265340 0.905088
O O11 0.896739 0.763328 0.455287
O O12 0.968381 0.749456 0.409703
O O13 0.027905 0.000000 0.505958
O O14 0.419188 0.500000 0.038020
O O15 0.591010 0.278731 0.203254
O O16 0.434598 0.236032 0.999525
O O17 0.750169 0.500000 0.363542
O O18 0.893121 0.500000 0.303513
O O19 0.714141 0.744984 0.160051
O O20 0.050505 0.500000 0.033212
#
# Coordination Sequence:
#
# PCOD9133479 Si02
#       8
#     4   4   4   4   4   4   4   4
#     4   9  17  33  58  82 105 139 180 223 272 321
#     4   8  14  30  55  79 105 138 174 218 267 313
#     4   9  19  35  56  80 106 140 183 222 264 319
#     4  11  22  36  56  80 109 149 186 218 264 326
#     4   9  17  30  53  82 109 136 172 222 270 314
#     4   9  18  33  54  81 112 142 176 221 270 320
#     4  12  23  35  53  81 113 142 180 230 271 314
#     4  11  20  34  57  81 107 140 179 226 270 319
#
# _framework density 17.540972
#
# number of rings (size 3 to 8) (size 9 to 14) (size 15 to 20)
#    0.000    2.250    2.500    3.375    0.000    0.500 
#    0.000    5.625    0.000    4.500    0.000    0.000 
#    0.000    0.000    0.000    0.000    0.000    0.000 
#
# Total GULP energy -89265.090420 kJ/mol
# GULP energy per Si atom -5579.068151 kJ/mol
# Density = 1.750105 g / cm^3
# Si number density = 17.540972 Si / 1000 Ang^3
#
#
#
# Elastic Constant Matrix: (Units=GPa)
#
#
# Indices 1 2 3 4 5 6 
#
# 1 154.5435 37.5455 85.7617 -0.0002 19.5013 0.0000
# 2 37.5455 35.6418 35.4093 -0.0006 6.1421 0.0000
# 3 85.7617 35.4093 132.1258 -0.0015 14.6018 -0.0002
# 4 -0.0002 -0.0006 -0.0015 6.5751 -0.0002 7.5227
# 5 19.5013 6.1421 14.6018 -0.0002 25.9093 0.0000
# 6 0.0000 0.0000 -0.0002 7.5227 0.0000 29.6873
#
#
#
# Elastic Compliance Matrix: (Units=1/GPa)
#
#
# Indices 1 2 3 4 5 6 
#
# 1 0.011420 -0.006004 -0.005344 -0.000002 -0.004160 0.000001
# 2 -0.006004 0.041696 -0.007128 0.000002 -0.001348 -0.000001
# 3 -0.005344 -0.007128 0.013134 0.000003 -0.001690 -0.000001
# 4 -0.000002 0.000002 0.000003 0.214185 0.000001 -0.054274
# 5 -0.004160 -0.001348 -0.001690 0.000001 0.043000 0.000000
# 6 0.000001 -0.000001 -0.000001 -0.054274 0.000000 0.047437
#
#
# Mechanical properties :
#
#
# Convention : Reuss Voigt Hill
#
# Bulk Modulus (GPa) = 34.13201 71.08269 52.60735
# Shear Modulus (GPa) = 11.97348 23.34065 17.65707
#
# Velocity S-wave (km/s) = 2.61550 3.65175 3.17617
# Velocity P-wave (km/s) = 5.34993 7.64147 6.59598
#
# Compressibility (1/GPa) = 0.02929801
#
# Stress axis : x y z
#
# Youngs Moduli (GPa) = 87.56873 23.98334 76.13749
#
# Poissons Ratio (x) = 0.14399 0.40684
# Poissons Ratio (y) = 0.52575 0.54272
# Poissons Ratio (z) = 0.46793 0.17096
#
# Static dielectric constant tensor:
#      x y z
#    x 1.605400 0.000000 0.018110 
#    y 0.000000 1.594580 0.000000 
#    z 0.018110 0.000000 1.579220 
# 
# From -- ./inp_files/15852.got.cif
#   From: 2010.05.17/outbox.cif.g08.bks.cpg/sg8_8_cif.got.tgz:15852.got - 2010.06.03 19:46:02.
