data_PCOD9133537
_publ_section_title
;
Structure prediction by ZEFSAII (Michael W. Deem and Ramdas Pophale) SiO2 
 PCOD9133537
Probable space group: C M
;
_chemical_formula_sum "Si O2"
_cell_formula_units_Z 16
_cell_length_a 12.550791
_cell_length_b 13.028508
_cell_length_c 4.862624
_cell_angle_alpha 90.000000
_cell_angle_beta 48.937518
_cell_angle_gamma 90.000000
_cell_volume 599.520698
_symmetry_space_group_name_H-M "C M"
_symmetry_group_IT_number 8
_symmetry_cell_setting 'monoclinic'
loop_
_space_group_symop_operation_xyz
x,y,z
x,-y,z
1/2+x,1/2+y,z
1/2+x,1/2-y,z
loop_
_atom_site_type_symbol
_atom_site_label
_atom_site_fract_x
_atom_site_fract_y
_atom_site_fract_z
Si Si1 0.754360 0.500000 0.474941
Si Si2 0.422987 0.179212 0.890722
Si Si3 0.999805 0.500000 0.438738
Si Si4 0.008461 0.000000 0.548821
Si Si5 0.930454 0.817957 0.370828
Si Si6 0.750302 0.000000 0.665953
O O1 0.812351 0.602576 0.224838
O O2 0.587666 0.500000 0.700608
O O3 0.835123 0.500000 0.627437
O O4 0.483828 0.248350 0.032605
O O5 0.529412 0.101566 0.558935
O O6 0.372720 0.250218 0.722722
O O7 0.088457 0.500000 0.011581
O O8 0.041263 0.103739 0.323621
O O9 0.837771 0.000000 0.814897
O O10 0.811529 0.894122 0.448533
#
# Coordination Sequence:
#
# PCOD9133537 Si02
#       6
#     2   4   2   2   4   2
#     4  11  23  45  68 110 151 191 245 309 369 445
#     4  11  22  45  71 107 143 198 245 306 366 446
#     4  11  23  45  74 116 148 192 250 320 370 438
#     4   8  23  48  72 104 150 190 248 305 372 440
#     4   9  22  47  69 105 139 200 246 303 365 447
#     4   8  23  48  70 110 147 195 243 316 369 441
#
# _framework density 26.687985000000001
#
# number of rings (size 3 to 8) (size 9 to 14) (size 15 to 20)
#    1.500    0.500    2.500    0.000    0.000    6.000 
#   22.500    0.000    0.000    0.000    0.000    0.000 
#    0.000    0.000    0.000    0.000    0.000    0.000 
#
# Total GULP energy -44676.069018 kJ/mol
# GULP energy per Si atom -5584.508627 kJ/mol
# Density = 2.662724 g / cm^3
# Si number density = 26.687985 Si / 1000 Ang^3
#
#
#
# Elastic Constant Matrix: (Units=GPa)
#
#
# Indices 1 2 3 4 5 6 
#
# 1 128.6352 29.9687 29.6670 0.0000 17.4309 0.0000
# 2 29.9687 179.0159 42.5692 0.0000 25.7944 0.0000
# 3 29.6670 42.5692 57.2153 0.0000 26.7196 0.0000
# 4 0.0000 0.0000 0.0000 21.4784 0.0000 6.1326
# 5 17.4309 25.7944 26.7196 0.0000 50.3051 0.0000
# 6 0.0000 0.0000 0.0000 6.1326 0.0000 6.6235
#
#
#
# Elastic Compliance Matrix: (Units=1/GPa)
#
#
# Indices 1 2 3 4 5 6 
#
# 1 0.008885 -0.000445 -0.003916 0.000000 -0.000770 0.000000
# 2 -0.000445 0.006852 -0.004387 0.000000 -0.001029 0.000000
# 3 -0.003916 -0.004387 0.028044 0.000000 -0.011290 0.000000
# 4 0.000000 0.000000 0.000000 0.063290 0.000000 -0.058600
# 5 -0.000770 -0.001029 -0.011290 0.000000 0.026670 0.000000
# 6 0.000000 0.000000 0.000000 -0.058600 0.000000 0.205234
#
#
# Mechanical properties :
#
#
# Convention : Reuss Voigt Hill
#
# Bulk Modulus (GPa) = 38.04312 63.25291 50.64802
# Shear Modulus (GPa) = 13.68987 33.19216 23.44102
#
# Velocity S-wave (km/s) = 2.26732 3.53046 2.96689
# Velocity P-wave (km/s) = 4.59783 6.35383 5.54577
#
# Compressibility (1/GPa) = 0.02628596
#
# Stress axis : x y z
#
# Youngs Moduli (GPa) = 112.54664 145.94215 35.65783
#
# Poissons Ratio (x) = 0.06498 0.13964
# Poissons Ratio (y) = 0.05011 0.15641
# Poissons Ratio (z) = 0.44074 0.64018
#
# Static dielectric constant tensor:
#      x y z
#    x 2.079920 0.000000 -0.019250 
#    y 0.000000 2.102070 0.000000 
#    z -0.019250 0.000000 2.020340 
# 
# From -- ./inp_files/2251.got.cif
#   From: 2010.05.17/outbox.cif.g08.bks.cpg/sg8_2_cif.got.tgz:2251.got - 2010.06.03 19:46:02.
