data_PCOD9133061
_publ_section_title
;
Structure prediction by ZEFSAII (Michael W. Deem and Ramdas Pophale) SiO2 
 PCOD9133061
Probable space group: C M
;
_chemical_formula_sum "Si O2"
_cell_formula_units_Z 30
_cell_length_a 12.716063
_cell_length_b 13.788941
_cell_length_c 9.493438
_cell_angle_alpha 90.000000
_cell_angle_beta 118.923672
_cell_angle_gamma 90.000000
_cell_volume 1456.956404
_symmetry_space_group_name_H-M "C M"
_symmetry_group_IT_number 8
_symmetry_cell_setting 'monoclinic'
loop_
_space_group_symop_operation_xyz
x,y,z
x,-y,z
1/2+x,1/2+y,z
1/2+x,1/2-y,z
loop_
_atom_site_type_symbol
_atom_site_label
_atom_site_fract_x
_atom_site_fract_y
_atom_site_fract_z
Si Si1 0.187920 0.664548 0.428860
Si Si2 0.106241 0.610170 0.886506
Si Si3 0.988490 0.500000 0.233034
Si Si4 0.929251 0.112211 0.427342
Si Si5 0.098006 0.767846 0.108910
Si Si6 0.750710 0.391789 0.987502
Si Si7 0.137956 0.243095 0.684267
Si Si8 0.889541 0.889869 0.077673
O O1 0.084023 0.584509 0.345872
O O2 0.312680 0.625089 0.448651
O O3 0.150638 0.750958 0.297965
O O4 0.199688 0.700591 0.596056
O O5 0.060446 0.500000 0.860107
O O6 0.065313 0.680658 0.736041
O O7 0.088560 0.664760 0.022603
O O8 0.249435 0.607562 0.951603
O O9 0.887833 0.416220 0.117196
O O10 0.896014 0.139834 0.245671
O O11 0.038717 0.174378 0.552495
O O12 0.963016 0.000000 0.447079
O O13 0.969815 0.818977 0.038621
O O14 0.184634 0.835997 0.072101
O O15 0.696112 0.500000 0.928805
O O16 0.725443 0.322674 0.837518
O O17 0.936471 0.000000 0.094582
#
# Coordination Sequence:
#
# PCOD9133061 Si02
#       8
#     4   4   2   4   4   4   4   4
#     4  12  25  42  70 103 134 184 230 285 343 404
#     4  10  24  44  65  96 138 177 227 280 339 411
#     4  10  26  46  74  94 138 186 236 274 340 416
#     4  11  23  43  66 100 136 172 225 277 341 408
#     4  11  22  39  70 102 128 175 238 273 334 404
#     4   9  23  47  72  97 139 179 229 278 344 409
#     4  11  25  42  68 102 143 175 222 288 352 404
#     4  10  21  40  68  97 132 174 224 279 323 406
#
# _framework density 20.590869999999999
#
# number of rings (size 3 to 8) (size 9 to 14) (size 15 to 20)
#    0.400    1.067    3.333    0.800    7.467    2.133 
#    0.000    2.667    0.000    2.400    0.000    0.000 
#    0.000    0.000    0.000    0.000    0.000    0.000 
#
# Total GULP energy -83532.582716 kJ/mol
# GULP energy per Si atom -5568.838848 kJ/mol
# Density = 2.054400 g / cm^3
# Si number density = 20.590870 Si / 1000 Ang^3
#
#
#
# Elastic Constant Matrix: (Units=GPa)
#
#
# Indices 1 2 3 4 5 6 
#
# 1 48.6101 31.6054 13.5001 0.0000 0.5341 0.0000
# 2 31.6054 114.9002 30.8961 0.0000 -6.2971 0.0000
# 3 13.5001 30.8961 68.9343 0.0000 -14.2313 0.0000
# 4 0.0000 0.0000 0.0000 21.1284 0.0000 11.3134
# 5 0.5341 -6.2971 -14.2313 0.0000 27.9277 0.0000
# 6 0.0000 0.0000 0.0000 11.3134 0.0000 28.1521
#
#
#
# Elastic Compliance Matrix: (Units=1/GPa)
#
#
# Indices 1 2 3 4 5 6 
#
# 1 0.025596 -0.006470 -0.002811 0.000000 -0.003381 0.000000
# 2 -0.006470 0.011531 -0.003731 0.000000 0.000822 0.000000
# 3 -0.002811 -0.003731 0.018515 0.000000 0.008647 0.000000
# 4 0.000000 0.000000 0.000000 0.060307 0.000000 -0.024235
# 5 -0.003381 0.000822 0.008647 0.000000 0.040463 0.000000
# 6 0.000000 0.000000 0.000000 -0.024235 0.000000 0.045261
#
#
# Mechanical properties :
#
#
# Convention : Reuss Voigt Hill
#
# Bulk Modulus (GPa) = 33.76383 42.71641 38.24012
# Shear Modulus (GPa) = 21.04642 25.87118 23.45880
#
# Velocity S-wave (km/s) = 3.20054 3.54847 3.37899
# Velocity P-wave (km/s) = 5.48552 6.13019 5.81680
#
# Compressibility (1/GPa) = 0.02961749
#
# Stress axis : x y z
#
# Youngs Moduli (GPa) = 39.06795 86.71982 54.01144
#
# Poissons Ratio (x) = 0.56110 0.15182
# Poissons Ratio (y) = 0.25278 0.20154
# Poissons Ratio (z) = 0.10981 0.32359
#
# Static dielectric constant tensor:
#      x y z
#    x 1.721850 0.000000 -0.014570 
#    y 0.000000 1.785080 0.000000 
#    z -0.014570 0.000000 1.732290 
# 
# From -- ./inp_files/10773.got.cif
#   From: 2010.05.17/outbox.cif.g08.bks.cpg/sg8_6_cif.got.tgz:10773.got - 2010.06.03 19:46:02.
