data_PCOD9133695
_publ_section_title
;
Structure prediction by ZEFSAII (Michael W. Deem and Ramdas Pophale) SiO2 
 PCOD9133695
Probable space group: C M
;
_chemical_formula_sum "Si O2"
_cell_formula_units_Z 16
_cell_length_a 12.000000
_cell_length_b 18.000000
_cell_length_c 15.000000
_cell_angle_alpha 90.000000
_cell_angle_beta 30.000000
_cell_angle_gamma 90.000000
_cell_volume 1620.000000
_symmetry_space_group_name_H-M "C M"
_symmetry_group_IT_number 8
_symmetry_cell_setting 'monoclinic'
loop_
_space_group_symop_operation_xyz
x,y,z
x,-y,z
1/2+x,1/2+y,z
1/2+x,1/2-y,z
loop_
_atom_site_type_symbol
_atom_site_label
_atom_site_fract_x
_atom_site_fract_y
_atom_site_fract_z
Si Si1 0.829120 0.415421 0.700050
Si Si2 0.529370 0.915853 0.370935
Si Si3 0.225995 0.088951 0.238737
Si Si4 0.954114 0.328904 0.248241
Si Si5 0.452227 0.707436 0.957167
Si Si6 0.221558 0.414558 0.556881
Si Si7 0.427022 0.315743 0.170092
Si Si8 0.398509 0.137479 0.926720
O O1 0.782173 0.500000 0.765597
O O2 0.628481 0.358132 0.846095
O O3 0.873240 0.420093 0.564637
O O4 0.051244 0.386829 0.597902
O O5 0.416109 0.867853 0.370531
O O6 0.750155 0.877680 0.260877
O O7 0.578440 0.000000 0.305134
O O8 0.350854 0.123821 0.238294
O O9 0.968497 0.117508 0.403865
O O10 0.219000 0.000000 0.257242
O O11 0.343764 0.105613 0.062258
O O12 0.872579 0.244243 0.285453
O O13 0.224652 0.321687 0.068603
O O14 0.508649 0.781056 0.863256
O O15 0.428773 0.732050 0.077007
O O16 0.263717 0.500000 0.501509
O O17 0.071312 0.409435 0.749410
O O18 0.663266 0.351407 0.036558
#
# Coordination Sequence:
#
# PCOD9133695 Si02
#       8
#     4   4   4   4   4   4   4   4
#     4  10  21  41  63  91 125 156 210 272 316 371
#     4  10  22  40  65  95 123 167 220 265 322 381
#     4  11  23  40  61  89 127 167 207 255 315 387
#     4  10  22  41  61  89 128 164 205 260 318 388
#     4  10  21  39  63  89 118 160 209 254 315 377
#     4  10  22  39  62  92 122 162 210 258 314 372
#     4  10  20  39  64  88 123 160 209 264 320 373
#     4  11  21  39  63  89 126 162 206 258 318 377
#
# _framework density 9.8765429999999999
#
# number of rings (size 3 to 8) (size 9 to 14) (size 15 to 20)
#    0.000    1.750    2.500    1.500    0.000    5.500 
#    4.500    0.000    0.000    0.000    0.000    0.000 
#    0.000    0.000    0.000    0.000    0.000    0.000 
#
# Total GULP energy -89126.054596 kJ/mol
# GULP energy per Si atom -5570.378412 kJ/mol
# Density = 0.985406 g / cm^3
# Si number density = 9.876543 Si / 1000 Ang^3
#
#
#
# Elastic Constant Matrix: (Units=GPa)
#
#
# Indices 1 2 3 4 5 6 
#
# 1 156.9323 35.9106 40.2450 -0.0270 -11.1425 0.0103
# 2 35.9106 78.2505 21.0772 -0.0594 -11.1867 0.0240
# 3 40.2450 21.0772 54.3955 -0.0906 4.8462 0.0281
# 4 -0.0270 -0.0594 -0.0906 17.8218 0.0287 4.8861
# 5 -11.1425 -11.1867 4.8462 0.0287 26.8670 -0.0014
# 6 0.0103 0.0240 0.0281 4.8861 -0.0014 36.4424
#
#
#
# Elastic Compliance Matrix: (Units=1/GPa)
#
#
# Indices 1 2 3 4 5 6 
#
# 1 0.008600 -0.001762 -0.006029 -0.000032 0.003920 0.000008
# 2 -0.001762 0.016078 -0.005546 0.000014 0.006964 -0.000007
# 3 -0.006029 -0.005546 0.025838 0.000128 -0.009471 -0.000032
# 4 -0.000032 0.000014 0.000128 0.058253 -0.000093 -0.007810
# 5 0.003920 0.006964 -0.009471 -0.000093 0.043454 0.000016
# 6 0.000008 -0.000007 -0.000032 -0.007810 0.000016 0.028488
#
#
# Mechanical properties :
#
#
# Convention : Reuss Voigt Hill
#
# Bulk Modulus (GPa) = 41.94690 53.78268 47.86479
# Shear Modulus (GPa) = 23.21983 29.04927 26.13455
#
# Velocity S-wave (km/s) = 3.43228 3.83903 3.64134
# Velocity P-wave (km/s) = 6.08187 6.85109 6.47791
#
# Compressibility (1/GPa) = 0.02383966
#
# Stress axis : x y z
#
# Youngs Moduli (GPa) = 116.27937 62.19792 38.70299
#
# Poissons Ratio (x) = 0.10961 0.23335
# Poissons Ratio (y) = 0.20491 0.21466
# Poissons Ratio (z) = 0.70108 0.34497
#
# Static dielectric constant tensor:
#      x y z
#    x 1.663300 0.000000 0.027150 
#    y 0.000000 1.751400 0.000040 
#    z 0.027150 0.000040 1.744950 
# 
# From -- ./inp_files/26273.got.cif
#   From: 2010.05.17/outbox.ucp.g08.bks.cvg/sg8_14_cif.got.tgz:26273.got - 2010.06.11 13:00:03.
