data_PCOD9133739
_publ_section_title
;
Structure prediction by ZEFSAII (Michael W. Deem and Ramdas Pophale) SiO2 
 PCOD9133739
Probable space group: C C
;
_chemical_formula_sum "Si O2"
_cell_formula_units_Z 28
_cell_length_a 6.869820
_cell_length_b 19.019803
_cell_length_c 10.773517
_cell_angle_alpha 90.000000
_cell_angle_beta 123.447117
_cell_angle_gamma 90.000000
_cell_volume 1174.574348
_symmetry_space_group_name_H-M "C C"
_symmetry_group_IT_number 9
_symmetry_cell_setting 'monoclinic'
loop_
_space_group_symop_operation_xyz
x,y,z
x,-y,1/2+z
1/2+x,1/2+y,z
1/2+x,1/2-y,1/2+z
loop_
_atom_site_type_symbol
_atom_site_label
_atom_site_fract_x
_atom_site_fract_y
_atom_site_fract_z
Si Si1 0.141350 0.154463 0.127480
Si Si2 0.202234 0.796339 0.242296
Si Si3 0.590861 0.994346 0.603800
Si Si4 0.555810 0.838729 0.563220
Si Si5 0.397527 0.968716 0.786938
Si Si6 0.437233 0.244553 0.397200
Si Si7 0.275300 0.379501 0.043917
O O1 0.164313 0.074249 0.176513
O O2 0.218964 0.200464 0.273148
O O3 0.341952 0.158724 0.089589
O O4 0.922533 0.189482 0.983635
O O5 0.057008 0.771590 0.312991
O O6 0.035386 0.852515 0.114771
O O7 0.433308 0.826210 0.386979
O O8 0.209216 0.727658 0.159076
O O9 0.676533 0.914277 0.621330
O O10 0.466910 0.010754 0.689953
O O11 0.404008 0.997683 0.424308
O O12 0.770381 0.057262 0.640714
O O13 0.619259 0.913774 0.879776
O O14 0.616796 0.188299 0.522099
#
# Coordination Sequence:
#
# PCOD9133739 Si02
#       7
#     4   4   4   4   4   4   4
#     4   8  13  21  39  64  92 111 153 200 237 270
#     4  10  15  26  49  77  95 123 173 215 239 283
#     4   9  18  30  48  70 103 132 166 196 262 294
#     4   9  17  26  47  75  98 123 167 218 243 284
#     4   8  17  29  45  68  95 135 159 201 245 306
#     4   9  12  21  39  68  93 111 158 208 241 261
#     4   9  16  25  47  72 100 125 164 206 249 290
#
# _framework density 23.838425000000001
#
# number of rings (size 3 to 8) (size 9 to 14) (size 15 to 20)
#    0.857    2.286    4.286    0.857    0.000    0.000 
#    0.000    0.000    9.429    0.000    7.429    0.000 
#    0.000    0.000    0.000    0.000    0.000    0.000 
#
# Total GULP energy -77954.311268 kJ/mol
# GULP energy per Si atom -5568.165091 kJ/mol
# Density = 2.378417 g / cm^3
# Si number density = 23.838425 Si / 1000 Ang^3
#
#
#
# Elastic Constant Matrix: (Units=GPa)
#
#
# Indices 1 2 3 4 5 6 
#
# 1 78.2472 11.0888 23.3877 0.0000 13.0285 0.0000
# 2 11.0888 55.3832 23.2768 0.0000 -2.4169 0.0000
# 3 23.3877 23.2768 73.3307 0.0000 -8.5575 0.0000
# 4 0.0000 0.0000 0.0000 38.8497 0.0000 -7.9525
# 5 13.0285 -2.4169 -8.5575 0.0000 16.2768 0.0000
# 6 0.0000 0.0000 0.0000 -7.9525 0.0000 -1.6463
#
#
#
# Elastic Compliance Matrix: (Units=1/GPa)
#
#
# Indices 1 2 3 4 5 6 
#
# 1 0.018416 -0.001288 -0.007678 0.000000 -0.018969 0.000000
# 2 -0.001288 0.020928 -0.006125 0.000000 0.000918 0.000000
# 3 -0.007678 -0.006125 0.019859 0.000000 0.015677 0.000000
# 4 0.000000 0.000000 0.000000 0.012943 0.000000 -0.062519
# 5 -0.018969 0.000918 0.015677 0.000000 0.084999 0.000000
# 6 0.000000 0.000000 0.000000 -0.062519 0.000000 -0.305419
#
#
# Mechanical properties :
#
#
# Convention : Reuss Voigt Hill
#
# Bulk Modulus (GPa) = 34.45786 35.82973 35.14380
# Shear Modulus (GPa) = -46.11811 20.64323 -12.73744
#
# Velocity S-wave (km/s) = -4.40319 2.94592 -2.31405
# Velocity P-wave (km/s) = 3.37116 5.16083 2.76310
#
# Compressibility (1/GPa) = 0.02902095
#
# Stress axis : x y z
#
# Youngs Moduli (GPa) = 54.30096 47.78223 50.35377
#
# Poissons Ratio (x) = 0.06154 0.38663
# Poissons Ratio (y) = 0.06994 0.30843
# Poissons Ratio (z) = 0.41694 0.29267
#
# Static dielectric constant tensor:
#      x y z
#    x 2.004000 0.000000 0.016210 
#    y 0.000000 1.976510 0.000000 
#    z 0.016210 0.000000 1.923020 
# 
# From -- ./inp_files/16969.got.cif
#   From: 2010.05.17/outbox.cif.g08.bks.cpg/sg9_9_cif.got.tgz:16969.got - 2010.06.03 20:04:27.
