data_PCOD9133055
_publ_section_title
;
Structure prediction by ZEFSAII (Michael W. Deem and Ramdas Pophale) SiO2 
 PCOD9133055
Probable space group: C M
;
_chemical_formula_sum "Si O2"
_cell_formula_units_Z 32
_cell_length_a 12.265914
_cell_length_b 17.368962
_cell_length_c 14.591957
_cell_angle_alpha 90.000000
_cell_angle_beta 150.130271
_cell_angle_gamma 90.000000
_cell_volume 1548.255148
_symmetry_space_group_name_H-M "C M"
_symmetry_group_IT_number 8
_symmetry_cell_setting 'monoclinic'
loop_
_space_group_symop_operation_xyz
x,y,z
x,-y,z
1/2+x,1/2+y,z
1/2+x,1/2-y,z
loop_
_atom_site_type_symbol
_atom_site_label
_atom_site_fract_x
_atom_site_fract_y
_atom_site_fract_z
Si Si1 0.926290 0.907019 0.848590
Si Si2 0.290667 0.331045 0.233155
Si Si3 0.088503 0.666205 0.747229
Si Si4 0.745605 0.730682 0.028791
Si Si5 0.885298 0.913833 0.614931
Si Si6 0.765237 0.228353 0.401317
Si Si7 0.860989 0.412307 0.898014
Si Si8 0.234029 0.089815 0.605752
O O1 0.777037 0.872398 0.822067
O O2 0.806700 0.901073 0.661678
O O3 0.972613 0.000000 0.895023
O O4 0.128924 0.847425 0.979932
O O5 0.208906 0.294354 0.080125
O O6 0.327047 0.270476 0.340055
O O7 0.521425 0.374889 0.400699
O O8 0.076645 0.380224 0.102965
O O9 0.903174 0.705517 0.550014
O O10 0.955643 0.604913 0.711369
O O11 0.167117 0.733870 0.874356
O O12 0.005964 0.730501 0.216673
O O13 0.150619 0.911745 0.809772
O O14 0.819534 0.850557 0.494045
O O15 0.822655 0.000000 0.539376
O O16 0.916881 0.500000 0.915140
O O17 0.776069 0.377153 0.739129
O O18 0.186897 0.000000 0.580421
#
# Coordination Sequence:
#
# PCOD9133055 Si02
#       8
#     4   4   4   4   4   4   4   4
#     4  11  26  48  74 101 143 195 240 291 361 432
#     4  12  24  39  68 104 137 178 233 293 354 417
#     4  12  26  47  72 101 143 189 236 292 354 431
#     4  12  26  45  71 104 136 186 245 293 355 427
#     4  10  22  42  69 100 134 183 234 290 357 420
#     4  12  26  40  69 102 135 182 235 298 355 419
#     4  10  21  40  68 101 138 178 226 289 352 412
#     4  11  23  43  69 101 140 185 231 284 356 428
#
# _framework density 20.668427999999999
#
# number of rings (size 3 to 8) (size 9 to 14) (size 15 to 20)
#    0.000    0.750    5.000    2.250    5.250    1.000 
#    0.000    0.000    0.000    0.000    0.000    0.000 
#    0.000    0.000    0.000    0.000    0.000    0.000 
#
# Total GULP energy -89213.326329 kJ/mol
# GULP energy per Si atom -5575.832896 kJ/mol
# Density = 2.062139 g / cm^3
# Si number density = 20.668428 Si / 1000 Ang^3
#
#
#
# Elastic Constant Matrix: (Units=GPa)
#
#
# Indices 1 2 3 4 5 6 
#
# 1 95.6480 25.1315 23.3367 -0.0029 -7.8410 -0.0015
# 2 25.1315 65.5572 34.4205 0.0017 4.7904 0.0005
# 3 23.3367 34.4205 99.1404 -0.0038 2.6580 -0.0025
# 4 -0.0029 0.0017 -0.0038 31.4922 -0.0027 2.2599
# 5 -7.8410 4.7904 2.6580 -0.0027 27.1929 -0.0016
# 6 -0.0015 0.0005 -0.0025 2.2599 -0.0016 24.7508
#
#
#
# Elastic Compliance Matrix: (Units=1/GPa)
#
#
# Indices 1 2 3 4 5 6 
#
# 1 0.012309 -0.004231 -0.001548 0.000002 0.004446 0.000001
# 2 -0.004231 0.020303 -0.005940 -0.000002 -0.004216 -0.000001
# 3 -0.001548 -0.005940 0.012530 0.000002 -0.000625 0.000001
# 4 0.000002 -0.000002 0.000002 0.031963 0.000004 -0.002918
# 5 0.004446 -0.004216 -0.000625 0.000004 0.038860 0.000002
# 6 0.000001 -0.000001 0.000001 -0.002918 0.000002 0.040669
#
#
# Mechanical properties :
#
#
# Convention : Reuss Voigt Hill
#
# Bulk Modulus (GPa) = 46.07341 47.34701 46.71021
# Shear Modulus (GPa) = 26.69439 28.51765 27.60602
#
# Velocity S-wave (km/s) = 3.59772 3.71855 3.65864
# Velocity P-wave (km/s) = 6.29271 6.43385 6.36367
#
# Compressibility (1/GPa) = 0.02170450
#
# Stress axis : x y z
#
# Youngs Moduli (GPa) = 81.24329 49.25498 79.80840
#
# Poissons Ratio (x) = 0.20839 0.12351
# Poissons Ratio (y) = 0.34373 0.47405
# Poissons Ratio (z) = 0.12574 0.29257
#
# Static dielectric constant tensor:
#      x y z
#    x 1.834040 0.000000 0.021190 
#    y 0.000000 1.789020 0.000000 
#    z 0.021190 0.000000 1.756720 
# 
# From -- ./inp_files/26262.got.cif
#   From: 2010.05.17/outbox.cif.g08.bks.cpg/sg8_14_cif.got.tgz:26262.got - 2010.06.03 19:46:02.
