data_PCOD9133050
_publ_section_title
;
Structure prediction by ZEFSAII (Michael W. Deem and Ramdas Pophale) SiO2 
 PCOD9133050
Probable space group: C M
;
_chemical_formula_sum "Si O2"
_cell_formula_units_Z 22
_cell_length_a 7.358835
_cell_length_b 14.876547
_cell_length_c 12.123129
_cell_angle_alpha 90.000000
_cell_angle_beta 141.585591
_cell_angle_gamma 90.000000
_cell_volume 824.629053
_symmetry_space_group_name_H-M "C M"
_symmetry_group_IT_number 8
_symmetry_cell_setting 'monoclinic'
loop_
_space_group_symop_operation_xyz
x,y,z
x,-y,z
1/2+x,1/2+y,z
1/2+x,1/2-y,z
loop_
_atom_site_type_symbol
_atom_site_label
_atom_site_fract_x
_atom_site_fract_y
_atom_site_fract_z
Si Si1 0.300030 0.356397 0.181350
Si Si2 0.279936 0.836983 0.078392
Si Si3 0.454227 0.096727 0.464075
Si Si4 0.940969 0.395761 0.789679
Si Si5 0.988687 0.779069 0.711617
Si Si6 0.208920 0.000000 0.145014
O O1 0.303262 0.248886 0.167860
O O2 0.626951 0.389667 0.353808
O O3 0.086609 0.379124 0.180806
O O4 0.170576 0.394940 0.003725
O O5 0.070995 0.919238 0.007770
O O6 0.150948 0.795479 0.904518
O O7 0.665568 0.180920 0.564896
O O8 0.377254 0.077172 0.298195
O O9 0.578897 0.000000 0.562496
O O10 0.885334 0.500000 0.737603
O O11 0.003958 0.329361 0.716402
O O12 0.661796 0.342559 0.709082
#
# Coordination Sequence:
#
# PCOD9133050 Si02
#       6
#     4   4   4   4   4   2
#     4  10  21  40  67  97 138 168 228 277 342 397
#     4  10  22  40  68  96 128 183 223 277 327 424
#     4  10  23  41  65  97 141 175 212 297 338 395
#     4  10  22  43  71 100 134 186 222 279 335 421
#     4  10  23  43  69  99 141 173 228 282 345 390
#     4  10  24  36  66  96 126 180 226 262 342 398
#
# _framework density 26.678661000000002
#
# number of rings (size 3 to 8) (size 9 to 14) (size 15 to 20)
#    0.545    1.455    0.000    2.182    7.636    4.364 
#    0.000    1.818    0.000    0.000    0.000    0.000 
#    0.000    0.000    0.000    0.000    0.000    0.000 
#
# Total GULP energy -61288.692291 kJ/mol
# GULP energy per Si atom -5571.699299 kJ/mol
# Density = 2.661794 g / cm^3
# Si number density = 26.678661 Si / 1000 Ang^3
#
#
#
# Elastic Constant Matrix: (Units=GPa)
#
#
# Indices 1 2 3 4 5 6 
#
# 1 86.7277 21.2028 21.9197 0.0007 21.2533 -0.0007
# 2 21.2028 257.6691 37.2586 -0.0003 3.8268 -0.0005
# 3 21.9197 37.2586 105.3065 0.0072 30.1532 0.0017
# 4 0.0007 -0.0003 0.0072 37.9919 0.0024 -17.5446
# 5 21.2533 3.8268 30.1532 0.0024 31.4862 0.0002
# 6 -0.0007 -0.0005 0.0017 -17.5446 0.0002 8.6304
#
#
#
# Elastic Compliance Matrix: (Units=1/GPa)
#
#
# Indices 1 2 3 4 5 6 
#
# 1 0.014080 -0.001041 0.000169 0.000015 -0.009539 0.000032
# 2 -0.001041 0.004202 -0.001825 0.000008 0.001940 0.000017
# 3 0.000169 -0.001825 0.013883 -0.000050 -0.013187 -0.000104
# 4 0.000015 0.000008 -0.000050 0.429990 -0.000001 0.874124
# 5 -0.009539 0.001940 -0.013187 -0.000001 0.050592 0.000000
# 6 0.000032 0.000017 -0.000104 0.874124 0.000000 1.892869
#
#
# Mechanical properties :
#
#
# Convention : Reuss Voigt Hill
#
# Bulk Modulus (GPa) = 37.35647 67.82949 52.59298
# Shear Modulus (GPa) = 2.06617 40.24318 21.15467
#
# Velocity S-wave (km/s) = 0.88099 3.88808 2.81898
# Velocity P-wave (km/s) = 3.88171 6.75544 5.50925
#
# Compressibility (1/GPa) = 0.02676912
#
# Stress axis : x y z
#
# Youngs Moduli (GPa) = 71.02324 237.99413 72.03166
#
# Poissons Ratio (x) = 0.24784 -0.01219
# Poissons Ratio (y) = 0.07396 0.13149
# Poissons Ratio (z) = -0.01202 0.43446
#
# Static dielectric constant tensor:
#      x y z
#    x 2.370580 0.000000 0.048600 
#    y 0.000000 2.208490 0.000000 
#    z 0.048600 0.000000 2.115260 
# 
# From -- ./inp_files/28593.got.cif
#   From: 2010.05.17/outbox.cif.g08.bks.cpg/sg8_15_cif.got.tgz:28593.got - 2010.06.03 19:46:02.
