data_PCOD9133765
_publ_section_title
;
Structure prediction by ZEFSAII (Michael W. Deem and Ramdas Pophale) SiO2 
 PCOD9133765
Probable space group: C C
;
_chemical_formula_sum "Si O2"
_cell_formula_units_Z 32
_cell_length_a 30.167246
_cell_length_b 8.083555
_cell_length_c 5.437864
_cell_angle_alpha 90.000000
_cell_angle_beta 93.846083
_cell_angle_gamma 90.000000
_cell_volume 1323.083340
_symmetry_space_group_name_H-M "C C"
_symmetry_group_IT_number 9
_symmetry_cell_setting 'monoclinic'
loop_
_space_group_symop_operation_xyz
x,y,z
x,-y,1/2+z
1/2+x,1/2+y,z
1/2+x,1/2-y,1/2+z
loop_
_atom_site_type_symbol
_atom_site_label
_atom_site_fract_x
_atom_site_fract_y
_atom_site_fract_z
Si Si1 0.925560 0.311942 0.896760
Si Si2 0.027909 0.402300 0.875735
Si Si3 0.754348 0.059648 0.177750
Si Si4 0.152291 0.434632 0.608097
Si Si5 0.673812 0.550450 0.615644
Si Si6 0.575803 0.580402 0.052708
Si Si7 0.787664 0.399239 0.337342
Si Si8 0.889143 0.307589 0.383294
O O1 0.904139 0.231992 0.647410
O O2 0.906096 0.500380 0.902498
O O3 0.911892 0.233047 0.150294
O O4 0.978055 0.329929 0.885790
O O5 0.032290 0.536430 0.096821
O O6 0.061414 0.257553 0.956020
O O7 0.703412 0.998224 0.123121
O O8 0.754484 0.249485 0.260677
O O9 0.774965 0.961657 0.415339
O O10 0.131260 0.488547 0.343663
O O11 0.157102 0.237966 0.623762
O O12 0.697747 0.516239 0.367138
O O13 0.629145 0.438688 0.583219
O O14 0.560156 0.539764 0.323722
O O15 0.785579 0.469726 0.612977
O O16 0.836522 0.315814 0.335274
#
# Coordination Sequence:
#
# PCOD9133765 Si02
#       8
#     4   4   4   4   4   4   4   4
#     4  10  16  30  51  82 108 142 190 257 281 312
#     4  12  21  35  63  91 107 152 208 244 285 349
#     4  10  23  41  57  83 128 161 184 240 306 347
#     4  10  21  40  65  90 112 155 209 238 273 350
#     4  10  21  40  63  87 122 157 178 240 307 344
#     4  10  23  43  57  82 126 159 179 233 317 353
#     4  12  21  33  59  90 113 156 203 248 283 344
#     4  10  16  30  49  83 112 140 189 258 282 313
#
# _framework density 24.185929000000002
#
# number of rings (size 3 to 8) (size 9 to 14) (size 15 to 20)
#    0.000    1.500    5.000    2.250    0.000    1.000 
#    0.000   15.000    0.000    4.500    0.000    0.000 
#    0.000    0.000    0.000    0.000    0.000    0.000 
#
# Total GULP energy -89502.136715 kJ/mol
# GULP energy per Si atom -5593.883545 kJ/mol
# Density = 2.413088 g / cm^3
# Si number density = 24.185929 Si / 1000 Ang^3
#
#
#
# Elastic Constant Matrix: (Units=GPa)
#
#
# Indices 1 2 3 4 5 6 
#
# 1 50.3952 5.8051 -3.5497 0.0000 10.7231 0.0000
# 2 5.8051 39.5620 15.9368 0.0000 -5.2845 0.0000
# 3 -3.5497 15.9368 187.9334 0.0000 -21.4996 0.0000
# 4 0.0000 0.0000 0.0000 31.5730 0.0000 -1.0907
# 5 10.7231 -5.2845 -21.4996 0.0000 36.2139 0.0000
# 6 0.0000 0.0000 0.0000 -1.0907 0.0000 3.5515
#
#
#
# Elastic Compliance Matrix: (Units=1/GPa)
#
#
# Indices 1 2 3 4 5 6 
#
# 1 0.021825 -0.004130 -0.000049 0.000000 -0.007094 0.000000
# 2 -0.004130 0.027198 -0.001921 0.000000 0.004051 0.000000
# 3 -0.000049 -0.001921 0.005850 0.000000 0.003207 0.000000
# 4 0.000000 0.000000 0.000000 0.032012 0.000000 0.009831
# 5 -0.007094 0.004051 0.003207 0.000000 0.032210 0.000000
# 6 0.000000 0.000000 0.000000 0.009831 0.000000 0.284587
#
#
# Mechanical properties :
#
#
# Convention : Reuss Voigt Hill
#
# Bulk Modulus (GPa) = 23.43456 34.91945 29.17701
# Shear Modulus (GPa) = 11.62503 31.58092 21.60297
#
# Velocity S-wave (km/s) = 2.19476 3.61744 2.99189
# Velocity P-wave (km/s) = 4.01659 5.64953 4.90154
#
# Compressibility (1/GPa) = 0.04267202
#
# Stress axis : x y z
#
# Youngs Moduli (GPa) = 45.81901 36.76767 170.94287
#
# Poissons Ratio (x) = 0.15186 0.00839
# Poissons Ratio (y) = 0.18925 0.32837
# Poissons Ratio (z) = 0.00225 0.07063
#
# Static dielectric constant tensor:
#      x y z
#    x 1.977570 0.000000 -0.038160 
#    y 0.000000 1.883520 0.000000 
#    z -0.038160 0.000000 2.051090 
# 
# From -- ./inp_files/3464.got.cif
#   From: 2010.05.17/outbox.cif.g08.bks.cpg/sg9_2_cif.got.tgz:3464.got - 2010.06.03 20:04:27.
