data_PCOD9133327
_publ_section_title
;
Structure prediction by ZEFSAII (Michael W. Deem and Ramdas Pophale) SiO2 
 PCOD9133327
Probable space group: C M
;
_chemical_formula_sum "Si O2"
_cell_formula_units_Z 28
_cell_length_a 7.046466
_cell_length_b 15.183976
_cell_length_c 16.010066
_cell_angle_alpha 90.000000
_cell_angle_beta 140.662554
_cell_angle_gamma 90.000000
_cell_volume 1085.829119
_symmetry_space_group_name_H-M "C M"
_symmetry_group_IT_number 8
_symmetry_cell_setting 'monoclinic'
loop_
_space_group_symop_operation_xyz
x,y,z
x,-y,z
1/2+x,1/2+y,z
1/2+x,1/2-y,z
loop_
_atom_site_type_symbol
_atom_site_label
_atom_site_fract_x
_atom_site_fract_y
_atom_site_fract_z
Si Si1 0.443720 0.094070 0.890250
Si Si2 0.288736 0.638294 0.662955
Si Si3 0.933055 0.663570 0.708471
Si Si4 0.787663 0.607049 0.149291
Si Si5 0.133076 0.699200 0.113441
Si Si6 0.370037 0.597665 0.444156
Si Si7 0.684483 0.601346 0.368498
O O1 0.087402 0.083229 0.762536
O O2 0.539935 0.119763 0.829661
O O3 0.579898 0.000000 0.961507
O O4 0.523083 0.163656 0.987659
O O5 0.115283 0.626953 0.691838
O O6 0.448283 0.732788 0.714730
O O7 0.031217 0.624882 0.505381
O O8 0.574614 0.654530 0.573069
O O9 0.718875 0.500000 0.118158
O O10 0.949468 0.641761 0.119533
O O11 0.026755 0.612913 0.306846
O O12 0.589914 0.694901 0.100807
O O13 0.481102 0.670840 0.248831
O O14 0.405789 0.500000 0.489860
O O15 0.528987 0.601706 0.407365
O O16 0.661221 0.500000 0.329254
#
# Coordination Sequence:
#
# PCOD9133327 Si02
#       7
#     4   4   4   4   4   4   4
#     4  12  27  45  70 104 141 190 240 294 361 434
#     4  11  23  41  70  99 139 189 238 293 358 423
#     4  11  22  40  67  99 143 185 238 292 358 424
#     4  10  22  44  73 101 138 187 236 292 359 424
#     4  11  24  44  73 100 142 184 234 293 355 429
#     4   8  16  34  63  98 134 176 226 287 353 415
#     4   9  18  38  67 101 139 185 233 291 359 419
#
# _framework density 25.786743999999999
#
# number of rings (size 3 to 8) (size 9 to 14) (size 15 to 20)
#    0.000    1.714    1.429    3.857    2.000    1.714 
#    2.571    2.143    0.000    0.000    0.000    0.000 
#    0.000    0.000    0.000    0.000    0.000    0.000 
#
# Total GULP energy -78249.119740 kJ/mol
# GULP energy per Si atom -5589.222839 kJ/mol
# Density = 2.572805 g / cm^3
# Si number density = 25.786744 Si / 1000 Ang^3
#
#
#
# Elastic Constant Matrix: (Units=GPa)
#
#
# Indices 1 2 3 4 5 6 
#
# 1 111.3439 18.5496 51.7068 -0.0005 -6.6819 0.0012
# 2 18.5496 204.5566 50.4022 -0.0006 -8.4415 0.0002
# 3 51.7068 50.4022 131.7728 0.0051 -0.2528 -0.0009
# 4 -0.0005 -0.0006 0.0051 -43.7612 -0.0017 40.4416
# 5 -6.6819 -8.4415 -0.2528 -0.0017 46.3283 0.0025
# 6 0.0012 0.0002 -0.0009 40.4416 0.0025 -20.9290
#
#
#
# Elastic Compliance Matrix: (Units=1/GPa)
#
#
# Indices 1 2 3 4 5 6 
#
# 1 0.011100 0.000146 -0.004408 0.000000 0.001603 0.000000
# 2 0.000146 0.005443 -0.002137 0.000000 0.001001 0.000001
# 3 -0.004408 -0.002137 0.010134 -0.000001 -0.000970 -0.000002
# 4 0.000000 0.000000 -0.000001 0.029082 -0.000002 0.056197
# 5 0.001603 0.001001 -0.000970 -0.000002 0.021994 -0.000001
# 6 0.000000 0.000001 -0.000002 0.056197 -0.000001 0.060809
#
#
# Mechanical properties :
#
#
# Convention : Reuss Voigt Hill
#
# Bulk Modulus (GPa) = 72.05587 76.55450 74.30519
# Shear Modulus (GPa) = 32.05354 18.12860 25.09107
#
# Velocity S-wave (km/s) = 3.52948 2.65433 3.12271
# Velocity P-wave (km/s) = 6.67932 6.25667 6.47145
#
# Compressibility (1/GPa) = 0.01387812
#
# Stress axis : x y z
#
# Youngs Moduli (GPa) = 90.08749 183.71026 98.67486
#
# Poissons Ratio (x) = -0.02678 0.43500
# Poissons Ratio (y) = -0.01313 0.21090
# Poissons Ratio (z) = 0.39714 0.39265
#
# Static dielectric constant tensor:
#      x y z
#    x 2.107850 0.000000 0.088770 
#    y 0.000000 2.345990 0.000010 
#    z 0.088770 0.000010 2.000150 
# 
# From -- ./inp_files/30397.got.cif
#   From: 2010.05.17/outbox.cif.g08.bks.cpg/sg8_16_cif.got.tgz:30397.got - 2010.06.03 19:46:02.
