data_PCOD9133983
_publ_section_title
;
Structure prediction by ZEFSAII (Michael W. Deem and Ramdas Pophale) SiO2 
 PCOD9133983
Probable space group: C C
;
_chemical_formula_sum "Si O2"
_cell_formula_units_Z 24
_cell_length_a 18.115054
_cell_length_b 7.698692
_cell_length_c 23.820842
_cell_angle_alpha 90.000000
_cell_angle_beta 16.311586
_cell_angle_gamma 90.000000
_cell_volume 933.049745
_symmetry_space_group_name_H-M "C C"
_symmetry_group_IT_number 9
_symmetry_cell_setting 'monoclinic'
loop_
_space_group_symop_operation_xyz
x,y,z
x,-y,1/2+z
1/2+x,1/2+y,z
1/2+x,1/2-y,1/2+z
loop_
_atom_site_type_symbol
_atom_site_label
_atom_site_fract_x
_atom_site_fract_y
_atom_site_fract_z
Si Si1 0.047910 0.438293 0.369740
Si Si2 0.463300 0.913841 0.826455
Si Si3 0.228971 0.066548 0.209238
Si Si4 0.915043 0.810262 0.262699
Si Si5 0.428263 0.007914 0.672370
Si Si6 0.679343 0.820209 0.085808
O O1 0.107301 0.587346 0.281556
O O2 0.236418 0.270496 0.224922
O O3 0.961959 0.472386 0.495700
O O4 0.782805 0.360518 0.533669
O O5 0.552126 0.764812 0.718932
O O6 0.529150 0.093271 0.747351
O O7 0.149786 0.890864 0.055871
O O8 0.944523 0.062197 0.387199
O O9 0.231360 0.959500 0.265094
O O10 0.683185 0.933741 0.452693
O O11 0.833945 0.642186 0.284473
O O12 0.514527 0.164145 0.649717
#
# Coordination Sequence:
#
# PCOD9133983 Si02
#       6
#     4   4   4   4   4   4
#     4  10  18  33  54  90 115 151 197 239 293 345
#     4  10  18  35  53  84 120 151 200 235 288 360
#     4  10  19  31  56  90 116 149 195 238 294 343
#     4   9  20  30  53  85 110 158 193 238 295 336
#     4  10  18  34  52  86 120 142 199 245 285 356
#     4   9  19  33  54  87 115 153 186 241 299 336
#
# _framework density 25.722102
#
# number of rings (size 3 to 8) (size 9 to 14) (size 15 to 20)
#    1.000    1.333    1.667    2.000    0.000    0.000 
#    0.000    0.000    0.000    0.000  173.333    0.000 
#    0.000    0.000    0.000    0.000    0.000    0.000 
#
# Total GULP energy -66979.103318 kJ/mol
# GULP energy per Si atom -5581.591943 kJ/mol
# Density = 2.566356 g / cm^3
# Si number density = 25.722102 Si / 1000 Ang^3
#
#
#
# Elastic Constant Matrix: (Units=GPa)
#
#
# Indices 1 2 3 4 5 6 
#
# 1 181.1272 13.3530 3.4700 0.0000 14.6242 -0.0051
# 2 13.3530 28.4976 -1.5170 0.0629 -3.2088 -0.0058
# 3 3.4700 -1.5170 66.2720 0.0495 24.8377 -0.0849
# 4 0.0000 0.0629 0.0495 20.3901 0.0009 3.3231
# 5 14.6242 -3.2088 24.8377 0.0009 39.5432 -0.0082
# 6 -0.0051 -0.0058 -0.0849 3.3231 -0.0082 36.8058
#
#
#
# Elastic Compliance Matrix: (Units=1/GPa)
#
#
# Indices 1 2 3 4 5 6 
#
# 1 0.005969 -0.003086 0.000704 0.000008 -0.002900 0.000001
# 2 -0.003086 0.037016 -0.000712 -0.000115 0.004592 0.000015
# 3 0.000704 -0.000712 0.019822 -0.000053 -0.012768 0.000048
# 4 0.000008 -0.000115 -0.000053 0.049776 0.000019 -0.004494
# 5 -0.002900 0.004592 -0.012768 0.000019 0.034754 -0.000023
# 6 0.000001 0.000015 0.000048 -0.004494 -0.000023 0.027576
#
#
# Mechanical properties :
#
#
# Convention : Reuss Voigt Hill
#
# Bulk Modulus (GPa) = 17.66223 34.05652 25.85937
# Shear Modulus (GPa) = 25.00318 36.72053 30.86186
#
# Velocity S-wave (km/s) = 3.12115 3.78244 3.46760
# Velocity P-wave (km/s) = 4.45761 5.68724 5.10955
#
# Compressibility (1/GPa) = 0.05661798
#
# Stress axis : x y z
#
# Youngs Moduli (GPa) = 167.52806 27.01522 50.44986
#
# Poissons Ratio (x) = 0.08337 -0.03550
# Poissons Ratio (y) = 0.51700 0.03593
# Poissons Ratio (z) = -0.11789 0.01924
#
# Static dielectric constant tensor:
#      x y z
#    x 2.063740 -0.000010 -0.017580 
#    y -0.000010 2.150230 0.000040 
#    z -0.017580 0.000040 2.052480 
# 
# From -- ./inp_files/8794.got.cif
#   From: 2010.05.17/outbox.cif.g08.bks.cpg/sg9_5_cif.got.tgz:8794.got - 2010.06.03 20:04:27.
