data_PCOD9133220
_publ_section_title
;
Structure prediction by ZEFSAII (Michael W. Deem and Ramdas Pophale) SiO2 
 PCOD9133220
Probable space group: C M
;
_chemical_formula_sum "Si O2"
_cell_formula_units_Z 32
_cell_length_a 11.391626
_cell_length_b 15.121778
_cell_length_c 17.924150
_cell_angle_alpha 90.000000
_cell_angle_beta 149.649318
_cell_angle_gamma 90.000000
_cell_volume 1560.158942
_symmetry_space_group_name_H-M "C M"
_symmetry_group_IT_number 8
_symmetry_cell_setting 'monoclinic'
loop_
_space_group_symop_operation_xyz
x,y,z
x,-y,z
1/2+x,1/2+y,z
1/2+x,1/2-y,z
loop_
_atom_site_type_symbol
_atom_site_label
_atom_site_fract_x
_atom_site_fract_y
_atom_site_fract_z
Si Si1 0.081190 0.397746 0.140310
Si Si2 0.726476 0.399160 0.247940
Si Si3 0.878349 0.295254 0.477588
Si Si4 0.495961 0.771283 0.961452
Si Si5 0.621163 0.398550 0.462533
Si Si6 0.953266 0.677228 0.223192
Si Si7 0.800908 0.678329 0.703621
Si Si8 0.280606 0.605244 0.909548
O O1 0.059674 0.500000 0.103919
O O2 0.356388 0.374987 0.296446
O O3 0.973158 0.386219 0.162999
O O4 0.972036 0.326315 0.024617
O O5 0.790461 0.500000 0.294407
O O6 0.796368 0.348445 0.360161
O O7 0.854518 0.363619 0.244693
O O8 0.456363 0.394820 0.076261
O O9 0.804178 0.343517 0.513435
O O10 0.709640 0.210864 0.382462
O O11 0.146108 0.267534 0.614958
O O12 0.362043 0.825725 0.824496
O O13 0.400641 0.670369 0.915192
O O14 0.772010 0.755212 0.101440
O O15 0.656789 0.500000 0.462634
O O16 0.652410 0.385681 0.568314
O O17 0.051002 0.659123 0.804811
O O18 0.243699 0.500000 0.869942
#
# Coordination Sequence:
#
# PCOD9133220 Si02
#       8
#     4   4   4   4   4   4   4   4
#     4  11  23  40  65  99 136 177 222 278 336 401
#     4  10  22  40  67  97 127 169 222 279 329 394
#     4  12  22  39  64  94 131 173 221 277 334 402
#     4  11  23  42  68  96 131 178 230 280 335 406
#     4  11  24  41  62  94 135 177 226 280 335 399
#     4  11  20  40  65  95 130 169 222 276 337 401
#     4  12  24  39  63  95 133 175 216 279 338 396
#     4  10  23  43  67  96 131 176 231 281 336 399
#
# _framework density 20.510732000000001
#
# number of rings (size 3 to 8) (size 9 to 14) (size 15 to 20)
#    0.000    1.000    2.500    5.625    0.000    1.500 
#    0.000    0.625    0.000    3.000    0.000    0.000 
#    0.000    0.000    0.000    0.000    0.000    0.000 
#
# Total GULP energy -89174.416665 kJ/mol
# GULP energy per Si atom -5573.401042 kJ/mol
# Density = 2.046405 g / cm^3
# Si number density = 20.510732 Si / 1000 Ang^3
#
#
#
# Elastic Constant Matrix: (Units=GPa)
#
#
# Indices 1 2 3 4 5 6 
#
# 1 81.6531 46.3030 37.3182 0.0002 -2.2321 0.0000
# 2 46.3030 92.6278 33.4728 -0.0003 -22.3175 0.0002
# 3 37.3182 33.4728 92.4371 0.0000 -9.0850 0.0008
# 4 0.0002 -0.0003 0.0000 20.1649 0.0006 2.2721
# 5 -2.2321 -22.3175 -9.0850 0.0006 58.6387 0.0004
# 6 0.0000 0.0002 0.0008 2.2721 0.0004 17.1480
#
#
#
# Elastic Compliance Matrix: (Units=1/GPa)
#
#
# Indices 1 2 3 4 5 6 
#
# 1 0.019362 -0.008675 -0.005003 0.000000 -0.003340 0.000000
# 2 -0.008675 0.017357 -0.002200 0.000000 0.005935 0.000000
# 3 -0.005003 -0.002200 0.013743 0.000000 0.001102 -0.000001
# 4 0.000000 0.000000 0.000000 0.050343 0.000000 -0.006670
# 5 -0.003340 0.005935 0.001102 0.000000 0.019356 -0.000001
# 6 0.000000 0.000000 -0.000001 -0.006670 -0.000001 0.059200
#
#
# Mechanical properties :
#
#
# Convention : Reuss Voigt Hill
#
# Bulk Modulus (GPa) = 53.46083 55.65624 54.55854
# Shear Modulus (GPa) = 23.00411 29.16527 26.08469
#
# Velocity S-wave (km/s) = 3.35261 3.77497 3.57004
# Velocity P-wave (km/s) = 6.41156 6.79666 6.60692
#
# Compressibility (1/GPa) = 0.01870528
#
# Stress axis : x y z
#
# Youngs Moduli (GPa) = 51.64789 57.61230 72.76456
#
# Poissons Ratio (x) = 0.49980 0.36408
# Poissons Ratio (y) = 0.44806 0.16006
# Poissons Ratio (z) = 0.25842 0.12673
#
# Static dielectric constant tensor:
#      x y z
#    x 1.729950 0.000000 0.033370 
#    y 0.000000 1.747890 0.000000 
#    z 0.033370 0.000000 1.760790 
# 
# From -- ./inp_files/23331.got.cif
#   From: 2010.05.17/outbox.cif.g08.bks.cpg/sg8_12_cif.got.tgz:23331.got - 2010.06.03 19:46:02.
