data_PCOD9133572
_publ_section_title
;
Structure prediction by ZEFSAII (Michael W. Deem and Ramdas Pophale) SiO2 
 PCOD9133572
Probable space group: C M
;
_chemical_formula_sum "Si O2"
_cell_formula_units_Z 32
_cell_length_a 20.483504
_cell_length_b 8.900206
_cell_length_c 21.484122
_cell_angle_alpha 90.000000
_cell_angle_beta 156.903685
_cell_angle_gamma 90.000000
_cell_volume 1536.440776
_symmetry_space_group_name_H-M "C M"
_symmetry_group_IT_number 8
_symmetry_cell_setting 'monoclinic'
loop_
_space_group_symop_operation_xyz
x,y,z
x,-y,z
1/2+x,1/2+y,z
1/2+x,1/2-y,z
loop_
_atom_site_type_symbol
_atom_site_label
_atom_site_fract_x
_atom_site_fract_y
_atom_site_fract_z
Si Si1 0.263100 0.678099 0.219450
Si Si2 0.861906 0.661655 0.975937
Si Si3 0.930143 0.669568 0.589171
Si Si4 0.113917 0.333796 0.301792
Si Si5 0.072142 0.830440 0.824270
Si Si6 0.894365 0.826814 0.887443
Si Si7 0.050329 0.820428 0.568957
Si Si8 0.320870 0.824326 0.145708
O O1 0.240443 0.500000 0.207005
O O2 0.393107 0.729290 0.387661
O O3 0.348335 0.720918 0.228786
O O4 0.078780 0.751911 0.049608
O O5 0.847255 0.500000 0.928819
O O6 0.033952 0.662901 0.163501
O O7 0.726582 0.660538 0.911466
O O8 0.848691 0.802232 0.919998
O O9 0.984742 0.500000 0.627195
O O10 0.735665 0.695617 0.410364
O O11 0.957955 0.720941 0.684857
O O12 0.008631 0.773968 0.603824
O O13 0.194614 0.500000 0.382160
O O14 0.971611 0.318347 0.228855
O O15 0.004117 0.000000 0.771236
O O16 0.152668 0.782832 0.960078
O O17 0.732687 0.750090 0.712872
O O18 0.906001 0.000000 0.879472
O O19 0.060014 0.000000 0.572392
O O20 0.304219 0.000000 0.149681
#
# Coordination Sequence:
#
# PCOD9133572 Si02
#       8
#     4   4   4   4   4   4   4   4
#     4  11  25  44  66  90 122 169 214 259 314 370
#     4   9  17  33  58  84 114 153 195 238 295 369
#     4  12  23  34  55  93 127 155 196 252 310 362
#     4   9  19  36  59  86 117 160 200 240 304 374
#     4   9  18  35  60  84 115 156 191 236 298 364
#     4  12  24  38  62  95 127 162 207 261 315 369
#     4  11  24  43  65  90 126 170 211 255 311 378
#     4   9  20  41  65  88 114 155 208 253 299 360
#
# _framework density 20.827356999999999
#
# number of rings (size 3 to 8) (size 9 to 14) (size 15 to 20)
#    0.000    1.750    1.250    5.250    0.000    6.500 
#    2.250    2.500    0.000    0.000    0.000    0.000 
#    0.000    0.000    0.000    0.000    0.000    0.000 
#
# Total GULP energy -89159.873349 kJ/mol
# GULP energy per Si atom -5572.492084 kJ/mol
# Density = 2.077995 g / cm^3
# Si number density = 20.827357 Si / 1000 Ang^3
#
#
#
# Elastic Constant Matrix: (Units=GPa)
#
#
# Indices 1 2 3 4 5 6 
#
# 1 38.3071 7.0785 17.1943 0.0001 -8.7168 0.0000
# 2 7.0785 74.3640 39.7254 0.0001 3.1750 0.0000
# 3 17.1943 39.7254 115.1671 0.0002 -2.6587 0.0000
# 4 0.0001 0.0001 0.0002 25.9542 -0.0001 3.2153
# 5 -8.7168 3.1750 -2.6587 -0.0001 28.4356 -0.0001
# 6 0.0000 0.0000 0.0000 3.2153 -0.0001 25.4428
#
#
#
# Elastic Compliance Matrix: (Units=1/GPa)
#
#
# Indices 1 2 3 4 5 6 
#
# 1 0.030113 -0.001177 -0.003882 0.000000 0.008999 0.000000
# 2 -0.001177 0.016693 -0.005646 0.000000 -0.002752 0.000000
# 3 -0.003882 -0.005646 0.011221 0.000000 0.000490 0.000000
# 4 0.000000 0.000000 0.000000 0.039142 0.000000 -0.004947
# 5 0.008999 -0.002752 0.000490 0.000000 0.038279 0.000000
# 6 0.000000 0.000000 0.000000 -0.004947 0.000000 0.039929
#
#
# Mechanical properties :
#
#
# Convention : Reuss Voigt Hill
#
# Bulk Modulus (GPa) = 27.30941 39.53719 33.42330
# Shear Modulus (GPa) = 23.92434 26.88918 25.40676
#
# Velocity S-wave (km/s) = 3.39292 3.59702 3.49646
# Velocity P-wave (km/s) = 5.33760 6.02295 5.69060
#
# Compressibility (1/GPa) = 0.03661742
#
# Stress axis : x y z
#
# Youngs Moduli (GPa) = 33.20880 59.90560 89.11540
#
# Poissons Ratio (x) = 0.07049 0.34596
# Poissons Ratio (y) = 0.03908 0.50313
# Poissons Ratio (z) = 0.12892 0.33822
#
# Static dielectric constant tensor:
#      x y z
#    x 1.763770 0.000000 0.032700 
#    y 0.000000 1.752930 0.000000 
#    z 0.032700 0.000000 1.836910 
# 
# From -- ./inp_files/32417.got.cif
#   From: 2010.05.17/outbox.cif.g08.bks.cpg/sg8_17_cif.got.tgz:32417.got - 2010.06.03 19:46:02.
