data_PCOD9133393
_publ_section_title
;
Structure prediction by ZEFSAII (Michael W. Deem and Ramdas Pophale) SiO2 
 PCOD9133393
Probable space group: C M
;
_chemical_formula_sum "Si O2"
_cell_formula_units_Z 28
_cell_length_a 9.032826
_cell_length_b 29.492815
_cell_length_c 4.918031
_cell_angle_alpha 90.000000
_cell_angle_beta 119.964299
_cell_angle_gamma 90.000000
_cell_volume 1135.057567
_symmetry_space_group_name_H-M "C M"
_symmetry_group_IT_number 8
_symmetry_cell_setting 'monoclinic'
loop_
_space_group_symop_operation_xyz
x,y,z
x,-y,z
1/2+x,1/2+y,z
1/2+x,1/2-y,z
loop_
_atom_site_type_symbol
_atom_site_label
_atom_site_fract_x
_atom_site_fract_y
_atom_site_fract_z
Si Si1 0.012090 0.548380 0.396140
Si Si2 0.849503 0.773156 0.912288
Si Si3 0.743926 0.717928 0.301268
Si Si4 0.175827 0.949820 0.743001
Si Si5 0.370384 0.124005 0.658258
Si Si6 0.735676 0.860152 0.137335
Si Si7 0.859133 0.910893 0.730586
O O1 0.003916 0.500000 0.539678
O O2 0.205796 0.556609 0.486040
O O3 0.958035 0.590690 0.524445
O O4 0.867095 0.546128 0.036476
O O5 0.841713 0.731809 0.118981
O O6 0.756717 0.813303 0.992789
O O7 0.045256 0.786241 0.048125
O O8 0.769002 0.755915 0.558138
O O9 0.812248 0.671063 0.480812
O O10 0.204025 0.904375 0.595139
O O11 0.036530 0.936101 0.840749
O O12 0.132176 0.000000 0.587103
O O13 0.532713 0.133375 0.004202
O O14 0.836335 0.867151 0.511566
O O15 0.815837 0.896786 0.998315
#
# Coordination Sequence:
#
# PCOD9133393 Si02
#       7
#     4   4   4   4   4   4   4
#     4  10  23  44  66  97 137 180 227 283 340 403
#     4  12  26  47  68 107 132 187 221 293 336 422
#     4  12  27  44  74  97 144 174 237 275 356 401
#     4  11  24  42  68  99 134 180 231 281 340 407
#     4  11  24  43  70  98 135 182 223 285 340 411
#     4  11  24  45  71  98 141 174 230 275 348 398
#     4  11  24  43  69 102 137 183 223 286 332 412
#
# _framework density 24.668354999999998
#
# number of rings (size 3 to 8) (size 9 to 14) (size 15 to 20)
#    0.000    0.857    1.429    5.143    6.000    1.143 
#    0.000    1.429    0.000    0.000    0.000    0.000 
#    0.000    0.000    0.000    0.000    0.000    0.000 
#
# Total GULP energy -78314.383111 kJ/mol
# GULP energy per Si atom -5593.884508 kJ/mol
# Density = 2.461221 g / cm^3
# Si number density = 24.668355 Si / 1000 Ang^3
#
#
#
# Elastic Constant Matrix: (Units=GPa)
#
#
# Indices 1 2 3 4 5 6 
#
# 1 116.3115 26.3371 15.2743 0.0000 15.0206 0.0000
# 2 26.3371 93.2359 -4.1285 0.0000 13.5834 0.0000
# 3 15.2743 -4.1285 71.6798 0.0000 4.5771 0.0000
# 4 0.0000 0.0000 0.0000 25.2803 0.0000 -8.2265
# 5 15.0206 13.5834 4.5771 0.0000 39.4101 0.0000
# 6 0.0000 0.0000 0.0000 -8.2265 0.0000 22.0885
#
#
#
# Elastic Compliance Matrix: (Units=1/GPa)
#
#
# Indices 1 2 3 4 5 6 
#
# 1 0.009766 -0.002466 -0.002055 0.000000 -0.002634 0.000000
# 2 -0.002466 0.011974 0.001429 0.000000 -0.003353 0.000000
# 3 -0.002055 0.001429 0.014561 0.000000 -0.001400 0.000000
# 4 0.000000 0.000000 0.000000 0.045012 0.000000 0.016764
# 5 -0.002634 -0.003353 -0.001400 0.000000 0.027696 0.000000
# 6 0.000000 0.000000 0.000000 0.016764 0.000000 0.051516
#
#
# Mechanical properties :
#
#
# Convention : Reuss Voigt Hill
#
# Bulk Modulus (GPa) = 33.20374 39.57702 36.39038
# Shear Modulus (GPa) = 28.28911 33.60540 30.94726
#
# Velocity S-wave (km/s) = 3.39008 3.69492 3.54578
# Velocity P-wave (km/s) = 5.36776 5.85506 5.61670
#
# Compressibility (1/GPa) = 0.03011709
#
# Stress axis : x y z
#
# Youngs Moduli (GPa) = 102.39668 83.51522 68.67871
#
# Poissons Ratio (x) = 0.20595 0.14113
# Poissons Ratio (y) = 0.25251 -0.09816
# Poissons Ratio (z) = 0.21041 -0.11936
#
# Static dielectric constant tensor:
#      x y z
#    x 1.931870 0.000000 -0.003500 
#    y 0.000000 2.049280 0.000000 
#    z -0.003500 0.000000 1.995210 
# 
# From -- ./inp_files/1940.got.cif
#   From: 2010.05.17/outbox.cif.g08.bks.cpg/sg8_1_cif.got.tgz:1940.got - 2010.06.03 19:46:02.
