data_PCOD9133383
_publ_section_title
;
Structure prediction by ZEFSAII (Michael W. Deem and Ramdas Pophale) SiO2 
 PCOD9133383
Probable space group: C M
;
_chemical_formula_sum "Si O2"
_cell_formula_units_Z 32
_cell_length_a 10.352238
_cell_length_b 22.668366
_cell_length_c 15.125815
_cell_angle_alpha 90.000000
_cell_angle_beta 152.977792
_cell_angle_gamma 90.000000
_cell_volume 1612.687533
_symmetry_space_group_name_H-M "C M"
_symmetry_group_IT_number 8
_symmetry_cell_setting 'monoclinic'
loop_
_space_group_symop_operation_xyz
x,y,z
x,-y,z
1/2+x,1/2+y,z
1/2+x,1/2-y,z
loop_
_atom_site_type_symbol
_atom_site_label
_atom_site_fract_x
_atom_site_fract_y
_atom_site_fract_z
Si Si1 0.809470 0.143992 0.791600
Si Si2 0.261571 0.693023 0.075702
Si Si3 0.676521 0.644382 0.468611
Si Si4 0.753827 0.430966 0.966284
Si Si5 0.639868 0.294650 0.142054
Si Si6 0.741669 0.776280 0.582052
Si Si7 0.183002 0.853644 0.753749
Si Si8 0.356591 0.430441 0.417165
O O1 0.493772 0.130896 0.631133
O O2 0.798075 0.199838 0.715720
O O3 0.964432 0.091842 0.833794
O O4 0.998290 0.157059 0.993025
O O5 0.484446 0.652237 0.263889
O O6 0.423799 0.718954 0.090182
O O7 0.182278 0.740563 0.101496
O O8 0.964341 0.662676 0.870588
O O9 0.688912 0.707146 0.529973
O O10 0.533048 0.595646 0.442484
O O11 0.744237 0.500000 0.938695
O O12 0.793336 0.390801 0.904395
O O13 0.024065 0.420597 0.194328
O O14 0.949104 0.307413 0.371479
O O15 0.004137 0.798246 0.681872
O O16 0.967276 0.893723 0.567597
O O17 0.404570 0.500000 0.457486
#
# Coordination Sequence:
#
# PCOD9133383 Si02
#       8
#     4   4   4   4   4   4   4   4
#     4  11  23  39  64  89 128 171 213 262 334 381
#     4  11  24  40  62  94 136 174 213 266 324 387
#     4  11  23  41  61  93 132 168 213 268 326 392
#     4  10  23  43  65  93 125 166 225 276 321 385
#     4  11  24  39  59  92 135 171 212 261 320 398
#     4  10  24  38  60  96 130 169 214 269 326 393
#     4  11  22  40  67  95 127 172 219 271 331 385
#     4  11  24  42  68  94 126 173 223 273 322 385
#
# _framework density 19.842652999999999
#
# number of rings (size 3 to 8) (size 9 to 14) (size 15 to 20)
#    0.000    1.250    2.500    2.625    8.750    1.500 
#    0.000    0.000    0.000    0.750    0.000    0.000 
#    0.000    0.000    0.000    0.000    0.000    0.000 
#
# Total GULP energy -89431.233033 kJ/mol
# GULP energy per Si atom -5589.452065 kJ/mol
# Density = 1.979749 g / cm^3
# Si number density = 19.842653 Si / 1000 Ang^3
#
#
#
# Elastic Constant Matrix: (Units=GPa)
#
#
# Indices 1 2 3 4 5 6 
#
# 1 77.5882 2.4277 20.7926 0.0006 8.1777 -0.0001
# 2 2.4277 28.4488 13.1513 0.0019 -1.0241 -0.0002
# 3 20.7926 13.1513 101.6242 0.0124 6.5005 0.0100
# 4 0.0006 0.0019 0.0124 26.5869 0.0069 -3.7483
# 5 8.1777 -1.0241 6.5005 0.0069 44.5186 0.0033
# 6 -0.0001 -0.0002 0.0100 -3.7483 0.0033 14.5314
#
#
#
# Elastic Compliance Matrix: (Units=1/GPa)
#
#
# Indices 1 2 3 4 5 6 
#
# 1 0.013837 -0.000014 -0.002692 0.000002 -0.002149 0.000003
# 2 -0.000014 0.037498 -0.004951 0.000000 0.001588 0.000003
# 3 -0.002692 -0.004951 0.011111 -0.000006 -0.001242 -0.000009
# 4 0.000002 0.000000 -0.000006 0.039032 -0.000006 0.010068
# 5 -0.002149 0.001588 -0.001242 -0.000006 0.023075 -0.000006
# 6 0.000003 0.000003 -0.000009 0.010068 -0.000006 0.071413
#
#
# Mechanical properties :
#
#
# Convention : Reuss Voigt Hill
#
# Bulk Modulus (GPa) = 21.21694 31.15603 26.18649
# Shear Modulus (GPa) = 22.02726 28.54668 25.28697
#
# Velocity S-wave (km/s) = 3.33543 3.79707 3.57371
# Velocity P-wave (km/s) = 5.05462 5.91264 5.50039
#
# Compressibility (1/GPa) = 0.04713214
#
# Stress axis : x y z
#
# Youngs Moduli (GPa) = 72.27071 26.66794 89.99974
#
# Poissons Ratio (x) = 0.00037 0.24226
# Poissons Ratio (y) = 0.00099 0.44563
# Poissons Ratio (z) = 0.19454 0.13205
#
# Static dielectric constant tensor:
#      x y z
#    x 1.687040 0.000000 -0.019900 
#    y 0.000000 1.681600 -0.000010 
#    z -0.019900 -0.000010 1.725710 
# 
# From -- ./inp_files/25676.got.cif
#   From: 2010.05.17/outbox.cif.g08.bks.cpg/sg8_13_cif.got.tgz:25676.got - 2010.06.03 19:46:02.
