data_PCOD9133014
_publ_section_title
;
Structure prediction by ZEFSAII (Michael W. Deem and Ramdas Pophale) SiO2 
 PCOD9133014
Probable space group: C M
;
_chemical_formula_sum "Si O2"
_cell_formula_units_Z 26
_cell_length_a 10.688329
_cell_length_b 15.302759
_cell_length_c 8.893063
_cell_angle_alpha 90.000000
_cell_angle_beta 69.041853
_cell_angle_gamma 90.000000
_cell_volume 1358.326905
_symmetry_space_group_name_H-M "C M"
_symmetry_group_IT_number 8
_symmetry_cell_setting 'monoclinic'
loop_
_space_group_symop_operation_xyz
x,y,z
x,-y,z
1/2+x,1/2+y,z
1/2+x,1/2-y,z
loop_
_atom_site_type_symbol
_atom_site_label
_atom_site_fract_x
_atom_site_fract_y
_atom_site_fract_z
Si Si1 0.362570 0.600316 0.758710
Si Si2 0.127218 0.151065 0.467828
Si Si3 0.132874 0.682906 0.670656
Si Si4 0.644477 0.672298 0.112287
Si Si5 0.422894 0.273346 0.978159
Si Si6 0.239086 0.000000 0.894319
Si Si7 0.285536 0.000000 0.532610
Si Si8 0.520894 0.000000 0.636609
O O1 0.316052 0.500000 0.775973
O O2 0.495802 0.611247 0.602857
O O3 0.656644 0.744236 0.533343
O O4 0.397318 0.633268 0.910368
O O5 0.754827 0.166926 0.732981
O O6 0.105254 0.153656 0.300271
O O7 0.246269 0.085349 0.458362
O O8 0.102740 0.588377 0.615560
O O9 0.005488 0.716744 0.820122
O O10 0.521234 0.716907 0.077378
O O11 0.779207 0.730113 0.065352
O O12 0.684758 0.585578 0.000959
O O13 0.207063 0.000000 0.728494
O O14 0.402174 0.000000 0.814581
O O15 0.438398 0.000000 0.517586
#
# Coordination Sequence:
#
# PCOD9133014 Si02
#       8
#     4   4   4   4   4   2   2   2
#     4  11  23  41  66  93 125 167 218 262 312 385
#     4  11  26  39  64  94 130 167 205 267 324 379
#     4  11  22  41  65  93 128 167 215 260 316 383
#     4  12  25  42  65  95 133 159 215 264 327 369
#     4  11  24  42  65  94 122 176 210 266 311 382
#     4  10  21  39  67  93 119 165 214 266 299 385
#     4  10  21  42  63  95 118 168 218 254 313 386
#     4  10  22  37  68  94 119 161 222 258 306 369
#
# _framework density 19.141195
#
# number of rings (size 3 to 8) (size 9 to 14) (size 15 to 20)
#    0.462    0.615    4.615    2.308    7.538    0.000 
#    0.000    0.000    1.692    0.000    0.000    0.000 
#    0.000    0.000    0.000    0.000    0.000    0.000 
#
# Total GULP energy -72577.928034 kJ/mol
# GULP energy per Si atom -5582.917541 kJ/mol
# Density = 1.909763 g / cm^3
# Si number density = 19.141195 Si / 1000 Ang^3
#
#
#
# Elastic Constant Matrix: (Units=GPa)
#
#
# Indices 1 2 3 4 5 6 
#
# 1 97.7061 21.5055 18.2718 0.0000 27.1360 0.0000
# 2 21.5055 112.3169 26.4927 0.0000 21.2388 0.0000
# 3 18.2718 26.4927 74.4086 0.0000 28.6040 0.0000
# 4 0.0000 0.0000 0.0000 13.6155 0.0000 12.5138
# 5 27.1360 21.2388 28.6040 0.0000 27.9791 0.0000
# 6 0.0000 0.0000 0.0000 12.5138 0.0000 29.9452
#
#
#
# Elastic Compliance Matrix: (Units=1/GPa)
#
#
# Indices 1 2 3 4 5 6 
#
# 1 0.014417 -0.000288 0.003053 0.000000 -0.016885 0.000000
# 2 -0.000288 0.010456 -0.001167 0.000000 -0.006466 0.000000
# 3 0.003053 -0.001167 0.022904 0.000000 -0.025492 0.000000
# 4 0.000000 0.000000 0.000000 0.119244 0.000000 -0.049831
# 5 -0.016885 -0.006466 -0.025492 0.000000 0.083087 0.000000
# 6 0.000000 0.000000 0.000000 -0.049831 0.000000 0.054218
#
#
# Mechanical properties :
#
#
# Convention : Reuss Voigt Hill
#
# Bulk Modulus (GPa) = 19.61738 46.33019 32.97379
# Shear Modulus (GPa) = 15.71733 28.85206 22.28469
#
# Velocity S-wave (km/s) = 2.86864 3.88664 3.41578
# Velocity P-wave (km/s) = 4.60903 6.66321 5.72894
#
# Compressibility (1/GPa) = 0.05097520
#
# Stress axis : x y z
#
# Youngs Moduli (GPa) = 69.36411 95.63631 43.65974
#
# Poissons Ratio (x) = 0.02750 -0.13331
# Poissons Ratio (y) = 0.01995 0.05094
# Poissons Ratio (z) = -0.21179 0.11159
#
# Static dielectric constant tensor:
#      x y z
#    x 1.668220 0.000000 0.009240 
#    y 0.000000 1.658060 0.000000 
#    z 0.009240 0.000000 1.637080 
# 
# From -- ./inp_files/10479.got.cif
#   From: 2010.05.17/outbox.cif.g08.bks.cpg/sg8_6_cif.got.tgz:10479.got - 2010.06.03 19:46:02.
