data_PCOD9133162
_publ_section_title
;
Structure prediction by ZEFSAII (Michael W. Deem and Ramdas Pophale) SiO2 
 PCOD9133162
Probable space group: C M
;
_chemical_formula_sum "Si O2"
_cell_formula_units_Z 32
_cell_length_a 9.384019
_cell_length_b 11.152752
_cell_length_c 13.700386
_cell_angle_alpha 90.000000
_cell_angle_beta 78.325633
_cell_angle_gamma 90.000000
_cell_volume 1404.188590
_symmetry_space_group_name_H-M "C M"
_symmetry_group_IT_number 8
_symmetry_cell_setting 'monoclinic'
loop_
_space_group_symop_operation_xyz
x,y,z
x,-y,z
1/2+x,1/2+y,z
1/2+x,1/2-y,z
loop_
_atom_site_type_symbol
_atom_site_label
_atom_site_fract_x
_atom_site_fract_y
_atom_site_fract_z
Si Si1 0.943540 0.863722 0.081330
Si Si2 0.020097 0.872638 0.348761
Si Si3 0.246579 0.134303 0.157278
Si Si4 0.818918 0.365274 0.768556
Si Si5 0.974423 0.864337 0.843625
Si Si6 0.440643 0.874706 0.385138
Si Si7 0.056730 0.626657 0.579470
Si Si8 0.639105 0.626256 0.541111
O O1 0.845806 0.750203 0.126533
O O2 0.102458 0.855113 0.109299
O O3 0.887633 0.000000 0.111948
O O4 0.959777 0.857427 0.962547
O O5 0.177980 0.869494 0.275966
O O6 0.025344 0.871629 0.465777
O O7 0.950859 0.748436 0.327095
O O8 0.952497 0.000000 0.328665
O O9 0.310127 0.000000 0.129532
O O10 0.852503 0.500000 0.806505
O O11 0.888294 0.248866 0.810858
O O12 0.645707 0.354710 0.795521
O O13 0.897768 0.369367 0.651572
O O14 0.924405 0.000000 0.821118
O O15 0.551807 0.873192 0.462277
O O16 0.289363 0.877204 0.462682
O O17 0.463711 0.000000 0.327738
O O18 0.124694 0.500000 0.601182
O O19 0.129310 0.750161 0.598659
O O20 0.617880 0.500000 0.597319
#
# Coordination Sequence:
#
# PCOD9133162 Si02
#       8
#     4   4   4   4   4   4   4   4
#     4  10  22  40  60  87 117 150 193 237 289 351
#     4   9  19  34  50  77 110 142 183 229 277 328
#     4  10  22  39  61  88 119 153 192 239 288 342
#     4  10  22  39  61  88 118 151 192 240 288 344
#     4  10  22  40  62  86 116 152 190 237 293 349
#     4   9  18  32  52  75 105 144 184 225 272 328
#     4   9  19  34  50  76 108 142 184 228 277 330
#     4   9  18  32  52  75 105 144 184 225 272 328
#
# _framework density 22.788959999999999
#
# number of rings (size 3 to 8) (size 9 to 14) (size 15 to 20)
#    0.000    2.500    0.000    0.750    3.500    4.000 
#    0.000    0.000    0.000    0.000    0.000    0.000 
#    0.000    0.000    0.000    0.000    0.000    0.000 
#
# Total GULP energy -89196.263820 kJ/mol
# GULP energy per Si atom -5574.766489 kJ/mol
# Density = 2.273709 g / cm^3
# Si number density = 22.788960 Si / 1000 Ang^3
#
#
#
# Elastic Constant Matrix: (Units=GPa)
#
#
# Indices 1 2 3 4 5 6 
#
# 1 42.0719 74.3000 5.8241 0.0000 4.4288 0.0000
# 2 74.3000 325.8037 49.9588 0.0000 -10.0831 0.0000
# 3 5.8241 49.9588 77.1347 0.0000 9.8758 0.0000
# 4 0.0000 0.0000 0.0000 14.3319 0.0000 -22.3442
# 5 4.4288 -10.0831 9.8758 0.0000 27.8725 0.0000
# 6 0.0000 0.0000 0.0000 -22.3442 0.0000 20.9710
#
#
#
# Elastic Compliance Matrix: (Units=1/GPa)
#
#
# Indices 1 2 3 4 5 6 
#
# 1 0.044630 -0.011473 0.005761 0.000000 -0.013283 0.000000
# 2 -0.011473 0.006480 -0.004048 0.000000 0.005601 0.000000
# 3 0.005761 -0.004048 0.016190 0.000000 -0.008116 0.000000
# 4 0.000000 0.000000 0.000000 -0.105537 0.000000 -0.112447
# 5 -0.013283 0.005601 -0.008116 0.000000 0.042890 0.000000
# 6 0.000000 0.000000 0.000000 -0.112447 0.000000 -0.072125
#
#
# Mechanical properties :
#
#
# Convention : Reuss Voigt Hill
#
# Bulk Modulus (GPa) = 20.92813 78.35289 49.64051
# Shear Modulus (GPa) = -156.12153 33.63025 -61.24564
#
# Velocity S-wave (km/s) = -8.28591 3.84568 -5.18975
# Velocity P-wave (km/s) = 9.07404 7.36041 3.75251
#
# Compressibility (1/GPa) = 0.04778259
#
# Stress axis : x y z
#
# Youngs Moduli (GPa) = 22.40625 154.32824 61.76622
#
# Poissons Ratio (x) = 1.77055 -0.35586
# Poissons Ratio (y) = 0.25706 0.25001
# Poissons Ratio (z) = -0.12909 0.62467
#
# Static dielectric constant tensor:
#      x y z
#    x 1.865910 0.000000 0.049270 
#    y 0.000000 1.924780 0.000000 
#    z 0.049270 0.000000 1.857140 
# 
# From -- ./inp_files/25828.got.cif
#   From: 2010.05.17/outbox.cif.g08.bks.cpg/sg8_13_cif.got.tgz:25828.got - 2010.06.03 19:46:02.
