data_PCOD9133898
_publ_section_title
;
Structure prediction by ZEFSAII (Michael W. Deem and Ramdas Pophale) SiO2 
 PCOD9133898
Probable space group: C C
;
_chemical_formula_sum "Si O2"
_cell_formula_units_Z 32
_cell_length_a 6.736258
_cell_length_b 19.295905
_cell_length_c 12.111098
_cell_angle_alpha 90.000000
_cell_angle_beta 126.600062
_cell_angle_gamma 90.000000
_cell_volume 1263.816006
_symmetry_space_group_name_H-M "C C"
_symmetry_group_IT_number 9
_symmetry_cell_setting 'monoclinic'
loop_
_space_group_symop_operation_xyz
x,y,z
x,-y,1/2+z
1/2+x,1/2+y,z
1/2+x,1/2-y,1/2+z
loop_
_atom_site_type_symbol
_atom_site_label
_atom_site_fract_x
_atom_site_fract_y
_atom_site_fract_z
Si Si1 0.662340 0.485925 0.958260
Si Si2 0.342762 0.615619 0.206541
Si Si3 0.686763 0.004470 0.539176
Si Si4 0.264705 0.122632 0.091369
Si Si5 0.901903 0.724514 0.757816
Si Si6 0.034767 0.372581 0.888499
Si Si7 0.370550 0.751578 0.492911
Si Si8 0.042329 0.609737 0.643406
O O1 0.491442 0.432372 0.839686
O O2 0.605018 0.560601 0.988541
O O3 0.813911 0.440418 0.100189
O O4 0.889441 0.503198 0.948610
O O5 0.314710 0.568354 0.087876
O O6 0.435983 0.694373 0.238621
O O7 0.054389 0.614517 0.150090
O O8 0.705763 0.058107 0.445950
O O9 0.745759 0.053139 0.668206
O O10 0.297734 0.119625 0.233661
O O11 0.217996 0.197259 0.022157
O O12 0.608196 0.717783 0.631601
O O13 0.950073 0.713154 0.903772
O O14 0.058609 0.670966 0.735746
O O15 0.190019 0.308993 0.896203
O O16 0.983848 0.358653 0.001678
#
# Coordination Sequence:
#
# PCOD9133898 Si02
#       8
#     4   4   4   4   4   4   4   4
#     4   8  18  37  61  84 125 163 209 260 313 380
#     4  10  17  37  62  87 128 155 222 260 311 379
#     4   7  19  36  58  86 122 166 196 264 311 377
#     4  10  20  38  61  92 124 164 214 263 314 383
#     4  11  22  38  64  94 125 165 216 262 315 385
#     4   9  19  41  60  81 134 161 200 267 321 365
#     4  11  21  37  65  92 122 168 210 264 313 378
#     4   8  20  40  57  88 124 168 195 258 320 373
#
# _framework density 25.320139000000001
#
# number of rings (size 3 to 8) (size 9 to 14) (size 15 to 20)
#    1.500    1.000    2.500    0.750    0.000    1.000 
#   15.750    2.500    0.000    0.000    0.000    0.000 
#    0.000    0.000    0.000    0.000    0.000    0.000 
#
# Total GULP energy -89126.199686 kJ/mol
# GULP energy per Si atom -5570.387480 kJ/mol
# Density = 2.526251 g / cm^3
# Si number density = 25.320139 Si / 1000 Ang^3
#
#
#
# Elastic Constant Matrix: (Units=GPa)
#
#
# Indices 1 2 3 4 5 6 
#
# 1 36.6516 -3.5322 -13.1120 0.0000 -8.2881 0.0000
# 2 -3.5322 126.9606 9.0423 0.0000 1.8176 0.0000
# 3 -13.1120 9.0423 55.5154 0.0000 -8.8451 0.0000
# 4 0.0000 0.0000 0.0000 38.2244 0.0000 11.3222
# 5 -8.2881 1.8176 -8.8451 0.0000 40.4634 0.0000
# 6 0.0000 0.0000 0.0000 11.3222 0.0000 16.0299
#
#
#
# Elastic Compliance Matrix: (Units=1/GPa)
#
#
# Indices 1 2 3 4 5 6 
#
# 1 0.032473 0.000138 0.009020 0.000000 0.008617 0.000000
# 2 0.000138 0.007987 -0.001369 0.000000 -0.000630 0.000000
# 3 0.009020 -0.001369 0.021416 0.000000 0.006591 0.000000
# 4 0.000000 0.000000 0.000000 0.033083 0.000000 -0.023367
# 5 0.008617 -0.000630 0.006591 0.000000 0.027948 0.000000
# 6 0.000000 0.000000 0.000000 -0.023367 0.000000 0.078888
#
#
# Mechanical properties :
#
#
# Convention : Reuss Voigt Hill
#
# Bulk Modulus (GPa) = 12.91086 22.65819 17.78452
# Shear Modulus (GPa) = 23.58114 34.05884 28.81999
#
# Velocity S-wave (km/s) = 3.05506 3.67158 3.37742
# Velocity P-wave (km/s) = 4.18983 5.19058 4.71682
#
# Compressibility (1/GPa) = 0.07745419
#
# Stress axis : x y z
#
# Youngs Moduli (GPa) = 30.79504 125.20679 46.69304
#
# Poissons Ratio (x) = -0.01723 -0.42118
# Poissons Ratio (y) = -0.00424 0.06391
# Poissons Ratio (z) = -0.27778 0.17137
#
# Static dielectric constant tensor:
#      x y z
#    x 2.167110 0.000000 -0.021580 
#    y 0.000000 2.038760 0.000000 
#    z -0.021580 0.000000 1.994610 
# 
# From -- ./inp_files/15598.got.cif
#   From: 2010.05.17/outbox.cif.g08.bks.cpg/sg9_8_cif.got.tgz:15598.got - 2010.06.03 20:04:27.
