data_PCOD9133925
_publ_section_title
;
Structure prediction by ZEFSAII (Michael W. Deem and Ramdas Pophale) SiO2 
 PCOD9133925
Probable space group: C C
;
_chemical_formula_sum "Si O2"
_cell_formula_units_Z 28
_cell_length_a 16.365127
_cell_length_b 17.611052
_cell_length_c 15.524313
_cell_angle_alpha 90.000000
_cell_angle_beta 162.110064
_cell_angle_gamma 90.000000
_cell_volume 1374.432412
_symmetry_space_group_name_H-M "C C"
_symmetry_group_IT_number 9
_symmetry_cell_setting 'monoclinic'
loop_
_space_group_symop_operation_xyz
x,y,z
x,-y,1/2+z
1/2+x,1/2+y,z
1/2+x,1/2-y,1/2+z
loop_
_atom_site_type_symbol
_atom_site_label
_atom_site_fract_x
_atom_site_fract_y
_atom_site_fract_z
Si Si1 0.226550 0.060161 0.566170
Si Si2 0.975153 0.435628 0.141783
Si Si3 0.193335 0.884289 0.468942
Si Si4 0.526653 0.796370 0.076947
Si Si5 0.696825 0.138161 0.568425
Si Si6 0.730396 0.037695 0.165941
Si Si7 0.464573 0.467199 0.090737
O O1 0.357269 0.096437 0.612789
O O2 0.935187 0.079469 0.306944
O O3 0.209728 0.971665 0.519790
O O4 0.433758 0.066572 0.852102
O O5 0.086480 0.370042 0.193144
O O6 0.221732 0.493848 0.401039
O O7 0.722408 0.477544 0.844072
O O8 0.488376 0.855464 0.781081
O O9 0.074718 0.895243 0.254803
O O10 0.985797 0.841733 0.322252
O O11 0.727386 0.727965 0.296583
O O12 0.582314 0.816488 0.033854
O O13 0.721207 0.051261 0.628678
O O14 0.840732 0.045299 0.372737
#
# Coordination Sequence:
#
# PCOD9133925 Si02
#       7
#     4   4   4   4   4   4   4
#     4   9  18  30  46  71  98 134 165 197 251 319
#     4  11  21  35  48  69 105 138 171 215 254 290
#     4   9  18  30  49  71  98 133 166 198 254 321
#     4  12  25  37  52  73  99 142 193 219 242 288
#     4  10  19  34  48  67 102 136 168 213 252 287
#     4  10  18  29  50  75 101 131 163 197 253 321
#     4  11  19  31  51  78 103 134 166 199 258 324
#
# _framework density 20.372046000000001
#
# number of rings (size 3 to 8) (size 9 to 14) (size 15 to 20)
#    0.000    1.714    1.429    6.857    4.000    0.000 
#    0.000    0.000    0.000    0.000    0.000    0.000 
#    0.000   22.857    0.000    0.000    0.000    0.000 
#
# Total GULP energy -78116.998932 kJ/mol
# GULP energy per Si atom -5579.785638 kJ/mol
# Density = 2.032568 g / cm^3
# Si number density = 20.372046 Si / 1000 Ang^3
#
#
#
# Elastic Constant Matrix: (Units=GPa)
#
#
# Indices 1 2 3 4 5 6 
#
# 1 84.4150 9.8236 26.1262 -0.0036 -12.7360 -0.0003
# 2 9.8236 17.7997 2.4937 -0.0082 1.5802 0.0005
# 3 26.1262 2.4937 101.2965 -0.0131 -8.3450 0.0005
# 4 -0.0036 -0.0082 -0.0131 14.7318 0.0003 7.4163
# 5 -12.7360 1.5802 -8.3450 0.0003 41.0573 0.0007
# 6 -0.0003 0.0005 0.0005 7.4163 0.0007 21.6550
#
#
#
# Elastic Compliance Matrix: (Units=1/GPa)
#
#
# Indices 1 2 3 4 5 6 
#
# 1 0.014362 -0.007847 -0.003172 -0.000005 0.004112 0.000002
# 2 -0.007847 0.060915 0.000133 0.000040 -0.004752 -0.000015
# 3 -0.003172 0.000133 0.010786 0.000011 0.001203 -0.000004
# 4 -0.000005 0.000040 0.000011 0.082021 -0.000001 -0.028090
# 5 0.004112 -0.004752 0.001203 -0.000001 0.026059 0.000000
# 6 0.000002 -0.000015 -0.000004 -0.028090 0.000000 0.055799
#
#
# Mechanical properties :
#
#
# Convention : Reuss Voigt Hill
#
# Bulk Modulus (GPa) = 15.55452 31.15534 23.35493
# Shear Modulus (GPa) = 17.05647 26.49334 21.77490
#
# Velocity S-wave (km/s) = 2.89666 3.61012 3.27289
# Velocity P-wave (km/s) = 4.34043 5.71871 5.07657
#
# Compressibility (1/GPa) = 0.06429001
#
# Stress axis : x y z
#
# Youngs Moduli (GPa) = 69.63019 16.41640 92.71261
#
# Poissons Ratio (x) = 0.12882 0.29410
# Poissons Ratio (y) = 0.54637 -0.01231
# Poissons Ratio (z) = 0.22088 -0.00218
#
# Static dielectric constant tensor:
#      x y z
#    x 1.768750 0.000000 -0.017840 
#    y 0.000000 1.730230 0.000000 
#    z -0.017840 0.000000 1.736080 
# 
# From -- ./inp_files/26107.got.cif
#   From: 2010.05.17/outbox.cif.g08.bks.cpg/sg9_14_cif.got.tgz:26107.got - 2010.06.03 20:04:27.
