data_PCOD9133682
_publ_section_title
;
Structure prediction by ZEFSAII (Michael W. Deem and Ramdas Pophale) SiO2 
 PCOD9133682
Probable space group: C M
;
_chemical_formula_sum "Si O2"
_cell_formula_units_Z 16
_cell_length_a 27.000000
_cell_length_b 9.000000
_cell_length_c 21.000000
_cell_angle_alpha 90.000000
_cell_angle_beta 20.000000
_cell_angle_gamma 90.000000
_cell_volume 1745.328791
_symmetry_space_group_name_H-M "C M"
_symmetry_group_IT_number 8
_symmetry_cell_setting 'monoclinic'
loop_
_space_group_symop_operation_xyz
x,y,z
x,-y,z
1/2+x,1/2+y,z
1/2+x,1/2-y,z
loop_
_atom_site_type_symbol
_atom_site_label
_atom_site_fract_x
_atom_site_fract_y
_atom_site_fract_z
Si Si1 0.770860 0.821519 0.889140
Si Si2 0.014076 0.178908 0.693347
Si Si3 0.409229 0.322381 0.037137
Si Si4 0.713469 0.819614 0.685044
Si Si5 0.332738 0.179519 0.264900
Si Si6 0.652541 0.179329 0.903196
Si Si7 0.542362 0.322090 0.259391
Si Si8 0.287980 0.177249 0.063220
O O1 0.752805 0.766879 0.839052
O O2 0.923004 0.787612 0.739048
O O3 0.757501 0.000000 0.906355
O O4 0.637655 0.755780 0.090218
O O5 0.182316 0.220419 0.480942
O O6 0.921298 0.263813 0.858709
O O7 0.006868 0.000000 0.713729
O O8 0.416018 0.500000 0.030779
O O9 0.570594 0.256072 0.828284
O O10 0.303499 0.263004 0.110285
O O11 0.353447 0.256524 0.171528
O O12 0.702332 0.774964 0.772999
O O13 0.873464 0.777680 0.466981
O O14 0.699350 0.000000 0.697337
O O15 0.329681 0.000000 0.259552
O O16 0.483285 0.217335 0.118715
O O17 0.659475 0.000000 0.894189
O O18 0.545503 0.500000 0.246116
O O19 0.636616 0.292668 0.209539
O O20 0.300401 0.000000 0.057100
#
# Coordination Sequence:
#
# PCOD9133682 Si02
#       8
#     4   4   4   4   4   4   4   4
#     4   9  17  30  49  73 101 131 163 203 249 297
#     4   9  18  32  51  75 102 133 170 210 251 300
#     4  11  22  35  52  76 105 136 174 216 258 305
#     4   9  18  35  55  74  99 132 172 213 254 302
#     4   9  18  34  53  72  99 134 171 210 253 301
#     4   8  15  29  49  70  92 123 162 202 243 291
#     4   9  19  34  53  76 101 132 169 209 253 304
#     4  10  20  35  54  76 105 139 173 211 257 306
#
# _framework density 9.1673270000000002
#
# number of rings (size 3 to 8) (size 9 to 14) (size 15 to 20)
#    0.000    2.750    0.000    2.250    0.000    3.500 
#    0.000    7.500    0.000    0.000    0.000    0.000 
#    0.000    0.000    0.000    0.000    0.000    0.000 
#
# Total GULP energy -89169.706393 kJ/mol
# GULP energy per Si atom -5573.106650 kJ/mol
# Density = 0.914646 g / cm^3
# Si number density = 9.167327 Si / 1000 Ang^3
#
#
#
# Elastic Constant Matrix: (Units=GPa)
#
#
# Indices 1 2 3 4 5 6 
#
# 1 37.4140 -0.1075 -41.3800 0.0000 -0.8392 0.0000
# 2 -0.1075 28.3171 -1.9352 0.0000 -2.7684 0.0000
# 3 -41.3800 -1.9352 40.9962 0.0000 -4.8613 0.0000
# 4 0.0000 0.0000 0.0000 26.5776 0.0000 2.0490
# 5 -0.8392 -2.7684 -4.8613 0.0000 8.5000 0.0000
# 6 0.0000 0.0000 0.0000 2.0490 0.0000 18.2937
#
#
#
# Elastic Compliance Matrix: (Units=1/GPa)
#
#
# Indices 1 2 3 4 5 6 
#
# 1 -0.108906 -0.017023 -0.120858 0.000000 -0.085418 0.000000
# 2 -0.017023 0.034251 -0.015493 0.000000 0.000614 0.000000
# 3 -0.120858 -0.015493 -0.107641 0.000000 -0.078541 0.000000
# 4 0.000000 0.000000 0.000000 0.037953 0.000000 -0.004251
# 5 -0.085418 0.000614 -0.078541 0.000000 0.064495 0.000000
# 6 0.000000 0.000000 0.000000 -0.004251 0.000000 0.055140
#
#
# Mechanical properties :
#
#
# Convention : Reuss Voigt Hill
#
# Bulk Modulus (GPa) = -2.04480 2.20910 0.08215
# Shear Modulus (GPa) = 42.00753 20.68424 31.34589
#
# Velocity S-wave (km/s) = 4.79179 3.36244 4.13928
# Velocity P-wave (km/s) = 5.43115 4.03511 4.78432
#
# Compressibility (1/GPa) = -0.48904483
#
# Stress axis : x y z
#
# Youngs Moduli (GPa) = -9.18225 29.19627 -9.29012
#
# Poissons Ratio (x) = 0.49702 -1.12278
# Poissons Ratio (y) = -0.15631 -0.14393
# Poissons Ratio (z) = -1.10975 0.45235
#
# Static dielectric constant tensor:
#      x y z
#    x 1.671800 0.000000 -0.008420 
#    y 0.000000 1.609260 0.000000 
#    z -0.008420 0.000000 1.605760 
# 
# From -- ./inp_files/15832.got.cif
#   From: 2010.05.17/outbox.ucp.g08.bks.cvg/sg8_8_cif.got.tgz:15832.got - 2010.06.11 13:00:03.
