data_PCOD9133660
_publ_section_title
;
Structure prediction by ZEFSAII (Michael W. Deem and Ramdas Pophale) SiO2 
 PCOD9133660
Probable space group: C M
;
_chemical_formula_sum "Si O2"
_cell_formula_units_Z 16
_cell_length_a 21.000000
_cell_length_b 9.000000
_cell_length_c 27.000000
_cell_angle_alpha 90.000000
_cell_angle_beta 160.000000
_cell_angle_gamma 90.000000
_cell_volume 1745.328791
_symmetry_space_group_name_H-M "C M"
_symmetry_group_IT_number 8
_symmetry_cell_setting 'monoclinic'
loop_
_space_group_symop_operation_xyz
x,y,z
x,-y,z
1/2+x,1/2+y,z
1/2+x,1/2-y,z
loop_
_atom_site_type_symbol
_atom_site_label
_atom_site_fract_x
_atom_site_fract_y
_atom_site_fract_z
Si Si1 0.786450 0.326896 0.638590
Si Si2 0.248313 0.829495 0.286299
Si Si3 0.602968 0.322584 0.809933
Si Si4 0.440795 0.176811 0.122210
Si Si5 0.526541 0.678871 0.287915
Si Si6 0.938100 0.178118 0.585624
Si Si7 0.441646 0.821664 0.329622
Si Si8 0.072896 0.826009 0.574789
O O1 0.817721 0.500000 0.649546
O O2 0.604804 0.269914 0.476272
O O3 0.759400 0.315268 0.678161
O O4 0.945216 0.225643 0.732578
O O5 0.270500 0.804292 0.243453
O O6 0.447397 0.798268 0.456754
O O7 0.127387 0.714647 0.229018
O O8 0.190072 0.000000 0.252056
O O9 0.615329 0.500000 0.815964
O O10 0.551048 0.271962 0.716791
O O11 0.788871 0.268382 0.971795
O O12 0.436012 0.262519 0.170720
O O13 0.424817 0.000000 0.119575
O O14 0.520913 0.500000 0.287192
O O15 0.741141 0.736680 0.441529
O O16 0.433603 0.754525 0.268574
O O17 0.054175 0.198358 0.619728
O O18 0.898334 0.000000 0.560549
O O19 0.481758 0.000000 0.356665
O O20 0.011335 0.000000 0.521290
#
# Coordination Sequence:
#
# PCOD9133660 Si02
#       8
#     4   4   4   4   4   4   4   4
#     4  10  19  32  53  83 115 146 184 231 278 326
#     4  10  20  34  55  83 113 145 187 233 279 332
#     4  10  22  38  57  80 111 153 193 226 278 343
#     4  11  23  39  57  79 114 158 193 229 281 340
#     4  12  23  35  56  87 113 142 191 242 282 329
#     4  10  19  35  58  82 110 146 185 230 278 332
#     4  10  20  35  56  82 114 149 184 230 284 336
#     4   9  18  32  54  82 112 145 181 225 280 332
#
# _framework density 9.1673270000000002
#
# number of rings (size 3 to 8) (size 9 to 14) (size 15 to 20)
#    0.000    1.750    2.500    2.625    0.000    3.000 
#    0.000    1.250    0.000    1.500    0.000    0.000 
#    0.000    0.000    0.000    0.000    0.000    0.000 
#
# Total GULP energy -89103.019673 kJ/mol
# GULP energy per Si atom -5568.938730 kJ/mol
# Density = 0.914646 g / cm^3
# Si number density = 9.167327 Si / 1000 Ang^3
#
#
#
# Elastic Constant Matrix: (Units=GPa)
#
#
# Indices 1 2 3 4 5 6 
#
# 1 121.5286 19.7375 0.3078 -0.0070 -20.0503 -0.0003
# 2 19.7375 0.5846 1.0885 0.0000 -35.9975 0.0040
# 3 0.3078 1.0885 11.9107 -0.0088 -16.3588 -0.0037
# 4 -0.0070 0.0000 -0.0088 3.4345 0.0010 -8.7400
# 5 -20.0503 -35.9975 -16.3588 0.0010 8.8772 0.0014
# 6 -0.0003 0.0040 -0.0037 -8.7400 0.0014 7.0708
#
#
#
# Elastic Compliance Matrix: (Units=1/GPa)
#
#
# Indices 1 2 3 4 5 6 
#
# 1 0.010530 -0.008314 0.008589 -0.000029 0.005898 -0.000028
# 2 -0.008314 0.017917 -0.047406 0.000094 -0.033481 0.000088
# 3 0.008589 -0.047406 0.097529 -0.000214 0.006888 -0.000189
# 4 -0.000029 0.000094 -0.000214 -0.135708 -0.000039 -0.167745
# 5 0.005898 -0.033481 0.006888 -0.000039 0.002899 -0.000027
# 6 -0.000028 0.000088 -0.000189 -0.167745 -0.000027 -0.065918
#
#
# Mechanical properties :
#
#
# Convention : Reuss Voigt Hill
#
# Bulk Modulus (GPa) = 31.53208 19.58795 25.56002
# Shear Modulus (GPa) = 155.84922 11.40251 83.62587
#
# Velocity S-wave (km/s) = 9.22968 2.49652 6.76091
# Velocity P-wave (km/s) = 11.43758 4.36084 8.65549
#
# Compressibility (1/GPa) = 0.03171373
#
# Stress axis : x y z
#
# Youngs Moduli (GPa) = 94.96566 55.81138 10.25341
#
# Poissons Ratio (x) = 0.46400 -0.08806
# Poissons Ratio (y) = 0.78951 0.48608
# Poissons Ratio (z) = -0.81563 2.64581
#
# Static dielectric constant tensor:
#      x y z
#    x 1.673240 0.000000 0.060720 
#    y 0.000000 1.610320 0.000000 
#    z 0.060720 0.000000 1.754270 
# 
# From -- ./inp_files/23911.got.cif
#   From: 2010.05.17/outbox.ucp.g08.bks.cvg/sg8_12_cif.got.tgz:23911.got - 2010.06.11 13:00:03.
