data_PCOD9133398
_publ_section_title
;
Structure prediction by ZEFSAII (Michael W. Deem and Ramdas Pophale) SiO2 
 PCOD9133398
Probable space group: C M
;
_chemical_formula_sum "Si O2"
_cell_formula_units_Z 20
_cell_length_a 7.608619
_cell_length_b 16.563950
_cell_length_c 6.997058
_cell_angle_alpha 90.000000
_cell_angle_beta 115.825097
_cell_angle_gamma 90.000000
_cell_volume 793.760557
_symmetry_space_group_name_H-M "C M"
_symmetry_group_IT_number 8
_symmetry_cell_setting 'monoclinic'
loop_
_space_group_symop_operation_xyz
x,y,z
x,-y,z
1/2+x,1/2+y,z
1/2+x,1/2-y,z
loop_
_atom_site_type_symbol
_atom_site_label
_atom_site_fract_x
_atom_site_fract_y
_atom_site_fract_z
Si Si1 0.143440 0.596729 0.288710
Si Si2 0.641617 0.798845 0.949392
Si Si3 0.334761 0.911655 0.468764
Si Si4 0.051826 0.838593 0.623482
Si Si5 0.056129 0.866304 0.030180
O O1 0.161386 0.500000 0.271769
O O2 0.047969 0.638135 0.054952
O O3 0.354137 0.638446 0.420733
O O4 0.017101 0.610804 0.420612
O O5 0.056914 0.749945 0.724855
O O6 0.672761 0.719199 0.093626
O O7 0.834739 0.843098 0.970369
O O8 0.239230 0.854708 0.582309
O O9 0.378719 0.000000 0.574652
O O10 0.158430 0.918986 0.234091
O O11 0.063398 0.895271 0.816734
#
# Coordination Sequence:
#
# PCOD9133398 Si02
#       5
#     4   4   4   4   4
#     4  11  24  49  80 110 151 201 253 313 381 449
#     4  10  23  45  71 115 147 199 249 312 373 454
#     4  11  24  47  77 109 151 201 253 312 378 449
#     4  10  25  45  72 110 157 195 253 305 383 451
#     4  10  23  44  71 108 152 194 246 314 374 443
#
# _framework density 25.196515000000002
#
# number of rings (size 3 to 8) (size 9 to 14) (size 15 to 20)
#    1.200    0.400    2.000    1.800    0.000    4.800 
#    7.200    0.000    0.000    0.000    0.000    2.800 
#    0.000    0.000    0.000    0.000    0.000    0.000 
#
# Total GULP energy -55789.976014 kJ/mol
# GULP energy per Si atom -5578.997601 kJ/mol
# Density = 2.513917 g / cm^3
# Si number density = 25.196515 Si / 1000 Ang^3
#
#
#
# Elastic Constant Matrix: (Units=GPa)
#
#
# Indices 1 2 3 4 5 6 
#
# 1 150.0790 62.3436 42.1027 0.0000 -45.3221 0.0000
# 2 62.3436 136.0551 67.2328 0.0000 -11.8014 0.0000
# 3 42.1027 67.2328 131.4956 0.0000 -22.2105 0.0000
# 4 0.0000 0.0000 0.0000 5.4605 0.0000 4.4010
# 5 -45.3221 -11.8014 -22.2105 0.0000 44.6661 0.0000
# 6 0.0000 0.0000 0.0000 4.4010 0.0000 0.1680
#
#
#
# Elastic Compliance Matrix: (Units=1/GPa)
#
#
# Indices 1 2 3 4 5 6 
#
# 1 0.011784 -0.004683 0.000471 0.000000 0.010954 0.000000
# 2 -0.004683 0.011696 -0.005198 0.000000 -0.004246 0.000000
# 3 0.000471 -0.005198 0.010874 0.000000 0.004512 0.000000
# 4 0.000000 0.000000 0.000000 -0.009103 0.000000 0.238518
# 5 0.010954 -0.004246 0.004512 0.000000 0.034625 0.000000
# 6 0.000000 0.000000 0.000000 0.238518 0.000000 -0.295939
#
#
# Mechanical properties :
#
#
# Convention : Reuss Voigt Hill
#
# Bulk Modulus (GPa) = 64.36853 84.55421 74.46137
# Shear Modulus (GPa) = -23.57753 26.45561 1.43904
#
# Velocity S-wave (km/s) = -3.06231 3.24384 0.75655
# Velocity P-wave (km/s) = 3.61917 6.90368 5.51177
#
# Compressibility (1/GPa) = 0.01553554
#
# Stress axis : x y z
#
# Youngs Moduli (GPa) = 84.85952 85.49996 91.96541
#
# Poissons Ratio (x) = 0.40035 -0.04334
# Poissons Ratio (y) = 0.39735 0.47803
# Poissons Ratio (z) = -0.04000 0.44442
#
# Static dielectric constant tensor:
#      x y z
#    x 1.988730 0.000000 0.019580 
#    y 0.000000 2.039460 0.000000 
#    z 0.019580 0.000000 2.043610 
# 
# From -- ./inp_files/1213.got.cif
#   From: 2010.05.17/outbox.cif.g08.bks.cpg/sg8_1_cif.got.tgz:1213.got - 2010.06.03 19:46:02.
