data_PCOD9133867
_publ_section_title
;
Structure prediction by ZEFSAII (Michael W. Deem and Ramdas Pophale) SiO2 
 PCOD9133867
Probable space group: C C
;
_chemical_formula_sum "Si O2"
_cell_formula_units_Z 32
_cell_length_a 20.906113
_cell_length_b 7.857876
_cell_length_c 8.963897
_cell_angle_alpha 90.000000
_cell_angle_beta 63.729048
_cell_angle_gamma 90.000000
_cell_volume 1320.467732
_symmetry_space_group_name_H-M "C C"
_symmetry_group_IT_number 9
_symmetry_cell_setting 'monoclinic'
loop_
_space_group_symop_operation_xyz
x,y,z
x,-y,1/2+z
1/2+x,1/2+y,z
1/2+x,1/2-y,1/2+z
loop_
_atom_site_type_symbol
_atom_site_label
_atom_site_fract_x
_atom_site_fract_y
_atom_site_fract_z
Si Si1 0.429170 0.899792 0.915450
Si Si2 0.176497 0.774416 0.294853
Si Si3 0.923923 0.257065 0.262155
Si Si4 0.676049 0.287357 0.798308
Si Si5 0.582695 0.098042 0.145495
Si Si6 0.268638 0.401314 0.952220
Si Si7 0.777403 0.307212 0.945321
Si Si8 0.076181 0.184584 0.142678
O O1 0.502118 0.839671 0.760118
O O2 0.358742 0.846170 0.897522
O O3 0.429703 0.102751 0.887871
O O4 0.426969 0.841520 0.091517
O O5 0.127082 0.654868 0.244022
O O6 0.227600 0.667304 0.350030
O O7 0.123503 0.876266 0.456417
O O8 0.228538 0.873123 0.130209
O O9 0.849117 0.165121 0.360108
O O10 0.993714 0.140071 0.210019
O O11 0.725229 0.173007 0.636821
O O12 0.737358 0.370828 0.839655
O O13 0.618133 0.368887 0.745863
O O14 0.624530 0.181274 0.964494
O O15 0.579207 0.893248 0.133422
O O16 0.270074 0.603635 0.952383
#
# Coordination Sequence:
#
# PCOD9133867 Si02
#       8
#     4   4   4   4   4   4   4   4
#     4  11  25  40  60  88 125 164 198 245 301 360
#     4  10  17  34  57  88 117 148 199 256 297 336
#     4  11  25  40  60  88 125 164 198 245 301 360
#     4  10  21  32  59  94 115 148 199 258 301 338
#     4  10  18  32  56  85 118 149 197 252 296 342
#     4  11  21  37  62  89 120 155 198 248 301 355
#     4  11  21  37  62  89 120 155 198 248 301 355
#     4  10  18  32  56  85 118 149 197 252 296 342
#
# _framework density 24.233839
#
# number of rings (size 3 to 8) (size 9 to 14) (size 15 to 20)
#    0.000    1.500    2.500    6.000    7.000    0.000 
#    0.000    0.000    0.000    9.000    0.000    0.000 
#    0.000    0.000    0.000    0.000    0.000    0.000 
#
# Total GULP energy -89554.731427 kJ/mol
# GULP energy per Si atom -5597.170714 kJ/mol
# Density = 2.417868 g / cm^3
# Si number density = 24.233839 Si / 1000 Ang^3
#
#
#
# Elastic Constant Matrix: (Units=GPa)
#
#
# Indices 1 2 3 4 5 6 
#
# 1 235.9403 33.3702 109.0770 0.0000 -35.2626 0.0000
# 2 33.3702 45.2989 32.6844 0.0000 4.3722 0.0000
# 3 109.0770 32.6844 154.2720 0.0000 9.7103 0.0000
# 4 0.0000 0.0000 0.0000 32.3544 0.0000 -0.6173
# 5 -35.2626 4.3722 9.7103 0.0000 53.6328 0.0000
# 6 0.0000 0.0000 0.0000 -0.6173 0.0000 41.4348
#
#
#
# Elastic Compliance Matrix: (Units=1/GPa)
#
#
# Indices 1 2 3 4 5 6 
#
# 1 0.008229 -0.002602 -0.005686 0.000000 0.006652 0.000000
# 2 -0.002602 0.026950 -0.003666 0.000000 -0.003244 0.000000
# 3 -0.005686 -0.003666 0.011628 0.000000 -0.005545 0.000000
# 4 0.000000 0.000000 0.000000 0.030916 0.000000 0.000461
# 5 0.006652 -0.003244 -0.005545 0.000000 0.024287 0.000000
# 6 0.000000 0.000000 0.000000 0.000461 0.000000 0.024141
#
#
# Mechanical properties :
#
#
# Convention : Reuss Voigt Hill
#
# Bulk Modulus (GPa) = 43.66766 87.30825 65.48796
# Shear Modulus (GPa) = 31.70718 42.84305 37.27511
#
# Velocity S-wave (km/s) = 3.62108 4.20920 3.92617
# Velocity P-wave (km/s) = 5.96166 7.72844 6.90182
#
# Compressibility (1/GPa) = 0.02290024
#
# Stress axis : x y z
#
# Youngs Moduli (GPa) = 121.51975 37.10509 86.00004
#
# Poissons Ratio (x) = 0.09654 0.48898
# Poissons Ratio (y) = 0.31616 0.31529
# Poissons Ratio (z) = 0.69094 0.13603
#
# Static dielectric constant tensor:
#      x y z
#    x 1.902900 0.000000 -0.017040 
#    y 0.000000 2.003850 0.000000 
#    z -0.017040 0.000000 1.929650 
# 
# From -- ./inp_files/10625.got.cif
#   From: 2010.05.17/outbox.cif.g08.bks.cpg/sg9_6_cif.got.tgz:10625.got - 2010.06.03 20:04:27.
