data_PCOD9133472
_publ_section_title
;
Structure prediction by ZEFSAII (Michael W. Deem and Ramdas Pophale) SiO2 
 PCOD9133472
Probable space group: C M
;
_chemical_formula_sum "Si O2"
_cell_formula_units_Z 24
_cell_length_a 11.228665
_cell_length_b 18.648346
_cell_length_c 13.493135
_cell_angle_alpha 90.000000
_cell_angle_beta 158.740760
_cell_angle_gamma 90.000000
_cell_volume 1024.460315
_symmetry_space_group_name_H-M "C M"
_symmetry_group_IT_number 8
_symmetry_cell_setting 'monoclinic'
loop_
_space_group_symop_operation_xyz
x,y,z
x,-y,z
1/2+x,1/2+y,z
1/2+x,1/2-y,z
loop_
_atom_site_type_symbol
_atom_site_label
_atom_site_fract_x
_atom_site_fract_y
_atom_site_fract_z
Si Si1 0.477850 0.000000 0.600160
Si Si2 0.744373 0.000000 0.007399
Si Si3 0.768655 0.295727 0.618034
Si Si4 0.407310 0.841911 0.337166
Si Si5 0.098845 0.375051 0.045556
Si Si6 0.119079 0.500000 0.432122
Si Si7 0.675758 0.843814 0.748037
Si Si8 0.381551 0.000000 0.026041
O O1 0.684023 0.929576 0.742949
O O2 0.453991 0.000000 0.701545
O O3 0.128464 0.000000 0.274727
O O4 0.705556 0.069409 0.043549
O O5 0.696268 0.212991 0.532312
O O6 0.871401 0.318934 0.809068
O O7 0.037802 0.322763 0.747736
O O8 0.423011 0.335455 0.333732
O O9 0.412026 0.825857 0.459039
O O10 0.477077 0.924280 0.362555
O O11 0.049175 0.821231 0.020656
O O12 0.953326 0.427781 0.017310
O O13 0.499971 0.500000 0.756230
O O14 0.083094 0.500000 0.284673
#
# Coordination Sequence:
#
# PCOD9133472 Si02
#       8
#     2   2   4   4   4   2   4   2
#     4  12  20  36  70  99 134 175 212 288 334 410
#     4  11  18  35  62 103 138 163 213 278 347 392
#     4  12  25  44  70 101 149 175 232 299 351 414
#     4  12  28  46  70  99 139 188 241 283 347 434
#     4  11  22  42  67 112 137 178 226 288 352 419
#     4  12  26  52  67 102 137 196 240 288 342 432
#     4  12  24  44  69 103 135 187 229 288 360 407
#     4  11  26  43  79  98 145 188 233 288 355 422
#
# _framework density 23.426970000000001
#
# number of rings (size 3 to 8) (size 9 to 14) (size 15 to 20)
#    0.000    0.333    3.333    6.000    0.000    6.667 
#    0.000    0.000    0.000    0.000    0.000    0.000 
#    0.000    0.000    0.000    0.000    0.000    0.000 
#
# Total GULP energy -67036.063451 kJ/mol
# GULP energy per Si atom -5586.338621 kJ/mol
# Density = 2.337365 g / cm^3
# Si number density = 23.426970 Si / 1000 Ang^3
#
#
#
# Elastic Constant Matrix: (Units=GPa)
#
#
# Indices 1 2 3 4 5 6 
#
# 1 68.1868 29.2489 -1.3875 -0.0059 -10.3186 -0.0022
# 2 29.2489 148.6123 43.1854 -0.0020 0.1086 -0.0018
# 3 -1.3875 43.1854 80.9504 -0.0220 0.7166 0.0022
# 4 -0.0059 -0.0020 -0.0220 19.7512 0.0017 -14.6429
# 5 -10.3186 0.1086 0.7166 0.0017 32.4757 -0.0026
# 6 -0.0022 -0.0018 0.0022 -14.6429 -0.0026 15.6250
#
#
#
# Elastic Compliance Matrix: (Units=1/GPa)
#
#
# Indices 1 2 3 4 5 6 
#
# 1 0.017310 -0.004122 0.002447 0.000029 0.005460 0.000030
# 2 -0.004122 0.008945 -0.004832 -0.000016 -0.001233 -0.000014
# 3 0.002447 -0.004832 0.014969 0.000050 0.000463 0.000044
# 4 0.000029 -0.000016 0.000050 0.165872 0.000012 0.155446
# 5 0.005460 -0.001233 0.000463 0.000012 0.032521 0.000017
# 6 0.000030 -0.000014 0.000044 0.155446 0.000017 0.209676
#
#
# Mechanical properties :
#
#
# Convention : Reuss Voigt Hill
#
# Bulk Modulus (GPa) = 35.44739 48.87147 42.15943
# Shear Modulus (GPa) = 10.59975 28.68388 19.64182
#
# Velocity S-wave (km/s) = 2.12942 3.50293 2.89870
# Velocity P-wave (km/s) = 4.60540 6.10469 5.40726
#
# Compressibility (1/GPa) = 0.02821082
#
# Stress axis : x y z
#
# Youngs Moduli (GPa) = 57.77100 111.79242 66.80576
#
# Poissons Ratio (x) = 0.46080 -0.16350
# Poissons Ratio (y) = 0.23813 0.32279
# Poissons Ratio (z) = -0.14138 0.54016
#
# Static dielectric constant tensor:
#      x y z
#    x 1.944730 -0.000010 -0.035620 
#    y -0.000010 1.987280 -0.000030 
#    z -0.035620 -0.000030 1.825700 
# 
# From -- ./inp_files/4207.got.cif
#   From: 2010.05.17/outbox.cif.g08.bks.cpg/sg8_3_cif.got.tgz:4207.got - 2010.06.03 19:46:02.
