data_PCOD9133791
_publ_section_title
;
Structure prediction by ZEFSAII (Michael W. Deem and Ramdas Pophale) SiO2 
 PCOD9133791
Probable space group: C C
;
_chemical_formula_sum "Si O2"
_cell_formula_units_Z 32
_cell_length_a 7.600516
_cell_length_b 15.973636
_cell_length_c 10.753978
_cell_angle_alpha 90.000000
_cell_angle_beta 96.174855
_cell_angle_gamma 90.000000
_cell_volume 1298.042780
_symmetry_space_group_name_H-M "C C"
_symmetry_group_IT_number 9
_symmetry_cell_setting 'monoclinic'
loop_
_space_group_symop_operation_xyz
x,y,z
x,-y,1/2+z
1/2+x,1/2+y,z
1/2+x,1/2-y,1/2+z
loop_
_atom_site_type_symbol
_atom_site_label
_atom_site_fract_x
_atom_site_fract_y
_atom_site_fract_z
Si Si1 0.850860 0.387391 0.096410
Si Si2 0.401090 0.073185 0.091432
Si Si3 0.834991 0.997628 0.316420
Si Si4 0.542857 0.140573 0.346708
Si Si5 0.765844 0.278529 0.473349
Si Si6 0.322648 0.576635 0.070835
Si Si7 0.177713 0.746487 0.982593
Si Si8 0.688395 0.817536 0.222963
O O1 0.830577 0.483229 0.124802
O O2 0.981765 0.342712 0.201756
O O3 0.940997 0.378669 0.966426
O O4 0.682643 0.330704 0.062004
O O5 0.430070 0.130808 0.213845
O O6 0.258372 0.121808 0.995553
O O7 0.605767 0.057825 0.058214
O O8 0.901939 0.969641 0.456928
O O9 0.776579 0.908379 0.252874
O O10 0.683187 0.064853 0.340608
O O11 0.916399 0.046799 0.204409
O O12 0.644987 0.229276 0.365999
O O13 0.730735 0.225799 0.596377
O O14 0.973386 0.274924 0.463209
O O15 0.307908 0.677019 0.053724
O O16 0.231504 0.741783 0.842292
#
# Coordination Sequence:
#
# PCOD9133791 Si02
#       8
#     4   4   4   4   4   4   4   4
#     4  11  20  38  64  89 119 165 212 256 303 378
#     4  10  19  35  63  91 114 162 214 252 298 378
#     4  10  16  33  59  89 108 152 216 252 281 362
#     4  10  19  35  65  88 117 163 214 252 299 378
#     4  10  22  38  60  92 130 156 204 264 322 365
#     4   9  17  31  54  89 115 149 203 254 291 362
#     4  10  23  36  59  95 133 156 201 269 328 356
#     4  10  20  38  64  89 120 167 214 257 300 383
#
# _framework density 24.652498999999999
#
# number of rings (size 3 to 8) (size 9 to 14) (size 15 to 20)
#    0.000    2.000    3.750    1.500    0.000    3.000 
#    0.000    0.000   24.750    0.000    0.000    0.000 
#    0.000    0.000    0.000    0.000    0.000    0.000 
#
# Total GULP energy -89264.671890 kJ/mol
# GULP energy per Si atom -5579.041993 kJ/mol
# Density = 2.459639 g / cm^3
# Si number density = 24.652499 Si / 1000 Ang^3
#
#
#
# Elastic Constant Matrix: (Units=GPa)
#
#
# Indices 1 2 3 4 5 6 
#
# 1 34.7948 25.3326 21.7384 0.0000 1.4538 0.0000
# 2 25.3326 115.2084 48.3802 0.0000 23.3413 0.0000
# 3 21.7384 48.3802 104.9373 0.0000 0.0805 0.0000
# 4 0.0000 0.0000 0.0000 27.5768 0.0000 5.1332
# 5 1.4538 23.3413 0.0805 0.0000 12.0272 0.0000
# 6 0.0000 0.0000 0.0000 5.1332 0.0000 25.1262
#
#
#
# Elastic Compliance Matrix: (Units=1/GPa)
#
#
# Indices 1 2 3 4 5 6 
#
# 1 0.037266 -0.009776 -0.003224 0.000000 0.014489 0.000000
# 2 -0.009776 0.023508 -0.008779 0.000000 -0.044381 0.000000
# 3 -0.003224 -0.008779 0.014231 0.000000 0.017331 0.000000
# 4 0.000000 0.000000 0.000000 0.037696 0.000000 -0.007701
# 5 0.014489 -0.044381 0.017331 0.000000 0.167408 0.000000
# 6 0.000000 0.000000 0.000000 -0.007701 0.000000 0.041372
#
#
# Mechanical properties :
#
#
# Convention : Reuss Voigt Hill
#
# Bulk Modulus (GPa) = 31.79855 49.53809 40.66832
# Shear Modulus (GPa) = 13.31483 23.57866 18.44674
#
# Velocity S-wave (km/s) = 2.32653 3.09599 2.73842
# Velocity P-wave (km/s) = 4.48817 5.73746 5.15083
#
# Compressibility (1/GPa) = 0.03144798
#
# Stress axis : x y z
#
# Youngs Moduli (GPa) = 26.83398 42.53940 70.26716
#
# Poissons Ratio (x) = 0.41586 0.22654
# Poissons Ratio (y) = 0.26233 0.61686
# Poissons Ratio (z) = 0.08651 0.37344
#
# Static dielectric constant tensor:
#      x y z
#    x 1.992290 0.000000 -0.028940 
#    y 0.000000 1.996450 0.000000 
#    z -0.028940 0.000000 1.988360 
# 
# From -- ./inp_files/14770.got.cif
#   From: 2010.05.17/outbox.cif.g08.bks.cpg/sg9_8_cif.got.tgz:14770.got - 2010.06.03 20:04:27.
