data_PCOD9133429
_publ_section_title
;
Structure prediction by ZEFSAII (Michael W. Deem and Ramdas Pophale) SiO2 
 PCOD9133429
Probable space group: C M
;
_chemical_formula_sum "Si O2"
_cell_formula_units_Z 32
_cell_length_a 7.041954
_cell_length_b 15.672017
_cell_length_c 19.992565
_cell_angle_alpha 90.000000
_cell_angle_beta 40.254441
_cell_angle_gamma 90.000000
_cell_volume 1425.746172
_symmetry_space_group_name_H-M "C M"
_symmetry_group_IT_number 8
_symmetry_cell_setting 'monoclinic'
loop_
_space_group_symop_operation_xyz
x,y,z
x,-y,z
1/2+x,1/2+y,z
1/2+x,1/2-y,z
loop_
_atom_site_type_symbol
_atom_site_label
_atom_site_fract_x
_atom_site_fract_y
_atom_site_fract_z
Si Si1 0.813620 0.407628 0.443480
Si Si2 0.393659 0.673172 0.308688
Si Si3 0.756732 0.246444 0.769784
Si Si4 0.199610 0.396748 0.677494
Si Si5 0.164244 0.258787 0.927719
Si Si6 0.859979 0.363266 0.281837
Si Si7 0.396080 0.590422 0.055173
Si Si8 0.766863 0.594200 0.091371
O O1 0.900759 0.500000 0.448522
O O2 0.480118 0.391447 0.553281
O O3 0.851971 0.410396 0.353612
O O4 0.046077 0.338146 0.405202
O O5 0.537575 0.646763 0.339092
O O6 0.479914 0.769266 0.267018
O O7 0.543258 0.617255 0.210694
O O8 0.802600 0.157557 0.716173
O O9 0.473270 0.236934 0.898614
O O10 0.946963 0.223898 0.798406
O O11 0.936427 0.337164 0.717890
O O12 0.137563 0.500000 0.704564
O O13 0.014260 0.167955 0.982041
O O14 0.008669 0.334439 0.010679
O O15 0.061259 0.399729 0.168881
O O16 0.452130 0.500000 0.006521
O O17 0.568687 0.591549 0.078575
O O18 0.894099 0.500000 0.067561
#
# Coordination Sequence:
#
# PCOD9133429 Si02
#       8
#     4   4   4   4   4   4   4   4
#     4  11  25  46  70 102 139 177 229 290 351 421
#     4  12  24  40  66 100 137 188 227 279 336 422
#     4  10  24  43  72  94 134 174 228 301 353 413
#     4  10  25  49  74 102 135 178 234 299 366 424
#     4  11  22  41  63  98 127 172 230 276 342 416
#     4  12  24  40  67  99 140 185 231 276 338 417
#     4  11  23  40  63  93 139 187 225 275 343 415
#     4  11  23  39  60  92 137 179 221 274 338 414
#
# _framework density 22.444389000000001
#
# number of rings (size 3 to 8) (size 9 to 14) (size 15 to 20)
#    0.000    1.000    5.000    0.750    3.500    5.000 
#    2.250    1.875    0.000    0.000    0.000    0.000 
#    0.000    0.000    0.000    0.000    0.000    0.000 
#
# Total GULP energy -89159.867607 kJ/mol
# GULP energy per Si atom -5572.491725 kJ/mol
# Density = 2.239330 g / cm^3
# Si number density = 22.444389 Si / 1000 Ang^3
#
#
#
# Elastic Constant Matrix: (Units=GPa)
#
#
# Indices 1 2 3 4 5 6 
#
# 1 115.2442 25.9466 22.4951 -0.0331 -13.4601 0.0145
# 2 25.9466 181.0691 62.4476 -0.0129 -12.1730 -0.0044
# 3 22.4951 62.4476 96.5166 0.0346 -15.4254 -0.0322
# 4 -0.0331 -0.0129 0.0346 62.1073 -0.0378 -20.5854
# 5 -13.4601 -12.1730 -15.4254 -0.0378 26.9625 0.0241
# 6 0.0145 -0.0044 -0.0322 -20.5854 0.0241 40.9568
#
#
#
# Elastic Compliance Matrix: (Units=1/GPa)
#
#
# Indices 1 2 3 4 5 6 
#
# 1 0.009502 -0.000711 -0.001153 0.000007 0.003763 -0.000003
# 2 -0.000711 0.007172 -0.004418 0.000003 0.000356 -0.000001
# 3 -0.001153 -0.004418 0.014393 -0.000004 0.005664 0.000006
# 4 0.000007 0.000003 -0.000004 0.019320 0.000021 0.009710
# 5 0.003763 0.000356 0.005664 0.000021 0.042368 -0.000011
# 6 -0.000003 -0.000001 0.000006 0.009710 -0.000011 0.029297
#
#
# Mechanical properties :
#
#
# Convention : Reuss Voigt Hill
#
# Bulk Modulus (GPa) = 54.04461 68.28982 61.16721
# Shear Modulus (GPa) = 35.51543 44.80137 40.15840
#
# Velocity S-wave (km/s) = 3.98222 4.47263 4.23453
# Velocity P-wave (km/s) = 6.72873 7.56074 7.15683
#
# Compressibility (1/GPa) = 0.01850323
#
# Stress axis : x y z
#
# Youngs Moduli (GPa) = 105.24253 139.42678 69.47591
#
# Poissons Ratio (x) = 0.09911 0.08013
# Poissons Ratio (y) = 0.07481 0.30694
# Poissons Ratio (z) = 0.12138 0.61599
#
# Static dielectric constant tensor:
#      x y z
#    x 2.489650 0.000010 -0.045880 
#    y 0.000010 1.790520 0.000010 
#    z -0.045880 0.000010 1.776920 
# 
# From -- ./inp_files/30383.got.cif
#   From: 2010.05.17/outbox.cif.g08.bks.cpg/sg8_16_cif.got.tgz:30383.got - 2010.06.03 19:46:02.
