data_PCOD9133347
_publ_section_title
;
Structure prediction by ZEFSAII (Michael W. Deem and Ramdas Pophale) SiO2 
 PCOD9133347
Probable space group: C M
;
_chemical_formula_sum "Si O2"
_cell_formula_units_Z 24
_cell_length_a 8.049205
_cell_length_b 21.293732
_cell_length_c 9.073382
_cell_angle_alpha 90.000000
_cell_angle_beta 51.947393
_cell_angle_gamma 90.000000
_cell_volume 1224.600059
_symmetry_space_group_name_H-M "C M"
_symmetry_group_IT_number 8
_symmetry_cell_setting 'monoclinic'
loop_
_space_group_symop_operation_xyz
x,y,z
x,-y,z
1/2+x,1/2+y,z
1/2+x,1/2-y,z
loop_
_atom_site_type_symbol
_atom_site_label
_atom_site_fract_x
_atom_site_fract_y
_atom_site_fract_z
Si Si1 0.785640 0.319058 0.460940
Si Si2 0.194596 0.574881 0.871590
Si Si3 0.032740 0.151314 0.884016
Si Si4 0.223775 0.874793 0.074593
Si Si5 0.533437 0.428169 0.447752
Si Si6 0.220017 0.738267 0.222088
O O1 0.680002 0.318260 0.678177
O O2 0.700227 0.382158 0.433396
O O3 0.722034 0.261506 0.389587
O O4 0.034902 0.312547 0.319193
O O5 0.182875 0.500000 0.907942
O O6 0.353233 0.609326 0.900265
O O7 0.311085 0.583863 0.649468
O O8 0.960179 0.603484 0.989359
O O9 0.174355 0.116601 0.929340
O O10 0.917965 0.205087 0.040408
O O11 0.054453 0.913269 0.264350
O O12 0.194640 0.802728 0.143820
O O13 0.588789 0.500000 0.445738
#
# Coordination Sequence:
#
# PCOD9133347 Si02
#       6
#     4   4   4   4   4   4
#     4  10  23  38  62  91 125 168 203 260 314 373
#     4  10  23  43  66  93 128 167 210 261 318 370
#     4  11  24  40  64  95 126 167 213 258 311 378
#     4  11  23  38  65  93 124 168 213 256 313 374
#     4   9  20  41  64  90 126 164 207 262 317 372
#     4  11  22  40  57  92 130 164 210 253 313 377
#
# _framework density 19.598237000000001
#
# number of rings (size 3 to 8) (size 9 to 14) (size 15 to 20)
#    0.000    1.667    1.667    2.500    2.333    5.333 
#    0.000    0.000    0.000    4.000    0.000    0.000 
#    0.000    0.000    0.000    0.000    0.000    0.000 
#
# Total GULP energy -66901.129153 kJ/mol
# GULP energy per Si atom -5575.094096 kJ/mol
# Density = 1.955363 g / cm^3
# Si number density = 19.598237 Si / 1000 Ang^3
#
#
#
# Elastic Constant Matrix: (Units=GPa)
#
#
# Indices 1 2 3 4 5 6 
#
# 1 69.7241 9.9333 55.0001 0.0000 12.5408 0.0000
# 2 9.9333 66.2974 43.6600 0.0000 -10.1743 0.0000
# 3 55.0001 43.6600 134.7450 0.0000 -0.3881 0.0000
# 4 0.0000 0.0000 0.0000 262.4366 0.0000 175.6326
# 5 12.5408 -10.1743 -0.3881 0.0000 21.7501 0.0000
# 6 0.0000 0.0000 0.0000 175.6326 0.0000 159.2588
#
#
#
# Elastic Compliance Matrix: (Units=1/GPa)
#
#
# Indices 1 2 3 4 5 6 
#
# 1 0.025143 0.001069 -0.010650 0.000000 -0.014187 0.000000
# 2 0.001069 0.021095 -0.007245 0.000000 0.009122 0.000000
# 3 -0.010650 -0.007245 0.014125 0.000000 0.003003 0.000000
# 4 0.000000 0.000000 0.000000 0.014546 0.000000 -0.016042
# 5 -0.014187 0.009122 0.003003 0.000000 0.058477 0.000000
# 6 0.000000 0.000000 0.000000 -0.016042 0.000000 0.023970
#
#
# Mechanical properties :
#
#
# Convention : Reuss Voigt Hill
#
# Bulk Modulus (GPa) = 37.43915 54.21703 45.82809
# Shear Modulus (GPa) = 25.01116 99.50063 62.25590
#
# Velocity S-wave (km/s) = 3.57626 7.13305 5.64225
# Velocity P-wave (km/s) = 6.01645 9.77573 8.11673
#
# Compressibility (1/GPa) = 0.02671001
#
# Stress axis : x y z
#
# Youngs Moduli (GPa) = 39.77321 47.40557 70.79756
#
# Poissons Ratio (x) = -0.05069 0.75399
# Poissons Ratio (y) = -0.04253 0.51295
# Poissons Ratio (z) = 0.42358 0.34346
#
# Static dielectric constant tensor:
#      x y z
#    x 1.755990 0.000000 0.028810 
#    y 0.000000 1.634260 0.000000 
#    z 0.028810 0.000000 1.700440 
# 
# From -- ./inp_files/1618.got.cif
#   From: 2010.05.17/outbox.cif.g08.bks.cpg/sg8_1_cif.got.tgz:1618.got - 2010.06.03 19:46:02.
