data_PCOD9133942
_publ_section_title
;
Structure prediction by ZEFSAII (Michael W. Deem and Ramdas Pophale) SiO2 
 PCOD9133942
Probable space group: C C
;
_chemical_formula_sum "Si O2"
_cell_formula_units_Z 28
_cell_length_a 15.932593
_cell_length_b 14.506607
_cell_length_c 5.207457
_cell_angle_alpha 90.000000
_cell_angle_beta 60.705342
_cell_angle_gamma 90.000000
_cell_volume 1049.667390
_symmetry_space_group_name_H-M "C C"
_symmetry_group_IT_number 9
_symmetry_cell_setting 'monoclinic'
loop_
_space_group_symop_operation_xyz
x,y,z
x,-y,1/2+z
1/2+x,1/2+y,z
1/2+x,1/2-y,1/2+z
loop_
_atom_site_type_symbol
_atom_site_label
_atom_site_fract_x
_atom_site_fract_y
_atom_site_fract_z
Si Si1 0.720410 0.690913 0.466490
Si Si2 0.449540 0.734597 0.291363
Si Si3 0.408931 0.150670 0.342179
Si Si4 0.170925 0.274024 0.040095
Si Si5 0.076392 0.047674 0.560336
Si Si6 0.602072 0.050172 0.954470
Si Si7 0.365227 0.531473 0.356240
O O1 0.798950 0.620401 0.462500
O O2 0.735230 0.717903 0.148106
O O3 0.615710 0.643455 0.602544
O O4 0.716412 0.770463 0.688805
O O5 0.414007 0.766901 0.624519
O O6 0.564762 0.731357 0.159625
O O7 0.401918 0.635931 0.297819
O O8 0.431249 0.807460 0.088316
O O9 0.488599 0.079167 0.128481
O O10 0.154364 0.366995 0.225638
O O11 0.110764 0.024601 0.224177
O O12 0.961277 0.034107 0.722334
O O13 0.616781 0.966274 0.734635
O O14 0.309890 0.503065 0.692436
#
# Coordination Sequence:
#
# PCOD9133942 Si02
#       7
#     4   4   4   4   4   4   4
#     4  12  23  40  62  95 130 161 207 257 321 383
#     4  11  21  40  61  88 125 167 216 247 298 387
#     4  11  25  40  63  91 128 169 199 258 326 381
#     4  11  22  39  67  90 118 167 217 265 302 364
#     4  10  20  32  52  87 123 153 186 237 302 359
#     4  11  23  42  66  94 123 164 218 266 318 376
#     4  10  18  31  55  85 115 149 193 246 289 342
#
# _framework density 26.675115999999999
#
# number of rings (size 3 to 8) (size 9 to 14) (size 15 to 20)
#    0.000    1.143    0.000   10.286    0.000    1.143 
#    0.000    0.000    0.000   17.143    0.000    0.000 
#    0.000    0.000    0.000    0.000    0.000    0.000 
#
# Total GULP energy -78321.936107 kJ/mol
# GULP energy per Si atom -5594.424008 kJ/mol
# Density = 2.661440 g / cm^3
# Si number density = 26.675116 Si / 1000 Ang^3
#
#
#
# Elastic Constant Matrix: (Units=GPa)
#
#
# Indices 1 2 3 4 5 6 
#
# 1 138.9022 13.0016 45.6749 0.0000 22.8615 0.0000
# 2 13.0016 58.9850 23.7470 0.0000 13.1383 0.0000
# 3 45.6749 23.7470 145.9377 0.0000 41.6466 0.0000
# 4 0.0000 0.0000 0.0000 39.3067 0.0000 10.6564
# 5 22.8615 13.1383 41.6466 0.0000 59.5616 0.0000
# 6 0.0000 0.0000 0.0000 10.6564 0.0000 37.9025
#
#
#
# Elastic Compliance Matrix: (Units=1/GPa)
#
#
# Indices 1 2 3 4 5 6 
#
# 1 0.008180 -0.000642 -0.001999 0.000000 -0.001600 0.000000
# 2 -0.000642 0.018476 -0.002140 0.000000 -0.002333 0.000000
# 3 -0.001999 -0.002140 0.009335 0.000000 -0.005288 0.000000
# 4 0.000000 0.000000 0.000000 0.027540 0.000000 -0.007743
# 5 -0.001600 -0.002333 -0.005288 0.000000 0.021616 0.000000
# 6 0.000000 0.000000 0.000000 -0.007743 0.000000 0.028560
#
#
# Mechanical properties :
#
#
# Convention : Reuss Voigt Hill
#
# Bulk Modulus (GPa) = 37.83567 56.51908 47.17738
# Shear Modulus (GPa) = 37.85614 44.78091 41.31852
#
# Velocity S-wave (km/s) = 3.77126 4.10170 3.93994
# Velocity P-wave (km/s) = 5.76002 6.60802 6.19854
#
# Compressibility (1/GPa) = 0.02643009
#
# Stress axis : x y z
#
# Youngs Moduli (GPa) = 122.24740 54.12412 107.12234
#
# Poissons Ratio (x) = 0.03474 0.21414
# Poissons Ratio (y) = 0.07846 0.22922
# Poissons Ratio (z) = 0.24437 0.11581
#
# Static dielectric constant tensor:
#      x y z
#    x 2.124140 0.000000 -0.071180 
#    y 0.000000 2.098810 0.000000 
#    z -0.071180 0.000000 2.193970 
# 
# From -- ./inp_files/2418.got.cif
#   From: 2010.05.17/outbox.cif.g08.bks.cpg/sg9_2_cif.got.tgz:2418.got - 2010.06.03 20:04:27.
