data_PCOD9133343
_publ_section_title
;
Structure prediction by ZEFSAII (Michael W. Deem and Ramdas Pophale) SiO2 
 PCOD9133343
Probable space group: C M
;
_chemical_formula_sum "Si O2"
_cell_formula_units_Z 12
_cell_length_a 10.648240
_cell_length_b 9.665652
_cell_length_c 6.851820
_cell_angle_alpha 90.000000
_cell_angle_beta 136.975542
_cell_angle_gamma 90.000000
_cell_volume 481.168271
_symmetry_space_group_name_H-M "C M"
_symmetry_group_IT_number 8
_symmetry_cell_setting 'monoclinic'
loop_
_space_group_symop_operation_xyz
x,y,z
x,-y,z
1/2+x,1/2+y,z
1/2+x,1/2-y,z
loop_
_atom_site_type_symbol
_atom_site_label
_atom_site_fract_x
_atom_site_fract_y
_atom_site_fract_z
Si Si1 0.373220 0.000000 0.816460
Si Si2 0.944930 0.000000 0.225226
Si Si3 0.094836 0.000000 0.971656
Si Si4 0.119115 0.301166 0.848957
Si Si5 0.497914 0.000000 0.405843
O O1 0.153114 0.000000 0.540884
O O2 0.468655 0.130338 0.820271
O O3 0.300921 0.000000 0.287877
O O4 0.966254 0.000000 0.013422
O O5 0.817348 0.133075 0.135190
O O6 0.450864 0.000000 0.126092
O O7 0.088943 0.860151 0.840835
O O8 0.093705 0.364367 0.603719
#
# Coordination Sequence:
#
# PCOD9133343 Si02
#       5
#     2   2   2   4   2
#     4  10  22  54  84 113 161 201 262 317 382 468
#     4  10  23  54  84 111 158 207 255 318 391 449
#     4  12  25  50  83 114 156 200 262 322 378 465
#     4  10  26  52  78 123 150 207 261 312 392 457
#     4  10  24  52  77 112 159 198 257 313 383 456
#
# _framework density 24.939302999999999
#
# number of rings (size 3 to 8) (size 9 to 14) (size 15 to 20)
#    0.000    2.000    3.333    0.000    4.667    2.667 
#   30.000    1.667    0.000    0.000    0.000    0.000 
#    0.000    0.000    0.000    0.000    0.000    0.000 
#
# Total GULP energy -33539.909174 kJ/mol
# GULP energy per Si atom -5589.984862 kJ/mol
# Density = 2.488254 g / cm^3
# Si number density = 24.939303 Si / 1000 Ang^3
#
#
#
# Elastic Constant Matrix: (Units=GPa)
#
#
# Indices 1 2 3 4 5 6 
#
# 1 142.3175 82.0717 88.5596 0.0000 3.6742 0.0000
# 2 82.0717 257.6114 87.9619 0.0000 -9.3297 0.0000
# 3 88.5596 87.9619 195.7895 0.0000 -0.5295 0.0000
# 4 0.0000 0.0000 0.0000 25.4439 0.0000 -5.6124
# 5 3.6742 -9.3297 -0.5295 0.0000 60.6925 0.0000
# 6 0.0000 0.0000 0.0000 -5.6124 0.0000 14.4192
#
#
#
# Elastic Compliance Matrix: (Units=1/GPa)
#
#
# Indices 1 2 3 4 5 6 
#
# 1 0.010692 -0.002115 -0.003889 0.000000 -0.001006 0.000000
# 2 -0.002115 0.005032 -0.001302 0.000000 0.000890 0.000000
# 3 -0.003889 -0.001302 0.007452 0.000000 0.000100 0.000000
# 4 0.000000 0.000000 0.000000 0.042993 0.000000 0.016734
# 5 -0.001006 0.000890 0.000100 0.000000 0.016675 0.000000
# 6 0.000000 0.000000 0.000000 0.016734 0.000000 0.075865
#
#
# Mechanical properties :
#
#
# Convention : Reuss Voigt Hill
#
# Bulk Modulus (GPa) = 116.75529 123.65609 120.20569
# Shear Modulus (GPa) = 28.38072 42.58614 35.48343
#
# Velocity S-wave (km/s) = 3.37707 4.13678 3.77608
# Velocity P-wave (km/s) = 7.88185 8.51515 8.20461
#
# Compressibility (1/GPa) = 0.00856492
#
# Stress axis : x y z
#
# Youngs Moduli (GPa) = 93.52758 198.71348 134.19883
#
# Poissons Ratio (x) = 0.42027 0.52187
# Poissons Ratio (y) = 0.19781 0.17470
# Poissons Ratio (z) = 0.36371 0.25869
#
# Static dielectric constant tensor:
#      x y z
#    x 1.967850 0.000000 -0.031190 
#    y 0.000000 2.034160 0.000000 
#    z -0.031190 0.000000 2.048900 
# 
# From -- ./inp_files/9421.got.cif
#   From: 2010.05.17/outbox.cif.g08.bks.cpg/sg8_5_cif.got.tgz:9421.got - 2010.06.03 19:46:02.
