data_PCOD9133381
_publ_section_title
;
Structure prediction by ZEFSAII (Michael W. Deem and Ramdas Pophale) SiO2 
 PCOD9133381
Probable space group: C M
;
_chemical_formula_sum "Si O2"
_cell_formula_units_Z 28
_cell_length_a 12.967894
_cell_length_b 21.036636
_cell_length_c 5.088545
_cell_angle_alpha 90.000000
_cell_angle_beta 71.556455
_cell_angle_gamma 90.000000
_cell_volume 1316.857840
_symmetry_space_group_name_H-M "C M"
_symmetry_group_IT_number 8
_symmetry_cell_setting 'monoclinic'
loop_
_space_group_symop_operation_xyz
x,y,z
x,-y,z
1/2+x,1/2+y,z
1/2+x,1/2-y,z
loop_
_atom_site_type_symbol
_atom_site_label
_atom_site_fract_x
_atom_site_fract_y
_atom_site_fract_z
Si Si1 0.421560 0.426787 0.980980
Si Si2 0.127725 0.707180 0.921343
Si Si3 0.666048 0.429132 0.875232
Si Si4 0.410094 0.780697 0.356460
Si Si5 0.707393 0.642064 0.324609
Si Si6 0.008229 0.199384 0.677465
Si Si7 0.267493 0.667756 0.307690
O O1 0.409173 0.500000 0.893135
O O2 0.536647 0.426716 0.043248
O O3 0.441967 0.365916 0.770618
O O4 0.316287 0.402540 0.224756
O O5 0.185331 0.675418 0.619822
O O6 0.088261 0.776200 0.844851
O O7 0.210715 0.695623 0.092397
O O8 0.012329 0.685689 0.137326
O O9 0.704835 0.500000 0.885962
O O10 0.675250 0.411682 0.562086
O O11 0.731138 0.384544 0.019809
O O12 0.305305 0.821936 0.383368
O O13 0.439415 0.759397 0.629317
O O14 0.373038 0.712327 0.269558
O O15 0.600207 0.685090 0.387266
#
# Coordination Sequence:
#
# PCOD9133381 Si02
#       7
#     4   4   4   4   4   4   4
#     4  10  23  43  71 100 139 182 224 274 341 408
#     4  12  25  40  62  97 135 174 213 279 329 402
#     4  10  23  43  64  97 131 167 218 278 332 402
#     4  12  24  39  66  98 134 172 220 273 347 401
#     4  11  24  36  68  94 131 170 213 270 342 395
#     4  11  23  41  65 100 138 166 223 272 338 396
#     4  12  25  40  66  94 137 171 221 268 339 396
#
# _framework density 21.262737000000001
#
# number of rings (size 3 to 8) (size 9 to 14) (size 15 to 20)
#    0.000    0.857    4.286    2.143    8.000    1.714 
#    0.000    5.714    0.000    5.143    0.000    0.000 
#    0.000    0.000    0.000    0.000    0.000    0.000 
#
# Total GULP energy -78031.562142 kJ/mol
# GULP energy per Si atom -5573.683010 kJ/mol
# Density = 2.121434 g / cm^3
# Si number density = 21.262737 Si / 1000 Ang^3
#
#
#
# Elastic Constant Matrix: (Units=GPa)
#
#
# Indices 1 2 3 4 5 6 
#
# 1 96.8139 27.6901 34.7939 0.0000 -1.0472 0.0000
# 2 27.6901 85.1728 25.5292 0.0000 -2.2482 0.0000
# 3 34.7939 25.5292 100.8016 0.0000 5.9192 0.0000
# 4 0.0000 0.0000 0.0000 24.0203 0.0000 -2.7383
# 5 -1.0472 -2.2482 5.9192 0.0000 49.5258 0.0000
# 6 0.0000 0.0000 0.0000 -2.7383 0.0000 21.8467
#
#
#
# Elastic Compliance Matrix: (Units=1/GPa)
#
#
# Indices 1 2 3 4 5 6 
#
# 1 0.012472 -0.002965 -0.003587 0.000000 0.000558 0.000000
# 2 -0.002965 0.013456 -0.002434 0.000000 0.000839 0.000000
# 3 -0.003587 -0.002434 0.011869 0.000000 -0.001605 0.000000
# 4 0.000000 0.000000 0.000000 0.042235 0.000000 0.005294
# 5 0.000558 0.000839 -0.001605 0.000000 0.020433 0.000000
# 6 0.000000 0.000000 0.000000 0.005294 0.000000 0.046437
#
#
# Mechanical properties :
#
#
# Convention : Reuss Voigt Hill
#
# Bulk Modulus (GPa) = 50.43767 50.97942 50.70855
# Shear Modulus (GPa) = 29.15739 32.06359 30.61049
#
# Velocity S-wave (km/s) = 3.70711 3.88747 3.79836
# Velocity P-wave (km/s) = 6.48816 6.64665 6.56788
#
# Compressibility (1/GPa) = 0.01982645
#
# Stress axis : x y z
#
# Youngs Moduli (GPa) = 80.17804 74.31405 84.25157
#
# Poissons Ratio (x) = 0.22034 0.30220
# Poissons Ratio (y) = 0.23772 0.20506
# Poissons Ratio (z) = 0.28759 0.18087
#
# Static dielectric constant tensor:
#      x y z
#    x 1.776960 0.000000 0.013980 
#    y 0.000000 1.802450 0.000000 
#    z 0.013980 0.000000 1.932160 
# 
# From -- ./inp_files/2902.got.cif
#   From: 2010.05.17/outbox.cif.g08.bks.cpg/sg8_2_cif.got.tgz:2902.got - 2010.06.03 19:46:02.
