data_PCOD9133579
_publ_section_title
;
Structure prediction by ZEFSAII (Michael W. Deem and Ramdas Pophale) SiO2 
 PCOD9133579
Probable space group: C M
;
_chemical_formula_sum "Si O2"
_cell_formula_units_Z 28
_cell_length_a 7.672228
_cell_length_b 30.652073
_cell_length_c 5.343874
_cell_angle_alpha 90.000000
_cell_angle_beta 67.121548
_cell_angle_gamma 90.000000
_cell_volume 1157.853380
_symmetry_space_group_name_H-M "C M"
_symmetry_group_IT_number 8
_symmetry_cell_setting 'monoclinic'
loop_
_space_group_symop_operation_xyz
x,y,z
x,-y,z
1/2+x,1/2+y,z
1/2+x,1/2-y,z
loop_
_atom_site_type_symbol
_atom_site_label
_atom_site_fract_x
_atom_site_fract_y
_atom_site_fract_z
Si Si1 0.183510 0.398073 0.377160
Si Si2 0.509972 0.621596 0.871387
Si Si3 0.410185 0.863256 0.890026
Si Si4 0.573358 0.291984 0.630645
Si Si5 0.436557 0.049180 0.162365
Si Si6 0.991815 0.049444 0.523550
Si Si7 0.290386 0.774573 0.012786
O O1 0.344621 0.421345 0.453292
O O2 0.045162 0.362890 0.576491
O O3 0.048376 0.436832 0.349879
O O4 0.308879 0.371874 0.107974
O O5 0.690413 0.628447 0.946739
O O6 0.534895 0.656230 0.631980
O O7 0.506007 0.571886 0.785127
O O8 0.417325 0.816690 0.022455
O O9 0.480813 0.908245 0.973928
O O10 0.402932 0.268657 0.876563
O O11 0.726444 0.287698 0.766869
O O12 0.638908 0.272323 0.326222
O O13 0.209384 0.049626 0.312775
O O14 0.490689 0.000000 0.053916
O O15 0.926123 0.000000 0.567797
#
# Coordination Sequence:
#
# PCOD9133579 Si02
#       7
#     4   4   4   4   4   4   4
#     4  12  25  42  72 102 138 204 248 298 377 454
#     4  11  25  45  71 102 150 189 250 307 378 440
#     4  11  25  45  71 102 150 189 250 307 378 440
#     4  11  26  47  78 111 152 193 248 311 379 452
#     4  11  24  44  70 102 144 191 247 311 371 441
#     4  11  24  44  70 102 144 191 247 311 371 441
#     4  11  26  47  78 111 152 193 248 311 379 452
#
# _framework density 24.182679
#
# number of rings (size 3 to 8) (size 9 to 14) (size 15 to 20)
#    0.000    0.857    2.857    3.000    6.000    6.286 
#    0.000    0.000    0.000    0.000    0.000    0.000 
#    0.000    0.000    0.000    0.000    0.000    0.000 
#
# Total GULP energy -78097.018847 kJ/mol
# GULP energy per Si atom -5578.358489 kJ/mol
# Density = 2.412764 g / cm^3
# Si number density = 24.182679 Si / 1000 Ang^3
#
#
#
# Elastic Constant Matrix: (Units=GPa)
#
#
# Indices 1 2 3 4 5 6 
#
# 1 84.1605 29.3070 -1.1429 0.0000 -13.6842 0.0000
# 2 29.3070 58.0866 20.1638 0.0000 1.1294 0.0000
# 3 -1.1429 20.1638 100.0324 0.0000 -28.3629 0.0000
# 4 0.0000 0.0000 0.0000 32.6344 0.0000 2.5854
# 5 -13.6842 1.1294 -28.3629 0.0000 34.9125 0.0000
# 6 0.0000 0.0000 0.0000 2.5854 0.0000 9.2320
#
#
#
# Elastic Compliance Matrix: (Units=1/GPa)
#
#
# Indices 1 2 3 4 5 6 
#
# 1 0.017896 -0.011333 0.005953 0.000000 0.012217 0.000000
# 2 -0.011333 0.026306 -0.009008 0.000000 -0.012611 0.000000
# 3 0.005953 -0.009008 0.016403 0.000000 0.015951 0.000000
# 4 0.000000 0.000000 0.000000 0.031338 0.000000 -0.008776
# 5 0.012217 -0.012611 0.015951 0.000000 0.046798 0.000000
# 6 0.000000 0.000000 0.000000 -0.008776 0.000000 0.110776
#
#
# Mechanical properties :
#
#
# Convention : Reuss Voigt Hill
#
# Bulk Modulus (GPa) = 31.41801 37.65947 34.53874
# Shear Modulus (GPa) = 17.30690 28.28590 22.79640
#
# Velocity S-wave (km/s) = 2.67811 3.42376 3.07363
# Velocity P-wave (km/s) = 4.75218 5.58894 5.18746
#
# Compressibility (1/GPa) = 0.03182887
#
# Stress axis : x y z
#
# Youngs Moduli (GPa) = 55.87865 38.01435 60.96427
#
# Poissons Ratio (x) = 0.43083 -0.36292
# Poissons Ratio (y) = 0.63329 0.54915
# Poissons Ratio (z) = -0.33264 0.34242
#
# Static dielectric constant tensor:
#      x y z
#    x 1.960010 0.000000 0.051190 
#    y 0.000000 1.991050 0.000000 
#    z 0.051190 0.000000 2.074680 
# 
# From -- ./inp_files/1933.got.cif
#   From: 2010.05.17/outbox.cif.g08.bks.cpg/sg8_1_cif.got.tgz:1933.got - 2010.06.03 19:46:02.
