data_PCOD9133836
_publ_section_title
;
Structure prediction by ZEFSAII (Michael W. Deem and Ramdas Pophale) SiO2 
 PCOD9133836
Probable space group: C C
;
_chemical_formula_sum "Si O2"
_cell_formula_units_Z 32
_cell_length_a 17.311303
_cell_length_b 8.297855
_cell_length_c 13.411079
_cell_angle_alpha 90.000000
_cell_angle_beta 137.600355
_cell_angle_gamma 90.000000
_cell_volume 1299.005742
_symmetry_space_group_name_H-M "C C"
_symmetry_group_IT_number 9
_symmetry_cell_setting 'monoclinic'
loop_
_space_group_symop_operation_xyz
x,y,z
x,-y,1/2+z
1/2+x,1/2+y,z
1/2+x,1/2-y,1/2+z
loop_
_atom_site_type_symbol
_atom_site_label
_atom_site_fract_x
_atom_site_fract_y
_atom_site_fract_z
Si Si1 0.428850 0.801053 0.433270
Si Si2 0.673260 0.427651 0.453788
Si Si3 0.732948 0.840733 0.171693
Si Si4 0.902282 0.587192 0.108287
Si Si5 0.175517 0.720493 0.254076
Si Si6 0.735693 0.870776 0.396020
Si Si7 0.414475 0.451719 0.192937
Si Si8 0.070104 0.419880 0.402812
O O1 0.419631 0.943225 0.507869
O O2 0.297181 0.739659 0.311562
O O3 0.554953 0.729712 0.587354
O O4 0.464694 0.836340 0.355970
O O5 0.545559 0.492064 0.338442
O O6 0.795886 0.511287 0.552583
O O7 0.675586 0.330385 0.351926
O O8 0.694837 0.310602 0.568215
O O9 0.849917 0.911410 0.235132
O O10 0.744663 0.784875 0.297567
O O11 0.643620 0.984146 0.056504
O O12 0.895331 0.782805 0.113818
O O13 0.010912 0.552057 0.278164
O O14 0.185521 0.540014 0.305390
O O15 0.852023 0.916628 0.564561
O O16 0.649443 0.820278 0.402349
#
# Coordination Sequence:
#
# PCOD9133836 Si02
#       8
#     4   4   4   4   4   4   4   4
#     4  11  20  31  56  79 106 136 186 230 273 321
#     4  10  17  32  54  77 106 133 177 230 280 323
#     4  10  18  28  54  81 102 137 187 233 268 320
#     4  10  17  31  52  79 101 138 185 224 265 338
#     4  11  17  32  53  83  98 138 181 226 269 330
#     4  11  18  31  53  79 105 133 191 229 265 325
#     4  10  17  32  52  79 103 140 186 232 270 328
#     4  11  18  31  52  79 107 135 181 230 276 321
#
# _framework density 24.634225000000001
#
# number of rings (size 3 to 8) (size 9 to 14) (size 15 to 20)
#    0.000    1.500   10.000    0.000    0.000    0.000 
#    0.000    3.750    2.750    0.000    0.000    0.000 
#    0.000    0.000    0.000    0.000    0.000    0.000 
#
# Total GULP energy -89104.102985 kJ/mol
# GULP energy per Si atom -5569.006437 kJ/mol
# Density = 2.457816 g / cm^3
# Si number density = 24.634225 Si / 1000 Ang^3
#
#
#
# Elastic Constant Matrix: (Units=GPa)
#
#
# Indices 1 2 3 4 5 6 
#
# 1 235.6419 26.0304 92.1063 0.0000 14.4215 0.0000
# 2 26.0304 24.2408 18.2271 0.0000 2.9281 0.0000
# 3 92.1063 18.2271 149.7714 0.0000 7.5811 0.0000
# 4 0.0000 0.0000 0.0000 15.9370 0.0000 6.9129
# 5 14.4215 2.9281 7.5811 0.0000 59.3708 0.0000
# 6 0.0000 0.0000 0.0000 6.9129 0.0000 18.1705
#
#
#
# Elastic Compliance Matrix: (Units=1/GPa)
#
#
# Indices 1 2 3 4 5 6 
#
# 1 0.005959 -0.003933 -0.003143 0.000000 -0.000852 0.000000
# 2 -0.003933 0.048144 -0.003391 0.000000 -0.000986 0.000000
# 3 -0.003143 -0.003391 0.009034 0.000000 -0.000223 0.000000
# 4 0.000000 0.000000 0.000000 0.075149 0.000000 -0.028590
# 5 -0.000852 -0.000986 -0.000223 0.000000 0.017127 0.000000
# 6 0.000000 0.000000 0.000000 -0.028590 0.000000 0.065911
#
#
# Mechanical properties :
#
#
# Convention : Reuss Voigt Hill
#
# Bulk Modulus (GPa) = 23.69424 75.82019 49.75721
# Shear Modulus (GPa) = 19.50654 36.91501 28.21077
#
# Velocity S-wave (km/s) = 2.81703 3.87528 3.38773
# Velocity P-wave (km/s) = 4.49669 7.13225 5.96193
#
# Compressibility (1/GPa) = 0.04220436
#
# Stress axis : x y z
#
# Youngs Moduli (GPa) = 167.82132 20.77086 110.69899
#
# Poissons Ratio (x) = 0.08168 0.34790
# Poissons Ratio (y) = 0.65997 0.37536
# Poissons Ratio (z) = 0.52742 0.07043
#
# Static dielectric constant tensor:
#      x y z
#    x 2.060340 0.000000 -0.006990 
#    y 0.000000 2.062400 0.000000 
#    z -0.006990 0.000000 2.012900 
# 
# From -- ./inp_files/19254.got.cif
#   From: 2010.05.17/outbox.cif.g08.bks.cpg/sg9_10_cif.got.tgz:19254.got - 2010.06.03 20:04:27.
