data_PCOD9133623
_publ_section_title
;
Structure prediction by ZEFSAII (Michael W. Deem and Ramdas Pophale) SiO2 
 PCOD9133623
Probable space group: C M
;
_chemical_formula_sum "Si O2"
_cell_formula_units_Z 22
_cell_length_a 21.935391
_cell_length_b 9.962774
_cell_length_c 13.057375
_cell_angle_alpha 90.000000
_cell_angle_beta 157.520792
_cell_angle_gamma 90.000000
_cell_volume 1091.039614
_symmetry_space_group_name_H-M "C M"
_symmetry_group_IT_number 8
_symmetry_cell_setting 'monoclinic'
loop_
_space_group_symop_operation_xyz
x,y,z
x,-y,z
1/2+x,1/2+y,z
1/2+x,1/2-y,z
loop_
_atom_site_type_symbol
_atom_site_label
_atom_site_fract_x
_atom_site_fract_y
_atom_site_fract_z
Si Si1 0.889850 0.000000 0.266680
Si Si2 0.769661 0.840520 0.656371
Si Si3 0.313028 0.000000 0.449382
Si Si4 0.126581 0.731178 0.214606
Si Si5 0.150572 0.500000 0.085973
Si Si6 0.877883 0.500000 0.311164
Si Si7 0.240073 0.000000 0.897474
Si Si8 0.959821 0.722823 0.292345
O O1 0.874585 0.863352 0.179413
O O2 0.779976 0.000000 0.196235
O O3 0.074007 0.000000 0.586561
O O4 0.938717 0.766073 0.930118
O O5 0.634746 0.772290 0.517341
O O6 0.783752 0.000000 0.702942
O O7 0.701365 0.826318 0.435138
O O8 0.479664 0.000000 0.766427
O O9 0.344715 0.000000 0.377452
O O10 0.214470 0.869658 0.326737
O O11 0.159675 0.628712 0.173640
O O12 0.965417 0.633922 0.405768
O O13 0.721957 0.500000 0.994311
O O14 0.350107 0.129252 0.049578
#
# Coordination Sequence:
#
# PCOD9133623 Si02
#       8
#     2   4   2   4   2   2   2   4
#     4  12  24  42  70  99 133 181 220 277 346 390
#     4  12  24  47  72 100 139 177 226 280 340 404
#     4  12  24  47  65 100 139 170 243 278 321 415
#     4  12  27  43  74  99 133 189 223 275 342 396
#     4  12  28  45  64 102 142 175 230 283 330 402
#     4   8  20  44  65  88 138 173 205 287 325 379
#     4   8  22  44  60  99 132 171 224 261 338 404
#     4   9  23  42  68 102 129 175 221 277 339 397
#
# _framework density 20.164252999999999
#
# number of rings (size 3 to 8) (size 9 to 14) (size 15 to 20)
#    1.091    0.000    5.455    1.091    2.545    5.818 
#    0.000    0.000    0.000    0.000    0.000    0.000 
#    0.000    0.000    0.000    0.000    0.000    0.000 
#
# Total GULP energy -61407.912861 kJ/mol
# GULP energy per Si atom -5582.537533 kJ/mol
# Density = 2.011836 g / cm^3
# Si number density = 20.164253 Si / 1000 Ang^3
#
#
#
# Elastic Constant Matrix: (Units=GPa)
#
#
# Indices 1 2 3 4 5 6 
#
# 1 42.2424 12.1402 -7.5838 0.0000 21.1569 0.0000
# 2 12.1402 130.1905 3.2314 0.0000 22.3330 0.0000
# 3 -7.5838 3.2314 92.9070 0.0000 14.4316 0.0000
# 4 0.0000 0.0000 0.0000 22.0171 0.0000 5.6614
# 5 21.1569 22.3330 14.4316 0.0000 38.7974 0.0000
# 6 0.0000 0.0000 0.0000 5.6614 0.0000 25.3426
#
#
#
# Elastic Compliance Matrix: (Units=1/GPa)
#
#
# Indices 1 2 3 4 5 6 
#
# 1 0.035753 0.000285 0.006328 0.000000 -0.022015 0.000000
# 2 0.000285 0.008546 0.000546 0.000000 -0.005278 0.000000
# 3 0.006328 0.000546 0.012572 0.000000 -0.008442 0.000000
# 4 0.000000 0.000000 0.000000 0.048187 0.000000 -0.010765
# 5 -0.022015 -0.005278 -0.008442 0.000000 0.043959 0.000000
# 6 0.000000 0.000000 0.000000 -0.010765 0.000000 0.041864
#
#
# Mechanical properties :
#
#
# Convention : Reuss Voigt Hill
#
# Bulk Modulus (GPa) = 14.04674 31.21284 22.62979
# Shear Modulus (GPa) = 24.96346 34.40156 29.68251
#
# Velocity S-wave (km/s) = 3.52235 4.13494 3.84087
# Velocity P-wave (km/s) = 4.85014 6.18949 5.56029
#
# Compressibility (1/GPa) = 0.07119091
#
# Stress axis : x y z
#
# Youngs Moduli (GPa) = 27.96961 117.00938 79.53992
#
# Poissons Ratio (x) = -0.03340 -0.50334
# Poissons Ratio (y) = -0.00798 -0.04342
# Poissons Ratio (z) = -0.17700 -0.06388
#
# Static dielectric constant tensor:
#      x y z
#    x 1.686160 0.000000 -0.013100 
#    y 0.000000 1.732500 0.000000 
#    z -0.013100 0.000000 1.696780 
# 
# From -- ./inp_files/28090.got.cif
#   From: 2010.05.17/outbox.cif.g08.bks.cpg/sg8_15_cif.got.tgz:28090.got - 2010.06.03 19:46:02.
