data_PCOD9133210
_publ_section_title
;
Structure prediction by ZEFSAII (Michael W. Deem and Ramdas Pophale) SiO2 
 PCOD9133210
Probable space group: C M
;
_chemical_formula_sum "Si O2"
_cell_formula_units_Z 26
_cell_length_a 10.375952
_cell_length_b 7.649269
_cell_length_c 20.790215
_cell_angle_alpha 90.000000
_cell_angle_beta 41.923929
_cell_angle_gamma 90.000000
_cell_volume 1102.494724
_symmetry_space_group_name_H-M "C M"
_symmetry_group_IT_number 8
_symmetry_cell_setting 'monoclinic'
loop_
_space_group_symop_operation_xyz
x,y,z
x,-y,z
1/2+x,1/2+y,z
1/2+x,1/2-y,z
loop_
_atom_site_type_symbol
_atom_site_label
_atom_site_fract_x
_atom_site_fract_y
_atom_site_fract_z
Si Si1 0.667150 0.289627 0.702650
Si Si2 0.456930 0.794543 0.368079
Si Si3 0.531852 0.788062 0.483681
Si Si4 0.733964 0.797367 0.824646
Si Si5 0.661436 0.801701 0.038115
Si Si6 0.737140 0.299358 0.151366
Si Si7 0.700673 0.500000 0.932628
O O1 0.675237 0.500000 0.702248
O O2 0.690386 0.220488 0.765762
O O3 0.459451 0.242619 0.750966
O O4 0.843742 0.228609 0.592581
O O5 0.522502 0.726157 0.413301
O O6 0.229164 0.768739 0.443752
O O7 0.570802 0.714040 0.266173
O O8 0.500805 0.000000 0.349892
O O9 0.528511 0.000000 0.483758
O O10 0.629731 0.655822 0.908131
O O11 0.709949 0.000000 0.852319
O O12 0.691471 0.799560 0.103126
O O13 0.438528 0.743732 0.108351
O O14 0.692659 0.000000 0.003841
O O15 0.771927 0.655142 0.956951
O O16 0.758366 0.500000 0.124368
#
# Coordination Sequence:
#
# PCOD9133210 Si02
#       7
#     4   4   4   4   4   4   2
#     4  10  22  44  67  97 138 177 223 276 336 394
#     4  11  23  38  63 100 135 175 223 273 323 394
#     4  10  22  40  64  97 135 176 220 272 325 392
#     4  11  25  45  69 100 133 179 222 278 336 402
#     4  11  26  46  70 101 132 179 222 277 337 402
#     4  11  24  45  68  97 136 179 223 271 340 396
#     4  12  26  48  70 100 134 174 226 282 342 396
#
# _framework density 23.582878999999998
#
# number of rings (size 3 to 8) (size 9 to 14) (size 15 to 20)
#    0.000    1.231    1.538    3.231    3.231    6.769 
#    0.000    0.000    0.000    0.000    0.000    0.000 
#    0.000    0.000    0.000    0.000    0.000    0.000 
#
# Total GULP energy -72575.480354 kJ/mol
# GULP energy per Si atom -5582.729258 kJ/mol
# Density = 2.352920 g / cm^3
# Si number density = 23.582879 Si / 1000 Ang^3
#
#
#
# Elastic Constant Matrix: (Units=GPa)
#
#
# Indices 1 2 3 4 5 6 
#
# 1 95.5299 10.4428 9.9793 0.0000 6.9880 0.0000
# 2 10.4428 92.8693 7.7666 0.0000 15.7093 0.0000
# 3 9.9793 7.7666 81.9725 0.0000 6.5668 0.0000
# 4 0.0000 0.0000 0.0000 220.8936 0.0000 170.5966
# 5 6.9880 15.7093 6.5668 0.0000 46.3517 0.0000
# 6 0.0000 0.0000 0.0000 170.5966 0.0000 120.5443
#
#
#
# Elastic Compliance Matrix: (Units=1/GPa)
#
#
# Indices 1 2 3 4 5 6 
#
# 1 0.010771 -0.000922 -0.001132 0.000000 -0.001151 0.000000
# 2 -0.000922 0.011551 -0.000688 0.000000 -0.003679 0.000000
# 3 -0.001132 -0.000688 0.012512 0.000000 -0.001369 0.000000
# 4 0.000000 0.000000 0.000000 -0.048690 0.000000 0.068907
# 5 -0.001151 -0.003679 -0.001369 0.000000 0.023188 0.000000
# 6 0.000000 0.000000 0.000000 0.068907 0.000000 -0.089223
#
#
# Mechanical properties :
#
#
# Convention : Reuss Voigt Hill
#
# Bulk Modulus (GPa) = 34.06922 36.30545 35.18734
# Shear Modulus (GPa) = -77.36950 93.70345 8.16698
#
# Velocity S-wave (km/s) = -5.73400 6.31030 1.86296
# Velocity P-wave (km/s) = 5.41852 8.27777 4.42500
#
# Compressibility (1/GPa) = 0.02935201
#
# Stress axis : x y z
#
# Youngs Moduli (GPa) = 92.84091 86.57100 79.92461
#
# Poissons Ratio (x) = 0.07980 0.09045
# Poissons Ratio (y) = 0.08558 0.05495
# Poissons Ratio (z) = 0.10507 0.05952
#
# Static dielectric constant tensor:
#      x y z
#    x 1.909640 0.000000 -0.047370 
#    y 0.000000 1.731550 0.000000 
#    z -0.047370 0.000000 1.903700 
# 
# From -- ./inp_files/30450.got.cif
#   From: 2010.05.17/outbox.cif.g08.bks.cpg/sg8_16_cif.got.tgz:30450.got - 2010.06.03 19:46:02.
