data_PCOD9133700
_publ_section_title
;
Structure prediction by ZEFSAII (Michael W. Deem and Ramdas Pophale) SiO2 
 PCOD9133700
Probable space group: C M
;
_chemical_formula_sum "Si O2"
_cell_formula_units_Z 16
_cell_length_a 24.000000
_cell_length_b 15.000000
_cell_length_c 9.000000
_cell_angle_alpha 90.000000
_cell_angle_beta 150.000000
_cell_angle_gamma 90.000000
_cell_volume 1620.000000
_symmetry_space_group_name_H-M "C M"
_symmetry_group_IT_number 8
_symmetry_cell_setting 'monoclinic'
loop_
_space_group_symop_operation_xyz
x,y,z
x,-y,z
1/2+x,1/2+y,z
1/2+x,1/2-y,z
loop_
_atom_site_type_symbol
_atom_site_label
_atom_site_fract_x
_atom_site_fract_y
_atom_site_fract_z
Si Si1 0.978430 0.606814 0.782380
Si Si2 0.591844 0.601473 0.245548
Si Si3 0.934344 0.900677 0.294534
Si Si4 0.572298 0.241446 0.751524
Si Si5 0.645089 0.803540 0.392329
Si Si6 0.351140 0.601158 0.762913
Si Si7 0.215180 0.099581 0.218637
Si Si8 0.685228 0.898620 0.796542
O O1 0.008431 0.500000 0.828969
O O2 0.847371 0.608667 0.512404
O O3 0.008070 0.675895 0.717599
O O4 0.043697 0.651810 0.069982
O O5 0.602198 0.500000 0.340291
O O6 0.627938 0.698857 0.393576
O O7 0.666397 0.596458 0.271548
O O8 0.458932 0.612104 0.907070
O O9 0.996170 0.811093 0.484586
O O10 0.985117 0.000000 0.434945
O O11 0.905507 0.895514 0.053086
O O12 0.818469 0.901005 0.115860
O O13 0.634421 0.171743 0.790590
O O14 0.657903 0.312345 0.020409
O O15 0.754162 0.825412 0.541651
O O16 0.661198 0.861638 0.576912
O O17 0.305337 0.500000 0.636212
O O18 0.189500 0.000000 0.094564
O O19 0.643353 0.000000 0.718198
#
# Coordination Sequence:
#
# PCOD9133700 Si02
#       8
#     4   4   4   4   4   4   4   4
#     4  11  24  40  59  85 122 159 196 239 295 353
#     4  10  21  37  57  87 120 151 194 246 285 339
#     4   9  19  37  61  87 115 153 195 243 297 347
#     4  12  21  38  61  88 113 159 201 240 289 348
#     4  11  21  38  66  87 117 158 194 235 304 351
#     4   9  19  37  61  89 119 148 195 250 291 342
#     4  10  23  41  58  85 124 159 194 242 294 348
#     4  10  22  40  61  88 120 149 195 249 291 344
#
# _framework density 9.8765429999999999
#
# number of rings (size 3 to 8) (size 9 to 14) (size 15 to 20)
#    0.000    1.750    1.250    4.125    1.750    0.000 
#    2.250    0.625    0.000    3.000    0.000    0.000 
#    0.000    0.000    0.000    0.000    0.000    0.000 
#
# Total GULP energy -89122.659163 kJ/mol
# GULP energy per Si atom -5570.166198 kJ/mol
# Density = 0.985406 g / cm^3
# Si number density = 9.876543 Si / 1000 Ang^3
#
#
#
# Elastic Constant Matrix: (Units=GPa)
#
#
# Indices 1 2 3 4 5 6 
#
# 1 65.7187 15.8053 4.9812 0.0000 22.5385 0.0000
# 2 15.8053 178.1806 13.5716 0.0000 12.4126 0.0000
# 3 4.9812 13.5716 31.3334 0.0000 17.1080 0.0000
# 4 0.0000 0.0000 0.0000 50.7095 0.0000 1.3747
# 5 22.5385 12.4126 17.1080 0.0000 19.5752 0.0000
# 6 0.0000 0.0000 0.0000 1.3747 0.0000 33.4393
#
#
#
# Elastic Compliance Matrix: (Units=1/GPa)
#
#
# Indices 1 2 3 4 5 6 
#
# 1 0.037800 -0.000881 0.034105 0.000000 -0.072769 0.000000
# 2 -0.000881 0.005908 -0.001774 0.000000 -0.001181 0.000000
# 3 0.034105 -0.001774 0.091977 0.000000 -0.118527 0.000000
# 4 0.000000 0.000000 0.000000 0.019742 0.000000 -0.000812
# 5 -0.072769 -0.001181 -0.118527 0.000000 0.239207 0.000000
# 6 0.000000 0.000000 0.000000 -0.000812 0.000000 0.029938
#
#
# Mechanical properties :
#
#
# Convention : Reuss Voigt Hill
#
# Bulk Modulus (GPa) = 5.03566 38.21654 21.62610
# Shear Modulus (GPa) = 11.68583 36.80312 24.24448
#
# Velocity S-wave (km/s) = 2.43491 4.32111 3.50719
# Velocity P-wave (km/s) = 3.23418 6.65471 5.23188
#
# Compressibility (1/GPa) = 0.19858362
#
# Stress axis : x y z
#
# Youngs Moduli (GPa) = 26.45507 169.26628 10.87227
#
# Poissons Ratio (x) = 0.14917 -0.37079
# Poissons Ratio (y) = 0.02331 0.01929
# Poissons Ratio (z) = -0.90224 0.30026
#
# Static dielectric constant tensor:
#      x y z
#    x 1.733900 0.000000 -0.002070 
#    y 0.000000 1.683380 0.000000 
#    z -0.002070 0.000000 1.717310 
# 
# From -- ./inp_files/17122.got.cif
#   From: 2010.05.17/outbox.ucp.g08.bks.cvg/sg8_9_cif.got.tgz:17122.got - 2010.06.11 13:00:03.
