data_PCOD9133106
_publ_section_title
;
Structure prediction by ZEFSAII (Michael W. Deem and Ramdas Pophale) SiO2 
 PCOD9133106
Probable space group: C M
;
_chemical_formula_sum "Si O2"
_cell_formula_units_Z 14
_cell_length_a 7.394741
_cell_length_b 12.576574
_cell_length_c 6.952728
_cell_angle_alpha 90.000000
_cell_angle_beta 100.739467
_cell_angle_gamma 90.000000
_cell_volume 635.281693
_symmetry_space_group_name_H-M "C M"
_symmetry_group_IT_number 8
_symmetry_cell_setting 'monoclinic'
loop_
_space_group_symop_operation_xyz
x,y,z
x,-y,z
1/2+x,1/2+y,z
1/2+x,1/2-y,z
loop_
_atom_site_type_symbol
_atom_site_label
_atom_site_fract_x
_atom_site_fract_y
_atom_site_fract_z
Si Si1 0.185710 0.500000 0.650311
Si Si2 0.340218 0.113306 0.028208
Si Si3 0.419200 0.347391 0.949501
Si Si4 0.893093 0.000000 0.296266
Si Si5 0.812812 0.500000 0.400512
O O1 0.273890 0.397950 0.773837
O O2 0.253498 0.500000 0.442607
O O3 0.966707 0.500000 0.590128
O O4 0.423807 0.220874 0.968145
O O5 0.124164 0.116090 0.933963
O O6 0.424924 0.000000 0.984355
O O7 0.341141 0.100473 0.261095
O O8 0.375443 0.399581 0.148904
O O9 0.101225 0.000000 0.419498
#
# Coordination Sequence:
#
# PCOD9133106 Si02
#       5
#     2   4   4   2   2
#     4  11  21  43  66 104 124 173 225 267 326 392
#     4   9  20  43  64  92 133 173 211 269 328 392
#     4  10  21  43  65  96 132 170 218 268 332 387
#     4   9  21  43  68  90 142 169 211 281 322 392
#     4   8  20  42  64  98 128 166 230 258 328 386
#
# _framework density 22.037471
#
# number of rings (size 3 to 8) (size 9 to 14) (size 15 to 20)
#    0.857    1.714    2.857    0.000    4.000    0.000 
#   12.857    2.857    0.000    0.000    0.000    0.000 
#    0.000    0.000    0.000    0.000    0.000    0.000 
#
# Total GULP energy -39074.373766 kJ/mol
# GULP energy per Si atom -5582.053395 kJ/mol
# Density = 2.198731 g / cm^3
# Si number density = 22.037471 Si / 1000 Ang^3
#
#
#
# Elastic Constant Matrix: (Units=GPa)
#
#
# Indices 1 2 3 4 5 6 
#
# 1 54.6918 0.4409 25.9438 0.0000 23.5698 0.0000
# 2 0.4409 171.1094 -0.1173 0.0000 1.6070 0.0000
# 3 25.9438 -0.1173 70.9116 0.0000 7.8376 0.0000
# 4 0.0000 0.0000 0.0000 -3.9646 0.0000 -7.8079
# 5 23.5698 1.6070 7.8376 0.0000 43.6145 0.0000
# 6 0.0000 0.0000 0.0000 -7.8079 0.0000 21.5350
#
#
#
# Elastic Compliance Matrix: (Units=1/GPa)
#
#
# Indices 1 2 3 4 5 6 
#
# 1 0.028430 0.000050 -0.008880 0.000000 -0.013770 0.000000
# 2 0.000050 0.005846 0.000019 0.000000 -0.000246 0.000000
# 3 -0.008880 0.000019 0.017161 0.000000 0.001714 0.000000
# 4 0.000000 0.000000 0.000000 -0.147158 0.000000 -0.053354
# 5 -0.013770 -0.000246 0.001714 0.000000 0.030071 0.000000
# 6 0.000000 0.000000 0.000000 -0.053354 0.000000 0.027091
#
#
# Mechanical properties :
#
#
# Convention : Reuss Voigt Hill
#
# Bulk Modulus (GPa) = 29.57166 38.80528 34.18847
# Shear Modulus (GPa) = -517.43236 30.26669 -243.58283
#
# Velocity S-wave (km/s) = -15.33970 3.70999 -10.52479
# Velocity P-wave (km/s) = 17.32899 5.99992 11.49554
#
# Compressibility (1/GPa) = 0.03381617
#
# Stress axis : x y z
#
# Youngs Moduli (GPa) = 35.17364 171.04521 58.27057
#
# Poissons Ratio (x) = -0.00855 0.51741
# Poissons Ratio (y) = -0.00176 -0.00108
# Poissons Ratio (z) = 0.31232 -0.00317
#
# Static dielectric constant tensor:
#      x y z
#    x 1.817240 0.000000 0.004460 
#    y 0.000000 1.806030 0.000000 
#    z 0.004460 0.000000 1.791920 
# 
# From -- ./inp_files/838.got.cif
#   From: 2010.05.17/outbox.cif.g08.bks.cpg/sg8_1_cif.got.tgz:838.got - 2010.06.03 19:46:02.
