data_PCOD9133831
_publ_section_title
;
Structure prediction by ZEFSAII (Michael W. Deem and Ramdas Pophale) SiO2 
 PCOD9133831
Probable space group: C C
;
_chemical_formula_sum "Si O2"
_cell_formula_units_Z 32
_cell_length_a 19.484118
_cell_length_b 7.603256
_cell_length_c 11.579938
_cell_angle_alpha 90.000000
_cell_angle_beta 51.257191
_cell_angle_gamma 90.000000
_cell_volume 1338.013881
_symmetry_space_group_name_H-M "C C"
_symmetry_group_IT_number 9
_symmetry_cell_setting 'monoclinic'
loop_
_space_group_symop_operation_xyz
x,y,z
x,-y,1/2+z
1/2+x,1/2+y,z
1/2+x,1/2-y,1/2+z
loop_
_atom_site_type_symbol
_atom_site_label
_atom_site_fract_x
_atom_site_fract_y
_atom_site_fract_z
Si Si1 0.463140 0.204035 0.821110
Si Si2 0.301411 0.065266 0.137463
Si Si3 0.744013 0.004220 0.080194
Si Si4 0.947994 0.362653 0.084040
Si Si5 0.131248 0.159073 0.240887
Si Si6 0.561830 0.170995 0.264932
Si Si7 0.322613 0.597729 0.744592
Si Si8 0.012359 0.236233 0.572979
O O1 0.438985 0.227331 0.714909
O O2 0.537655 0.345986 0.775013
O O3 0.514293 0.019426 0.791522
O O4 0.371453 0.174752 0.984318
O O5 0.209676 0.020502 0.173349
O O6 0.288357 0.200620 0.258045
O O7 0.355402 0.896349 0.120488
O O8 0.689911 0.820099 0.130466
O O9 0.791344 0.999090 0.157791
O O10 0.664220 0.141452 0.169784
O O11 0.792723 0.035075 0.904894
O O12 0.984999 0.560408 0.073028
O O13 0.016003 0.266027 0.929620
O O14 0.095361 0.199294 0.406358
O O15 0.537382 0.278979 0.178845
O O16 0.427890 0.619166 0.633969
#
# Coordination Sequence:
#
# PCOD9133831 Si02
#       8
#     4   4   4   4   4   4   4   4
#     4   9  16  28  49  78 103 134 180 225 270 317
#     4   9  17  31  50  79 103 142 179 221 269 334
#     4  10  19  31  54  86 105 141 186 237 265 332
#     4   9  16  29  50  77 107 132 175 226 269 311
#     4  10  17  30  54  75 103 137 186 218 268 328
#     4   9  16  27  52  78 106 134 181 228 272 318
#     4  10  20  33  52  77 114 140 183 223 285 322
#     4  10  17  33  51  80 103 146 174 222 278 336
#
# _framework density 23.916043999999999
#
# number of rings (size 3 to 8) (size 9 to 14) (size 15 to 20)
#    0.000    2.500    5.000    1.500    3.500    0.000 
#    0.000    2.500    2.750    0.000    0.000    0.000 
#    0.000    0.000    0.000    0.000    0.000    0.000 
#
# Total GULP energy -89213.385934 kJ/mol
# GULP energy per Si atom -5575.836621 kJ/mol
# Density = 2.386161 g / cm^3
# Si number density = 23.916044 Si / 1000 Ang^3
#
#
#
# Elastic Constant Matrix: (Units=GPa)
#
#
# Indices 1 2 3 4 5 6 
#
# 1 136.0442 14.2652 62.3472 0.0000 -7.5589 0.0000
# 2 14.2652 57.6814 25.6171 0.0000 -3.3346 0.0000
# 3 62.3472 25.6171 144.7555 0.0000 12.8331 0.0000
# 4 0.0000 0.0000 0.0000 4.0194 0.0000 1.3629
# 5 -7.5589 -3.3346 12.8331 0.0000 56.2738 0.0000
# 6 0.0000 0.0000 0.0000 1.3629 0.0000 7.7052
#
#
#
# Elastic Compliance Matrix: (Units=1/GPa)
#
#
# Indices 1 2 3 4 5 6 
#
# 1 0.009433 -0.000341 -0.004198 0.000000 0.002204 0.000000
# 2 -0.000341 0.019032 -0.003385 0.000000 0.001854 0.000000
# 3 -0.004198 -0.003385 0.009577 0.000000 -0.002948 0.000000
# 4 0.000000 0.000000 0.000000 0.264667 0.000000 -0.046815
# 5 0.002204 0.001854 -0.002948 0.000000 0.018849 0.000000
# 6 0.000000 0.000000 0.000000 -0.046815 0.000000 0.138062
#
#
# Mechanical properties :
#
#
# Convention : Reuss Voigt Hill
#
# Bulk Modulus (GPa) = 45.06045 60.32669 52.69357
# Shear Modulus (GPa) = 10.35487 29.34981 19.85234
#
# Velocity S-wave (km/s) = 2.08304 3.50694 2.88424
# Velocity P-wave (km/s) = 4.96663 6.45580 5.75955
#
# Compressibility (1/GPa) = 0.02219241
#
# Stress axis : x y z
#
# Youngs Moduli (GPa) = 106.01617 52.54400 104.42033
#
# Poissons Ratio (x) = 0.01792 0.43832
# Poissons Ratio (y) = 0.03616 0.35351
# Poissons Ratio (z) = 0.44502 0.17789
#
# Static dielectric constant tensor:
#      x y z
#    x 1.947960 0.000000 0.025840 
#    y 0.000000 1.999240 0.000000 
#    z 0.025840 0.000000 1.879640 
# 
# From -- ./inp_files/19271.got.cif
#   From: 2010.05.17/outbox.cif.g08.bks.cpg/sg9_10_cif.got.tgz:19271.got - 2010.06.03 20:04:27.
