data_PCOD9133149
_publ_section_title
;
Structure prediction by ZEFSAII (Michael W. Deem and Ramdas Pophale) SiO2 
 PCOD9133149
Probable space group: C M
;
_chemical_formula_sum "Si O2"
_cell_formula_units_Z 20
_cell_length_a 19.778085
_cell_length_b 10.560543
_cell_length_c 9.793497
_cell_angle_alpha 90.000000
_cell_angle_beta 151.702113
_cell_angle_gamma 90.000000
_cell_volume 969.700658
_symmetry_space_group_name_H-M "C M"
_symmetry_group_IT_number 8
_symmetry_cell_setting 'monoclinic'
loop_
_space_group_symop_operation_xyz
x,y,z
x,-y,z
1/2+x,1/2+y,z
1/2+x,1/2-y,z
loop_
_atom_site_type_symbol
_atom_site_label
_atom_site_fract_x
_atom_site_fract_y
_atom_site_fract_z
Si Si1 0.000000 0.355978 0.625000
Si Si2 0.373019 0.144311 0.948845
Si Si3 0.693450 0.283458 0.140088
Si Si4 0.629382 0.635737 0.732498
Si Si5 0.099319 0.853883 0.271114
O O1 0.975060 0.500000 0.541636
O O2 0.990556 0.247572 0.141028
O O3 0.862709 0.294572 0.453387
O O4 0.037652 0.264015 0.565086
O O5 0.275287 0.153719 0.910275
O O6 0.253719 0.157686 0.617558
O O7 0.431575 0.000000 0.046317
O O8 0.629064 0.153857 0.964283
O O9 0.657459 0.369240 0.944421
O O10 0.566910 0.500000 0.576209
O O11 0.620067 0.675781 0.148366
O O12 0.052377 0.000000 0.205463
#
# Coordination Sequence:
#
# PCOD9133149 Si02
#       5
#     4   4   4   4   4
#     4  10  22  38  62  92 120 152 199 251 296 348
#     4  10  24  42  61  88 125 159 197 247 300 354
#     4  10  22  39  64  87 120 156 201 244 299 349
#     4   9  21  40  63  89 120 158 200 247 297 352
#     4  11  23  41  62  88 123 161 197 245 300 357
#
# _framework density 20.624921000000001
#
# number of rings (size 3 to 8) (size 9 to 14) (size 15 to 20)
#    1.200    0.800    0.000    3.000    2.800    4.800 
#    0.000    0.000    0.000    0.000    0.000    0.000 
#    0.000    0.000    0.000    0.000    0.000    0.000 
#
# Total GULP energy -55680.031670 kJ/mol
# GULP energy per Si atom -5568.003167 kJ/mol
# Density = 2.057798 g / cm^3
# Si number density = 20.624921 Si / 1000 Ang^3
#
#
#
# Elastic Constant Matrix: (Units=GPa)
#
#
# Indices 1 2 3 4 5 6 
#
# 1 100.7075 43.8680 5.4876 0.0000 -2.2678 0.0000
# 2 43.8680 134.4922 36.8366 0.0000 31.9220 0.0000
# 3 5.4876 36.8366 36.8241 0.0000 3.1893 0.0000
# 4 0.0000 0.0000 0.0000 4.7079 0.0000 3.4217
# 5 -2.2678 31.9220 3.1893 0.0000 35.1234 0.0000
# 6 0.0000 0.0000 0.0000 3.4217 0.0000 17.9859
#
#
#
# Elastic Compliance Matrix: (Units=1/GPa)
#
#
# Indices 1 2 3 4 5 6 
#
# 1 0.012930 -0.007105 0.004585 0.000000 0.006876 0.000000
# 2 -0.007105 0.017427 -0.015081 0.000000 -0.014928 0.000000
# 3 0.004585 -0.015081 0.040666 0.000000 0.010310 0.000000
# 4 0.000000 0.000000 0.000000 0.246491 0.000000 -0.046893
# 5 0.006876 -0.014928 0.010310 0.000000 0.041546 0.000000
# 6 0.000000 0.000000 0.000000 -0.046893 0.000000 0.064520
#
#
# Mechanical properties :
#
#
# Convention : Reuss Voigt Hill
#
# Bulk Modulus (GPa) = 27.91676 49.37870 38.64773
# Shear Modulus (GPa) = 10.62199 23.95222 17.28711
#
# Velocity S-wave (km/s) = 2.27184 3.41152 2.89825
# Velocity P-wave (km/s) = 4.52178 6.28579 5.47529
#
# Compressibility (1/GPa) = 0.03582078
#
# Stress axis : x y z
#
# Youngs Moduli (GPa) = 77.34055 57.38346 24.59062
#
# Poissons Ratio (x) = 0.40773 -0.11276
# Poissons Ratio (y) = 0.54954 0.37085
# Poissons Ratio (z) = -0.35464 0.86539
#
# Static dielectric constant tensor:
#      x y z
#    x 1.720990 0.000000 -0.019100 
#    y 0.000000 1.763000 0.000000 
#    z -0.019100 0.000000 1.807770 
# 
# From -- ./inp_files/14877.got.cif
#   From: 2010.05.17/outbox.cif.g08.bks.cpg/sg8_8_cif.got.tgz:14877.got - 2010.06.03 19:46:02.
