data_PCOD9133154
_publ_section_title
;
Structure prediction by ZEFSAII (Michael W. Deem and Ramdas Pophale) SiO2 
 PCOD9133154
Probable space group: C M
;
_chemical_formula_sum "Si O2"
_cell_formula_units_Z 20
_cell_length_a 19.527871
_cell_length_b 9.706973
_cell_length_c 5.007669
_cell_angle_alpha 90.000000
_cell_angle_beta 72.757841
_cell_angle_gamma 90.000000
_cell_volume 906.578104
_symmetry_space_group_name_H-M "C M"
_symmetry_group_IT_number 8
_symmetry_cell_setting 'monoclinic'
loop_
_space_group_symop_operation_xyz
x,y,z
x,-y,z
1/2+x,1/2+y,z
1/2+x,1/2-y,z
loop_
_atom_site_type_symbol
_atom_site_label
_atom_site_fract_x
_atom_site_fract_y
_atom_site_fract_z
Si Si1 0.625000 0.651745 0.626650
Si Si2 0.567371 0.221855 0.175260
Si Si3 0.715728 0.145897 0.784171
Si Si4 0.857055 0.835388 0.956477
Si Si5 0.906123 0.339687 0.400805
O O1 0.638994 0.500000 0.512256
O O2 0.579993 0.733706 0.461993
O O3 0.699596 0.728897 0.604577
O O4 0.578649 0.654135 0.951863
O O5 0.490239 0.157279 0.228691
O O6 0.637988 0.137235 0.013468
O O7 0.776473 0.170578 0.931161
O O8 0.732200 0.000000 0.627292
O O9 0.899578 0.745811 0.684603
O O10 0.876436 0.000000 0.949262
O O11 0.867403 0.755141 0.222532
O O12 0.881055 0.500000 0.448328
#
# Coordination Sequence:
#
# PCOD9133154 Si02
#       5
#     4   4   4   4   4
#     4  10  22  38  64  98 128 161 209 269 324 374
#     4  10  23  41  66  93 129 162 219 265 320 379
#     4   9  23  44  67  93 127 172 219 262 318 387
#     4  11  26  46  68  97 137 179 217 272 334 396
#     4  12  26  45  69  99 133 178 222 274 328 394
#
# _framework density 22.060977000000001
#
# number of rings (size 3 to 8) (size 9 to 14) (size 15 to 20)
#    1.200    0.400    0.000    3.600    2.800    8.000 
#    0.000    0.000    0.000    0.000    0.000    0.000 
#    0.000    0.000    0.000    0.000    0.000    0.000 
#
# Total GULP energy -55718.834614 kJ/mol
# GULP energy per Si atom -5571.883461 kJ/mol
# Density = 2.201077 g / cm^3
# Si number density = 22.060977 Si / 1000 Ang^3
#
#
#
# Elastic Constant Matrix: (Units=GPa)
#
#
# Indices 1 2 3 4 5 6 
#
# 1 78.2465 25.2145 -9.9393 0.0000 -2.6555 0.0000
# 2 25.2145 148.1949 8.1441 0.0000 9.9201 0.0000
# 3 -9.9393 8.1441 59.5254 0.0000 9.4834 0.0000
# 4 0.0000 0.0000 0.0000 15.2180 0.0000 0.2496
# 5 -2.6555 9.9201 9.4834 0.0000 39.8054 0.0000
# 6 0.0000 0.0000 0.0000 0.2496 0.0000 4.9565
#
#
#
# Elastic Compliance Matrix: (Units=1/GPa)
#
#
# Indices 1 2 3 4 5 6 
#
# 1 0.013966 -0.002580 0.002530 0.000000 0.000972 0.000000
# 2 -0.002580 0.007367 -0.001163 0.000000 -0.001731 0.000000
# 3 0.002530 -0.001163 0.017991 0.000000 -0.003828 0.000000
# 4 0.000000 0.000000 0.000000 0.065766 0.000000 -0.003312
# 5 0.000972 -0.001731 -0.003828 0.000000 0.026530 0.000000
# 6 0.000000 0.000000 0.000000 -0.003312 0.000000 0.201923
#
#
# Mechanical properties :
#
#
# Convention : Reuss Voigt Hill
#
# Bulk Modulus (GPa) = 27.10223 36.97837 32.04030
# Shear Modulus (GPa) = 14.35676 29.49917 21.92797
#
# Velocity S-wave (km/s) = 2.55380 3.66069 3.15615
# Velocity P-wave (km/s) = 4.58341 5.88777 5.27606
#
# Compressibility (1/GPa) = 0.03689733
#
# Stress axis : x y z
#
# Youngs Moduli (GPa) = 71.60247 135.74637 55.58357
#
# Poissons Ratio (x) = 0.35027 -0.14064
# Poissons Ratio (y) = 0.18476 0.06464
# Poissons Ratio (z) = -0.18117 0.15787
#
# Static dielectric constant tensor:
#      x y z
#    x 1.779230 0.000000 -0.040310 
#    y 0.000000 1.837070 0.000000 
#    z -0.040310 0.000000 1.824030 
# 
# From -- ./inp_files/5205.got.cif
#   From: 2010.05.17/outbox.cif.g08.bks.cpg/sg8_3_cif.got.tgz:5205.got - 2010.06.03 19:46:02.
