data_PCOD9133467
_publ_section_title
;
Structure prediction by ZEFSAII (Michael W. Deem and Ramdas Pophale) SiO2 
 PCOD9133467
Probable space group: C M
;
_chemical_formula_sum "Si O2"
_cell_formula_units_Z 16
_cell_length_a 10.408317
_cell_length_b 12.853900
_cell_length_c 5.039311
_cell_angle_alpha 90.000000
_cell_angle_beta 91.233541
_cell_angle_gamma 90.000000
_cell_volume 674.040405
_symmetry_space_group_name_H-M "C M"
_symmetry_group_IT_number 8
_symmetry_cell_setting 'monoclinic'
loop_
_space_group_symop_operation_xyz
x,y,z
x,-y,z
1/2+x,1/2+y,z
1/2+x,1/2-y,z
loop_
_atom_site_type_symbol
_atom_site_label
_atom_site_fract_x
_atom_site_fract_y
_atom_site_fract_z
Si Si1 0.972420 0.314512 0.783930
Si Si2 0.314843 0.875504 0.259838
Si Si3 0.058038 0.116142 0.541752
Si Si4 0.834887 0.000000 0.292824
Si Si5 0.666754 0.000000 0.792830
O O1 0.913517 0.345978 0.497103
O O2 0.031081 0.200606 0.761086
O O3 0.081170 0.399307 0.850531
O O4 0.860206 0.322108 0.993603
O O5 0.173763 0.848275 0.359855
O O6 0.318406 0.000000 0.218467
O O7 0.092369 0.000000 0.648781
O O8 0.927276 0.096358 0.371539
O O9 0.716138 0.000000 0.492243
O O10 0.788868 0.000000 0.991505
#
# Coordination Sequence:
#
# PCOD9133467 Si02
#       5
#     4   4   4   2   2
#     4  12  25  46  78 112 147 195 249 308 371 434
#     4  11  23  48  75 108 146 195 253 305 363 440
#     4   9  26  51  74 109 151 199 246 302 372 443
#     4  10  26  48  72 106 152 196 242 299 375 440
#     4  12  24  44  78 108 152 188 248 309 371 434
#
# _framework density 23.737445999999998
#
# number of rings (size 3 to 8) (size 9 to 14) (size 15 to 20)
#    0.750    0.500    2.500    1.500    3.500    6.000 
#    0.000    0.000    0.000    0.000    0.000    0.000 
#    0.000    0.000    0.000    0.000    0.000    0.000 
#
# Total GULP energy -44836.230236 kJ/mol
# GULP energy per Si atom -5604.528780 kJ/mol
# Density = 2.368342 g / cm^3
# Si number density = 23.737446 Si / 1000 Ang^3
#
#
#
# Elastic Constant Matrix: (Units=GPa)
#
#
# Indices 1 2 3 4 5 6 
#
# 1 82.6454 40.0284 4.7517 0.0000 -21.9130 0.0000
# 2 40.0284 115.3270 50.0587 0.0000 -25.8060 0.0000
# 3 4.7517 50.0587 85.9359 0.0000 -21.2975 0.0000
# 4 0.0000 0.0000 0.0000 19.3152 0.0000 -19.7530
# 5 -21.9130 -25.8060 -21.2975 0.0000 56.5252 0.0000
# 6 0.0000 0.0000 0.0000 -19.7530 0.0000 16.3479
#
#
#
# Elastic Compliance Matrix: (Units=1/GPa)
#
#
# Indices 1 2 3 4 5 6 
#
# 1 0.016200 -0.006239 0.003959 0.000000 0.004923 0.000000
# 2 -0.006239 0.014500 -0.007788 0.000000 0.001267 0.000000
# 3 0.003959 -0.007788 0.017045 0.000000 0.004402 0.000000
# 4 0.000000 0.000000 0.000000 -0.219681 0.000000 -0.265438
# 5 0.004923 0.001267 0.004402 0.000000 0.021837 0.000000
# 6 0.000000 0.000000 0.000000 -0.265438 0.000000 -0.259556
#
#
# Mechanical properties :
#
#
# Convention : Reuss Voigt Hill
#
# Bulk Modulus (GPa) = 36.22064 52.62067 44.42065
# Shear Modulus (GPa) = -13.14698 31.04229 8.94766
#
# Velocity S-wave (km/s) = -2.35595 3.62019 1.94361
# Velocity P-wave (km/s) = 2.80914 6.30002 4.87758
#
# Compressibility (1/GPa) = 0.02760857
#
# Stress axis : x y z
#
# Youngs Moduli (GPa) = 61.72980 68.96344 58.66849
#
# Poissons Ratio (x) = 0.43029 -0.23226
# Poissons Ratio (y) = 0.38516 0.45689
# Poissons Ratio (z) = -0.24438 0.53707
#
# Static dielectric constant tensor:
#      x y z
#    x 1.874350 0.000000 0.012290 
#    y 0.000000 1.914200 0.000000 
#    z 0.012290 0.000000 1.836600 
# 
# From -- ./inp_files/2244.got.cif
#   From: 2010.05.17/outbox.cif.g08.bks.cpg/sg8_2_cif.got.tgz:2244.got - 2010.06.03 19:46:02.
