data_PCOD9133368
_publ_section_title
;
Structure prediction by ZEFSAII (Michael W. Deem and Ramdas Pophale) SiO2 
 PCOD9133368
Probable space group: C M
;
_chemical_formula_sum "Si O2"
_cell_formula_units_Z 32
_cell_length_a 17.381592
_cell_length_b 14.315559
_cell_length_c 11.727970
_cell_angle_alpha 90.000000
_cell_angle_beta 147.387256
_cell_angle_gamma 90.000000
_cell_volume 1572.808168
_symmetry_space_group_name_H-M "C M"
_symmetry_group_IT_number 8
_symmetry_cell_setting 'monoclinic'
loop_
_space_group_symop_operation_xyz
x,y,z
x,-y,z
1/2+x,1/2+y,z
1/2+x,1/2-y,z
loop_
_atom_site_type_symbol
_atom_site_label
_atom_site_fract_x
_atom_site_fract_y
_atom_site_fract_z
Si Si1 0.222760 0.195216 0.164360
Si Si2 0.581168 0.894357 0.969072
Si Si3 0.808992 0.609930 0.793104
Si Si4 0.503425 0.390242 0.046199
Si Si5 0.668633 0.104319 0.589053
Si Si6 0.521301 0.155003 0.638225
Si Si7 0.563445 0.290537 0.348145
Si Si8 0.276380 0.787709 0.986440
O O1 0.084603 0.140178 0.034245
O O2 0.356867 0.176610 0.412119
O O3 0.185452 0.305758 0.115107
O O4 0.265708 0.159613 0.092361
O O5 0.442335 0.874157 0.874443
O O6 0.540528 0.893417 0.784256
O O7 0.632361 0.000000 0.061205
O O8 0.795705 0.500000 0.793314
O O9 0.665521 0.649317 0.555910
O O10 0.827583 0.658947 0.938378
O O11 0.523346 0.500000 0.095759
O O12 0.573835 0.328388 0.233431
O O13 0.334276 0.373256 0.823523
O O14 0.584235 0.106211 0.603707
O O15 0.608659 0.184056 0.431301
O O16 0.660794 0.000000 0.530356
O O17 0.620375 0.246833 0.768294
O O18 0.393402 0.293106 0.158227
#
# Coordination Sequence:
#
# PCOD9133368 Si02
#       8
#     4   4   4   4   4   4   4   4
#     4  11  23  41  68  95 130 170 215 266 320 378
#     4  10  23  41  66  97 130 170 214 265 322 380
#     4  11  23  40  63  96 132 168 212 264 321 385
#     4  11  25  43  67  97 129 169 218 269 317 380
#     4  11  23  40  65  97 131 169 214 265 322 385
#     4  11  21  42  64  95 127 167 218 266 314 376
#     4  12  20  41  65  91 127 167 214 260 317 378
#     4  11  22  40  64  90 130 170 209 263 325 376
#
# _framework density 20.345775
#
# number of rings (size 3 to 8) (size 9 to 14) (size 15 to 20)
#    0.000    1.000    3.750    3.000    0.000    4.000 
#    0.000    4.375    0.000    0.750    0.000    0.000 
#    0.000    0.000    0.000    0.000    0.000    0.000 
#
# Total GULP energy -89348.208195 kJ/mol
# GULP energy per Si atom -5584.263012 kJ/mol
# Density = 2.029947 g / cm^3
# Si number density = 20.345775 Si / 1000 Ang^3
#
#
#
# Elastic Constant Matrix: (Units=GPa)
#
#
# Indices 1 2 3 4 5 6 
#
# 1 122.0818 20.9706 12.3171 0.0000 4.5646 0.0000
# 2 20.9706 64.3516 15.2471 0.0000 3.5580 0.0000
# 3 12.3171 15.2471 53.5762 0.0000 15.4943 0.0000
# 4 0.0000 0.0000 0.0000 20.3687 0.0000 -0.0393
# 5 4.5646 3.5580 15.4943 0.0000 30.0552 0.0000
# 6 0.0000 0.0000 0.0000 -0.0393 0.0000 17.1287
#
#
#
# Elastic Compliance Matrix: (Units=1/GPa)
#
#
# Indices 1 2 3 4 5 6 
#
# 1 0.008764 -0.002557 -0.001163 0.000000 -0.000429 0.000000
# 2 -0.002557 0.017417 -0.004566 0.000000 0.000680 0.000000
# 3 -0.001163 -0.004566 0.023533 0.000000 -0.011415 0.000000
# 4 0.000000 0.000000 0.000000 0.049095 0.000000 0.000113
# 5 -0.000429 0.000680 -0.011415 0.000000 0.039141 0.000000
# 6 0.000000 0.000000 0.000000 0.000113 0.000000 0.058382
#
#
# Mechanical properties :
#
#
# Convention : Reuss Voigt Hill
#
# Bulk Modulus (GPa) = 30.17249 37.45326 33.81288
# Shear Modulus (GPa) = 22.32641 26.27552 24.30097
#
# Velocity S-wave (km/s) = 3.31622 3.59757 3.45976
# Velocity P-wave (km/s) = 5.43370 5.97537 5.71096
#
# Compressibility (1/GPa) = 0.03314277
#
# Stress axis : x y z
#
# Youngs Moduli (GPa) = 114.10606 57.41559 42.49381
#
# Poissons Ratio (x) = 0.14679 0.04943
# Poissons Ratio (y) = 0.29172 0.19401
# Poissons Ratio (z) = 0.13273 0.26213
#
# Static dielectric constant tensor:
#      x y z
#    x 1.739970 0.000000 -0.010630 
#    y 0.000000 1.732130 0.000000 
#    z -0.010630 0.000000 1.710230 
# 
# From -- ./inp_files/23306.got.cif
#   From: 2010.05.17/outbox.cif.g08.bks.cpg/sg8_12_cif.got.tgz:23306.got - 2010.06.03 19:46:02.
