data_PCOD9133886
_publ_section_title
;
Structure prediction by ZEFSAII (Michael W. Deem and Ramdas Pophale) SiO2 
 PCOD9133886
Probable space group: C C
;
_chemical_formula_sum "Si O2"
_cell_formula_units_Z 32
_cell_length_a 34.012118
_cell_length_b 8.969034
_cell_length_c 11.606760
_cell_angle_alpha 90.000000
_cell_angle_beta 160.131654
_cell_angle_gamma 90.000000
_cell_volume 1203.345758
_symmetry_space_group_name_H-M "C C"
_symmetry_group_IT_number 9
_symmetry_cell_setting 'monoclinic'
loop_
_space_group_symop_operation_xyz
x,y,z
x,-y,1/2+z
1/2+x,1/2+y,z
1/2+x,1/2-y,1/2+z
loop_
_atom_site_type_symbol
_atom_site_label
_atom_site_fract_x
_atom_site_fract_y
_atom_site_fract_z
Si Si1 0.993480 0.840298 0.976820
Si Si2 0.121717 0.023048 0.184567
Si Si3 0.949888 0.501889 0.332157
Si Si4 0.686755 0.800120 0.501678
Si Si5 0.192255 0.284016 0.783571
Si Si6 0.829326 0.055643 0.200106
Si Si7 0.147579 0.269231 0.064274
Si Si8 0.964340 0.519654 0.623974
O O1 0.951669 0.924269 0.977479
O O2 0.938420 0.678506 0.806859
O O3 0.998146 0.950456 0.881677
O O4 0.125135 0.791485 0.375656
O O5 0.187604 0.876039 0.326549
O O6 0.145336 0.134583 0.355238
O O7 0.146887 0.135729 0.151054
O O8 0.079275 0.581136 0.686165
O O9 0.908785 0.556915 0.345827
O O10 0.900489 0.526234 0.066634
O O11 0.721901 0.792951 0.730431
O O12 0.789582 0.848993 0.699840
O O13 0.284439 0.390924 0.098042
O O14 0.062274 0.357895 0.428228
O O15 0.753887 0.124504 0.885046
O O16 0.038998 0.373799 0.796872
#
# Coordination Sequence:
#
# PCOD9133886 Si02
#       8
#     4   4   4   4   4   4   4   4
#     4  11  22  35  64  92 121 160 211 269 322 385
#     4  11  19  35  59  88 125 162 213 259 315 377
#     4  10  17  35  60  90 119 166 210 259 315 396
#     4  10  20  37  63  84 124 169 213 258 325 387
#     4  10  19  34  60  86 119 167 214 256 318 386
#     4  10  21  40  61  89 122 166 214 260 325 392
#     4   9  20  38  58  82 124 162 203 257 320 375
#     4   9  16  32  59  85 114 164 206 254 310 386
#
# _framework density 26.592523
#
# number of rings (size 3 to 8) (size 9 to 14) (size 15 to 20)
#    0.000    2.000    5.000    1.500    0.000    1.000 
#    0.000    2.500   22.000    0.000    0.000    0.000 
#    0.000    0.000    0.000    0.000    0.000    0.000 
#
# Total GULP energy -89283.684704 kJ/mol
# GULP energy per Si atom -5580.230294 kJ/mol
# Density = 2.653200 g / cm^3
# Si number density = 26.592523 Si / 1000 Ang^3
#
#
#
# Elastic Constant Matrix: (Units=GPa)
#
#
# Indices 1 2 3 4 5 6 
#
# 1 133.9521 23.5150 16.0130 0.0000 -3.7238 0.0000
# 2 23.5150 169.1846 14.6408 0.0000 15.6874 0.0000
# 3 16.0130 14.6408 36.8234 0.0000 7.5369 0.0000
# 4 0.0000 0.0000 0.0000 18.4775 0.0000 0.8822
# 5 -3.7238 15.6874 7.5369 0.0000 33.0922 0.0000
# 6 0.0000 0.0000 0.0000 0.8822 0.0000 44.4047
#
#
#
# Elastic Compliance Matrix: (Units=1/GPa)
#
#
# Indices 1 2 3 4 5 6 
#
# 1 0.008136 -0.001026 -0.003584 0.000000 0.002218 0.000000
# 2 -0.001026 0.006448 -0.001540 0.000000 -0.002822 0.000000
# 3 -0.003584 -0.001540 0.030691 0.000000 -0.006663 0.000000
# 4 0.000000 0.000000 0.000000 0.054171 0.000000 -0.001076
# 5 0.002218 -0.002822 -0.006663 0.000000 0.033323 0.000000
# 6 0.000000 0.000000 0.000000 -0.001076 0.000000 0.022542
#
#
# Mechanical properties :
#
#
# Convention : Reuss Voigt Hill
#
# Bulk Modulus (GPa) = 30.32616 49.81085 40.06851
# Shear Modulus (GPa) = 27.99505 38.24764 33.12135
#
# Velocity S-wave (km/s) = 3.24812 3.79659 3.53301
# Velocity P-wave (km/s) = 5.04934 6.16365 5.63411
#
# Compressibility (1/GPa) = 0.03297483
#
# Stress axis : x y z
#
# Youngs Moduli (GPa) = 122.91651 155.08099 32.58266
#
# Poissons Ratio (x) = 0.15916 0.11677
# Poissons Ratio (y) = 0.12615 0.05018
# Poissons Ratio (z) = 0.44051 0.23882
#
# Static dielectric constant tensor:
#      x y z
#    x 2.089340 0.000000 0.006240 
#    y 0.000000 2.048820 0.000000 
#    z 0.006240 0.000000 2.236850 
# 
# From -- ./inp_files/21435.got.cif
#   From: 2010.05.17/outbox.cif.g08.bks.cpg/sg9_11_cif.got.tgz:21435.got - 2010.06.03 20:04:27.
