data_PCOD9133598
_publ_section_title
;
Structure prediction by ZEFSAII (Michael W. Deem and Ramdas Pophale) SiO2 
 PCOD9133598
Probable space group: C M
;
_chemical_formula_sum "Si O2"
_cell_formula_units_Z 20
_cell_length_a 7.868951
_cell_length_b 21.611251
_cell_length_c 4.847300
_cell_angle_alpha 90.000000
_cell_angle_beta 65.263143
_cell_angle_gamma 90.000000
_cell_volume 748.681123
_symmetry_space_group_name_H-M "C M"
_symmetry_group_IT_number 8
_symmetry_cell_setting 'monoclinic'
loop_
_space_group_symop_operation_xyz
x,y,z
x,-y,z
1/2+x,1/2+y,z
1/2+x,1/2-y,z
loop_
_atom_site_type_symbol
_atom_site_label
_atom_site_fract_x
_atom_site_fract_y
_atom_site_fract_z
Si Si1 0.311150 0.929705 0.418660
Si Si2 0.249833 0.188484 0.819753
Si Si3 0.349951 0.265769 0.217189
Si Si4 0.922456 0.070401 0.389062
Si Si5 0.712283 0.118267 0.023418
O O1 0.282494 0.878389 0.672019
O O2 0.513591 0.915043 0.155840
O O3 0.139769 0.923103 0.320885
O O4 0.307274 0.000000 0.528045
O O5 0.282023 0.236428 0.546331
O O6 0.378871 0.209528 0.982679
O O7 0.042932 0.196821 0.085323
O O8 0.206755 0.314030 0.169328
O O9 0.854329 0.080063 0.124422
O O10 0.870001 0.000000 0.503627
O O11 0.805626 0.117382 0.660613
#
# Coordination Sequence:
#
# PCOD9133598 Si02
#       5
#     4   4   4   4   4
#     4  11  26  48  77 111 154 201 250 308 378 456
#     4  12  26  48  73 111 149 193 253 310 379 446
#     4  12  26  47  77 108 150 193 250 318 373 450
#     4  11  25  45  72 109 152 196 249 307 368 451
#     4  12  25  48  75 109 149 199 250 309 380 441
#
# _framework density 26.713646000000001
#
# number of rings (size 3 to 8) (size 9 to 14) (size 15 to 20)
#    0.000    0.400    2.000    6.600    2.800    3.200 
#    0.000    5.000    0.000    0.000    0.000    0.000 
#    0.000    0.000    0.000    0.000    0.000    0.000 
#
# Total GULP energy -56181.612564 kJ/mol
# GULP energy per Si atom -5618.161256 kJ/mol
# Density = 2.665284 g / cm^3
# Si number density = 26.713646 Si / 1000 Ang^3
#
#
#
# Elastic Constant Matrix: (Units=GPa)
#
#
# Indices 1 2 3 4 5 6 
#
# 1 107.7398 40.8599 23.1561 0.0000 -19.5902 0.0000
# 2 40.8599 166.4560 25.8352 0.0000 -5.1736 0.0000
# 3 23.1561 25.8352 128.1558 0.0000 -1.7751 0.0000
# 4 0.0000 0.0000 0.0000 37.7165 0.0000 -2.7303
# 5 -19.5902 -5.1736 -1.7751 0.0000 52.9635 0.0000
# 6 0.0000 0.0000 0.0000 -2.7303 0.0000 40.8418
#
#
#
# Elastic Compliance Matrix: (Units=1/GPa)
#
#
# Indices 1 2 3 4 5 6 
#
# 1 0.011215 -0.002402 -0.001489 0.000000 0.003864 0.000000
# 2 -0.002402 0.006733 -0.000927 0.000000 -0.000262 0.000000
# 3 -0.001489 -0.000927 0.008254 0.000000 -0.000365 0.000000
# 4 0.000000 0.000000 0.000000 0.026643 0.000000 0.001781
# 5 0.003864 -0.000262 -0.000365 0.000000 0.020272 0.000000
# 6 0.000000 0.000000 0.000000 0.001781 0.000000 0.024604
#
#
# Mechanical properties :
#
#
# Convention : Reuss Voigt Hill
#
# Bulk Modulus (GPa) = 60.36170 64.67265 62.51718
# Shear Modulus (GPa) = 44.29581 47.13770 45.71676
#
# Velocity S-wave (km/s) = 4.07648 4.20522 4.14135
# Velocity P-wave (km/s) = 6.69342 6.91669 6.80597
#
# Compressibility (1/GPa) = 0.01656680
#
# Stress axis : x y z
#
# Youngs Moduli (GPa) = 89.16637 148.52449 121.15616
#
# Poissons Ratio (x) = 0.35673 0.18037
# Poissons Ratio (y) = 0.21416 0.11231
# Poissons Ratio (z) = 0.13274 0.13768
#
# Static dielectric constant tensor:
#      x y z
#    x 2.090540 0.000000 -0.020320 
#    y 0.000000 2.146670 0.000000 
#    z -0.020320 0.000000 1.977650 
# 
# From -- ./inp_files/1368.got.cif
#   From: 2010.05.17/outbox.cif.g08.bks.cpg/sg8_1_cif.got.tgz:1368.got - 2010.06.03 19:46:02.
