data_PCOD9133096
_publ_section_title
;
Structure prediction by ZEFSAII (Michael W. Deem and Ramdas Pophale) SiO2 
 PCOD9133096
Probable space group: C M
;
_chemical_formula_sum "Si O2"
_cell_formula_units_Z 32
_cell_length_a 9.968978
_cell_length_b 17.887510
_cell_length_c 14.177293
_cell_angle_alpha 90.000000
_cell_angle_beta 30.984188
_cell_angle_gamma 90.000000
_cell_volume 1301.468458
_symmetry_space_group_name_H-M "C M"
_symmetry_group_IT_number 8
_symmetry_cell_setting 'monoclinic'
loop_
_space_group_symop_operation_xyz
x,y,z
x,-y,z
1/2+x,1/2+y,z
1/2+x,1/2-y,z
loop_
_atom_site_type_symbol
_atom_site_label
_atom_site_fract_x
_atom_site_fract_y
_atom_site_fract_z
Si Si1 0.487300 0.585377 0.215160
Si Si2 0.506963 0.773231 0.064300
Si Si3 0.955510 0.912995 0.579517
Si Si4 0.030621 0.419357 0.165495
Si Si5 0.366210 0.083374 0.606937
Si Si6 0.035565 0.872916 0.970484
Si Si7 0.031250 0.800708 0.690073
Si Si8 0.967698 0.810935 0.397132
O O1 0.573464 0.500000 0.183798
O O2 0.570070 0.647119 0.241762
O O3 0.173333 0.586059 0.408937
O O4 0.560690 0.608684 0.065395
O O5 0.474602 0.715331 0.997530
O O6 0.820840 0.758240 0.881263
O O7 0.527824 0.858635 0.085820
O O8 0.214691 0.762015 0.285824
O O9 0.272950 0.912601 0.384946
O O10 0.882173 0.853849 0.704779
O O11 0.888661 0.874411 0.519970
O O12 0.872460 0.000000 0.638699
O O13 0.023006 0.500000 0.124274
O O14 0.283819 0.412107 0.077273
O O15 0.283494 0.099214 0.763967
O O16 0.210782 0.144599 0.642288
O O17 0.275639 0.000000 0.634190
O O18 0.224102 0.742072 0.524863
#
# Coordination Sequence:
#
# PCOD9133096 Si02
#       8
#     4   4   4   4   4   4   4   4
#     4  11  25  45  70 100 142 192 234 284 362 434
#     4  11  26  41  68 101 139 177 234 290 351 414
#     4  10  23  43  69  99 136 184 233 287 351 420
#     4  10  21  42  68  96 136 183 233 290 347 410
#     4  11  24  44  71 104 140 182 241 301 350 422
#     4  12  24  41  70 102 140 181 234 294 357 418
#     4  12  25  43  74 102 138 183 241 295 356 416
#     4  11  26  45  70  98 145 186 234 289 358 424
#
# _framework density 24.587610999999999
#
# number of rings (size 3 to 8) (size 9 to 14) (size 15 to 20)
#    0.000    1.000    1.250    4.875    8.750    3.000 
#    2.250    0.000    0.000    0.000    0.000    0.000 
#    0.000    0.000    0.000    0.000    0.000    0.000 
#
# Total GULP energy -89247.025099 kJ/mol
# GULP energy per Si atom -5577.939069 kJ/mol
# Density = 2.453165 g / cm^3
# Si number density = 24.587611 Si / 1000 Ang^3
#
#
#
# Elastic Constant Matrix: (Units=GPa)
#
#
# Indices 1 2 3 4 5 6 
#
# 1 55.3792 16.8502 20.3464 -0.0492 21.1848 0.0123
# 2 16.8502 114.2130 35.4614 -0.0147 4.5959 0.0131
# 3 20.3464 35.4614 66.6772 -0.0573 18.5539 0.0382
# 4 -0.0492 -0.0147 -0.0573 25.2276 0.0352 8.5319
# 5 21.1848 4.5959 18.5539 0.0352 31.0907 -0.0086
# 6 0.0123 0.0131 0.0382 8.5319 -0.0086 42.4123
#
#
#
# Elastic Compliance Matrix: (Units=1/GPa)
#
#
# Indices 1 2 3 4 5 6 
#
# 1 0.025653 -0.002499 -0.002084 0.000074 -0.015867 -0.000023
# 2 -0.002499 0.010850 -0.006038 -0.000020 0.003702 0.000008
# 3 -0.002084 -0.006038 0.021826 0.000068 -0.010713 -0.000033
# 4 0.000074 -0.000020 0.000068 0.042533 -0.000138 -0.008556
# 5 -0.015867 0.003702 -0.010713 -0.000138 0.048821 0.000051
# 6 -0.000023 0.000008 -0.000033 -0.008556 0.000051 0.025299
#
#
# Mechanical properties :
#
#
# Convention : Reuss Voigt Hill
#
# Bulk Modulus (GPa) = 26.96351 42.39837 34.68094
# Shear Modulus (GPa) = 23.97080 30.65354 27.31217
#
# Velocity S-wave (km/s) = 3.12575 3.53470 3.33650
# Velocity P-wave (km/s) = 4.90073 5.82581 5.38318
#
# Compressibility (1/GPa) = 0.03708716
#
# Stress axis : x y z
#
# Youngs Moduli (GPa) = 38.98160 92.16558 45.81752
#
# Poissons Ratio (x) = 0.23035 0.09546
# Poissons Ratio (y) = 0.09743 0.27665
# Poissons Ratio (z) = 0.08122 0.55650
#
# Static dielectric constant tensor:
#      x y z
#    x 1.970010 0.000010 0.030890 
#    y 0.000010 2.024760 0.000020 
#    z 0.030890 0.000020 1.976040 
# 
# From -- ./inp_files/26267.got.cif
#   From: 2010.05.17/outbox.cif.g08.bks.cpg/sg8_14_cif.got.tgz:26267.got - 2010.06.03 19:46:02.
