data_PCOD9133801
_publ_section_title
;
Structure prediction by ZEFSAII (Michael W. Deem and Ramdas Pophale) SiO2 
 PCOD9133801
Probable space group: C C
;
_chemical_formula_sum "Si O2"
_cell_formula_units_Z 28
_cell_length_a 23.731517
_cell_length_b 7.283175
_cell_length_c 8.106668
_cell_angle_alpha 90.000000
_cell_angle_beta 50.919412
_cell_angle_gamma 90.000000
_cell_volume 1087.666775
_symmetry_space_group_name_H-M "C C"
_symmetry_group_IT_number 9
_symmetry_cell_setting 'monoclinic'
loop_
_space_group_symop_operation_xyz
x,y,z
x,-y,1/2+z
1/2+x,1/2+y,z
1/2+x,1/2-y,1/2+z
loop_
_atom_site_type_symbol
_atom_site_label
_atom_site_fract_x
_atom_site_fract_y
_atom_site_fract_z
Si Si1 0.300220 0.179679 0.854650
Si Si2 0.750577 0.793578 0.626413
Si Si3 0.035709 0.240063 0.642478
Si Si4 0.964971 0.538330 0.574641
Si Si5 0.375614 0.435227 0.216205
Si Si6 0.704089 0.799778 0.328889
Si Si7 0.975645 0.135896 0.260583
O O1 0.250474 0.155171 0.782651
O O2 0.376972 0.068466 0.723419
O O3 0.323712 0.392215 0.786543
O O4 0.253594 0.185619 0.107997
O O5 0.836123 0.811153 0.421562
O O6 0.719861 0.761127 0.495870
O O7 0.718664 0.986762 0.750791
O O8 0.119622 0.270254 0.455172
O O9 0.991982 0.332148 0.566204
O O10 0.030129 0.025107 0.707951
O O11 0.001650 0.358759 0.853691
O O12 0.996280 0.663569 0.667534
O O13 0.446076 0.532317 0.154141
O O14 0.400802 0.345336 0.001976
#
# Coordination Sequence:
#
# PCOD9133801 Si02
#       7
#     4   4   4   4   4   4   4
#     4  10  20  40  67 101 134 184 242 295 356 429
#     4  11  17  34  65  98 136 177 244 288 350 438
#     4  12  26  45  67 108 146 186 238 305 374 435
#     4  11  26  44  72 110 138 187 245 298 372 435
#     4  10  16  34  65  99 117 172 231 285 341 413
#     4  11  22  36  66 101 141 191 241 292 367 444
#     4  11  21  41  68  97 140 181 233 293 364 428
#
# _framework density 25.743176999999999
#
# number of rings (size 3 to 8) (size 9 to 14) (size 15 to 20)
#    0.000    1.143    7.143    2.571    2.000    0.000 
#    2.571    0.000    3.143    6.857    0.000    0.000 
#    0.000    0.000    0.000    0.000    0.000    0.000 
#
# Total GULP energy -78070.463209 kJ/mol
# GULP energy per Si atom -5576.461658 kJ/mol
# Density = 2.568458 g / cm^3
# Si number density = 25.743177 Si / 1000 Ang^3
#
#
#
# Elastic Constant Matrix: (Units=GPa)
#
#
# Indices 1 2 3 4 5 6 
#
# 1 105.3179 13.6992 63.4936 0.0000 3.3323 0.0000
# 2 13.6992 121.1354 27.8892 0.0000 -2.3274 0.0000
# 3 63.4936 27.8892 122.3109 0.0000 -16.1345 0.0000
# 4 0.0000 0.0000 0.0000 10.2478 0.0000 13.2137
# 5 3.3323 -2.3274 -16.1345 0.0000 46.4296 0.0000
# 6 0.0000 0.0000 0.0000 13.2137 0.0000 22.4531
#
#
#
# Elastic Compliance Matrix: (Units=1/GPa)
#
#
# Indices 1 2 3 4 5 6 
#
# 1 0.014440 0.000143 -0.008033 0.000000 -0.003821 0.000000
# 2 0.000143 0.008717 -0.002102 0.000000 -0.000304 0.000000
# 3 -0.008033 -0.002102 0.013506 0.000000 0.005165 0.000000
# 4 0.000000 0.000000 0.000000 0.404613 0.000000 -0.238116
# 5 -0.003821 -0.000304 0.005165 0.000000 0.023592 0.000000
# 6 0.000000 0.000000 0.000000 -0.238116 0.000000 0.184669
#
#
# Mechanical properties :
#
#
# Convention : Reuss Voigt Hill
#
# Bulk Modulus (GPa) = 59.95120 62.10315 61.02717
# Shear Modulus (GPa) = 7.40653 32.07157 19.73905
#
# Velocity S-wave (km/s) = 1.69804 3.53346 2.77206
# Velocity P-wave (km/s) = 5.21375 6.38933 5.83124
#
# Compressibility (1/GPa) = 0.01668023
#
# Stress axis : x y z
#
# Youngs Moduli (GPa) = 69.25181 114.71626 74.03932
#
# Poissons Ratio (x) = -0.01640 0.59473
# Poissons Ratio (y) = -0.00990 0.15563
# Poissons Ratio (z) = 0.55628 0.24113
#
# Static dielectric constant tensor:
#      x y z
#    x 2.220810 0.000000 0.096540 
#    y 0.000000 2.195540 0.000000 
#    z 0.096540 0.000000 2.031330 
# 
# From -- ./inp_files/12397.got.cif
#   From: 2010.05.17/outbox.cif.g08.bks.cpg/sg9_7_cif.got.tgz:12397.got - 2010.06.03 20:04:27.
