data_PCOD9133998
_publ_section_title
;
Structure prediction by ZEFSAII (Michael W. Deem and Ramdas Pophale) SiO2 
 PCOD9133998
Probable space group: C C
;
_chemical_formula_sum "Si O2"
_cell_formula_units_Z 24
_cell_length_a 15.021721
_cell_length_b 18.317252
_cell_length_c 5.207595
_cell_angle_alpha 90.000000
_cell_angle_beta 61.875088
_cell_angle_gamma 90.000000
_cell_volume 1263.709889
_symmetry_space_group_name_H-M "C C"
_symmetry_group_IT_number 9
_symmetry_cell_setting 'monoclinic'
loop_
_space_group_symop_operation_xyz
x,y,z
x,-y,1/2+z
1/2+x,1/2+y,z
1/2+x,1/2-y,1/2+z
loop_
_atom_site_type_symbol
_atom_site_label
_atom_site_fract_x
_atom_site_fract_y
_atom_site_fract_z
Si Si1 0.817480 0.797151 0.861690
Si Si2 0.022107 0.743960 0.373231
Si Si3 0.028276 0.410914 0.070776
Si Si4 0.752464 0.040607 0.305154
Si Si5 0.236742 0.785821 0.972417
Si Si6 0.916063 0.620832 0.231944
O O1 0.790225 0.881031 0.849076
O O2 0.768450 0.749041 0.701255
O O3 0.937347 0.784401 0.655459
O O4 0.774641 0.766314 0.188472
O O5 0.062048 0.673829 0.479411
O O6 0.965646 0.701217 0.217890
O O7 0.115886 0.789711 0.143623
O O8 0.963011 0.411342 0.414215
O O9 0.956063 0.423506 0.923674
O O10 0.130245 0.455908 0.956881
O O11 0.784565 0.981725 0.475390
O O12 0.298269 0.861527 0.868685
#
# Coordination Sequence:
#
# PCOD9133998 Si02
#       6
#     4   4   4   4   4   4
#     4  11  21  35  51  80 114 138 184 225 266 337
#     4   9  20  29  55  76 108 141 168 225 286 315
#     4  10  18  34  50  74 105 138 181 217 266 324
#     4  12  24  37  54  78 111 157 183 217 266 325
#     4  11  18  31  53  81 110 137 167 224 289 332
#     4   9  17  30  47  77 104 137 165 222 279 317
#
# _framework density 18.991700000000002
#
# number of rings (size 3 to 8) (size 9 to 14) (size 15 to 20)
#    1.000    0.667    3.333    3.000    0.000    0.000 
#    0.000    0.000    0.000    0.000    0.000    7.000 
#    0.000    0.000    0.000    0.000    0.000    0.000 
#
# Total GULP energy -66876.356102 kJ/mol
# GULP energy per Si atom -5573.029675 kJ/mol
# Density = 1.894847 g / cm^3
# Si number density = 18.991700 Si / 1000 Ang^3
#
#
#
# Elastic Constant Matrix: (Units=GPa)
#
#
# Indices 1 2 3 4 5 6 
#
# 1 58.3954 7.4441 36.6950 0.0000 -0.2059 0.0000
# 2 7.4441 35.0048 -3.8883 0.0000 0.2118 0.0000
# 3 36.6950 -3.8883 86.8905 0.0000 0.9798 0.0000
# 4 0.0000 0.0000 0.0000 -26.2962 0.0000 -25.2383
# 5 -0.2059 0.2118 0.9798 0.0000 46.3303 0.0000
# 6 0.0000 0.0000 0.0000 -25.2383 0.0000 22.4345
#
#
#
# Elastic Compliance Matrix: (Units=1/GPa)
#
#
# Indices 1 2 3 4 5 6 
#
# 1 0.024680 -0.006441 -0.010715 0.000000 0.000366 0.000000
# 2 -0.006441 0.030392 0.004083 0.000000 -0.000254 0.000000
# 3 -0.010715 0.004083 0.016221 0.000000 -0.000409 0.000000
# 4 0.000000 0.000000 0.000000 -0.018285 0.000000 -0.020571
# 5 0.000366 -0.000254 -0.000409 0.000000 0.021596 0.000000
# 6 0.000000 0.000000 0.000000 -0.020571 0.000000 0.021433
#
#
# Mechanical properties :
#
#
# Convention : Reuss Voigt Hill
#
# Bulk Modulus (GPa) = 22.14957 28.97693 25.56325
# Shear Modulus (GPa) = 36.43454 17.82970 27.13212
#
# Velocity S-wave (km/s) = 4.38476 3.06733 3.78382
# Velocity P-wave (km/s) = 6.10925 5.27594 5.70782
#
# Compressibility (1/GPa) = 0.04514761
#
# Stress axis : x y z
#
# Youngs Moduli (GPa) = 40.51816 32.90303 61.64758
#
# Poissons Ratio (x) = 0.21193 0.66056
# Poissons Ratio (y) = 0.26098 -0.25171
# Poissons Ratio (z) = 0.43416 -0.13434
#
# Static dielectric constant tensor:
#      x y z
#    x 1.700150 0.000000 -0.001580 
#    y 0.000000 1.678160 0.000000 
#    z -0.001580 0.000000 1.656030 
# 
# From -- ./inp_files/2449.got.cif
#   From: 2010.05.17/outbox.cif.g08.bks.cpg/sg9_2_cif.got.tgz:2449.got - 2010.06.03 20:04:27.
