data_PCOD9133723
_publ_section_title
;
Structure prediction by ZEFSAII (Michael W. Deem and Ramdas Pophale) SiO2 
 PCOD9133723
Probable space group: C C
;
_chemical_formula_sum "Si O2"
_cell_formula_units_Z 28
_cell_length_a 27.683465
_cell_length_b 7.444507
_cell_length_c 5.562600
_cell_angle_alpha 90.000000
_cell_angle_beta 89.131957
_cell_angle_gamma 90.000000
_cell_volume 1146.263275
_symmetry_space_group_name_H-M "C C"
_symmetry_group_IT_number 9
_symmetry_cell_setting 'monoclinic'
loop_
_space_group_symop_operation_xyz
x,y,z
x,-y,1/2+z
1/2+x,1/2+y,z
1/2+x,1/2-y,1/2+z
loop_
_atom_site_type_symbol
_atom_site_label
_atom_site_fract_x
_atom_site_fract_y
_atom_site_fract_z
Si Si1 0.313320 0.601303 0.183800
Si Si2 0.661594 0.791803 0.140538
Si Si3 0.547291 0.802049 0.227329
Si Si4 0.310242 0.984920 0.203864
Si Si5 0.509802 0.222528 0.230792
Si Si6 0.911075 0.395991 0.694265
Si Si7 0.200121 0.300489 0.638599
O O1 0.322438 0.498989 0.432402
O O2 0.338131 0.795148 0.193128
O O3 0.256781 0.661541 0.177985
O O4 0.604574 0.797356 0.185012
O O5 0.688006 0.718332 0.378287
O O6 0.677807 0.999784 0.120684
O O7 0.676930 0.713803 0.879306
O O8 0.535476 0.715569 0.485351
O O9 0.525872 0.007668 0.237816
O O10 0.524892 0.712344 0.992077
O O11 0.283077 0.994220 0.456538
O O12 0.353277 0.130843 0.199973
O O13 0.452542 0.251868 0.201414
O O14 0.920846 0.495440 0.440636
#
# Coordination Sequence:
#
# PCOD9133723 Si02
#       7
#     4   4   4   4   4   4   4
#     4  12  21  37  58  80 103 140 192 221 269 323
#     4  10  16  25  36  61  96 128 167 195 257 308
#     4  10  16  20  34  57  87 127 163 189 235 309
#     4  10  23  38  56  79 107 141 179 230 275 320
#     4  10  14  22  33  55  80 123 167 185 226 307
#     4  10  16  29  44  60  90 127 171 189 254 310
#     4  10  16  27  41  62  91 130 167 199 248 311
#
# _framework density 24.427199000000002
#
# number of rings (size 3 to 8) (size 9 to 14) (size 15 to 20)
#    0.000    1.714    5.714    5.143    0.000    0.000 
#    0.000    0.000    0.000    0.000    0.000    0.000 
#    0.000    0.000    0.000   30.857    4.000    0.000 
#
# Total GULP energy -78068.079519 kJ/mol
# GULP energy per Si atom -5576.291394 kJ/mol
# Density = 2.437160 g / cm^3
# Si number density = 24.427199 Si / 1000 Ang^3
#
#
#
# Elastic Constant Matrix: (Units=GPa)
#
#
# Indices 1 2 3 4 5 6 
#
# 1 51.9301 -13.1842 -24.3548 0.0000 15.0499 0.0000
# 2 -13.1842 65.6945 16.5828 0.0000 3.6490 0.0000
# 3 -24.3548 16.5828 249.6737 0.0000 10.2612 0.0000
# 4 0.0000 0.0000 0.0000 4.5213 0.0000 1.9969
# 5 15.0499 3.6490 10.2612 0.0000 27.1009 0.0000
# 6 0.0000 0.0000 0.0000 1.9969 0.0000 0.2601
#
#
#
# Elastic Compliance Matrix: (Units=1/GPa)
#
#
# Indices 1 2 3 4 5 6 
#
# 1 0.026937 0.005597 0.002948 0.000000 -0.016828 0.000000
# 2 0.005597 0.016724 -0.000350 0.000000 -0.005227 0.000000
# 3 0.002948 -0.000350 0.004451 0.000000 -0.003275 0.000000
# 4 0.000000 0.000000 0.000000 -0.092522 0.000000 0.710257
# 5 -0.016828 -0.005227 -0.003275 0.000000 0.048188 0.000000
# 6 0.000000 0.000000 0.000000 0.710257 0.000000 -1.608136
#
#
# Mechanical properties :
#
#
# Convention : Reuss Voigt Hill
#
# Bulk Modulus (GPa) = 15.50391 36.15399 25.82895
# Shear Modulus (GPa) = -3.12647 32.26010 14.56681
#
# Velocity S-wave (km/s) = -1.13256 3.63804 2.44465
# Velocity P-wave (km/s) = 2.15650 5.69911 4.30874
#
# Compressibility (1/GPa) = 0.06449987
#
# Stress axis : x y z
#
# Youngs Moduli (GPa) = 37.12366 59.79478 224.68955
#
# Poissons Ratio (x) = -0.33465 -0.66228
# Poissons Ratio (y) = -0.20777 0.07864
# Poissons Ratio (z) = -0.10942 0.02093
#
# Static dielectric constant tensor:
#      x y z
#    x 1.928380 0.000000 0.015380 
#    y 0.000000 1.954670 0.000000 
#    z 0.015380 0.000000 2.025700 
# 
# From -- ./inp_files/3381.got.cif
#   From: 2010.05.17/outbox.cif.g08.bks.cpg/sg9_2_cif.got.tgz:3381.got - 2010.06.03 20:04:27.
