data_PCOD9133710
_publ_section_title
;
Structure prediction by ZEFSAII (Michael W. Deem and Ramdas Pophale) SiO2 
 PCOD9133710
Probable space group: C M
;
_chemical_formula_sum "Si O2"
_cell_formula_units_Z 16
_cell_length_a 18.000000
_cell_length_b 15.000000
_cell_length_c 12.000000
_cell_angle_alpha 90.000000
_cell_angle_beta 150.000000
_cell_angle_gamma 90.000000
_cell_volume 1620.000000
_symmetry_space_group_name_H-M "C M"
_symmetry_group_IT_number 8
_symmetry_cell_setting 'monoclinic'
loop_
_space_group_symop_operation_xyz
x,y,z
x,-y,z
1/2+x,1/2+y,z
1/2+x,1/2-y,z
loop_
_atom_site_type_symbol
_atom_site_label
_atom_site_fract_x
_atom_site_fract_y
_atom_site_fract_z
Si Si1 0.406650 0.896668 0.135720
Si Si2 0.954201 0.103556 0.828623
Si Si3 0.349865 0.603069 0.437716
Si Si4 0.289872 0.394249 0.839988
Si Si5 0.216526 0.214037 0.277002
Si Si6 0.114881 0.104292 0.602459
Si Si7 0.060227 0.788415 0.304269
Si Si8 0.446853 0.895346 0.442651
O O1 0.519241 0.816284 0.257215
O O2 0.370958 0.887186 0.221469
O O3 0.461706 0.000000 0.193948
O O4 0.264658 0.884968 0.870621
O O5 0.909786 0.114831 0.642351
O O6 0.825941 0.118247 0.755184
O O7 0.002494 0.000000 0.904182
O O8 0.085107 0.168406 0.036374
O O9 0.298821 0.500000 0.361669
O O10 0.229944 0.681023 0.269030
O O11 0.478068 0.617129 0.511213
O O12 0.309163 0.500000 0.887541
O O13 0.120306 0.371352 0.649931
O O14 0.410708 0.339036 0.067010
O O15 0.179790 0.199323 0.360027
O O16 0.365668 0.165995 0.427083
O O17 0.105073 0.168704 0.481855
O O18 0.109866 0.000000 0.558913
O O19 0.438400 0.000000 0.462974
#
# Coordination Sequence:
#
# PCOD9133710 Si02
#       8
#     4   4   4   4   4   4   4   4
#     4  10  23  40  64  91 120 161 208 256 301 355
#     4   9  19  39  65  90 119 157 207 252 297 357
#     4  10  22  39  62  89 122 160 201 251 302 357
#     4   9  20  38  64  94 123 160 204 254 306 360
#     4  11  23  37  61  94 123 157 203 252 304 354
#     4  10  22  42  63  89 123 165 206 245 305 373
#     4  11  24  37  65  92 127 162 203 246 308 370
#     4  10  21  40  66  93 121 156 208 262 303 348
#
# _framework density 9.8765429999999999
#
# number of rings (size 3 to 8) (size 9 to 14) (size 15 to 20)
#    0.000    2.000    0.000    2.250    5.250    5.000 
#    0.000    0.000    0.000    0.750    0.000    0.000 
#    0.000    0.000    0.000    0.000    0.000    0.000 
#
# Total GULP energy -89422.526533 kJ/mol
# GULP energy per Si atom -5588.907908 kJ/mol
# Density = 0.985406 g / cm^3
# Si number density = 9.876543 Si / 1000 Ang^3
#
#
#
# Elastic Constant Matrix: (Units=GPa)
#
#
# Indices 1 2 3 4 5 6 
#
# 1 140.5938 75.1681 47.5857 0.0000 0.6624 0.0000
# 2 75.1681 136.4250 66.9239 0.0000 4.2899 0.0000
# 3 47.5857 66.9239 84.6915 0.0000 -1.9955 0.0000
# 4 0.0000 0.0000 0.0000 32.6515 0.0000 1.9927
# 5 0.6624 4.2899 -1.9955 0.0000 31.1530 0.0000
# 6 0.0000 0.0000 0.0000 1.9927 0.0000 31.8317
#
#
#
# Elastic Compliance Matrix: (Units=1/GPa)
#
#
# Indices 1 2 3 4 5 6 
#
# 1 0.010316 -0.004659 -0.002108 0.000000 0.000287 0.000000
# 2 -0.004659 0.014235 -0.008688 0.000000 -0.002418 0.000000
# 3 -0.002108 -0.008688 0.019916 0.000000 0.002517 0.000000
# 4 0.000000 0.000000 0.000000 0.030744 0.000000 -0.001925
# 5 0.000287 -0.002418 0.002517 0.000000 0.032588 0.000000
# 6 0.000000 0.000000 0.000000 -0.001925 0.000000 0.031536
#
#
# Mechanical properties :
#
#
# Convention : Reuss Voigt Hill
#
# Bulk Modulus (GPa) = 73.75767 82.34063 78.04915
# Shear Modulus (GPa) = 28.61031 30.59609 29.60320
#
# Velocity S-wave (km/s) = 3.80991 3.93991 3.87546
# Velocity P-wave (km/s) = 7.53490 7.90396 7.72164
#
# Compressibility (1/GPa) = 0.01355791
#
# Stress axis : x y z
#
# Youngs Moduli (GPa) = 96.94121 70.25042 50.20983
#
# Poissons Ratio (x) = 0.32728 0.10584
# Poissons Ratio (y) = 0.45162 0.43621
# Poissons Ratio (z) = 0.20434 0.61032
#
# Static dielectric constant tensor:
#      x y z
#    x 1.686410 0.000000 0.019940 
#    y 0.000000 1.713430 0.000000 
#    z 0.019940 0.000000 1.687660 
# 
# From -- ./inp_files/23310.got.cif
#   From: 2010.05.17/outbox.ucp.g08.bks.cvg/sg8_12_cif.got.tgz:23310.got - 2010.06.11 13:00:03.
