data_PCOD9133395
_publ_section_title
;
Structure prediction by ZEFSAII (Michael W. Deem and Ramdas Pophale) SiO2 
 PCOD9133395
Probable space group: C M
;
_chemical_formula_sum "Si O2"
_cell_formula_units_Z 32
_cell_length_a 11.188986
_cell_length_b 28.235027
_cell_length_c 8.086360
_cell_angle_alpha 90.000000
_cell_angle_beta 144.717175
_cell_angle_gamma 90.000000
_cell_volume 1475.600974
_symmetry_space_group_name_H-M "C M"
_symmetry_group_IT_number 8
_symmetry_cell_setting 'monoclinic'
loop_
_space_group_symop_operation_xyz
x,y,z
x,-y,z
1/2+x,1/2+y,z
1/2+x,1/2-y,z
loop_
_atom_site_type_symbol
_atom_site_label
_atom_site_fract_x
_atom_site_fract_y
_atom_site_fract_z
Si Si1 0.542000 0.796115 0.012370
Si Si2 0.571271 0.054701 0.058726
Si Si3 0.748969 0.377334 0.815901
Si Si4 0.054258 0.124643 0.083137
Si Si5 0.781514 0.203972 0.627199
Si Si6 0.761968 0.945582 0.641020
Si Si7 0.327801 0.366549 0.176862
Si Si8 0.961756 0.364084 0.405849
O O1 0.683068 0.789581 0.335420
O O2 0.695638 0.818634 0.049967
O O3 0.375869 0.836293 0.867653
O O4 0.410332 0.750006 0.821683
O O5 0.699763 0.059228 0.377374
O O6 0.678834 0.089132 0.047975
O O7 0.569632 0.000000 0.007783
O O8 0.343203 0.074266 0.847025
O O9 0.508757 0.370167 0.516820
O O10 0.821057 0.372516 0.085239
O O11 0.297449 0.134723 0.366470
O O12 0.948202 0.131646 0.140752
O O13 0.944350 0.161431 0.834244
O O14 0.991307 0.073135 0.942159
O O15 0.590684 0.184251 0.524760
O O16 0.615825 0.908713 0.573912
O O17 0.732641 0.000000 0.654342
#
# Coordination Sequence:
#
# PCOD9133395 Si02
#       8
#     4   4   4   4   4   4   4   4
#     4  10  23  44  67  92 123 161 214 265 320 379
#     4   9  19  38  64  91 122 167 218 264 311 376
#     4   9  19  37  62  88 123 163 208 261 316 371
#     4  11  23  39  60  92 132 170 204 259 322 381
#     4  10  23  44  67  93 120 164 213 268 317 377
#     4   9  19  38  64  92 122 164 219 265 312 373
#     4  11  23  39  61  92 133 167 207 260 322 381
#     4   9  19  39  63  88 125 166 211 260 316 376
#
# _framework density 21.68608
#
# number of rings (size 3 to 8) (size 9 to 14) (size 15 to 20)
#    0.000    2.250    0.000    3.750    1.750    6.500 
#    4.500    2.500    0.000    0.000    0.000    0.000 
#    0.000    0.000    0.000    0.000    0.000    0.000 
#
# Total GULP energy -89357.509687 kJ/mol
# GULP energy per Si atom -5584.844355 kJ/mol
# Density = 2.163672 g / cm^3
# Si number density = 21.686080 Si / 1000 Ang^3
#
#
#
# Elastic Constant Matrix: (Units=GPa)
#
#
# Indices 1 2 3 4 5 6 
#
# 1 121.5722 62.2314 29.1138 0.0000 18.5928 0.0000
# 2 62.2314 143.1288 51.0024 0.0000 7.4595 0.0000
# 3 29.1138 51.0024 94.0709 0.0000 7.3324 0.0000
# 4 0.0000 0.0000 0.0000 33.2901 0.0000 0.3794
# 5 18.5928 7.4595 7.3324 0.0000 32.8971 0.0000
# 6 0.0000 0.0000 0.0000 0.3794 0.0000 2.3137
#
#
#
# Elastic Compliance Matrix: (Units=1/GPa)
#
#
# Indices 1 2 3 4 5 6 
#
# 1 0.011498 -0.004464 -0.000723 0.000000 -0.005325 0.000000
# 2 -0.004464 0.010421 -0.004357 0.000000 0.001131 0.000000
# 3 -0.000723 -0.004357 0.013339 0.000000 -0.001577 0.000000
# 4 0.000000 0.000000 0.000000 0.030095 0.000000 -0.004935
# 5 -0.005325 0.001131 -0.001577 0.000000 0.033502 0.000000
# 6 0.000000 0.000000 0.000000 -0.004935 0.000000 0.433022
#
#
# Mechanical properties :
#
#
# Convention : Reuss Voigt Hill
#
# Bulk Modulus (GPa) = 61.84063 71.49636 66.66850
# Shear Modulus (GPa) = 8.98705 28.12845 18.55775
#
# Velocity S-wave (km/s) = 2.03793 3.60540 2.92848
# Velocity P-wave (km/s) = 5.84087 7.09734 6.49954
#
# Compressibility (1/GPa) = 0.01617060
#
# Stress axis : x y z
#
# Youngs Moduli (GPa) = 86.96923 95.95840 74.96806
#
# Poissons Ratio (x) = 0.42837 0.05422
# Poissons Ratio (y) = 0.38824 0.32661
# Poissons Ratio (z) = 0.06290 0.41805
#
# Static dielectric constant tensor:
#      x y z
#    x 1.835290 0.000000 -0.009530 
#    y 0.000000 1.766180 0.000000 
#    z -0.009530 0.000000 1.840100 
# 
# From -- ./inp_files/11721.got.cif
#   From: 2010.05.17/outbox.cif.g08.bks.cpg/sg8_6_cif.got.tgz:11721.got - 2010.06.03 19:46:02.
