data_PCOD9133379
_publ_section_title
;
Structure prediction by ZEFSAII (Michael W. Deem and Ramdas Pophale) SiO2 
 PCOD9133379
Probable space group: C M
;
_chemical_formula_sum "Si O2"
_cell_formula_units_Z 26
_cell_length_a 27.328332
_cell_length_b 7.410686
_cell_length_c 4.976913
_cell_angle_alpha 90.000000
_cell_angle_beta 91.255409
_cell_angle_gamma 90.000000
_cell_volume 1007.690878
_symmetry_space_group_name_H-M "C M"
_symmetry_group_IT_number 8
_symmetry_cell_setting 'monoclinic'
loop_
_space_group_symop_operation_xyz
x,y,z
x,-y,z
1/2+x,1/2+y,z
1/2+x,1/2-y,z
loop_
_atom_site_type_symbol
_atom_site_label
_atom_site_fract_x
_atom_site_fract_y
_atom_site_fract_z
Si Si1 0.625000 0.205061 0.936950
Si Si2 0.327182 0.500000 0.785338
Si Si3 0.777147 0.709102 0.110215
Si Si4 0.186072 0.205395 0.445470
Si Si5 0.527853 0.779960 0.637127
Si Si6 0.877449 0.708085 0.463844
Si Si7 0.970483 0.718909 0.130758
O O1 0.667035 0.205614 0.714413
O O2 0.577961 0.283524 0.778153
O O3 0.612810 0.000000 0.012918
O O4 0.644111 0.292227 0.211549
O O5 0.366688 0.342346 0.702302
O O6 0.287792 0.341831 0.869259
O O7 0.768098 0.500000 0.034108
O O8 0.733422 0.777153 0.294654
O O9 0.827220 0.715853 0.287520
O O10 0.197474 0.000000 0.519806
O O11 0.514340 0.724072 0.335904
O O12 0.530387 0.000000 0.630592
O O13 0.483927 0.726372 0.832373
O O14 0.886470 0.500000 0.549806
O O15 0.920602 0.771145 0.271771
O O16 0.969188 0.500000 0.125660
#
# Coordination Sequence:
#
# PCOD9133379 Si02
#       7
#     4   2   4   4   4   4   4
#     4  11  23  40  69 100 128 165 224 279 324 390
#     4  12  24  40  68  94 136 166 228 274 330 382
#     4  10  25  43  63  94 132 177 218 269 331 398
#     4  11  25  43  65  92 134 177 216 264 336 402
#     4   9  18  35  61  95 125 162 215 272 323 384
#     4  10  23  42  66  95 130 177 220 268 329 396
#     4   9  18  34  63  92 125 169 217 263 323 391
#
# _framework density 25.801563999999999
#
# number of rings (size 3 to 8) (size 9 to 14) (size 15 to 20)
#    0.000    1.846    0.000    2.769    6.462    2.462 
#    0.000    0.000   10.154    0.000    0.000    0.000 
#    0.000    0.000    0.000    0.000    0.000    0.000 
#
# Total GULP energy -72543.746753 kJ/mol
# GULP energy per Si atom -5580.288212 kJ/mol
# Density = 2.574284 g / cm^3
# Si number density = 25.801564 Si / 1000 Ang^3
#
#
#
# Elastic Constant Matrix: (Units=GPa)
#
#
# Indices 1 2 3 4 5 6 
#
# 1 87.6850 1.8862 6.9811 0.0000 -8.1003 0.0000
# 2 1.8862 101.5944 9.4651 0.0000 -10.7123 0.0000
# 3 6.9811 9.4651 105.3533 0.0000 1.8496 0.0000
# 4 0.0000 0.0000 0.0000 -29.9301 0.0000 11.9459
# 5 -8.1003 -10.7123 1.8496 0.0000 47.3287 0.0000
# 6 0.0000 0.0000 0.0000 11.9459 0.0000 16.1818
#
#
#
# Elastic Compliance Matrix: (Units=1/GPa)
#
#
# Indices 1 2 3 4 5 6 
#
# 1 0.011657 0.000075 -0.000815 0.000000 0.002044 0.000000
# 2 0.000075 0.010179 -0.000961 0.000000 0.002354 0.000000
# 3 -0.000815 -0.000961 0.009645 0.000000 -0.000734 0.000000
# 4 0.000000 0.000000 0.000000 -0.025807 0.000000 0.019052
# 5 0.002044 0.002354 -0.000734 0.000000 0.022040 0.000000
# 6 0.000000 0.000000 0.000000 0.019052 0.000000 0.047733
#
#
# Mechanical properties :
#
#
# Convention : Reuss Voigt Hill
#
# Bulk Modulus (GPa) = 35.61331 36.81082 36.21207
# Shear Modulus (GPa) = 56.68355 25.13609 40.90982
#
# Velocity S-wave (km/s) = 4.69220 3.12462 3.98622
# Velocity P-wave (km/s) = 6.57179 5.22642 5.93733
#
# Compressibility (1/GPa) = 0.02807939
#
# Stress axis : x y z
#
# Youngs Moduli (GPa) = 85.78870 98.23721 103.67970
#
# Poissons Ratio (x) = -0.00737 0.08450
# Poissons Ratio (y) = -0.00644 0.09962
# Poissons Ratio (z) = 0.06992 0.09439
#
# Static dielectric constant tensor:
#      x y z
#    x 2.054060 0.000000 0.041300 
#    y 0.000000 1.997910 0.000000 
#    z 0.041300 0.000000 1.996530 
# 
# From -- ./inp_files/6193.got.cif
#   From: 2010.05.17/outbox.cif.g08.bks.cpg/sg8_4_cif.got.tgz:6193.got - 2010.06.03 19:46:02.
