data_PCOD9133193
_publ_section_title
;
Structure prediction by ZEFSAII (Michael W. Deem and Ramdas Pophale) SiO2 
 PCOD9133193
Probable space group: C M
;
_chemical_formula_sum "Si O2"
_cell_formula_units_Z 28
_cell_length_a 14.045074
_cell_length_b 9.953125
_cell_length_c 12.508123
_cell_angle_alpha 90.000000
_cell_angle_beta 126.401484
_cell_angle_gamma 90.000000
_cell_volume 1407.362325
_symmetry_space_group_name_H-M "C M"
_symmetry_group_IT_number 8
_symmetry_cell_setting 'monoclinic'
loop_
_space_group_symop_operation_xyz
x,y,z
x,-y,z
1/2+x,1/2+y,z
1/2+x,1/2-y,z
loop_
_atom_site_type_symbol
_atom_site_label
_atom_site_fract_x
_atom_site_fract_y
_atom_site_fract_z
Si Si1 0.539970 0.750478 0.783130
Si Si2 0.403273 0.345479 0.308358
Si Si3 0.286996 0.848033 0.900065
Si Si4 0.300390 0.346066 0.710738
Si Si5 0.031423 0.352795 0.541241
Si Si6 0.972267 0.160385 0.124113
Si Si7 0.127810 0.343696 0.073598
O O1 0.648724 0.650450 0.834699
O O2 0.412029 0.681781 0.709718
O O3 0.540382 0.839330 0.675755
O O4 0.576948 0.821113 0.919689
O O5 0.412055 0.500000 0.346629
O O6 0.445378 0.254527 0.432800
O O7 0.487849 0.325212 0.261569
O O8 0.268387 0.322657 0.180743
O O9 0.306227 0.774086 0.800289
O O10 0.332791 0.000000 0.933713
O O11 0.353012 0.743573 0.020654
O O12 0.313314 0.500000 0.762583
O O13 0.164470 0.338741 0.582293
O O14 0.986760 0.500000 0.483934
O O15 0.065065 0.236878 0.110379
O O16 0.963502 0.000000 0.095512
O O17 0.105610 0.500000 0.087906
#
# Coordination Sequence:
#
# PCOD9133193 Si02
#       7
#     4   4   4   4   4   4   4
#     4  11  22  39  66  98 130 164 212 260 325 377
#     4  10  24  46  66  88 128 175 212 263 320 381
#     4  11  22  35  58  94 128 162 208 258 312 375
#     4  10  22  40  62  90 128 168 209 259 321 375
#     4  10  24  43  65  93 127 172 216 262 315 382
#     4  11  23  40  62  91 128 167 210 260 322 379
#     4  11  23  41  67  98 127 164 213 266 325 383
#
# _framework density 19.895374
#
# number of rings (size 3 to 8) (size 9 to 14) (size 15 to 20)
#    0.000    1.429    2.857    1.714    0.000    8.000 
#    0.000    4.286    0.000    0.000    0.000    0.000 
#    0.000    0.000    0.000    0.000    0.000    0.000 
#
# Total GULP energy -78025.075397 kJ/mol
# GULP energy per Si atom -5573.219671 kJ/mol
# Density = 1.985009 g / cm^3
# Si number density = 19.895374 Si / 1000 Ang^3
#
#
#
# Elastic Constant Matrix: (Units=GPa)
#
#
# Indices 1 2 3 4 5 6 
#
# 1 113.0851 60.6510 30.4177 0.0000 11.4734 0.0000
# 2 60.6510 136.2134 55.5439 0.0000 -2.6307 0.0000
# 3 30.4177 55.5439 84.4678 0.0000 -0.7843 0.0000
# 4 0.0000 0.0000 0.0000 22.3305 0.0000 8.2329
# 5 11.4734 -2.6307 -0.7843 0.0000 14.7951 0.0000
# 6 0.0000 0.0000 0.0000 8.2329 0.0000 11.8413
#
#
#
# Elastic Compliance Matrix: (Units=1/GPa)
#
#
# Indices 1 2 3 4 5 6 
#
# 1 0.013377 -0.005697 -0.001177 0.000000 -0.011449 0.000000
# 2 -0.005697 0.012488 -0.006102 0.000000 0.006315 0.000000
# 3 -0.001177 -0.006102 0.016281 0.000000 0.000691 0.000000
# 4 0.000000 0.000000 0.000000 0.060218 0.000000 -0.041867
# 5 -0.011449 0.006315 0.000691 0.000000 0.077628 0.000000
# 6 0.000000 0.000000 0.000000 -0.041867 0.000000 0.113559
#
#
# Mechanical properties :
#
#
# Convention : Reuss Voigt Hill
#
# Bulk Modulus (GPa) = 61.74965 69.66574 65.70769
# Shear Modulus (GPa) = 15.38930 22.27029 18.82980
#
# Velocity S-wave (km/s) = 2.78422 3.34933 3.07977
# Velocity P-wave (km/s) = 6.43743 7.07456 6.76350
#
# Compressibility (1/GPa) = 0.01619442
#
# Stress axis : x y z
#
# Youngs Moduli (GPa) = 74.75667 80.07488 61.41980
#
# Poissons Ratio (x) = 0.45622 0.07229
# Poissons Ratio (y) = 0.42592 0.37476
# Poissons Ratio (z) = 0.08799 0.48859
#
# Static dielectric constant tensor:
#      x y z
#    x 1.740680 0.000000 0.008080 
#    y 0.000000 1.681300 0.000000 
#    z 0.008080 0.000000 1.702770 
# 
# From -- ./inp_files/26589.got.cif
#   From: 2010.05.17/outbox.cif.g08.bks.cpg/sg8_14_cif.got.tgz:26589.got - 2010.06.03 19:46:02.
