data_PCOD9133713
_publ_section_title
;
Structure prediction by ZEFSAII (Michael W. Deem and Ramdas Pophale) SiO2 
 PCOD9133713
Probable space group: C M
;
_chemical_formula_sum "Si O2"
_cell_formula_units_Z 16
_cell_length_a 24.000000
_cell_length_b 15.000000
_cell_length_c 9.000000
_cell_angle_alpha 90.000000
_cell_angle_beta 30.000000
_cell_angle_gamma 90.000000
_cell_volume 1620.000000
_symmetry_space_group_name_H-M "C M"
_symmetry_group_IT_number 8
_symmetry_cell_setting 'monoclinic'
loop_
_space_group_symop_operation_xyz
x,y,z
x,-y,z
1/2+x,1/2+y,z
1/2+x,1/2-y,z
loop_
_atom_site_type_symbol
_atom_site_label
_atom_site_fract_x
_atom_site_fract_y
_atom_site_fract_z
Si Si1 0.648300 0.401704 0.397660
Si Si2 0.527443 0.898938 0.830396
Si Si3 0.003225 0.894692 0.205729
Si Si4 0.914951 0.401587 0.771910
Si Si5 0.856100 0.238391 0.738271
Si Si6 0.969196 0.199732 0.973660
Si Si7 0.288651 0.609318 0.167434
Si Si8 0.207973 0.896129 0.934239
O O1 0.612536 0.500000 0.536467
O O2 0.581517 0.321327 0.621934
O O3 0.781684 0.395492 0.113432
O O4 0.631510 0.400867 0.259071
O O5 0.485690 0.901684 0.756976
O O6 0.469856 0.805400 0.016112
O O7 0.661327 0.889499 0.520694
O O8 0.499921 0.000000 0.955907
O O9 0.924150 0.831926 0.485602
O O10 0.978870 0.000000 0.277702
O O11 0.983067 0.860670 0.086707
O O12 0.130090 0.881799 0.971798
O O13 0.931393 0.500000 0.661952
O O14 0.936417 0.311312 0.632508
O O15 0.783703 0.309158 0.802586
O O16 0.797934 0.174284 0.998832
O O17 0.870456 0.158599 0.098205
O O18 0.315016 0.500000 0.084662
O O19 0.255180 0.000000 0.814896
#
# Coordination Sequence:
#
# PCOD9133713 Si02
#       8
#     4   4   4   4   4   4   4   4
#     4   9  17  33  62  92 116 146 199 253 297 348
#     4  10  22  39  60  90 123 150 196 256 303 355
#     4  11  25  41  58  85 126 163 201 246 293 355
#     4   9  18  35  61  92 119 149 193 251 303 352
#     4  11  20  36  62  89 120 155 198 244 305 353
#     4  12  23  39  62  87 121 166 204 242 303 360
#     4  11  23  38  62  92 122 156 203 253 300 356
#     4   9  20  39  61  89 117 151 198 255 302 349
#
# _framework density 9.8765429999999999
#
# number of rings (size 3 to 8) (size 9 to 14) (size 15 to 20)
#    0.000    1.750    1.250    4.875    1.750    2.000 
#    0.000    1.250    0.000    0.750    0.000    0.000 
#    0.000    0.000    0.000    0.000    0.000    0.000 
#
# Total GULP energy -89092.762471 kJ/mol
# GULP energy per Si atom -5568.297654 kJ/mol
# Density = 0.985406 g / cm^3
# Si number density = 9.876543 Si / 1000 Ang^3
#
#
#
# Elastic Constant Matrix: (Units=GPa)
#
#
# Indices 1 2 3 4 5 6 
#
# 1 107.4701 39.1770 22.6039 0.0000 -19.4950 0.0000
# 2 39.1770 181.6958 8.5625 0.0000 -17.3354 0.0000
# 3 22.6039 8.5625 13.9780 0.0000 -13.3667 0.0000
# 4 0.0000 0.0000 0.0000 28.3735 0.0000 -1.9340
# 5 -19.4950 -17.3354 -13.3667 0.0000 9.9555 0.0000
# 6 0.0000 0.0000 0.0000 -1.9340 0.0000 39.6050
#
#
#
# Elastic Compliance Matrix: (Units=1/GPa)
#
#
# Indices 1 2 3 4 5 6 
#
# 1 0.014114 -0.001265 -0.008010 0.000000 0.014681 0.000000
# 2 -0.001265 0.004967 -0.017273 0.000000 -0.017021 0.000000
# 3 -0.008010 -0.017273 -0.180726 0.000000 -0.288414 0.000000
# 4 0.000000 0.000000 0.000000 0.035362 0.000000 0.001727
# 5 0.014681 -0.017021 -0.288414 0.000000 -0.287681 0.000000
# 6 0.000000 0.000000 0.000000 0.001727 0.000000 0.025334
#
#
# Mechanical properties :
#
#
# Convention : Reuss Voigt Hill
#
# Bulk Modulus (GPa) = -4.65675 49.31453 22.32889
# Shear Modulus (GPa) = -12.28151 31.10683 9.41266
#
# Velocity S-wave (km/s) = -2.49620 3.97266 2.18529
# Velocity P-wave (km/s) = 3.26659 6.78693 4.20665
#
# Compressibility (1/GPa) = -0.21474206
#
# Stress axis : x y z
#
# Youngs Moduli (GPa) = 70.85235 201.34877 -5.53324
#
# Poissons Ratio (x) = 0.25472 -0.04432
# Poissons Ratio (y) = 0.08963 -0.09558
# Poissons Ratio (z) = 0.56750 3.47800
#
# Static dielectric constant tensor:
#      x y z
#    x 1.730580 0.000000 0.005690 
#    y 0.000000 1.760830 0.000000 
#    z 0.005690 0.000000 1.711950 
# 
# From -- ./inp_files/17117.got.cif
#   From: 2010.05.17/outbox.ucp.g08.bks.cvg/sg8_9_cif.got.tgz:17117.got - 2010.06.11 13:00:03.
