data_PCOD9133915
_publ_section_title
;
Structure prediction by ZEFSAII (Michael W. Deem and Ramdas Pophale) SiO2 
 PCOD9133915
Probable space group: C C
;
_chemical_formula_sum "Si O2"
_cell_formula_units_Z 32
_cell_length_a 18.361329
_cell_length_b 15.685538
_cell_length_c 5.558686
_cell_angle_alpha 90.000000
_cell_angle_beta 78.281853
_cell_angle_gamma 90.000000
_cell_volume 1567.576294
_symmetry_space_group_name_H-M "C C"
_symmetry_group_IT_number 9
_symmetry_cell_setting 'monoclinic'
loop_
_space_group_symop_operation_xyz
x,y,z
x,-y,1/2+z
1/2+x,1/2+y,z
1/2+x,1/2-y,1/2+z
loop_
_atom_site_type_symbol
_atom_site_label
_atom_site_fract_x
_atom_site_fract_y
_atom_site_fract_z
Si Si1 0.887820 0.776364 0.607930
Si Si2 0.409302 0.775169 0.594136
Si Si3 0.485028 0.409919 0.032213
Si Si4 0.261657 0.078388 0.385362
Si Si5 0.935797 0.542634 0.198233
Si Si6 0.708175 0.610599 0.923691
Si Si7 0.042779 0.139018 0.993540
Si Si8 0.336922 0.472810 0.651812
O O1 0.863355 0.737337 0.370705
O O2 0.978506 0.788499 0.534618
O O3 0.856487 0.872753 0.649357
O O4 0.871771 0.722195 0.857019
O O5 0.452492 0.686144 0.550519
O O6 0.455460 0.860594 0.611571
O O7 0.527648 0.412720 0.750619
O O8 0.529496 0.410720 0.252184
O O9 0.414194 0.472574 0.089124
O O10 0.345229 0.045017 0.277892
O O11 0.252734 0.123735 0.646952
O O12 0.208956 0.993865 0.434800
O O13 0.238982 0.132043 0.166862
O O14 0.958965 0.514513 0.451991
O O15 0.629580 0.657097 0.944524
O O16 0.299175 0.496867 0.424237
#
# Coordination Sequence:
#
# PCOD9133915 Si02
#       8
#     4   4   4   4   4   4   4   4
#     4  10  19  31  42  70  96 122 166 195 220 292
#     4  10  20  32  48  64  88 119 166 204 255 274
#     4  10  19  31  40  69  95 125 167 189 213 288
#     4  10  19  32  42  60  90 110 166 213 218 258
#     4  12  21  37  54  65  84 125 176 220 258 278
#     4  10  18  29  41  59  85 118 143 194 234 262
#     4  10  18  27  42  60  93 125 157 180 221 267
#     4  12  16  27  43  57  93 126 149 185 211 259
#
# _framework density 20.413681
#
# number of rings (size 3 to 8) (size 9 to 14) (size 15 to 20)
#    0.000    1.500    7.500    1.500    0.000    4.000 
#    0.000    0.000    0.000    0.000    0.000    0.000 
#    0.000    0.000    0.000    0.000  380.000    0.000 
#
# Total GULP energy -89094.432630 kJ/mol
# GULP energy per Si atom -5568.402039 kJ/mol
# Density = 2.036722 g / cm^3
# Si number density = 20.413681 Si / 1000 Ang^3
#
#
#
# Elastic Constant Matrix: (Units=GPa)
#
#
# Indices 1 2 3 4 5 6 
#
# 1 31.1641 -3.6070 25.7925 0.0000 6.2335 0.0000
# 2 -3.6070 65.9209 23.6773 0.0000 -3.3753 0.0000
# 3 25.7925 23.6773 212.1553 0.0000 49.1681 0.0000
# 4 0.0000 0.0000 0.0000 -44.3374 0.0000 3.0730
# 5 6.2335 -3.3753 49.1681 0.0000 26.9561 0.0000
# 6 0.0000 0.0000 0.0000 3.0730 0.0000 11.8388
#
#
#
# Elastic Compliance Matrix: (Units=1/GPa)
#
#
# Indices 1 2 3 4 5 6 
#
# 1 0.036585 0.003983 -0.005279 0.000000 0.001667 0.000000
# 2 0.003983 0.017607 -0.004758 0.000000 0.009962 0.000000
# 3 -0.005279 -0.004758 0.009946 0.000000 -0.017516 0.000000
# 4 0.000000 0.000000 0.000000 -0.022156 0.000000 0.005751
# 5 0.001667 0.009962 -0.017516 0.000000 0.069909 0.000000
# 6 0.000000 0.000000 0.000000 0.005751 0.000000 0.082975
#
#
# Mechanical properties :
#
#
# Convention : Reuss Voigt Hill
#
# Bulk Modulus (GPa) = 19.21963 44.55175 31.88569
# Shear Modulus (GPa) = 22.29001 16.45001 19.37001
#
# Velocity S-wave (km/s) = 3.30800 2.84180 3.08372
# Velocity P-wave (km/s) = 4.90163 5.71311 5.32286
#
# Compressibility (1/GPa) = 0.05203013
#
# Stress axis : x y z
#
# Youngs Moduli (GPa) = 27.33396 56.79661 100.54546
#
# Poissons Ratio (x) = -0.22623 0.53073
# Poissons Ratio (y) = -0.10887 0.47839
# Poissons Ratio (z) = 0.14428 0.27024
#
# Static dielectric constant tensor:
#      x y z
#    x 1.727660 0.000000 0.050520 
#    y 0.000000 1.792670 0.000000 
#    z 0.050520 0.000000 1.861360 
# 
# From -- ./inp_files/3187.got.cif
#   From: 2010.05.17/outbox.cif.g08.bks.cpg/sg9_2_cif.got.tgz:3187.got - 2010.06.03 20:04:27.
