data_PCOD9133336
_publ_section_title
;
Structure prediction by ZEFSAII (Michael W. Deem and Ramdas Pophale) SiO2 
 PCOD9133336
Probable space group: C M
;
_chemical_formula_sum "Si O2"
_cell_formula_units_Z 22
_cell_length_a 13.869051
_cell_length_b 13.369046
_cell_length_c 11.792737
_cell_angle_alpha 90.000000
_cell_angle_beta 33.098569
_cell_angle_gamma 90.000000
_cell_volume 1194.039991
_symmetry_space_group_name_H-M "C M"
_symmetry_group_IT_number 8
_symmetry_cell_setting 'monoclinic'
loop_
_space_group_symop_operation_xyz
x,y,z
x,-y,z
1/2+x,1/2+y,z
1/2+x,1/2-y,z
loop_
_atom_site_type_symbol
_atom_site_label
_atom_site_fract_x
_atom_site_fract_y
_atom_site_fract_z
Si Si1 0.911890 0.884453 0.917320
Si Si2 0.136935 0.819142 0.889627
Si Si3 0.611680 0.500000 0.078593
Si Si4 0.442215 0.324948 0.626435
Si Si5 0.316865 0.798053 0.153126
Si Si6 0.426506 0.000000 0.917507
Si Si7 0.838412 0.000000 0.556490
O O1 0.922489 0.865077 0.773471
O O2 0.860982 0.000000 0.988806
O O3 0.792782 0.797007 0.091703
O O4 0.095487 0.862170 0.804530
O O5 0.081768 0.903142 0.032317
O O6 0.996138 0.729497 0.042163
O O7 0.329106 0.775630 0.721296
O O8 0.818360 0.500000 0.907908
O O9 0.483936 0.500000 0.313289
O O10 0.646792 0.308563 0.397654
O O11 0.369646 0.404299 0.606098
O O12 0.357169 0.900436 0.048376
O O13 0.638455 0.000000 0.706010
#
# Coordination Sequence:
#
# PCOD9133336 Si02
#       7
#     4   4   2   4   4   2   2
#     4  10  22  46  64  95 135 167 215 269 323 395
#     4  10  24  42  64  96 132 167 217 267 328 382
#     4  12  24  43  70  93 137 174 212 282 328 383
#     4  12  22  42  70  93 130 175 215 269 327 385
#     4  10  23  42  66  96 131 165 222 268 318 390
#     4  12  22  44  65 100 128 168 235 269 309 409
#     4  12  24  39  71  99 125 176 225 263 337 382
#
# _framework density 18.424842999999999
#
# number of rings (size 3 to 8) (size 9 to 14) (size 15 to 20)
#    1.091    0.000    5.455    1.091    0.000    4.364 
#    1.636    0.000    0.000    0.000    0.000    0.000 
#    0.000    0.000    0.000    0.000    0.000    0.000 
#
# Total GULP energy -61292.621799 kJ/mol
# GULP energy per Si atom -5572.056527 kJ/mol
# Density = 1.838291 g / cm^3
# Si number density = 18.424843 Si / 1000 Ang^3
#
#
#
# Elastic Constant Matrix: (Units=GPa)
#
#
# Indices 1 2 3 4 5 6 
#
# 1 79.3015 7.3041 12.0827 -0.0003 9.3869 0.0002
# 2 7.3041 111.9528 7.3273 -0.0003 13.3738 0.0001
# 3 12.0827 7.3273 55.7656 -0.0006 -2.5692 0.0001
# 4 -0.0003 -0.0003 -0.0006 39.2817 0.0002 -29.4435
# 5 9.3869 13.3738 -2.5692 0.0002 29.8894 -0.0001
# 6 0.0002 0.0001 0.0001 -29.4435 -0.0001 62.7040
#
#
#
# Elastic Compliance Matrix: (Units=1/GPa)
#
#
# Indices 1 2 3 4 5 6 
#
# 1 0.013633 -0.000148 -0.003141 0.000000 -0.004485 0.000000
# 2 -0.000148 0.009555 -0.001424 0.000000 -0.004351 0.000000
# 3 -0.003141 -0.001424 0.018950 0.000000 0.003252 0.000000
# 4 0.000000 0.000000 0.000000 0.039283 0.000000 0.018446
# 5 -0.004485 -0.004351 0.003252 0.000000 0.037092 0.000000
# 6 0.000000 0.000000 0.000000 0.018446 0.000000 0.024610
#
#
# Mechanical properties :
#
#
# Convention : Reuss Voigt Hill
#
# Bulk Modulus (GPa) = 30.56988 33.38309 31.97649
# Shear Modulus (GPa) = 30.58991 41.06208 35.82599
#
# Velocity S-wave (km/s) = 4.07904 4.72595 4.41436
# Velocity P-wave (km/s) = 6.22996 6.92368 6.58596
#
# Compressibility (1/GPa) = 0.03271194
#
# Stress axis : x y z
#
# Youngs Moduli (GPa) = 73.35002 104.65741 52.77121
#
# Poissons Ratio (x) = 0.01550 0.16576
# Poissons Ratio (y) = 0.01086 0.07514
# Poissons Ratio (z) = 0.23040 0.14902
#
# Static dielectric constant tensor:
#      x y z
#    x 1.650710 0.000000 -0.014220 
#    y 0.000000 1.348420 0.000000 
#    z -0.014220 0.000000 1.583780 
# 
# From -- ./inp_files/13037.got.cif
#   From: 2010.05.17/outbox.cif.g08.bks.cpg/sg8_7_cif.got.tgz:13037.got - 2010.06.03 19:46:02.
