data_PCOD9133473
_publ_section_title
;
Structure prediction by ZEFSAII (Michael W. Deem and Ramdas Pophale) SiO2 
 PCOD9133473
Probable space group: C M
;
_chemical_formula_sum "Si O2"
_cell_formula_units_Z 20
_cell_length_a 5.989965
_cell_length_b 21.749563
_cell_length_c 7.271634
_cell_angle_alpha 90.000000
_cell_angle_beta 103.490557
_cell_angle_gamma 90.000000
_cell_volume 921.203385
_symmetry_space_group_name_H-M "C M"
_symmetry_group_IT_number 8
_symmetry_cell_setting 'monoclinic'
loop_
_space_group_symop_operation_xyz
x,y,z
x,-y,z
1/2+x,1/2+y,z
1/2+x,1/2-y,z
loop_
_atom_site_type_symbol
_atom_site_label
_atom_site_fract_x
_atom_site_fract_y
_atom_site_fract_z
Si Si1 0.502000 0.500000 0.526120
Si Si2 0.162507 0.610681 0.384509
Si Si3 0.859405 0.500000 0.823968
Si Si4 0.198899 0.389319 0.965578
Si Si5 0.330358 0.000000 0.338380
Si Si6 0.531049 0.500000 0.011712
Si Si7 0.680703 0.782671 0.675044
O O1 0.364722 0.564373 0.491566
O O2 0.573688 0.500000 0.776825
O O3 0.787716 0.500000 0.573266
O O4 0.140556 0.671611 0.497102
O O5 0.947987 0.565793 0.362604
O O6 0.180702 0.626248 0.175043
O O7 0.996684 0.435627 0.858522
O O8 0.811277 0.500000 0.075400
O O9 0.220850 0.328389 0.852984
O O10 0.413420 0.434206 0.987488
O O11 0.050131 0.000000 0.274690
O O12 0.430703 0.750000 0.675044
#
# Coordination Sequence:
#
# PCOD9133473 Si02
#       7
#     2   4   2   4   2   2   4
#     4  11  21  37  71 109 144 175 214 292 379 438
#     4  11  24  44  71 106 141 184 235 294 364 434
#     4  11  21  37  71 109 144 175 214 292 379 438
#     4  11  24  44  71 106 141 184 235 294 364 434
#     4  11  19  37  71 111 141 168 221 290 370 449
#     4  11  19  37  71 111 141 168 221 290 370 449
#     4  12  32  51  70 101 142 196 262 300 340 408
#
# _framework density 21.710733000000001
#
# number of rings (size 3 to 8) (size 9 to 14) (size 15 to 20)
#    0.000    0.800    4.000    3.600    8.400    4.800 
#    0.000    0.000    0.000    0.000    0.000    0.000 
#    0.000    0.000    0.000    0.000    0.000    0.000 
#
# Total GULP energy -55669.421956 kJ/mol
# GULP energy per Si atom -5566.942196 kJ/mol
# Density = 2.166132 g / cm^3
# Si number density = 21.710733 Si / 1000 Ang^3
#
#
#
# Elastic Constant Matrix: (Units=GPa)
#
#
# Indices 1 2 3 4 5 6 
#
# 1 133.5125 99.2447 69.3076 0.0000 -10.9501 0.0000
# 2 99.2447 173.9581 92.6598 0.0000 -8.9531 0.0000
# 3 69.3076 92.6598 213.3951 0.0000 -17.6436 0.0000
# 4 0.0000 0.0000 0.0000 91.4099 0.0000 51.6191
# 5 -10.9501 -8.9531 -17.6436 0.0000 49.9643 0.0000
# 6 0.0000 0.0000 0.0000 51.6191 0.0000 181.2942
#
#
#
# Elastic Compliance Matrix: (Units=1/GPa)
#
#
# Indices 1 2 3 4 5 6 
#
# 1 0.013366 -0.006900 -0.001241 0.000000 0.001255 0.000000
# 2 -0.006900 0.011042 -0.002591 0.000000 -0.000448 0.000000
# 3 -0.001241 -0.002591 0.006338 0.000000 0.001502 0.000000
# 4 0.000000 0.000000 0.000000 0.013036 0.000000 -0.003712
# 5 0.001255 -0.000448 0.001502 0.000000 0.020739 0.000000
# 6 0.000000 0.000000 0.000000 -0.003712 0.000000 0.006573
#
#
# Mechanical properties :
#
#
# Convention : Reuss Voigt Hill
#
# Bulk Modulus (GPa) = 107.72723 115.92110 111.82417
# Shear Modulus (GPa) = 52.27323 81.84394 67.05858
#
# Velocity S-wave (km/s) = 4.91217 6.14649 5.56366
# Velocity P-wave (km/s) = 9.04984 10.19224 9.63798
#
# Compressibility (1/GPa) = 0.00928270
#
# Stress axis : x y z
#
# Youngs Moduli (GPa) = 74.81678 90.56622 157.76784
#
# Poissons Ratio (x) = 0.62487 0.19586
# Poissons Ratio (y) = 0.51621 0.40872
# Poissons Ratio (z) = 0.09288 0.23463
#
# Static dielectric constant tensor:
#      x y z
#    x 2.119690 0.000000 -0.779650 
#    y 0.000000 1.646770 0.000000 
#    z -0.779650 0.000000 4.645070 
# 
# From -- ./inp_files/6658.got.cif
#   From: 2010.05.17/outbox.cif.g08.bks.cpg/sg8_4_cif.got.tgz:6658.got - 2010.06.03 19:46:02.
