data_PCOD9133870
_publ_section_title
;
Structure prediction by ZEFSAII (Michael W. Deem and Ramdas Pophale) SiO2 
 PCOD9133870
Probable space group: C C
;
_chemical_formula_sum "Si O2"
_cell_formula_units_Z 28
_cell_length_a 18.873169
_cell_length_b 4.946134
_cell_length_c 19.023626
_cell_angle_alpha 90.000000
_cell_angle_beta 138.743963
_cell_angle_gamma 90.000000
_cell_volume 1171.033808
_symmetry_space_group_name_H-M "C C"
_symmetry_group_IT_number 9
_symmetry_cell_setting 'monoclinic'
loop_
_space_group_symop_operation_xyz
x,y,z
x,-y,1/2+z
1/2+x,1/2+y,z
1/2+x,1/2-y,1/2+z
loop_
_atom_site_type_symbol
_atom_site_label
_atom_site_fract_x
_atom_site_fract_y
_atom_site_fract_z
Si Si1 0.974540 0.631040 0.837180
Si Si2 0.768240 0.691193 0.162740
Si Si3 0.631215 0.744692 0.350628
Si Si4 0.909904 0.072990 0.414355
Si Si5 0.751997 0.729318 0.992139
Si Si6 0.803272 0.452309 0.896327
Si Si7 0.124385 0.336826 0.570209
O O1 0.879495 0.422335 0.773480
O O2 0.937451 0.897919 0.852202
O O3 0.012979 0.669630 0.786016
O O4 0.075392 0.542465 0.960517
O O5 0.702105 0.923931 0.153915
O O6 0.694064 0.425562 0.106658
O O7 0.790911 0.779212 0.099326
O O8 0.654438 0.487360 0.418368
O O9 0.679058 0.644019 0.312286
O O10 0.710139 0.993574 0.427485
O O11 0.814860 0.285706 0.357333
O O12 0.016655 0.220867 0.527048
O O13 0.878016 0.789034 0.424244
O O14 0.828577 0.570745 0.993719
#
# Coordination Sequence:
#
# PCOD9133870 Si02
#       7
#     4   4   4   4   4   4   4
#     4  10  24  38  68  96 118 168 210 258 319 368
#     4  12  21  40  64  95 125 159 210 270 304 366
#     4  10  19  36  59  88 121 152 206 248 300 365
#     4  10  20  37  61  89 120 162 203 244 320 363
#     4  10  17  34  60  85 120 156 196 245 308 351
#     4  10  18  35  64  84 119 173 192 246 316 370
#     4  10  23  38  60  93 125 158 205 263 309 363
#
# _framework density 23.910495000000001
#
# number of rings (size 3 to 8) (size 9 to 14) (size 15 to 20)
#    1.714    0.000    4.286    0.857    0.000    4.571 
#    0.000    0.000    9.429    0.000    0.000    0.000 
#    0.000    0.000    0.000    0.000    0.000    0.000 
#
# Total GULP energy -77944.291726 kJ/mol
# GULP energy per Si atom -5567.449409 kJ/mol
# Density = 2.385607 g / cm^3
# Si number density = 23.910495 Si / 1000 Ang^3
#
#
#
# Elastic Constant Matrix: (Units=GPa)
#
#
# Indices 1 2 3 4 5 6 
#
# 1 133.0951 33.8071 29.2177 0.0005 10.0247 0.0000
# 2 33.8071 144.4854 31.7211 0.0015 8.6401 0.0028
# 3 29.2177 31.7211 42.6408 -0.0001 15.5739 -0.0001
# 4 0.0005 0.0015 -0.0001 14.9784 -0.0002 0.5397
# 5 10.0247 8.6401 15.5739 -0.0002 24.0886 0.0000
# 6 0.0000 0.0028 -0.0001 0.5397 0.0000 29.2355
#
#
#
# Elastic Compliance Matrix: (Units=1/GPa)
#
#
# Indices 1 2 3 4 5 6 
#
# 1 0.008940 -0.000888 -0.005527 0.000000 0.000172 0.000000
# 2 -0.000888 0.008393 -0.006114 -0.000001 0.001312 -0.000001
# 3 -0.005527 -0.006114 0.039465 0.000001 -0.021022 0.000001
# 4 0.000000 -0.000001 0.000001 0.066807 0.000000 -0.001233
# 5 0.000172 0.001312 -0.021022 0.000000 0.054563 0.000000
# 6 0.000000 -0.000001 0.000001 -0.001233 0.000000 0.034228
#
#
# Mechanical properties :
#
#
# Convention : Reuss Voigt Hill
#
# Bulk Modulus (GPa) = 31.50780 56.63478 44.07129
# Shear Modulus (GPa) = 20.15849 28.69219 24.42534
#
# Velocity S-wave (km/s) = 2.90674 3.46784 3.19961
# Velocity P-wave (km/s) = 4.94687 6.30651 5.66761
#
# Compressibility (1/GPa) = 0.03173817
#
# Stress axis : x y z
#
# Youngs Moduli (GPa) = 111.86272 119.14909 25.33868
#
# Poissons Ratio (x) = 0.10586 0.14005
# Poissons Ratio (y) = 0.09939 0.15492
# Poissons Ratio (z) = 0.61829 0.72848
#
# Static dielectric constant tensor:
#      x y z
#    x 2.018470 0.000000 -0.027970 
#    y 0.000000 1.926800 0.000000 
#    z -0.027970 0.000000 2.052720 
# 
# From -- ./inp_files/35891.got.cif
#   From: 2010.05.17/outbox.cif.g08.bks.cpg/sg9_18_cif.got.tgz:35891.got - 2010.06.03 20:04:27.
