data_PCOD9133130
_publ_section_title
;
Structure prediction by ZEFSAII (Michael W. Deem and Ramdas Pophale) SiO2 
 PCOD9133130
Probable space group: C M
;
_chemical_formula_sum "Si O2"
_cell_formula_units_Z 26
_cell_length_a 23.754602
_cell_length_b 7.651933
_cell_length_c 11.878481
_cell_angle_alpha 90.000000
_cell_angle_beta 140.077214
_cell_angle_gamma 90.000000
_cell_volume 1385.635067
_symmetry_space_group_name_H-M "C M"
_symmetry_group_IT_number 8
_symmetry_cell_setting 'monoclinic'
loop_
_space_group_symop_operation_xyz
x,y,z
x,-y,z
1/2+x,1/2+y,z
1/2+x,1/2-y,z
loop_
_atom_site_type_symbol
_atom_site_label
_atom_site_fract_x
_atom_site_fract_y
_atom_site_fract_z
Si Si1 0.241280 0.790050 0.502260
Si Si2 0.423271 0.801546 0.126949
Si Si3 0.109090 0.204246 0.489152
Si Si4 0.615962 0.288309 0.101576
Si Si5 0.660869 0.000000 0.990877
Si Si6 0.125586 0.500000 0.687285
Si Si7 0.311911 0.500000 0.058674
Si Si8 0.918780 0.795921 0.873836
O O1 0.189823 0.733393 0.536071
O O2 0.183434 0.739141 0.305487
O O3 0.341627 0.730871 0.665137
O O4 0.240518 0.000000 0.502247
O O5 0.522420 0.729834 0.281100
O O6 0.368049 0.671331 0.119565
O O7 0.420661 0.000000 0.163819
O O8 0.393363 0.796621 0.951455
O O9 0.096443 0.327373 0.577128
O O10 0.119669 0.000000 0.533844
O O11 0.620473 0.500000 0.091240
O O12 0.515689 0.243063 0.981854
O O13 0.641124 0.171946 0.033030
O O14 0.605697 0.000000 0.789478
O O15 0.761314 0.000000 0.099697
O O16 0.231471 0.500000 0.847465
O O17 0.924165 0.000000 0.910022
#
# Coordination Sequence:
#
# PCOD9133130 Si02
#       8
#     4   4   4   4   2   2   2   4
#     4  10  22  37  62 101 130 165 212 266 337 398
#     4  12  22  37  66  98 133 170 209 269 341 393
#     4  11  21  38  64  97 135 167 209 272 335 394
#     4  10  23  44  67  93 129 175 219 268 325 387
#     4  10  26  45  69  83 131 182 225 263 318 377
#     4  10  24  41  61  94 117 179 224 256 320 382
#     4  10  24  44  60  93 130 167 225 269 318 385
#     4  11  22  37  63 101 135 164 207 271 334 394
#
# _framework density 18.763959
#
# number of rings (size 3 to 8) (size 9 to 14) (size 15 to 20)
#    0.462    0.923    3.846    1.385    4.308    3.077 
#    0.000    1.538    0.000    0.000    0.000    0.000 
#    0.000    0.000    0.000    0.000    0.000    0.000 
#
# Total GULP energy -72531.693704 kJ/mol
# GULP energy per Si atom -5579.361054 kJ/mol
# Density = 1.872125 g / cm^3
# Si number density = 18.763959 Si / 1000 Ang^3
#
#
#
# Elastic Constant Matrix: (Units=GPa)
#
#
# Indices 1 2 3 4 5 6 
#
# 1 109.0657 51.6149 41.7006 0.0000 -5.2685 0.0000
# 2 51.6149 101.5608 21.1419 0.0000 -13.8060 0.0000
# 3 41.7006 21.1419 114.6587 0.0000 0.9175 0.0000
# 4 0.0000 0.0000 0.0000 49.2935 0.0000 49.8598
# 5 -5.2685 -13.8060 0.9175 0.0000 37.1297 0.0000
# 6 0.0000 0.0000 0.0000 49.8598 0.0000 168.3546
#
#
#
# Elastic Compliance Matrix: (Units=1/GPa)
#
#
# Indices 1 2 3 4 5 6 
#
# 1 0.013490 -0.006105 -0.003778 0.000000 -0.000263 0.000000
# 2 -0.006105 0.013585 -0.000318 0.000000 0.004193 0.000000
# 3 -0.003778 -0.000318 0.010162 0.000000 -0.000906 0.000000
# 4 0.000000 0.000000 0.000000 0.028963 0.000000 -0.008578
# 5 -0.000263 0.004193 -0.000906 0.000000 0.028477 0.000000
# 6 0.000000 0.000000 0.000000 -0.008578 0.000000 0.008480
#
#
# Mechanical properties :
#
#
# Convention : Reuss Voigt Hill
#
# Bulk Modulus (GPa) = 59.40481 61.57778 60.49130
# Shear Modulus (GPa) = 38.70843 65.01073 51.85958
#
# Velocity S-wave (km/s) = 4.54686 5.89252 5.26288
# Velocity P-wave (km/s) = 7.70019 8.89854 8.32097
#
# Compressibility (1/GPa) = 0.01683365
#
# Stress axis : x y z
#
# Youngs Moduli (GPa) = 74.12967 73.60964 98.40940
#
# Poissons Ratio (x) = 0.44938 0.37183
# Poissons Ratio (y) = 0.45256 0.03131
# Poissons Ratio (z) = 0.28009 0.02342
#
# Static dielectric constant tensor:
#      x y z
#    x 1.622620 0.000000 0.021040 
#    y 0.000000 1.653440 0.000000 
#    z 0.021040 0.000000 1.676850 
# 
# From -- ./inp_files/24339.got.cif
#   From: 2010.05.17/outbox.cif.g08.bks.cpg/sg8_13_cif.got.tgz:24339.got - 2010.06.03 19:46:02.
