data_PCOD9133943
_publ_section_title
;
Structure prediction by ZEFSAII (Michael W. Deem and Ramdas Pophale) SiO2 
 PCOD9133943
Probable space group: C C
;
_chemical_formula_sum "Si O2"
_cell_formula_units_Z 32
_cell_length_a 8.733615
_cell_length_b 31.005429
_cell_length_c 5.210456
_cell_angle_alpha 90.000000
_cell_angle_beta 79.246923
_cell_angle_gamma 90.000000
_cell_volume 1386.161157
_symmetry_space_group_name_H-M "C C"
_symmetry_group_IT_number 9
_symmetry_cell_setting 'monoclinic'
loop_
_space_group_symop_operation_xyz
x,y,z
x,-y,1/2+z
1/2+x,1/2+y,z
1/2+x,1/2-y,1/2+z
loop_
_atom_site_type_symbol
_atom_site_label
_atom_site_fract_x
_atom_site_fract_y
_atom_site_fract_z
Si Si1 0.923300 0.819183 0.979840
Si Si2 0.495662 0.267934 0.451271
Si Si3 0.220766 0.024485 0.782067
Si Si4 0.600593 0.845275 0.329319
Si Si5 0.511315 0.890561 0.839529
Si Si6 0.072874 0.488933 0.702703
Si Si7 0.680400 0.620353 0.582411
Si Si8 0.812694 0.296693 0.301778
O O1 0.932400 0.801472 0.687708
O O2 0.027850 0.862307 0.985895
O O3 0.990263 0.784030 0.160885
O O4 0.755090 0.827966 0.150903
O O5 0.680699 0.265368 0.454593
O O6 0.390990 0.225897 0.529236
O O7 0.178905 0.073310 0.716068
O O8 0.165471 0.991979 0.575603
O O9 0.410490 0.016536 0.735463
O O10 0.618675 0.865635 0.603563
O O11 0.466763 0.809470 0.406703
O O12 0.540702 0.878629 0.127344
O O13 0.533737 0.940138 0.771375
O O14 0.329439 0.880650 0.846776
O O15 0.163453 0.507582 0.912682
O O16 0.724383 0.658662 0.766825
#
# Coordination Sequence:
#
# PCOD9133943 Si02
#       8
#     4   4   4   4   4   4   4   4
#     4  11  25  44  65  90 135 173 212 266 325 390
#     4  11  24  44  65  94 129 170 215 263 328 375
#     4  10  20  33  59  93 125 160 209 276 318 371
#     4  11  24  39  61  92 127 172 207 266 319 382
#     4  11  21  36  62  91 123 156 222 260 318 374
#     4  10  18  31  55  89 119 157 198 271 313 367
#     4  10  22  40  65  99 123 169 225 267 324 383
#     4  10  24  41  68  96 131 169 218 271 315 398
#
# _framework density 23.085338
#
# number of rings (size 3 to 8) (size 9 to 14) (size 15 to 20)
#    0.000    1.500    2.500    3.000    5.250    9.000 
#    0.000    0.000    0.000    4.500    0.000    0.000 
#    0.000    0.000    0.000    0.000    0.000    0.000 
#
# Total GULP energy -89300.275678 kJ/mol
# GULP energy per Si atom -5581.267230 kJ/mol
# Density = 2.303279 g / cm^3
# Si number density = 23.085338 Si / 1000 Ang^3
#
#
#
# Elastic Constant Matrix: (Units=GPa)
#
#
# Indices 1 2 3 4 5 6 
#
# 1 48.1684 22.2400 -1.8404 0.0000 -14.2585 0.0000
# 2 22.2400 100.9996 18.2358 0.0000 -0.5105 0.0000
# 3 -1.8404 18.2358 109.8028 0.0000 11.6033 0.0000
# 4 0.0000 0.0000 0.0000 29.5980 0.0000 8.9033
# 5 -14.2585 -0.5105 11.6033 0.0000 31.0155 0.0000
# 6 0.0000 0.0000 0.0000 8.9033 0.0000 10.2240
#
#
#
# Elastic Compliance Matrix: (Units=1/GPa)
#
#
# Indices 1 2 3 4 5 6 
#
# 1 0.027162 -0.005944 0.000139 0.000000 0.012337 0.000000
# 2 -0.005944 0.011529 -0.001817 0.000000 -0.001863 0.000000
# 3 0.000139 -0.001817 0.009795 0.000000 -0.003631 0.000000
# 4 0.000000 0.000000 0.000000 0.045778 0.000000 -0.039864
# 5 0.012337 -0.001863 -0.003631 0.000000 0.039241 0.000000
# 6 0.000000 0.000000 0.000000 -0.039864 0.000000 0.132523
#
#
# Mechanical properties :
#
#
# Convention : Reuss Voigt Hill
#
# Bulk Modulus (GPa) = 30.08358 37.36018 33.72188
# Shear Modulus (GPa) = 17.10260 28.85654 22.97957
#
# Velocity S-wave (km/s) = 2.72480 3.53936 3.15845
# Velocity P-wave (km/s) = 4.79157 5.73772 5.28585
#
# Compressibility (1/GPa) = 0.03324073
#
# Stress axis : x y z
#
# Youngs Moduli (GPa) = 36.81604 86.74119 102.09234
#
# Poissons Ratio (x) = 0.51557 -0.01416
# Poissons Ratio (y) = 0.21882 0.18554
# Poissons Ratio (z) = -0.00510 0.15764
#
# Static dielectric constant tensor:
#      x y z
#    x 1.945720 0.000000 0.055440 
#    y 0.000000 1.917790 0.000000 
#    z 0.055440 0.000000 1.948180 
# 
# From -- ./inp_files/1239.got.cif
#   From: 2010.05.17/outbox.cif.g08.bks.cpg/sg9_1_cif.got.tgz:1239.got - 2010.06.03 20:04:27.
