data_PCOD9133634
_publ_section_title
;
Structure prediction by ZEFSAII (Michael W. Deem and Ramdas Pophale) SiO2 
 PCOD9133634
Probable space group: C M
;
_chemical_formula_sum "Si O2"
_cell_formula_units_Z 16
_cell_length_a 6.746693
_cell_length_b 13.126614
_cell_length_c 11.018819
_cell_angle_alpha 90.000000
_cell_angle_beta 35.782527
_cell_angle_gamma 90.000000
_cell_volume 570.583830
_symmetry_space_group_name_H-M "C M"
_symmetry_group_IT_number 8
_symmetry_cell_setting 'monoclinic'
loop_
_space_group_symop_operation_xyz
x,y,z
x,-y,z
1/2+x,1/2+y,z
1/2+x,1/2-y,z
loop_
_atom_site_type_symbol
_atom_site_label
_atom_site_fract_x
_atom_site_fract_y
_atom_site_fract_z
Si Si1 0.508320 0.838282 0.331710
Si Si2 0.355952 0.390477 0.408848
Si Si3 0.848311 0.112646 0.910072
Si Si4 0.197022 0.666062 0.735378
O O1 0.556390 0.716156 0.315295
O O2 0.670884 0.884685 0.371358
O O3 0.604034 0.649088 0.532861
O O4 0.673533 0.880289 0.128085
O O5 0.529368 0.500000 0.333435
O O6 0.106900 0.383027 0.650856
O O7 0.062320 0.218395 0.796446
O O8 0.008089 0.000000 0.820419
O O9 0.604589 0.879358 0.911528
#
# Coordination Sequence:
#
# PCOD9133634 Si02
#       4
#     4   4   4   4
#     4  12  25  51  76 112 156 196 258 317 373 463
#     4  12  25  47  78 109 153 205 248 312 387 446
#     4  12  28  51  80 113 155 203 255 318 383 452
#     4  12  26  51  76 112 156 198 257 315 377 463
#
# _framework density 28.041456
#
# number of rings (size 3 to 8) (size 9 to 14) (size 15 to 20)
#    0.000    0.000    5.000    3.000    0.000    7.000 
#    0.000    1.250    0.000    0.000    0.000    0.000 
#    0.000    0.000    0.000    0.000    0.000    0.000 
#
# Total GULP energy -44812.996838 kJ/mol
# GULP energy per Si atom -5601.624605 kJ/mol
# Density = 2.797763 g / cm^3
# Si number density = 28.041456 Si / 1000 Ang^3
#
#
#
# Elastic Constant Matrix: (Units=GPa)
#
#
# Indices 1 2 3 4 5 6 
#
# 1 81.7237 40.2627 51.7417 -0.0066 48.7342 0.0235
# 2 40.2627 270.1571 65.0549 0.0000 23.1355 0.0062
# 3 51.7417 65.0549 227.2637 0.0060 64.5003 0.0045
# 4 -0.0066 0.0000 0.0060 23.3142 0.0012 -16.4192
# 5 48.7342 23.1355 64.5003 0.0012 67.4530 -0.0077
# 6 0.0235 0.0062 0.0045 -16.4192 -0.0077 37.7148
#
#
#
# Elastic Compliance Matrix: (Units=1/GPa)
#
#
# Indices 1 2 3 4 5 6 
#
# 1 0.022528 -0.001993 -0.000183 -0.000007 -0.015418 -0.000020
# 2 -0.001993 0.004159 -0.001016 0.000000 0.000985 0.000001
# 3 -0.000183 -0.001016 0.006308 -0.000004 -0.005552 -0.000003
# 4 -0.000007 0.000000 -0.000004 0.061858 0.000010 0.026930
# 5 -0.015418 0.000985 -0.005552 0.000010 0.030935 0.000021
# 6 -0.000020 0.000001 -0.000003 0.026930 0.000021 0.038239
#
#
# Mechanical properties :
#
#
# Convention : Reuss Voigt Hill
#
# Bulk Modulus (GPa) = 37.57833 99.25146 68.41489
# Shear Modulus (GPa) = 27.88906 53.83543 40.86225
#
# Velocity S-wave (km/s) = 3.15709 4.38636 3.82148
# Velocity P-wave (km/s) = 5.16911 7.81825 6.62739
#
# Compressibility (1/GPa) = 0.02661108
#
# Stress axis : x y z
#
# Youngs Moduli (GPa) = 44.38879 240.44475 158.52068
#
# Poissons Ratio (x) = 0.47924 0.02896
# Poissons Ratio (y) = 0.08847 0.16112
# Poissons Ratio (z) = 0.00811 0.24439
#
# Static dielectric constant tensor:
#      x y z
#    x 2.272320 -0.000010 -0.007950 
#    y -0.000010 2.050000 0.000000 
#    z -0.007950 0.000000 2.236860 
# 
# From -- ./inp_files/7524.got.cif
#   From: 2010.05.17/outbox.cif.g08.bks.cpg/sg8_4_cif.got.tgz:7524.got - 2010.06.03 19:46:02.
