data_PCOD9133748
_publ_section_title
;
Structure prediction by ZEFSAII (Michael W. Deem and Ramdas Pophale) SiO2 
 PCOD9133748
Probable space group: C C
;
_chemical_formula_sum "Si O2"
_cell_formula_units_Z 32
_cell_length_a 21.781041
_cell_length_b 6.930106
_cell_length_c 11.992611
_cell_angle_alpha 90.000000
_cell_angle_beta 41.633488
_cell_angle_gamma 90.000000
_cell_volume 1202.645983
_symmetry_space_group_name_H-M "C C"
_symmetry_group_IT_number 9
_symmetry_cell_setting 'monoclinic'
loop_
_space_group_symop_operation_xyz
x,y,z
x,-y,1/2+z
1/2+x,1/2+y,z
1/2+x,1/2-y,1/2+z
loop_
_atom_site_type_symbol
_atom_site_label
_atom_site_fract_x
_atom_site_fract_y
_atom_site_fract_z
Si Si1 0.753890 0.119651 0.811050
Si Si2 0.653730 0.170687 0.153545
Si Si3 0.206854 0.173407 0.927659
Si Si4 0.159112 0.227051 0.221561
Si Si5 0.045767 0.737970 0.518944
Si Si6 0.395423 0.881910 0.066056
Si Si7 0.956477 0.808114 0.029359
Si Si8 0.982832 0.663124 0.228130
O O1 0.696150 0.233943 0.795289
O O2 0.858647 0.109513 0.625381
O O3 0.720350 0.900123 0.874739
O O4 0.740080 0.207692 0.953893
O O5 0.625905 0.243134 0.313682
O O6 0.569167 0.219184 0.186979
O O7 0.652424 0.942668 0.181490
O O8 0.292908 0.081352 0.747676
O O9 0.219033 0.131273 0.042886
O O10 0.100599 0.135775 0.036058
O O11 0.058415 0.130908 0.356527
O O12 0.952213 0.763089 0.571526
O O13 0.014360 0.542185 0.629110
O O14 0.449727 0.083906 0.001186
O O15 0.400290 0.835297 0.929482
O O16 0.960014 0.803024 0.158229
#
# Coordination Sequence:
#
# PCOD9133748 Si02
#       8
#     4   4   4   4   4   4   4   4
#     4  11  22  34  59  89 115 149 199 243 293 348
#     4  10  15  33  59  83 105 145 198 236 265 345
#     4  11  22  36  60  83 114 152 198 242 293 345
#     4  11  19  38  59  81 117 161 197 230 290 370
#     4  10  17  34  59  79 112 147 193 232 289 346
#     4  10  22  35  57  89 112 149 199 247 286 347
#     4  11  21  36  59  86 113 154 197 243 291 348
#     4  10  16  34  62  82 110 147 209 231 279 343
#
# _framework density 26.607997000000001
#
# number of rings (size 3 to 8) (size 9 to 14) (size 15 to 20)
#    0.000    1.500    8.750    0.000    1.750    3.000 
#    0.000    1.250    5.500    0.000    0.000    0.000 
#    0.000    0.000    0.000    0.000    0.000    0.000 
#
# Total GULP energy -89307.394390 kJ/mol
# GULP energy per Si atom -5581.712149 kJ/mol
# Density = 2.654744 g / cm^3
# Si number density = 26.607997 Si / 1000 Ang^3
#
#
#
# Elastic Constant Matrix: (Units=GPa)
#
#
# Indices 1 2 3 4 5 6 
#
# 1 113.7160 16.5573 48.2265 0.0000 15.1972 -0.0001
# 2 16.5573 70.6956 25.8555 -0.0002 0.0687 0.0000
# 3 48.2265 25.8555 181.3512 0.0000 17.9708 -0.0001
# 4 0.0000 -0.0002 0.0000 20.9101 0.0000 -1.7177
# 5 15.1972 0.0687 17.9708 0.0000 56.7733 0.0000
# 6 -0.0001 0.0000 -0.0001 -1.7177 0.0000 25.3301
#
#
#
# Elastic Compliance Matrix: (Units=1/GPa)
#
#
# Indices 1 2 3 4 5 6 
#
# 1 0.010269 -0.001559 -0.002309 0.000000 -0.002016 0.000000
# 2 -0.001559 0.015185 -0.001848 0.000000 0.000984 0.000000
# 3 -0.002309 -0.001848 0.006535 0.000000 -0.001448 0.000000
# 4 0.000000 0.000000 0.000000 0.048092 0.000000 0.003261
# 5 -0.002016 0.000984 -0.001448 0.000000 0.018611 0.000000
# 6 0.000000 0.000000 0.000000 0.003261 0.000000 0.039700
#
#
# Mechanical properties :
#
#
# Convention : Reuss Voigt Hill
#
# Bulk Modulus (GPa) = 48.64172 60.78238 54.71205
# Shear Modulus (GPa) = 31.91296 38.94427 35.42861
#
# Velocity S-wave (km/s) = 3.46696 3.82989 3.65293
# Velocity P-wave (km/s) = 5.86063 6.51542 6.19668
#
# Compressibility (1/GPa) = 0.02055848
#
# Stress axis : x y z
#
# Youngs Moduli (GPa) = 97.37627 65.85403 153.01860
#
# Poissons Ratio (x) = 0.10265 0.35331
# Poissons Ratio (y) = 0.15179 0.28277
# Poissons Ratio (z) = 0.22483 0.12169
#
# Static dielectric constant tensor:
#      x y z
#    x 2.057460 0.000000 0.028260 
#    y 0.000000 2.213450 0.000000 
#    z 0.028260 0.000000 2.133040 
# 
# From -- ./inp_files/20175.got.cif
#   From: 2010.05.17/outbox.cif.g08.bks.cpg/sg9_11_cif.got.tgz:20175.got - 2010.06.03 20:04:27.
