data_PCOD9133353
_publ_section_title
;
Structure prediction by ZEFSAII (Michael W. Deem and Ramdas Pophale) SiO2 
 PCOD9133353
Probable space group: C M
;
_chemical_formula_sum "Si O2"
_cell_formula_units_Z 28
_cell_length_a 6.305214
_cell_length_b 26.223012
_cell_length_c 8.527735
_cell_angle_alpha 90.000000
_cell_angle_beta 123.581165
_cell_angle_gamma 90.000000
_cell_volume 1174.667244
_symmetry_space_group_name_H-M "C M"
_symmetry_group_IT_number 8
_symmetry_cell_setting 'monoclinic'
loop_
_space_group_symop_operation_xyz
x,y,z
x,-y,z
1/2+x,1/2+y,z
1/2+x,1/2-y,z
loop_
_atom_site_type_symbol
_atom_site_label
_atom_site_fract_x
_atom_site_fract_y
_atom_site_fract_z
Si Si1 0.606380 0.355062 0.930530
Si Si2 0.378641 0.558094 0.268332
Si Si3 0.605435 0.156012 0.287121
Si Si4 0.572104 0.301799 0.598094
Si Si5 0.306369 0.441876 0.873309
Si Si6 0.878210 0.620383 0.514329
Si Si7 0.366418 0.264057 0.952497
O O1 0.516368 0.338734 0.723023
O O2 0.574787 0.414517 0.945780
O O3 0.429361 0.324321 0.980332
O O4 0.896095 0.336528 0.067173
O O5 0.353096 0.500000 0.316614
O O6 0.241823 0.602485 0.308771
O O7 0.669785 0.577005 0.390985
O O8 0.276791 0.559311 0.048512
O O9 0.454976 0.146990 0.384786
O O10 0.808315 0.201156 0.395744
O O11 0.762385 0.334371 0.570948
O O12 0.702062 0.253492 0.732199
O O13 0.298211 0.500000 0.817096
O O14 0.101685 0.407802 0.699106
O O15 0.659593 0.245952 0.011351
#
# Coordination Sequence:
#
# PCOD9133353 Si02
#       7
#     4   4   4   4   4   4   4
#     4  11  22  44  68  99 138 183 233 289 357 420
#     4  10  23  40  61  97 138 184 237 291 347 421
#     4  11  23  40  68  99 134 184 230 294 357 424
#     4  10  23  43  69  97 133 179 233 290 357 424
#     4  11  22  38  65  97 135 186 234 282 350 420
#     4  11  21  41  66  95 135 178 231 292 351 421
#     4  10  23  44  73 100 137 186 231 292 361 420
#
# _framework density 23.836538000000001
#
# number of rings (size 3 to 8) (size 9 to 14) (size 15 to 20)
#    0.000    1.429    2.857    2.143    2.000    2.857 
#    0.000    6.429    0.000    0.000    0.000    0.000 
#    0.000    0.000    0.000    0.000    0.000    0.000 
#
# Total GULP energy -78157.452621 kJ/mol
# GULP energy per Si atom -5582.675187 kJ/mol
# Density = 2.378228 g / cm^3
# Si number density = 23.836538 Si / 1000 Ang^3
#
#
#
# Elastic Constant Matrix: (Units=GPa)
#
#
# Indices 1 2 3 4 5 6 
#
# 1 102.6854 34.5966 17.5802 0.0000 2.2107 0.0000
# 2 34.5966 72.1277 10.4953 0.0000 4.6148 0.0000
# 3 17.5802 10.4953 92.0898 0.0000 11.3430 0.0000
# 4 0.0000 0.0000 0.0000 32.4507 0.0000 -5.9133
# 5 2.2107 4.6148 11.3430 0.0000 31.6686 0.0000
# 6 0.0000 0.0000 0.0000 -5.9133 0.0000 23.2973
#
#
#
# Elastic Compliance Matrix: (Units=1/GPa)
#
#
# Indices 1 2 3 4 5 6 
#
# 1 0.011865 -0.005479 -0.001713 0.000000 0.000584 0.000000
# 2 -0.005479 0.016701 -0.000633 0.000000 -0.001825 0.000000
# 3 -0.001713 -0.000633 0.011750 0.000000 -0.003997 0.000000
# 4 0.000000 0.000000 0.000000 0.032310 0.000000 0.008201
# 5 0.000584 -0.001825 -0.003997 0.000000 0.033234 0.000000
# 6 0.000000 0.000000 0.000000 0.008201 0.000000 0.045005
#
#
# Mechanical properties :
#
#
# Convention : Reuss Voigt Hill
#
# Bulk Modulus (GPa) = 40.53871 43.58300 42.06086
# Shear Modulus (GPa) = 28.61430 31.09871 29.85650
#
# Velocity S-wave (km/s) = 3.46849 3.61593 3.54298
# Velocity P-wave (km/s) = 5.75191 5.97973 5.86692
#
# Compressibility (1/GPa) = 0.02466778
#
# Stress axis : x y z
#
# Youngs Moduli (GPa) = 84.27991 59.87548 85.10419
#
# Poissons Ratio (x) = 0.32808 0.14574
# Poissons Ratio (y) = 0.46180 0.05384
# Poissons Ratio (z) = 0.14433 0.03788
#
# Static dielectric constant tensor:
#      x y z
#    x 1.953690 0.000000 0.063540 
#    y 0.000000 1.906260 0.000000 
#    z 0.063540 0.000000 1.903940 
# 
# From -- ./inp_files/7228.got.cif
#   From: 2010.05.17/outbox.cif.g08.bks.cpg/sg8_4_cif.got.tgz:7228.got - 2010.06.03 19:46:02.
