data_PCOD9133403
_publ_section_title
;
Structure prediction by ZEFSAII (Michael W. Deem and Ramdas Pophale) SiO2 
 PCOD9133403
Probable space group: C M
;
_chemical_formula_sum "Si O2"
_cell_formula_units_Z 20
_cell_length_a 16.879252
_cell_length_b 9.915674
_cell_length_c 11.026904
_cell_angle_alpha 90.000000
_cell_angle_beta 149.829076
_cell_angle_gamma 90.000000
_cell_volume 927.545760
_symmetry_space_group_name_H-M "C M"
_symmetry_group_IT_number 8
_symmetry_cell_setting 'monoclinic'
loop_
_space_group_symop_operation_xyz
x,y,z
x,-y,z
1/2+x,1/2+y,z
1/2+x,1/2-y,z
loop_
_atom_site_type_symbol
_atom_site_label
_atom_site_fract_x
_atom_site_fract_y
_atom_site_fract_z
Si Si1 0.969681 0.500000 0.338430
Si Si2 0.153773 0.000000 0.474375
Si Si3 0.288854 0.500000 0.056433
Si Si4 0.174086 0.000000 0.771375
Si Si5 0.269792 0.500000 0.558307
Si Si6 0.133899 0.500000 0.107111
Si Si7 0.382494 0.209731 0.683378
Si Si8 0.537515 0.790644 0.631730
O O1 0.124558 0.500000 0.459439
O O2 0.972440 0.369301 0.429244
O O3 0.816869 0.500000 0.053592
O O4 0.233846 0.000000 0.712842
O O5 0.220122 0.868551 0.495121
O O6 0.968610 0.000000 0.253562
O O7 0.195969 0.371167 0.879668
O O8 0.257734 0.500000 0.159630
O O9 0.076303 0.863685 0.659242
O O10 0.206956 0.500000 0.336510
O O11 0.368649 0.363685 0.704663
O O12 0.020987 0.628889 0.934920
O O13 0.422246 0.198768 0.593812
#
# Coordination Sequence:
#
# PCOD9133403 Si02
#       8
#     2   2   2   2   2   2   4   4
#     4  11  25  44  64 101 140 165 222 274 324 390
#     4  11  23  44  70  96 136 173 218 271 335 384
#     4   9  22  43  72  96 132 177 218 271 330 386
#     4  12  26  39  74  98 129 178 220 269 327 388
#     4  12  24  40  71  98 132 168 215 281 323 373
#     4   9  22  46  67  93 133 175 217 266 323 393
#     4  10  23  45  66  97 131 173 221 266 323 391
#     4  10  24  46  69  95 135 175 220 269 324 396
#
# _framework density 21.562279
#
# number of rings (size 3 to 8) (size 9 to 14) (size 15 to 20)
#    0.000    1.600    0.000    4.800    8.400    1.600 
#    3.600    1.000    0.000    0.000    0.000    0.000 
#    0.000    0.000    0.000    0.000    0.000    0.000 
#
# Total GULP energy -55996.316001 kJ/mol
# GULP energy per Si atom -5599.631600 kJ/mol
# Density = 2.151320 g / cm^3
# Si number density = 21.562279 Si / 1000 Ang^3
#
#
#
# Elastic Constant Matrix: (Units=GPa)
#
#
# Indices 1 2 3 4 5 6 
#
# 1 141.0352 68.2508 52.3909 0.0000 12.0412 0.0000
# 2 68.2508 212.8459 68.2652 0.0000 8.9733 0.0000
# 3 52.3909 68.2652 83.4854 0.0000 10.2858 0.0000
# 4 0.0000 0.0000 0.0000 -3.5591 0.0000 13.1137
# 5 12.0412 8.9733 10.2858 0.0000 39.4994 0.0000
# 6 0.0000 0.0000 0.0000 13.1137 0.0000 -20.8533
#
#
#
# Elastic Compliance Matrix: (Units=1/GPa)
#
#
# Indices 1 2 3 4 5 6 
#
# 1 0.009685 -0.001562 -0.004629 0.000000 -0.001392 0.000000
# 2 -0.001562 0.006621 -0.004449 0.000000 0.000131 0.000000
# 3 -0.004629 -0.004449 0.018827 0.000000 -0.002481 0.000000
# 4 0.000000 0.000000 0.000000 0.213333 0.000000 0.134156
# 5 -0.001392 0.000131 -0.002481 0.000000 0.026357 0.000000
# 6 0.000000 0.000000 0.000000 0.134156 0.000000 0.036410
#
#
# Mechanical properties :
#
#
# Convention : Reuss Voigt Hill
#
# Bulk Modulus (GPa) = 72.19440 90.57560 81.38500
# Shear Modulus (GPa) = 14.83103 19.58139 17.20621
#
# Velocity S-wave (km/s) = 2.62548 3.01679 2.82791
# Velocity P-wave (km/s) = 6.53799 7.36427 6.96340
#
# Compressibility (1/GPa) = 0.01385149
#
# Stress axis : x y z
#
# Youngs Moduli (GPa) = 103.25532 151.04109 53.11608
#
# Poissons Ratio (x) = 0.23597 0.24586
# Poissons Ratio (y) = 0.16131 0.23634
# Poissons Ratio (z) = 0.47793 0.67204
#
# Static dielectric constant tensor:
#      x y z
#    x 1.766970 0.000000 -0.000190 
#    y 0.000000 1.782800 0.000000 
#    z -0.000190 0.000000 1.773680 
# 
# From -- ./inp_files/10229.got.cif
#   From: 2010.05.17/outbox.cif.g08.bks.cpg/sg8_6_cif.got.tgz:10229.got - 2010.06.03 19:46:02.
