data_PCOD9133946
_publ_section_title
;
Structure prediction by ZEFSAII (Michael W. Deem and Ramdas Pophale) SiO2 
 PCOD9133946
Probable space group: C C
;
_chemical_formula_sum "Si O2"
_cell_formula_units_Z 32
_cell_length_a 15.085911
_cell_length_b 16.544688
_cell_length_c 14.826595
_cell_angle_alpha 90.000000
_cell_angle_beta 161.227660
_cell_angle_gamma 90.000000
_cell_volume 1190.883472
_symmetry_space_group_name_H-M "C C"
_symmetry_group_IT_number 9
_symmetry_cell_setting 'monoclinic'
loop_
_space_group_symop_operation_xyz
x,y,z
x,-y,1/2+z
1/2+x,1/2+y,z
1/2+x,1/2-y,1/2+z
loop_
_atom_site_type_symbol
_atom_site_label
_atom_site_fract_x
_atom_site_fract_y
_atom_site_fract_z
Si Si1 0.002620 0.546320 0.410370
Si Si2 0.283707 0.805151 0.600528
Si Si3 0.332695 0.879026 0.082483
Si Si4 0.030298 0.695960 0.954929
Si Si5 0.320827 0.516225 0.041236
Si Si6 0.496207 0.526271 0.025332
Si Si7 0.222577 0.799822 0.806746
Si Si8 0.982308 0.305317 0.606030
O O1 0.157515 0.524954 0.466002
O O2 0.232782 0.541809 0.709202
O O3 0.861948 0.632345 0.252166
O O4 0.741734 0.496131 0.197252
O O5 0.367461 0.845663 0.585279
O O6 0.972839 0.774445 0.295706
O O7 0.225910 0.804596 0.919729
O O8 0.085753 0.942918 0.842449
O O9 0.449698 0.855631 0.291865
O O10 0.598583 0.918311 0.290622
O O11 0.847645 0.777422 0.766214
O O12 0.959757 0.659429 0.984808
O O13 0.420252 0.475770 0.042903
O O14 0.616989 0.611221 0.180398
O O15 0.024646 0.731865 0.576247
O O16 0.292897 0.275784 0.919995
#
# Coordination Sequence:
#
# PCOD9133946 Si02
#       8
#     4   4   4   4   4   4   4   4
#     4  12  25  45  73  97 132 181 225 276 341 401
#     4  10  21  39  65  99 133 166 210 272 340 405
#     4  11  21  38  62  92 135 180 225 278 323 394
#     4  10  18  31  56  89 127 172 220 272 329 389
#     4  11  25  46  66  92 136 179 225 285 331 382
#     4  11  25  44  68  99 136 175 226 285 329 398
#     4  11  21  36  62  99 139 178 214 266 346 412
#     4   8  16  31  52  81 124 161 195 256 317 373
#
# _framework density 26.870808
#
# number of rings (size 3 to 8) (size 9 to 14) (size 15 to 20)
#    0.000    1.500    0.000    6.750    0.000    3.000 
#    2.250    0.000   13.750    0.000    0.000    0.000 
#    0.000    0.000    0.000    0.000    0.000    0.000 
#
# Total GULP energy -89547.786543 kJ/mol
# GULP energy per Si atom -5596.736659 kJ/mol
# Density = 2.680965 g / cm^3
# Si number density = 26.870808 Si / 1000 Ang^3
#
#
#
# Elastic Constant Matrix: (Units=GPa)
#
#
# Indices 1 2 3 4 5 6 
#
# 1 182.5293 17.9964 33.9020 -0.0016 -16.1645 -0.0011
# 2 17.9964 39.7165 10.5498 -0.0005 -8.0541 -0.0016
# 3 33.9020 10.5498 152.8739 0.0054 -10.1805 -0.0006
# 4 -0.0016 -0.0005 0.0054 27.9494 0.0016 -7.6749
# 5 -16.1645 -8.0541 -10.1805 0.0016 52.6448 -0.0016
# 6 -0.0011 -0.0016 -0.0006 -7.6749 -0.0016 29.0124
#
#
#
# Elastic Compliance Matrix: (Units=1/GPa)
#
#
# Indices 1 2 3 4 5 6 
#
# 1 0.006011 -0.002169 -0.001097 0.000001 0.001302 0.000000
# 2 -0.002169 0.027134 -0.001175 0.000001 0.003258 0.000002
# 3 -0.001097 -0.001175 0.006920 -0.000002 0.000822 0.000000
# 4 0.000001 0.000001 -0.000002 0.038582 -0.000001 0.010206
# 5 0.001302 0.003258 0.000822 -0.000001 0.020052 0.000001
# 6 0.000000 0.000002 0.000000 0.010206 0.000001 0.037168
#
#
# Mechanical properties :
#
#
# Convention : Reuss Voigt Hill
#
# Bulk Modulus (GPa) = 32.06598 55.55734 43.81166
# Shear Modulus (GPa) = 32.22841 42.76609 37.49725
#
# Velocity S-wave (km/s) = 3.46697 3.99374 3.73964
# Velocity P-wave (km/s) = 5.29016 6.47976 5.91494
#
# Compressibility (1/GPa) = 0.03118570
#
# Stress axis : x y z
#
# Youngs Moduli (GPa) = 166.35115 36.85438 144.50141
#
# Poissons Ratio (x) = 0.07992 0.15848
# Poissons Ratio (y) = 0.36074 0.16973
# Poissons Ratio (z) = 0.18245 0.04329
#
# Static dielectric constant tensor:
#      x y z
#    x 2.193290 0.000000 0.016660 
#    y 0.000000 2.161840 -0.000010 
#    z 0.016660 -0.000010 1.995380 
# 
# From -- ./inp_files/26158.got.cif
#   From: 2010.05.17/outbox.cif.g08.bks.cpg/sg9_14_cif.got.tgz:26158.got - 2010.06.03 20:04:27.
