data_PCOD9133275
_publ_section_title
;
Structure prediction by ZEFSAII (Michael W. Deem and Ramdas Pophale) SiO2 
 PCOD9133275
Probable space group: C M
;
_chemical_formula_sum "Si O2"
_cell_formula_units_Z 20
_cell_length_a 13.916981
_cell_length_b 10.024054
_cell_length_c 16.652157
_cell_angle_alpha 90.000000
_cell_angle_beta 157.290079
_cell_angle_gamma 90.000000
_cell_volume 896.850872
_symmetry_space_group_name_H-M "C M"
_symmetry_group_IT_number 8
_symmetry_cell_setting 'monoclinic'
loop_
_space_group_symop_operation_xyz
x,y,z
x,-y,z
1/2+x,1/2+y,z
1/2+x,1/2-y,z
loop_
_atom_site_type_symbol
_atom_site_label
_atom_site_fract_x
_atom_site_fract_y
_atom_site_fract_z
Si Si1 0.511050 0.733296 0.363070
Si Si2 0.821162 0.500000 0.678194
Si Si3 0.604161 0.000000 0.529916
Si Si4 0.784995 0.000000 0.131503
Si Si5 0.942323 0.000000 0.521346
Si Si6 0.159122 0.000000 0.285855
Si Si7 0.611373 0.500000 0.834239
Si Si8 0.534561 0.211297 0.191721
O O1 0.727141 0.635720 0.563869
O O2 0.274495 0.632473 0.176554
O O3 0.534540 0.777113 0.288739
O O4 0.508514 0.866681 0.412139
O O5 0.700286 0.500000 0.673906
O O6 0.108979 0.500000 0.919617
O O7 0.457399 0.000000 0.501660
O O8 0.901461 0.000000 0.742541
O O9 0.058541 0.000000 0.299722
O O10 0.783361 0.873547 0.369123
O O11 0.978514 0.000000 0.645009
O O12 0.054561 0.140046 0.172344
O O13 0.792573 0.627760 0.980452
#
# Coordination Sequence:
#
# PCOD9133275 Si02
#       8
#     4   2   2   2   2   2   2   4
#     4  10  22  42  66  92 135 173 218 275 341 384
#     4  11  24  41  70  99 130 179 231 265 330 413
#     4  12  22  40  68  99 128 176 219 284 322 396
#     4   9  23  43  64  90 135 182 215 269 333 411
#     4  11  22  42  69  95 131 180 224 273 323 405
#     4  10  23  39  66  93 133 166 215 282 339 363
#     4  11  24  41  75  96 135 181 232 255 341 410
#     4  10  22  45  66  92 136 177 216 281 331 394
#
# _framework density 22.300250999999999
#
# number of rings (size 3 to 8) (size 9 to 14) (size 15 to 20)
#    0.000    1.600    2.000    2.400    5.600    4.800 
#    0.000    1.000   17.600    0.000    0.000    0.000 
#    0.000    0.000    0.000    0.000    0.000    0.000 
#
# Total GULP energy -55756.044914 kJ/mol
# GULP energy per Si atom -5575.604491 kJ/mol
# Density = 2.224949 g / cm^3
# Si number density = 22.300251 Si / 1000 Ang^3
#
#
#
# Elastic Constant Matrix: (Units=GPa)
#
#
# Indices 1 2 3 4 5 6 
#
# 1 73.7720 9.2736 30.3968 -0.0127 10.8787 -0.0044
# 2 9.2736 194.9084 52.6455 0.0305 -5.1845 0.0160
# 3 30.3968 52.6455 99.6201 0.0399 -3.2781 0.0217
# 4 -0.0127 0.0305 0.0399 20.3944 0.0151 -8.9550
# 5 10.8787 -5.1845 -3.2781 0.0151 37.3236 0.0059
# 6 -0.0044 0.0160 0.0217 -8.9550 0.0059 17.8461
#
#
#
# Elastic Compliance Matrix: (Units=1/GPa)
#
#
# Indices 1 2 3 4 5 6 
#
# 1 0.016526 0.000564 -0.005512 0.000038 -0.005223 0.000031
# 2 0.000564 0.006016 -0.003339 -0.000004 0.000378 -0.000003
# 3 -0.005512 -0.003339 0.013561 -0.000043 0.002334 -0.000037
# 4 0.000038 -0.000004 -0.000043 0.062890 -0.000046 0.031557
# 5 -0.005223 0.000378 0.002334 -0.000046 0.028572 -0.000037
# 6 0.000031 -0.000003 -0.000037 0.031557 -0.000037 0.071870
#
#
# Mechanical properties :
#
#
# Convention : Reuss Voigt Hill
#
# Bulk Modulus (GPa) = 51.20758 61.43691 56.32225
# Shear Modulus (GPa) = 22.47006 33.51181 27.99093
#
# Velocity S-wave (km/s) = 3.17774 3.88074 3.54670
# Velocity P-wave (km/s) = 6.03959 6.90579 6.48716
#
# Compressibility (1/GPa) = 0.01952836
#
# Stress axis : x y z
#
# Youngs Moduli (GPa) = 60.51144 166.23391 73.73976
#
# Poissons Ratio (x) = -0.09370 0.40647
# Poissons Ratio (y) = -0.03411 0.24619
# Poissons Ratio (z) = 0.33355 0.55498
#
# Static dielectric constant tensor:
#      x y z
#    x 1.864540 -0.000010 0.061560 
#    y -0.000010 1.880760 0.000000 
#    z 0.061560 0.000000 1.807320 
# 
# From -- ./inp_files/3695.got.cif
#   From: 2010.05.17/outbox.cif.g08.bks.cpg/sg8_2_cif.got.tgz:3695.got - 2010.06.03 19:46:02.
