data_PCOD9133227
_publ_section_title
;
Structure prediction by ZEFSAII (Michael W. Deem and Ramdas Pophale) SiO2 
 PCOD9133227
Probable space group: C M
;
_chemical_formula_sum "Si O2"
_cell_formula_units_Z 26
_cell_length_a 9.801115
_cell_length_b 7.503166
_cell_length_c 20.204887
_cell_angle_alpha 90.000000
_cell_angle_beta 136.688173
_cell_angle_gamma 90.000000
_cell_volume 1019.249906
_symmetry_space_group_name_H-M "C M"
_symmetry_group_IT_number 8
_symmetry_cell_setting 'monoclinic'
loop_
_space_group_symop_operation_xyz
x,y,z
x,-y,z
1/2+x,1/2+y,z
1/2+x,1/2-y,z
loop_
_atom_site_type_symbol
_atom_site_label
_atom_site_fract_x
_atom_site_fract_y
_atom_site_fract_z
Si Si1 0.752990 0.000000 0.352720
Si Si2 0.001600 0.706371 0.077153
Si Si3 0.751859 0.288038 0.743517
Si Si4 0.328298 0.206372 0.628286
Si Si5 0.079467 0.788039 0.961923
Si Si6 0.261711 0.207140 0.458126
Si Si7 0.445493 0.707140 0.247314
O O1 0.851005 0.841937 0.435883
O O2 0.601520 0.841937 0.269559
O O3 0.015802 0.500000 0.100415
O O4 0.967301 0.715273 0.986151
O O5 0.804903 0.785084 0.040603
O O6 0.222680 0.780035 0.165944
O O7 0.730069 0.500000 0.732172
O O8 0.567006 0.215278 0.719289
O O9 0.741249 0.214916 0.664836
O O10 0.957367 0.249995 0.852720
O O11 0.283005 0.280036 0.539495
O O12 0.272719 0.000000 0.605026
O O13 0.091714 0.000000 0.973273
O O14 0.028391 0.202796 0.352720
O O15 0.327263 0.000000 0.476536
O O16 0.455816 0.500000 0.228904
#
# Coordination Sequence:
#
# PCOD9133227 Si02
#       7
#     2   4   4   4   4   4   4
#     4   8  14  28  56  86 116 154 206 228 300 360
#     4  10  22  41  61  88 120 156 198 248 299 354
#     4  11  24  40  61  87 118 156 200 248 302 356
#     4  10  22  41  61  88 120 156 198 248 299 354
#     4  11  24  40  61  87 118 156 200 248 302 356
#     4   8  16  32  55  84 122 153 195 248 294 353
#     4   8  16  32  55  84 122 153 195 248 294 353
#
# _framework density 25.508953999999999
#
# number of rings (size 3 to 8) (size 9 to 14) (size 15 to 20)
#    0.923    1.538    0.000    1.846    2.154    4.923 
#    0.000    1.538    0.000    1.846    0.000    0.000 
#    0.000    0.000    0.000    0.000    0.000    0.000 
#
# Total GULP energy -72374.170971 kJ/mol
# GULP energy per Si atom -5567.243921 kJ/mol
# Density = 2.545089 g / cm^3
# Si number density = 25.508954 Si / 1000 Ang^3
#
#
#
# Elastic Constant Matrix: (Units=GPa)
#
#
# Indices 1 2 3 4 5 6 
#
# 1 94.1094 12.6634 14.5927 0.0000 0.5560 0.0000
# 2 12.6634 133.1463 18.4387 0.0000 0.3647 0.0000
# 3 14.5927 18.4387 111.4997 0.0000 0.5404 0.0000
# 4 0.0000 0.0000 0.0000 32.1549 0.0000 1.9100
# 5 0.5560 0.3647 0.5404 0.0000 44.1636 0.0000
# 6 0.0000 0.0000 0.0000 1.9100 0.0000 1.8539
#
#
#
# Elastic Compliance Matrix: (Units=1/GPa)
#
#
# Indices 1 2 3 4 5 6 
#
# 1 0.010942 -0.000862 -0.001289 0.000000 -0.000115 0.000000
# 2 -0.000862 0.007755 -0.001169 0.000000 -0.000039 0.000000
# 3 -0.001289 -0.001169 0.009331 0.000000 -0.000088 0.000000
# 4 0.000000 0.000000 0.000000 0.033127 0.000000 -0.034128
# 5 -0.000115 -0.000039 -0.000088 0.000000 0.022646 0.000000
# 6 0.000000 0.000000 0.000000 -0.034128 0.000000 0.574557
#
#
# Mechanical properties :
#
#
# Convention : Reuss Voigt Hill
#
# Bulk Modulus (GPa) = 46.75616 47.79389 47.27503
# Shear Modulus (GPa) = 7.43906 35.17186 21.30546
#
# Velocity S-wave (km/s) = 1.70956 3.71725 2.89314
# Velocity P-wave (km/s) = 4.71867 6.09924 5.45283
#
# Compressibility (1/GPa) = 0.02138755
#
# Stress axis : x y z
#
# Youngs Moduli (GPa) = 91.38712 128.95638 107.16793
#
# Poissons Ratio (x) = 0.11115 0.13814
# Poissons Ratio (y) = 0.07877 0.12532
# Poissons Ratio (z) = 0.11780 0.15080
#
# Static dielectric constant tensor:
#      x y z
#    x 2.062160 0.000000 0.001150 
#    y 0.000000 1.947660 0.000000 
#    z 0.001150 0.000000 2.080480 
# 
# From -- ./inp_files/30457.got.cif
#   From: 2010.05.17/outbox.cif.g08.bks.cpg/sg8_16_cif.got.tgz:30457.got - 2010.06.03 19:46:02.
