data_PCOD9133740
_publ_section_title
;
Structure prediction by ZEFSAII (Michael W. Deem and Ramdas Pophale) SiO2 
 PCOD9133740
Probable space group: C C
;
_chemical_formula_sum "Si O2"
_cell_formula_units_Z 32
_cell_length_a 11.925050
_cell_length_b 18.090495
_cell_length_c 8.079879
_cell_angle_alpha 90.000000
_cell_angle_beta 44.174626
_cell_angle_gamma 90.000000
_cell_volume 1214.655971
_symmetry_space_group_name_H-M "C C"
_symmetry_group_IT_number 9
_symmetry_cell_setting 'monoclinic'
loop_
_space_group_symop_operation_xyz
x,y,z
x,-y,1/2+z
1/2+x,1/2+y,z
1/2+x,1/2-y,1/2+z
loop_
_atom_site_type_symbol
_atom_site_label
_atom_site_fract_x
_atom_site_fract_y
_atom_site_fract_z
Si Si1 0.071820 0.780432 0.407780
Si Si2 0.284401 0.823278 0.496167
Si Si3 0.722005 0.413486 0.081439
Si Si4 0.492604 0.108952 0.529211
Si Si5 0.286790 0.643645 0.756941
Si Si6 0.321754 0.616526 0.338113
Si Si7 0.029771 0.010881 0.542287
Si Si8 0.031947 0.745288 0.976804
O O1 0.188343 0.789729 0.443001
O O2 0.165550 0.828582 0.170026
O O3 0.028547 0.694714 0.443289
O O4 0.909824 0.825223 0.626001
O O5 0.155519 0.807394 0.777396
O O6 0.440572 0.786602 0.412849
O O7 0.364866 0.893581 0.318549
O O8 0.594676 0.463377 0.319738
O O9 0.684658 0.443893 0.940858
O O10 0.896905 0.424874 0.976267
O O11 0.665829 0.082825 0.411473
O O12 0.279657 0.648312 0.562842
O O13 0.378979 0.567884 0.693479
O O14 0.110745 0.675240 0.984713
O O15 0.399427 0.707876 0.712850
O O16 0.456975 0.555309 0.229462
#
# Coordination Sequence:
#
# PCOD9133740 Si02
#       8
#     4   4   4   4   4   4   4   4
#     4  10  18  33  61  92 119 147 195 254 303 344
#     4  10  15  26  53  89 127 137 190 238 304 344
#     4  10  24  41  62  85 119 164 201 241 302 364
#     4  11  19  34  60  93 119 147 204 259 296 346
#     4  11  20  38  64  85 125 150 206 250 300 360
#     4  11  20  36  61  91 115 160 202 250 288 358
#     4  11  24  46  59  81 123 173 201 233 302 369
#     4  10  18  30  56  98 113 152 191 253 307 341
#
# _framework density 26.344906999999999
#
# number of rings (size 3 to 8) (size 9 to 14) (size 15 to 20)
#    0.000    1.500    5.000    3.000    0.000    0.000 
#    4.500    2.500    0.000    0.000    0.000    0.000 
#    0.000    0.000    0.000    0.000    0.000    0.000 
#
# Total GULP energy -89272.821384 kJ/mol
# GULP energy per Si atom -5579.551337 kJ/mol
# Density = 2.628494 g / cm^3
# Si number density = 26.344907 Si / 1000 Ang^3
#
#
#
# Elastic Constant Matrix: (Units=GPa)
#
#
# Indices 1 2 3 4 5 6 
#
# 1 85.3360 21.3320 24.2809 0.0000 -30.7244 0.0000
# 2 21.3320 82.6043 -3.0981 0.0000 -2.5679 0.0000
# 3 24.2809 -3.0981 58.4831 0.0000 -20.3581 0.0000
# 4 0.0000 0.0000 0.0000 26.3674 0.0000 -16.9391
# 5 -30.7244 -2.5679 -20.3581 0.0000 47.6732 0.0000
# 6 0.0000 0.0000 0.0000 -16.9391 0.0000 33.7695
#
#
#
# Elastic Compliance Matrix: (Units=1/GPa)
#
#
# Indices 1 2 3 4 5 6 
#
# 1 0.017284 -0.004340 -0.004240 0.000000 0.009095 0.000000
# 2 -0.004340 0.013268 0.002091 0.000000 -0.001189 0.000000
# 3 -0.004240 0.002091 0.021211 0.000000 0.006438 0.000000
# 4 0.000000 0.000000 0.000000 0.055958 0.000000 0.028069
# 5 0.009095 -0.001189 0.006438 0.000000 0.029523 0.000000
# 6 0.000000 0.000000 0.000000 0.028069 0.000000 0.043692
#
#
# Mechanical properties :
#
#
# Convention : Reuss Voigt Hill
#
# Bulk Modulus (GPa) = 25.78314 34.60590 30.19452
# Shear Modulus (GPa) = 24.17294 33.82260 28.99777
#
# Velocity S-wave (km/s) = 3.03241 3.58696 3.32128
# Velocity P-wave (km/s) = 4.69773 5.50629 5.11800
#
# Compressibility (1/GPa) = 0.03878503
#
# Stress axis : x y z
#
# Youngs Moduli (GPa) = 57.85635 75.36888 47.14511
#
# Poissons Ratio (x) = 0.32709 0.19989
# Poissons Ratio (y) = 0.25109 -0.09856
# Poissons Ratio (z) = 0.24531 -0.15757
#
# Static dielectric constant tensor:
#      x y z
#    x 2.128140 0.000000 0.037330 
#    y 0.000000 2.082120 0.000000 
#    z 0.037330 0.000000 2.124620 
# 
# From -- ./inp_files/8144.got.cif
#   From: 2010.05.17/outbox.cif.g08.bks.cpg/sg9_5_cif.got.tgz:8144.got - 2010.06.03 20:04:27.
