data_PCOD9133515
_publ_section_title
;
Structure prediction by ZEFSAII (Michael W. Deem and Ramdas Pophale) SiO2 
 PCOD9133515
Probable space group: C M
;
_chemical_formula_sum "Si O2"
_cell_formula_units_Z 24
_cell_length_a 14.877074
_cell_length_b 7.389762
_cell_length_c 12.308986
_cell_angle_alpha 90.000000
_cell_angle_beta 110.579711
_cell_angle_gamma 90.000000
_cell_volume 1266.868385
_symmetry_space_group_name_H-M "C M"
_symmetry_group_IT_number 8
_symmetry_cell_setting 'monoclinic'
loop_
_space_group_symop_operation_xyz
x,y,z
x,-y,z
1/2+x,1/2+y,z
1/2+x,1/2-y,z
loop_
_atom_site_type_symbol
_atom_site_label
_atom_site_fract_x
_atom_site_fract_y
_atom_site_fract_z
Si Si1 0.851240 0.500000 0.534940
Si Si2 0.625941 0.280316 0.177893
Si Si3 0.427726 0.289910 0.987560
Si Si4 0.577259 0.000000 0.561123
Si Si5 0.743138 0.714688 0.025080
Si Si6 0.163633 0.206794 0.435322
Si Si7 0.911563 0.500000 0.806563
Si Si8 0.132559 0.500000 0.835281
O O1 0.779862 0.670741 0.480124
O O2 0.863070 0.500000 0.669734
O O3 0.959034 0.500000 0.527627
O O4 0.624926 0.500000 0.184137
O O5 0.634429 0.218518 0.304747
O O6 0.529863 0.224635 0.074448
O O7 0.710187 0.230312 0.131172
O O8 0.434687 0.500000 0.961071
O O9 0.353050 0.261370 0.052211
O O10 0.390371 0.173894 0.870942
O O11 0.618926 0.829769 0.510504
O O12 0.623612 0.000000 0.701452
O O13 0.726633 0.500000 0.005312
O O14 0.685501 0.826895 0.909687
O O15 0.126349 0.000000 0.432747
O O16 0.024686 0.500000 0.832697
#
# Coordination Sequence:
#
# PCOD9133515 Si02
#       8
#     2   4   4   2   4   4   2   2
#     4   9  24  44  61  95 128 163 223 262 300 382
#     4   9  20  40  60  88 126 155 206 257 308 369
#     4  11  22  35  58  92 120 160 202 247 313 374
#     4  11  24  42  66  95 120 172 222 254 321 371
#     4  11  22  36  59  91 125 162 195 250 321 368
#     4   9  22  45  65  87 128 169 210 270 307 373
#     4  11  22  41  60  85 128 163 202 258 312 362
#     4  11  24  39  59  91 126 156 209 264 295 385
#
# _framework density 18.944351000000001
#
# number of rings (size 3 to 8) (size 9 to 14) (size 15 to 20)
#    0.500    1.333    3.333    0.000    2.333    3.333 
#    1.500    1.667    0.000    0.000    0.000    0.000 
#    0.000    0.000    0.000    0.000    0.000    0.000 
#
# Total GULP energy -66868.607390 kJ/mol
# GULP energy per Si atom -5572.383949 kJ/mol
# Density = 1.890123 g / cm^3
# Si number density = 18.944351 Si / 1000 Ang^3
#
#
#
# Elastic Constant Matrix: (Units=GPa)
#
#
# Indices 1 2 3 4 5 6 
#
# 1 60.7847 4.8820 8.0713 0.0000 -18.5254 0.0000
# 2 4.8820 101.3250 32.8197 0.0000 -7.9106 0.0000
# 3 8.0713 32.8197 95.2251 0.0000 -23.3469 0.0000
# 4 0.0000 0.0000 0.0000 -412.8636 0.0000 1141.4641
# 5 -18.5254 -7.9106 -23.3469 0.0000 28.1080 0.0000
# 6 0.0000 0.0000 0.0000 1141.4641 0.0000-2893.9129
#
#
#
# Elastic Compliance Matrix: (Units=1/GPa)
#
#
# Indices 1 2 3 4 5 6 
#
# 1 0.020914 -0.000511 0.002195 0.000000 0.015463 0.000000
# 2 -0.000511 0.011122 -0.003899 0.000000 -0.000446 0.000000
# 3 0.002195 -0.003899 0.014748 0.000000 0.012599 0.000000
# 4 0.000000 0.000000 0.000000 0.026759 0.000000 0.010555
# 5 0.015463 -0.000446 0.012599 0.000000 0.056108 0.000000
# 6 0.000000 0.000000 0.000000 0.010555 0.000000 0.003818
#
#
# Mechanical properties :
#
#
# Convention : Reuss Voigt Hill
#
# Bulk Modulus (GPa) = 23.61136 38.76456 31.18796
# Shear Modulus (GPa) = 32.89101 -641.62957 -304.36928
#
# Velocity S-wave (km/s) = 4.17128 -18.42355 -12.68912
# Velocity P-wave (km/s) = 5.97412 20.78612 14.07786
#
# Compressibility (1/GPa) = 0.04235249
#
# Stress axis : x y z
#
# Youngs Moduli (GPa) = 47.81546 89.91156 67.80442
#
# Poissons Ratio (x) = 0.04597 -0.14881
# Poissons Ratio (y) = 0.02445 0.26438
# Poissons Ratio (z) = -0.10494 0.35058
#
# Static dielectric constant tensor:
#      x y z
#    x 1.669070 0.000000 0.015860 
#    y 0.000000 5.119000 0.000000 
#    z 0.015860 0.000000 1.643480 
# 
# From -- ./inp_files/21218.got.cif
#   From: 2010.05.17/outbox.cif.g08.bks.cpg/sg8_11_cif.got.tgz:21218.got - 2010.06.03 19:46:02.
