data_PCOD9133033
_publ_section_title
;
Structure prediction by ZEFSAII (Michael W. Deem and Ramdas Pophale) SiO2 
 PCOD9133033
Probable space group: C M
;
_chemical_formula_sum "Si O2"
_cell_formula_units_Z 26
_cell_length_a 10.386221
_cell_length_b 7.485209
_cell_length_c 15.016172
_cell_angle_alpha 90.000000
_cell_angle_beta 114.272774
_cell_angle_gamma 90.000000
_cell_volume 1064.202882
_symmetry_space_group_name_H-M "C M"
_symmetry_group_IT_number 8
_symmetry_cell_setting 'monoclinic'
loop_
_space_group_symop_operation_xyz
x,y,z
x,-y,z
1/2+x,1/2+y,z
1/2+x,1/2-y,z
loop_
_atom_site_type_symbol
_atom_site_label
_atom_site_fract_x
_atom_site_fract_y
_atom_site_fract_z
Si Si1 0.789730 0.793985 0.570120
Si Si2 0.489489 0.791072 0.111185
Si Si3 0.238104 0.000000 0.763626
Si Si4 0.497663 0.198299 0.918385
Si Si5 0.309972 0.216711 0.225697
Si Si6 0.970966 0.717365 0.449036
Si Si7 0.054866 0.297357 0.745265
O O1 0.870758 0.782192 0.499334
O O2 0.632434 0.725620 0.508105
O O3 0.890311 0.692399 0.668713
O O4 0.781519 0.000000 0.597760
O O5 0.379425 0.720026 0.152451
O O6 0.649246 0.778063 0.191859
O O7 0.451257 0.000000 0.087670
O O8 0.494248 0.711354 0.012907
O O9 0.340825 0.152143 0.840750
O O10 0.128328 0.157914 0.703156
O O11 0.565296 0.280534 0.848881
O O12 0.567730 0.000000 0.948688
O O13 0.406942 0.272285 0.335912
O O14 0.308862 0.000000 0.223426
O O15 0.970732 0.500000 0.451926
O O16 0.107409 0.500000 0.757690
#
# Coordination Sequence:
#
# PCOD9133033 Si02
#       7
#     4   4   2   4   4   4   4
#     4  11  24  41  65  94 125 169 217 268 332 386
#     4  10  21  40  64  91 127 168 207 267 323 377
#     4  10  22  44  64  90 138 170 218 266 328 376
#     4   8  21  39  60  89 128 162 212 265 310 388
#     4  10  22  39  63  92 127 166 216 267 323 385
#     4  10  23  42  61  91 128 168 216 269 327 392
#     4  11  23  41  65  95 130 174 217 268 320 393
#
# _framework density 24.431432999999998
#
# number of rings (size 3 to 8) (size 9 to 14) (size 15 to 20)
#    0.462    1.538    0.769    1.385    4.308    3.692 
#    1.385    0.000    0.000    0.000    0.000    0.000 
#    0.000    0.000    0.000    0.000    0.000    0.000 
#
# Total GULP energy -72406.133206 kJ/mol
# GULP energy per Si atom -5569.702554 kJ/mol
# Density = 2.437583 g / cm^3
# Si number density = 24.431433 Si / 1000 Ang^3
#
#
#
# Elastic Constant Matrix: (Units=GPa)
#
#
# Indices 1 2 3 4 5 6 
#
# 1 98.3747 -8.1536 -2.5570 0.0000 -3.2708 0.0000
# 2 -8.1536 95.0727 -1.3167 0.0000 -0.5681 0.0000
# 3 -2.5570 -1.3167 86.0206 0.0000 -18.7168 0.0000
# 4 0.0000 0.0000 0.0000 21.2620 0.0000 17.5910
# 5 -3.2708 -0.5681 -18.7168 0.0000 41.2962 0.0000
# 6 0.0000 0.0000 0.0000 17.5910 0.0000 20.0759
#
#
#
# Elastic Compliance Matrix: (Units=1/GPa)
#
#
# Indices 1 2 3 4 5 6 
#
# 1 0.010290 0.000897 0.000554 0.000000 0.001079 0.000000
# 2 0.000897 0.010601 0.000262 0.000000 0.000336 0.000000
# 3 0.000554 0.000262 0.012931 0.000000 0.005908 0.000000
# 4 0.000000 0.000000 0.000000 0.170988 0.000000 -0.149824
# 5 0.001079 0.000336 0.005908 0.000000 0.026983 0.000000
# 6 0.000000 0.000000 0.000000 -0.149824 0.000000 0.181090
#
#
# Mechanical properties :
#
#
# Convention : Reuss Voigt Hill
#
# Bulk Modulus (GPa) = 26.84754 28.37925 27.61339
# Shear Modulus (GPa) = 11.85191 35.95985 23.90588
#
# Velocity S-wave (km/s) = 2.20491 3.84066 3.13147
# Velocity P-wave (km/s) = 4.18270 5.59541 4.93982
#
# Compressibility (1/GPa) = 0.03724736
#
# Stress axis : x y z
#
# Youngs Moduli (GPa) = 97.18368 94.33253 77.33251
#
# Poissons Ratio (x) = -0.08458 -0.04286
# Poissons Ratio (y) = -0.08713 -0.02026
# Poissons Ratio (z) = -0.05387 -0.02471
#
# Static dielectric constant tensor:
#      x y z
#    x 2.091560 0.000000 -0.054090 
#    y 0.000000 1.932850 0.000000 
#    z -0.054090 0.000000 1.938520 
# 
# From -- ./inp_files/25819.got.cif
#   From: 2010.05.17/outbox.cif.g08.bks.cpg/sg8_13_cif.got.tgz:25819.got - 2010.06.03 19:46:02.
