data_PCOD9133642
_publ_section_title
;
Structure prediction by ZEFSAII (Michael W. Deem and Ramdas Pophale) SiO2 
 PCOD9133642
Probable space group: C M
;
_chemical_formula_sum "Si O2"
_cell_formula_units_Z 32
_cell_length_a 27.955342
_cell_length_b 7.518466
_cell_length_c 23.141529
_cell_angle_alpha 90.000000
_cell_angle_beta 18.578779
_cell_angle_gamma 90.000000
_cell_volume 1549.683917
_symmetry_space_group_name_H-M "C M"
_symmetry_group_IT_number 8
_symmetry_cell_setting 'monoclinic'
loop_
_space_group_symop_operation_xyz
x,y,z
x,-y,z
1/2+x,1/2+y,z
1/2+x,1/2-y,z
loop_
_atom_site_type_symbol
_atom_site_label
_atom_site_fract_x
_atom_site_fract_y
_atom_site_fract_z
Si Si1 0.995770 0.210037 0.453390
Si Si2 0.187969 0.800318 0.745566
Si Si3 0.867525 0.216815 0.716171
Si Si4 0.558491 0.791666 0.012475
Si Si5 0.944953 0.781869 0.756515
Si Si6 0.166317 0.713398 0.150592
Si Si7 0.279669 0.782382 0.403782
Si Si8 0.356495 0.218131 0.445762
O O1 0.853972 0.301306 0.584676
O O2 0.990299 0.264656 0.526567
O O3 0.138338 0.241669 0.249715
O O4 0.961984 0.000000 0.490458
O O5 0.226472 0.719493 0.639018
O O6 0.134281 0.000000 0.797542
O O7 0.083210 0.722580 0.915450
O O8 0.901685 0.276673 0.741453
O O9 0.863554 0.000000 0.723034
O O10 0.706804 0.279850 0.875296
O O11 0.404184 0.720404 0.215194
O O12 0.558459 0.000000 0.026280
O O13 0.111859 0.723776 0.581534
O O14 0.944300 0.000000 0.757415
O O15 0.818369 0.722896 0.946844
O O16 0.166175 0.500000 0.146667
O O17 0.018873 0.776185 0.284014
O O18 0.328746 0.729129 0.411952
O O19 0.276556 0.000000 0.406514
O O20 0.355404 0.000000 0.449095
#
# Coordination Sequence:
#
# PCOD9133642 Si02
#       8
#     4   4   4   4   4   4   4   4
#     4   9  16  27  45  67  90 113 140 176 215 256
#     4   9  16  27  45  67  90 113 140 176 215 256
#     4   8  14  25  42  63  85 111 142 176 214 253
#     4   9  16  27  45  67  89 112 140 177 218 256
#     4   9  16  26  42  64  87 112 147 185 212 243
#     4   9  16  27  45  67  89 112 140 177 218 256
#     4   9  16  26  42  64  87 112 147 185 212 243
#     4   8  14  25  42  63  85 111 142 176 214 253
#
# _framework density 20.649372
#
# number of rings (size 3 to 8) (size 9 to 14) (size 15 to 20)
#    0.000    3.250    0.000    3.000    0.000    3.000 
#    0.000    1.250    0.000   14.250    0.000    0.000 
#    0.000    0.000    0.000    0.000    0.000    0.000 
#
# Total GULP energy -89154.679658 kJ/mol
# GULP energy per Si atom -5572.167479 kJ/mol
# Density = 2.060237 g / cm^3
# Si number density = 20.649372 Si / 1000 Ang^3
#
#
#
# Elastic Constant Matrix: (Units=GPa)
#
#
# Indices 1 2 3 4 5 6 
#
# 1 31.7852 5.6439 95.1329 -0.0033 19.0210 0.0069
# 2 5.6439 50.6215 6.0936 0.0084 -1.4448 -0.0050
# 3 95.1329 6.0936 208.7421 0.0124 37.3100 -0.0085
# 4 -0.0033 0.0084 0.0124 12.9252 -0.0083 8.5799
# 5 19.0210 -1.4448 37.3100 -0.0083 30.3586 0.0048
# 6 0.0069 -0.0050 -0.0085 8.5799 0.0048 6.2950
#
#
#
# Elastic Compliance Matrix: (Units=1/GPa)
#
#
# Indices 1 2 3 4 5 6 
#
# 1 -0.083804 0.005149 0.036669 -0.001553 0.007686 0.002257
# 2 0.005149 0.019615 -0.003216 -0.000106 0.001660 0.000149
# 3 0.036669 -0.003216 -0.009859 0.000479 -0.011011 -0.000700
# 4 -0.001553 -0.000106 0.000479 0.812436 0.000777 -1.107338
# 5 0.007686 0.001660 -0.011011 0.000777 0.041736 -0.001113
# 6 0.002257 0.000149 -0.000700 -1.107338 -0.001113 1.668142
#
#
# Mechanical properties :
#
#
# Convention : Reuss Voigt Hill
#
# Bulk Modulus (GPa) = 316.76930 56.09884 186.43407
# Shear Modulus (GPa) = 2.10783 22.20098 12.15440
#
# Velocity S-wave (km/s) = 1.01143 3.28249 2.42876
# Velocity P-wave (km/s) = 12.45395 6.44924 9.91699
#
# Compressibility (1/GPa) = 0.00315687
#
# Stress axis : x y z
#
# Youngs Moduli (GPa) = -11.93266 50.98171 -101.42748
#
# Poissons Ratio (x) = -0.26251 3.71926
# Poissons Ratio (y) = 0.06144 -0.32618
# Poissons Ratio (z) = 0.43756 0.16395
#
# Static dielectric constant tensor:
#      x y z
#    x 1.704050 0.000000 0.039410 
#    y 0.000000 1.804560 0.000000 
#    z 0.039410 0.000000 1.745970 
# 
# From -- ./inp_files/17478.got.cif
#   From: 2010.05.17/outbox.cif.g08.bks.cpg/sg8_9_cif.got.tgz:17478.got - 2010.06.03 19:46:02.
