data_PCOD9133650
_publ_section_title
;
Structure prediction by ZEFSAII (Michael W. Deem and Ramdas Pophale) SiO2 
 PCOD9133650
Probable space group: C M
;
_chemical_formula_sum "Si O2"
_cell_formula_units_Z 14
_cell_length_a 15.000000
_cell_length_b 21.000000
_cell_length_c 9.000000
_cell_angle_alpha 90.000000
_cell_angle_beta 30.000000
_cell_angle_gamma 90.000000
_cell_volume 1417.500000
_symmetry_space_group_name_H-M "C M"
_symmetry_group_IT_number 8
_symmetry_cell_setting 'monoclinic'
loop_
_space_group_symop_operation_xyz
x,y,z
x,-y,z
1/2+x,1/2+y,z
1/2+x,1/2-y,z
loop_
_atom_site_type_symbol
_atom_site_label
_atom_site_fract_x
_atom_site_fract_y
_atom_site_fract_z
Si Si1 0.790830 0.922420 0.636240
Si Si2 0.228511 0.747796 0.253006
Si Si3 0.479080 0.075452 0.601814
Si Si4 0.900622 0.164367 0.743658
Si Si5 0.412627 0.424934 0.968847
Si Si6 0.630017 0.424582 0.943781
Si Si7 0.546206 0.839326 0.765835
O O1 0.793494 0.878399 0.779649
O O2 0.657777 0.885846 0.713874
O O3 0.752984 0.000000 0.707442
O O4 0.991535 0.917854 0.279864
O O5 0.171747 0.704254 0.476430
O O6 0.054792 0.789457 0.461197
O O7 0.284858 0.706761 0.026676
O O8 0.398981 0.791856 0.047164
O O9 0.331119 0.098058 0.693777
O O10 0.440640 0.114674 0.805378
O O11 0.451101 0.000000 0.661262
O O12 0.695244 0.082852 0.272032
O O13 0.993854 0.112327 0.714423
O O14 0.440491 0.500000 0.918702
O O15 0.515270 0.400380 0.967853
O O16 0.650145 0.500000 0.887244
#
# Coordination Sequence:
#
# PCOD9133650 Si02
#       7
#     4   4   4   4   4   4   4
#     4  11  22  38  65  96 129 163 207 271 331 376
#     4  10  24  41  64  85 125 178 217 256 309 374
#     4  10  18  33  63  92 123 165 210 263 319 376
#     4  11  22  42  61  91 126 166 211 264 314 379
#     4  10  19  37  62  89 127 169 209 269 325 375
#     4   9  18  33  58  93 125 163 204 245 322 393
#     4  11  21  42  63  92 125 170 215 262 312 383
#
# _framework density 9.8765429999999999
#
# number of rings (size 3 to 8) (size 9 to 14) (size 15 to 20)
#    0.000    1.714    2.857    1.714    0.000    1.143 
#    2.571    7.857    0.000    0.000    0.000    0.000 
#    0.000    0.000    0.000    0.000    0.000    0.000 
#
# Total GULP energy -77968.327270 kJ/mol
# GULP energy per Si atom -5569.166234 kJ/mol
# Density = 0.985406 g / cm^3
# Si number density = 9.876543 Si / 1000 Ang^3
#
#
#
# Elastic Constant Matrix: (Units=GPa)
#
#
# Indices 1 2 3 4 5 6 
#
# 1 142.5724 47.4095 38.6115 -0.0013 -18.1088 -0.0008
# 2 47.4095 110.1282 44.4903 0.0049 -7.2976 -0.0010
# 3 38.6115 44.4903 66.6441 0.0144 -9.1132 -0.0040
# 4 -0.0013 0.0049 0.0144 18.6512 -0.0059 1.1745
# 5 -18.1088 -7.2976 -9.1132 -0.0059 26.5138 0.0016
# 6 -0.0008 -0.0010 -0.0040 1.1745 0.0016 37.8136
#
#
#
# Elastic Compliance Matrix: (Units=1/GPa)
#
#
# Indices 1 2 3 4 5 6 
#
# 1 0.009243 -0.002417 -0.003116 0.000005 0.004577 -0.000001
# 2 -0.002417 0.013075 -0.007410 0.000002 -0.000599 -0.000001
# 3 -0.003116 -0.007410 0.022232 -0.000014 0.003474 0.000002
# 4 0.000005 0.000002 -0.000014 0.053721 0.000011 -0.001669
# 5 0.004577 -0.000599 0.003474 0.000011 0.041871 -0.000002
# 6 -0.000001 -0.000001 0.000002 -0.001669 -0.000002 0.026497
#
#
# Mechanical properties :
#
#
# Convention : Reuss Voigt Hill
#
# Bulk Modulus (GPa) = 53.57843 64.48525 59.03184
# Shear Modulus (GPa) = 25.15781 29.18461 27.17121
#
# Velocity S-wave (km/s) = 3.57264 3.84796 3.71285
# Velocity P-wave (km/s) = 6.64841 7.24285 6.95199
#
# Compressibility (1/GPa) = 0.01866423
#
# Stress axis : x y z
#
# Youngs Moduli (GPa) = 108.19255 76.48384 44.98034
#
# Poissons Ratio (x) = 0.18486 0.14014
# Poissons Ratio (y) = 0.26150 0.33330
# Poissons Ratio (z) = 0.33708 0.56674
#
# Static dielectric constant tensor:
#      x y z
#    x 1.724930 0.000000 0.015350 
#    y 0.000000 1.718000 0.000000 
#    z 0.015350 0.000000 1.737740 
# 
# From -- ./inp_files/13751.got.cif
#   From: 2010.05.17/outbox.ucp.g08.bks.cvg/sg8_7_cif.got.tgz:13751.got - 2010.06.11 13:00:03.
