data_PCOD9133281
_publ_section_title
;
Structure prediction by ZEFSAII (Michael W. Deem and Ramdas Pophale) SiO2 
 PCOD9133281
Probable space group: C M
;
_chemical_formula_sum "Si O2"
_cell_formula_units_Z 20
_cell_length_a 9.312042
_cell_length_b 22.086568
_cell_length_c 5.111109
_cell_angle_alpha 90.000000
_cell_angle_beta 119.069461
_cell_angle_gamma 90.000000
_cell_volume 918.787970
_symmetry_space_group_name_H-M "C M"
_symmetry_group_IT_number 8
_symmetry_cell_setting 'monoclinic'
loop_
_space_group_symop_operation_xyz
x,y,z
x,-y,z
1/2+x,1/2+y,z
1/2+x,1/2-y,z
loop_
_atom_site_type_symbol
_atom_site_label
_atom_site_fract_x
_atom_site_fract_y
_atom_site_fract_z
Si Si1 0.646850 0.168644 0.707760
Si Si2 0.976359 0.568424 0.241355
Si Si3 0.922147 0.759177 0.740108
Si Si4 0.250266 0.931992 0.544395
Si Si5 0.970232 0.165368 0.259912
O O1 0.594117 0.122774 0.435236
O O2 0.738345 0.229970 0.685147
O O3 0.493391 0.193764 0.736652
O O4 0.794353 0.139130 0.004997
O O5 0.048662 0.500000 0.318247
O O6 0.832764 0.570738 0.332514
O O7 0.892090 0.576113 0.886604
O O8 0.930832 0.796662 0.481742
O O9 0.023703 0.791793 0.062653
O O10 0.106809 0.883714 0.438756
O O11 0.184383 0.000000 0.526019
#
# Coordination Sequence:
#
# PCOD9133281 Si02
#       5
#     4   4   4   4   4
#     4  10  26  43  68  94 138 173 222 272 322 400
#     4  10  23  41  69  99 130 174 218 272 331 390
#     4  10  25  39  65  97 130 175 219 268 334 373
#     4  10  22  42  67  96 132 173 219 273 332 390
#     4  10  24  41  63  98 124 181 214 275 317 399
#
# _framework density 21.767809
#
# number of rings (size 3 to 8) (size 9 to 14) (size 15 to 20)
#    1.200    0.800    0.000    1.200    8.400    2.400 
#    0.000    1.000    0.000    0.000    0.000    0.000 
#    0.000    0.000    0.000    0.000    0.000    0.000 
#
# Total GULP energy -55805.188632 kJ/mol
# GULP energy per Si atom -5580.518863 kJ/mol
# Density = 2.171826 g / cm^3
# Si number density = 21.767809 Si / 1000 Ang^3
#
#
#
# Elastic Constant Matrix: (Units=GPa)
#
#
# Indices 1 2 3 4 5 6 
#
# 1 38.2297 20.7671 -1.3550 0.0000 0.9831 0.0000
# 2 20.7671 90.0418 21.2845 0.0000 11.7427 0.0000
# 3 -1.3550 21.2845 53.6557 0.0000 -6.3902 0.0000
# 4 0.0000 0.0000 0.0000 41.0181 0.0000 0.2081
# 5 0.9831 11.7427 -6.3902 0.0000 39.4636 0.0000
# 6 0.0000 0.0000 0.0000 0.2081 0.0000 24.4128
#
#
#
# Elastic Compliance Matrix: (Units=1/GPa)
#
#
# Indices 1 2 3 4 5 6 
#
# 1 0.030864 -0.008492 0.004443 0.000000 0.002477 0.000000
# 2 -0.008492 0.015437 -0.006995 0.000000 -0.005515 0.000000
# 3 0.004443 -0.006995 0.022187 0.000000 0.005563 0.000000
# 4 0.000000 0.000000 0.000000 0.024381 0.000000 -0.000208
# 5 0.002477 -0.005515 0.005563 0.000000 0.027820 0.000000
# 6 0.000000 0.000000 0.000000 -0.000208 0.000000 0.040964
#
#
# Mechanical properties :
#
#
# Convention : Reuss Voigt Hill
#
# Bulk Modulus (GPa) = 21.55120 29.25781 25.40451
# Shear Modulus (GPa) = 25.09948 30.39427 27.74688
#
# Velocity S-wave (km/s) = 3.39935 3.74076 3.57413
# Velocity P-wave (km/s) = 5.03284 5.66813 5.35990
#
# Compressibility (1/GPa) = 0.04640112
#
# Stress axis : x y z
#
# Youngs Moduli (GPa) = 32.39977 64.77869 45.07153
#
# Poissons Ratio (x) = 0.55009 -0.20026
# Poissons Ratio (y) = 0.27514 0.31527
# Poissons Ratio (z) = -0.14396 0.45312
#
# Static dielectric constant tensor:
#      x y z
#    x 1.804380 0.000000 0.014970 
#    y 0.000000 1.823150 0.000000 
#    z 0.014970 0.000000 1.789980 
# 
# From -- ./inp_files/3147.got.cif
#   From: 2010.05.17/outbox.cif.g08.bks.cpg/sg8_2_cif.got.tgz:3147.got - 2010.06.03 19:46:02.
