data_PCOD9133922
_publ_section_title
;
Structure prediction by ZEFSAII (Michael W. Deem and Ramdas Pophale) SiO2 
 PCOD9133922
Probable space group: C C
;
_chemical_formula_sum "Si O2"
_cell_formula_units_Z 24
_cell_length_a 7.183746
_cell_length_b 30.301129
_cell_length_c 8.126799
_cell_angle_alpha 90.000000
_cell_angle_beta 141.088007
_cell_angle_gamma 90.000000
_cell_volume 1111.158541
_symmetry_space_group_name_H-M "C C"
_symmetry_group_IT_number 9
_symmetry_cell_setting 'monoclinic'
loop_
_space_group_symop_operation_xyz
x,y,z
x,-y,1/2+z
1/2+x,1/2+y,z
1/2+x,1/2-y,1/2+z
loop_
_atom_site_type_symbol
_atom_site_label
_atom_site_fract_x
_atom_site_fract_y
_atom_site_fract_z
Si Si1 0.044020 0.269110 0.569610
Si Si2 0.595426 0.848508 0.830029
Si Si3 0.609195 0.038632 0.705019
Si Si4 0.041137 0.903999 0.329614
Si Si5 0.689449 0.516156 0.702681
Si Si6 0.615440 0.767997 0.068178
O O1 0.134083 0.317356 0.695465
O O2 0.826769 0.262859 0.267192
O O3 0.828387 0.251842 0.569759
O O4 0.312783 0.878655 0.598413
O O5 0.543021 0.816513 0.952153
O O6 0.885869 0.875792 0.078573
O O7 0.783433 0.917043 0.280282
O O8 0.413364 0.022031 0.416689
O O9 0.369094 0.041120 0.684210
O O10 0.871643 0.003608 0.930676
O O11 0.146104 0.950133 0.323074
O O12 0.826954 0.762558 0.369248
#
# Coordination Sequence:
#
# PCOD9133922 Si02
#       6
#     4   4   4   4   4   4
#     4   8  13  24  42  66 106 140 170 212 256 308
#     4  10  18  29  46  80 112 138 172 228 274 313
#     4  12  23  41  60  79 106 143 190 230 274 340
#     4  12  22  33  56  80 110 136 182 230 280 311
#     4  12  23  41  60  79 106 143 190 230 274 340
#     4   8  13  24  42  66 106 140 170 212 256 308
#
# _framework density 21.599079
#
# number of rings (size 3 to 8) (size 9 to 14) (size 15 to 20)
#    0.000    2.000    3.333    6.000    0.000    0.000 
#    0.000    0.000    0.000    0.000    0.000    0.000 
#    0.000  240.000    0.000    0.000    0.000    0.000 
#
# Total GULP energy -66898.931064 kJ/mol
# GULP energy per Si atom -5574.910922 kJ/mol
# Density = 2.154992 g / cm^3
# Si number density = 21.599079 Si / 1000 Ang^3
#
#
#
# Elastic Constant Matrix: (Units=GPa)
#
#
# Indices 1 2 3 4 5 6 
#
# 1 71.3637 -9.3896 -0.8680 0.0000 10.4972 0.0000
# 2 -9.3896 61.6512 19.7085 0.0000 12.3550 0.0000
# 3 -0.8680 19.7085 134.0043 0.0000 36.1151 0.0000
# 4 0.0000 0.0000 0.0000 44.3528 0.0000 16.0557
# 5 10.4972 12.3550 36.1151 0.0000 22.8895 0.0000
# 6 0.0000 0.0000 0.0000 16.0557 0.0000 -1.4892
#
#
#
# Elastic Compliance Matrix: (Units=1/GPa)
#
#
# Indices 1 2 3 4 5 6 
#
# 1 0.017091 0.004665 0.003855 0.000000 -0.016438 0.000000
# 2 0.004665 0.019461 0.001001 0.000000 -0.014224 0.000000
# 3 0.003855 0.001001 0.013853 0.000000 -0.024166 0.000000
# 4 0.000000 0.000000 0.000000 0.004599 0.000000 0.049580
# 5 -0.016438 -0.014224 -0.024166 0.000000 0.097033 0.000000
# 6 0.000000 0.000000 0.000000 0.049580 0.000000 -0.136961
#
#
# Mechanical properties :
#
#
# Convention : Reuss Voigt Hill
#
# Bulk Modulus (GPa) = 14.39920 31.76899 23.08410
# Shear Modulus (GPa) = 260.65295 30.32184 145.48739
#
# Velocity S-wave (km/s) = 10.99726 3.75086 8.21610
# Velocity P-wave (km/s) = 12.95894 5.78784 10.03576
#
# Compressibility (1/GPa) = 0.06944829
#
# Stress axis : x y z
#
# Youngs Moduli (GPa) = 58.50883 51.38445 72.18685
#
# Poissons Ratio (x) = -0.23971 -0.27827
# Poissons Ratio (y) = -0.27295 -0.07229
# Poissons Ratio (z) = -0.22555 -0.05146
#
# Static dielectric constant tensor:
#      x y z
#    x 2.182750 0.000000 -0.458720 
#    y 0.000000 1.838510 0.000000 
#    z -0.458720 0.000000 2.366170 
# 
# From -- ./inp_files/6496.got.cif
#   From: 2010.05.17/outbox.cif.g08.bks.cpg/sg9_4_cif.got.tgz:6496.got - 2010.06.03 20:04:27.
