data_PCOD9133691
_publ_section_title
;
Structure prediction by ZEFSAII (Michael W. Deem and Ramdas Pophale) SiO2 
 PCOD9133691
Probable space group: C M
;
_chemical_formula_sum "Si O2"
_cell_formula_units_Z 16
_cell_length_a 12.000000
_cell_length_b 18.000000
_cell_length_c 15.000000
_cell_angle_alpha 90.000000
_cell_angle_beta 30.000000
_cell_angle_gamma 90.000000
_cell_volume 1620.000000
_symmetry_space_group_name_H-M "C M"
_symmetry_group_IT_number 8
_symmetry_cell_setting 'monoclinic'
loop_
_space_group_symop_operation_xyz
x,y,z
x,-y,z
1/2+x,1/2+y,z
1/2+x,1/2-y,z
loop_
_atom_site_type_symbol
_atom_site_label
_atom_site_fract_x
_atom_site_fract_y
_atom_site_fract_z
Si Si1 0.401120 0.590158 0.471640
Si Si2 0.841350 0.909844 0.105442
Si Si3 0.602831 0.315589 0.075299
Si Si4 0.639500 0.184391 0.501869
Si Si5 0.361517 0.910536 0.044915
Si Si6 0.963940 0.811753 0.851106
Si Si7 0.278391 0.311731 0.726043
Si Si8 0.880804 0.589462 0.532232
O O1 0.352653 0.500000 0.506953
O O2 0.231927 0.636990 0.523264
O O3 0.655661 0.597767 0.257929
O O4 0.377677 0.631500 0.582942
O O5 0.586749 0.902235 0.319181
O O6 0.010481 0.862987 0.053842
O O7 0.889837 0.000000 0.070136
O O8 0.864742 0.868517 0.994167
O O9 0.371156 0.296429 0.288588
O O10 0.752411 0.372323 0.031809
O O11 0.758740 0.241026 0.954818
O O12 0.483560 0.258950 0.622383
O O13 0.489901 0.127672 0.545353
O O14 0.401654 0.000000 0.006290
O O15 0.591695 0.864613 0.906064
O O16 0.121195 0.750010 0.788535
O O17 0.150554 0.864647 0.671122
O O18 0.840707 0.500000 0.570829
#
# Coordination Sequence:
#
# PCOD9133691 Si02
#       8
#     4   4   4   4   4   4   4   4
#     4  10  20  37  61  84 110 147 187 230 279 327
#     4  10  20  37  61  84 110 147 187 230 279 327
#     4   9  19  34  55  85 116 144 183 234 281 327
#     4   9  19  34  55  85 116 144 183 234 281 327
#     4   9  18  33  54  80 110 144 185 230 274 326
#     4  10  21  34  52  84 119 147 179 228 283 333
#     4  10  21  34  52  84 119 147 179 228 283 333
#     4   9  18  33  54  80 110 144 185 230 274 326
#
# _framework density 9.8765429999999999
#
# number of rings (size 3 to 8) (size 9 to 14) (size 15 to 20)
#    0.000    2.500    0.000    1.500    0.000   16.000 
#    0.000    8.750    0.000    3.000    0.000   43.750 
#    0.000    0.000    0.000    0.000    0.000    0.000 
#
# Total GULP energy -89170.437434 kJ/mol
# GULP energy per Si atom -5573.152340 kJ/mol
# Density = 0.985406 g / cm^3
# Si number density = 9.876543 Si / 1000 Ang^3
#
#
#
# Elastic Constant Matrix: (Units=GPa)
#
#
# Indices 1 2 3 4 5 6 
#
# 1 42.6289 45.3413 35.8251 -0.0380 -7.2581 0.0454
# 2 45.3413 183.2802 78.8866 0.0745 -12.2427 -0.0289
# 3 35.8251 78.8866 125.7493 0.1728 -12.9922 -0.0372
# 4 -0.0380 0.0745 0.1728 56.5086 -0.0013 -12.2287
# 5 -7.2581 -12.2427 -12.9922 -0.0013 33.8541 -0.0394
# 6 0.0454 -0.0289 -0.0372 -12.2287 -0.0394 43.5025
#
#
#
# Elastic Compliance Matrix: (Units=1/GPa)
#
#
# Indices 1 2 3 4 5 6 
#
# 1 0.035383 -0.005952 -0.006024 0.000043 0.003122 -0.000031
# 2 -0.005952 0.008504 -0.003596 -0.000002 0.000419 0.000008
# 3 -0.006024 -0.003596 0.012138 -0.000035 0.002066 0.000006
# 4 0.000043 -0.000002 -0.000035 0.018843 0.000002 0.005297
# 5 0.003122 0.000419 0.002066 0.000002 0.031152 0.000028
# 6 -0.000031 0.000008 0.000006 0.005297 0.000028 0.024476
#
#
# Mechanical properties :
#
#
# Convention : Reuss Voigt Hill
#
# Bulk Modulus (GPa) = 40.19090 74.64050 57.41570
# Shear Modulus (GPa) = 29.42300 39.54674 34.48487
#
# Velocity S-wave (km/s) = 3.86364 4.47929 4.18281
# Velocity P-wave (km/s) = 6.34779 8.03871 7.24276
#
# Compressibility (1/GPa) = 0.02488125
#
# Stress axis : x y z
#
# Youngs Moduli (GPa) = 28.26199 117.58624 82.38590
#
# Poissons Ratio (x) = 0.69988 0.49630
# Poissons Ratio (y) = 0.16822 0.29626
# Poissons Ratio (z) = 0.17025 0.42285
#
# Static dielectric constant tensor:
#      x y z
#    x 1.728850 0.000000 0.032160 
#    y 0.000000 1.682910 0.000000 
#    z 0.032160 0.000000 1.744270 
# 
# From -- ./inp_files/26270.got.cif
#   From: 2010.05.17/outbox.ucp.g08.bks.cvg/sg8_14_cif.got.tgz:26270.got - 2010.06.11 13:00:03.
