data_PCOD9133937
_publ_section_title
;
Structure prediction by ZEFSAII (Michael W. Deem and Ramdas Pophale) SiO2 
 PCOD9133937
Probable space group: C C
;
_chemical_formula_sum "Si O2"
_cell_formula_units_Z 28
_cell_length_a 11.799922
_cell_length_b 20.014409
_cell_length_c 13.080427
_cell_angle_alpha 90.000000
_cell_angle_beta 155.130553
_cell_angle_gamma 90.000000
_cell_volume 1299.162886
_symmetry_space_group_name_H-M "C C"
_symmetry_group_IT_number 9
_symmetry_cell_setting 'monoclinic'
loop_
_space_group_symop_operation_xyz
x,y,z
x,-y,1/2+z
1/2+x,1/2+y,z
1/2+x,1/2-y,1/2+z
loop_
_atom_site_type_symbol
_atom_site_label
_atom_site_fract_x
_atom_site_fract_y
_atom_site_fract_z
Si Si1 0.349050 0.836924 0.802260
Si Si2 0.445160 0.359394 0.298175
Si Si3 0.772379 0.459301 0.472382
Si Si4 0.827004 0.926707 0.585327
Si Si5 0.784858 0.973828 0.327605
Si Si6 0.095292 0.213052 0.303953
Si Si7 0.354581 0.009364 0.272770
O O1 0.958704 0.856903 0.722877
O O2 0.335833 0.917651 0.812533
O O3 0.665609 0.824240 0.042447
O O4 0.236020 0.800046 0.808905
O O5 0.613581 0.389372 0.341282
O O6 0.346225 0.424407 0.283825
O O7 0.650315 0.324451 0.544296
O O8 0.552071 0.516624 0.280908
O O9 0.885114 0.463529 0.680278
O O10 0.021087 0.480325 0.605603
O O11 0.577775 0.951857 0.448935
O O12 0.749909 0.928678 0.401160
O O13 0.056303 0.018071 0.552794
O O14 0.340326 0.237587 0.576368
#
# Coordination Sequence:
#
# PCOD9133937 Si02
#       7
#     4   4   4   4   4   4   4
#     4  10  18  36  51  72 106 140 192 225 268 324
#     4  10  18  31  50  75 101 148 174 227 282 326
#     4   9  18  27  50  74 106 141 174 226 294 329
#     4  11  19  34  53  75 112 148 185 233 275 338
#     4   9  18  28  47  74 105 141 172 223 285 334
#     4  12  26  37  54  79 116 165 193 213 266 345
#     4   9  19  31  51  77 100 151 176 243 286 320
#
# _framework density 21.552340000000001
#
# number of rings (size 3 to 8) (size 9 to 14) (size 15 to 20)
#    0.000    2.286    4.286    1.714    4.000    0.000 
#    0.000    0.000    0.000    0.000    0.000    0.000 
#    0.000   29.714    0.000    0.000    0.000    0.000 
#
# Total GULP energy -78020.254221 kJ/mol
# GULP energy per Si atom -5572.875301 kJ/mol
# Density = 2.150329 g / cm^3
# Si number density = 21.552340 Si / 1000 Ang^3
#
#
#
# Elastic Constant Matrix: (Units=GPa)
#
#
# Indices 1 2 3 4 5 6 
#
# 1 57.1987 18.7321 3.8959 -0.0011 18.0614 -0.0003
# 2 18.7321 61.6301 25.0794 -0.0020 22.2460 -0.0007
# 3 3.8959 25.0794 145.8725 -0.0072 44.5986 -0.0024
# 4 -0.0011 -0.0020 -0.0072 -4.6911 -0.0024 -1.1244
# 5 18.0614 22.2460 44.5986 -0.0024 36.6340 -0.0008
# 6 -0.0003 -0.0007 -0.0024 -1.1244 -0.0008 29.3644
#
#
#
# Elastic Compliance Matrix: (Units=1/GPa)
#
#
# Indices 1 2 3 4 5 6 
#
# 1 0.022941 -0.003516 0.004455 -0.000003 -0.014599 0.000000
# 2 -0.003516 0.021339 -0.000228 -0.000002 -0.010947 0.000000
# 3 0.004455 -0.000228 0.011795 -0.000011 -0.016417 0.000000
# 4 -0.000003 -0.000002 -0.000011 -0.211229 0.000003 -0.008089
# 5 -0.014599 -0.010947 -0.016417 0.000003 0.061129 0.000000
# 6 0.000000 0.000000 0.000000 -0.008089 0.000000 0.033745
#
#
# Mechanical properties :
#
#
# Convention : Reuss Voigt Hill
#
# Bulk Modulus (GPa) = 17.39211 40.01290 28.70250
# Shear Modulus (GPa) = -117.54242 26.72770 -45.40736
#
# Velocity S-wave (km/s) = -7.39300 3.52537 -4.59501
# Velocity P-wave (km/s) = 8.04911 5.93100 3.84782
#
# Compressibility (1/GPa) = 0.05749734
#
# Stress axis : x y z
#
# Youngs Moduli (GPa) = 43.59030 46.86320 84.78247
#
# Poissons Ratio (x) = 0.16477 -0.37773
# Poissons Ratio (y) = 0.15326 0.01932
# Poissons Ratio (z) = -0.19421 0.01068
#
# Static dielectric constant tensor:
#      x y z
#    x 1.868790 0.000000 -0.089840 
#    y 0.000000 1.811870 0.000000 
#    z -0.089840 0.000000 2.054850 
# 
# From -- ./inp_files/25109.got.cif
#   From: 2010.05.17/outbox.cif.g08.bks.cpg/sg9_13_cif.got.tgz:25109.got - 2010.06.03 20:04:27.
