data_PCOD9133597
_publ_section_title
;
Structure prediction by ZEFSAII (Michael W. Deem and Ramdas Pophale) SiO2 
 PCOD9133597
Probable space group: C M
;
_chemical_formula_sum "Si O2"
_cell_formula_units_Z 24
_cell_length_a 12.664524
_cell_length_b 15.407600
_cell_length_c 8.870043
_cell_angle_alpha 90.000000
_cell_angle_beta 32.866325
_cell_angle_gamma 90.000000
_cell_volume 939.277915
_symmetry_space_group_name_H-M "C M"
_symmetry_group_IT_number 8
_symmetry_cell_setting 'monoclinic'
loop_
_space_group_symop_operation_xyz
x,y,z
x,-y,z
1/2+x,1/2+y,z
1/2+x,1/2-y,z
loop_
_atom_site_type_symbol
_atom_site_label
_atom_site_fract_x
_atom_site_fract_y
_atom_site_fract_z
Si Si1 0.804210 0.854273 0.079660
Si Si2 0.854480 0.500000 0.015802
Si Si3 0.804162 0.827281 0.755551
Si Si4 0.700045 0.500000 0.916100
Si Si5 0.253188 0.179344 0.297120
Si Si6 0.710906 0.341593 0.678784
Si Si7 0.668538 0.000000 0.457742
Si Si8 0.858294 0.000000 0.495656
O O1 0.837472 0.756767 0.096007
O O2 0.695164 0.911744 0.331747
O O3 0.710972 0.854633 0.027417
O O4 0.024467 0.886985 0.819671
O O5 0.617908 0.500000 0.197111
O O6 0.915144 0.500000 0.761223
O O7 0.816293 0.587642 0.153753
O O8 0.715517 0.746442 0.772836
O O9 0.023560 0.803523 0.544495
O O10 0.824423 0.910295 0.625679
O O11 0.746986 0.414523 0.761153
O O12 0.421360 0.500000 0.235317
O O13 0.315835 0.185120 0.396263
O O14 0.619874 0.000000 0.700535
#
# Coordination Sequence:
#
# PCOD9133597 Si02
#       8
#     4   2   4   2   4   4   2   2
#     4  11  25  45  69 100 140 177 226 286 338 403
#     4  12  27  45  69 101 142 180 226 280 341 406
#     4  11  25  44  72 101 133 181 229 281 345 400
#     4  12  23  45  71  97 134 180 227 282 336 403
#     4  11  25  45  69 100 140 177 226 286 338 403
#     4  11  25  44  72 101 133 181 229 281 345 400
#     4  12  27  45  69 101 142 180 226 280 341 406
#     4  12  23  45  71  97 134 180 227 282 336 403
#
# _framework density 25.551542999999999
#
# number of rings (size 3 to 8) (size 9 to 14) (size 15 to 20)
#    0.000    0.667    3.333    3.000    9.333    2.667 
#    0.000    1.667    0.000    0.000    0.000    0.000 
#    0.000    0.000    0.000    0.000    0.000    0.000 
#
# Total GULP energy -66941.573299 kJ/mol
# GULP energy per Si atom -5578.464442 kJ/mol
# Density = 2.549339 g / cm^3
# Si number density = 25.551543 Si / 1000 Ang^3
#
#
#
# Elastic Constant Matrix: (Units=GPa)
#
#
# Indices 1 2 3 4 5 6 
#
# 1 205.0298 44.9940 60.7871 -0.0022 21.8683 0.0019
# 2 44.9940 185.1524 51.0248 -0.0009 46.8399 0.0007
# 3 60.7871 51.0248 90.5086 -0.0031 32.7051 0.0025
# 4 -0.0022 -0.0009 -0.0031 18.7511 0.0020 6.4874
# 5 21.8683 46.8399 32.7051 0.0020 66.4832 -0.0018
# 6 0.0019 0.0007 0.0025 6.4874 -0.0018 35.4880
#
#
#
# Elastic Compliance Matrix: (Units=1/GPa)
#
#
# Indices 1 2 3 4 5 6 
#
# 1 0.006121 -0.000466 -0.003939 0.000000 0.000253 0.000000
# 2 -0.000466 0.007096 -0.002355 0.000000 -0.003688 0.000000
# 3 -0.003939 -0.002355 0.016971 0.000003 -0.005394 -0.000002
# 4 0.000000 0.000000 0.000003 0.056931 -0.000004 -0.010407
# 5 0.000253 -0.003688 -0.005394 -0.000004 0.020210 0.000002
# 6 0.000000 0.000000 -0.000002 -0.010407 0.000002 0.030081
#
#
# Mechanical properties :
#
#
# Convention : Reuss Voigt Hill
#
# Bulk Modulus (GPa) = 59.99822 88.25585 74.12703
# Shear Modulus (GPa) = 31.95179 45.73679 38.84429
#
# Velocity S-wave (km/s) = 3.54005 4.23541 3.90325
# Velocity P-wave (km/s) = 6.34362 7.65072 7.02763
#
# Compressibility (1/GPa) = 0.01666716
#
# Stress axis : x y z
#
# Youngs Moduli (GPa) = 163.38427 140.92300 58.92341
#
# Poissons Ratio (x) = 0.06562 0.23213
# Poissons Ratio (y) = 0.07608 0.13877
# Poissons Ratio (z) = 0.64365 0.33190
#
# Static dielectric constant tensor:
#      x y z
#    x 2.919710 0.000000 -0.705380 
#    y 0.000000 1.808300 0.000000 
#    z -0.705380 0.000000 2.505930 
# 
# From -- ./inp_files/13210.got.cif
#   From: 2010.05.17/outbox.cif.g08.bks.cpg/sg8_7_cif.got.tgz:13210.got - 2010.06.03 19:46:02.
