data_PCOD9133805
_publ_section_title
;
Structure prediction by ZEFSAII (Michael W. Deem and Ramdas Pophale) SiO2 
 PCOD9133805
Probable space group: C C
;
_chemical_formula_sum "Si O2"
_cell_formula_units_Z 32
_cell_length_a 26.022709
_cell_length_b 10.051525
_cell_length_c 10.493369
_cell_angle_alpha 90.000000
_cell_angle_beta 143.752781
_cell_angle_gamma 90.000000
_cell_volume 1622.877064
_symmetry_space_group_name_H-M "C C"
_symmetry_group_IT_number 9
_symmetry_cell_setting 'monoclinic'
loop_
_space_group_symop_operation_xyz
x,y,z
x,-y,1/2+z
1/2+x,1/2+y,z
1/2+x,1/2-y,1/2+z
loop_
_atom_site_type_symbol
_atom_site_label
_atom_site_fract_x
_atom_site_fract_y
_atom_site_fract_z
Si Si1 0.965570 0.175369 0.350540
Si Si2 0.955548 0.761426 0.556725
Si Si3 0.736015 0.415946 0.891426
Si Si4 0.955551 0.761412 0.104276
Si Si5 0.816552 0.999990 0.802516
Si Si6 0.047507 0.894982 0.514412
Si Si7 0.764456 0.875411 0.448319
Si Si8 0.846102 0.500006 0.361596
O O1 0.996551 0.235958 0.280155
O O2 0.996556 0.235950 0.544862
O O3 0.861372 0.190179 0.142150
O O4 0.980135 0.017963 0.379662
O O5 0.907224 0.622163 0.440805
O O6 0.025472 0.806553 0.593271
O O7 0.880042 0.874872 0.403515
O O8 0.638801 0.472724 0.696997
O O9 0.710222 0.258834 0.839842
O O10 0.788059 0.454921 0.867307
O O11 0.788060 0.454924 0.123720
O O12 0.025473 0.806538 0.347423
O O13 0.880040 0.874850 0.955465
O O14 0.907231 0.622143 0.026890
O O15 0.760303 0.962430 0.566867
O O16 0.760306 0.037556 0.813173
#
# Coordination Sequence:
#
# PCOD9133805 Si02
#       8
#     4   4   4   4   4   4   4   4
#     4  10  18  36  61  89 115 161 217 261 277 387
#     4  11  20  38  66  92 115 171 216 254 306 398
#     4  12  27  40  58 104 141 160 205 292 328 374
#     4  11  20  38  66  92 115 171 216 254 306 398
#     4  10  16  35  67  86 110 160 222 252 286 363
#     4  12  23  38  66  94 127 162 223 260 328 372
#     4  10  18  38  59  93 119 155 213 265 295 377
#     4  12  24  43  65  92 138 170 212 266 338 377
#
# _framework density 19.718067000000001
#
# number of rings (size 3 to 8) (size 9 to 14) (size 15 to 20)
#    0.000    1.000   10.000    0.750    3.500    0.000 
#    0.000    1.250    0.000    3.000    0.000    0.000 
#    0.000    0.000    0.000    0.000    0.000    0.000 
#
# Total GULP energy -89222.032940 kJ/mol
# GULP energy per Si atom -5576.377059 kJ/mol
# Density = 1.967319 g / cm^3
# Si number density = 19.718067 Si / 1000 Ang^3
#
#
#
# Elastic Constant Matrix: (Units=GPa)
#
#
# Indices 1 2 3 4 5 6 
#
# 1 110.1073 16.1658 48.4730 0.0000 -42.2346 0.0000
# 2 16.1658 102.6544 12.5719 0.0000 -4.2266 0.0000
# 3 48.4730 12.5719 55.0595 0.0000 -22.4762 0.0000
# 4 0.0000 0.0000 0.0000 8.0748 0.0000 -6.5062
# 5 -42.2346 -4.2266 -22.4762 0.0000 36.0829 0.0000
# 6 0.0000 0.0000 0.0000 -6.5062 0.0000 13.6140
#
#
#
# Elastic Compliance Matrix: (Units=1/GPa)
#
#
# Indices 1 2 3 4 5 6 
#
# 1 0.020677 -0.001213 -0.010868 0.000000 0.017290 0.000000
# 2 -0.001213 0.010096 -0.001789 0.000000 -0.001352 0.000000
# 3 -0.010868 -0.001789 0.030655 0.000000 0.006165 0.000000
# 4 0.000000 0.000000 0.000000 0.201392 0.000000 0.096247
# 5 0.017290 -0.001352 0.006165 0.000000 0.051633 0.000000
# 6 0.000000 0.000000 0.000000 0.096247 0.000000 0.119451
#
#
# Mechanical properties :
#
#
# Convention : Reuss Voigt Hill
#
# Bulk Modulus (GPa) = 29.68498 46.91583 38.30040
# Shear Modulus (GPa) = 10.57364 24.26169 17.41767
#
# Velocity S-wave (km/s) = 2.31820 3.51155 2.97532
# Velocity P-wave (km/s) = 4.71729 6.34715 5.59192
#
# Compressibility (1/GPa) = 0.03368707
#
# Stress axis : x y z
#
# Youngs Moduli (GPa) = 48.36348 99.04994 32.62075
#
# Poissons Ratio (x) = 0.12017 0.35453
# Poissons Ratio (y) = 0.05868 0.05836
# Poissons Ratio (z) = 0.52563 0.17720
#
# Static dielectric constant tensor:
#      x y z
#    x 1.712550 0.000000 -0.037540 
#    y 0.000000 1.675810 0.000000 
#    z -0.037540 0.000000 1.680630 
# 
# From -- ./inp_files/21434.got.cif
#   From: 2010.05.17/outbox.cif.g08.bks.cpg/sg9_11_cif.got.tgz:21434.got - 2010.06.03 20:04:27.
