data_PCOD9133256
_publ_section_title
;
Structure prediction by ZEFSAII (Michael W. Deem and Ramdas Pophale) SiO2 
 PCOD9133256
Probable space group: C M
;
_chemical_formula_sum "Si O2"
_cell_formula_units_Z 32
_cell_length_a 12.240306
_cell_length_b 28.881851
_cell_length_c 8.111629
_cell_angle_alpha 90.000000
_cell_angle_beta 149.376365
_cell_angle_gamma 90.000000
_cell_volume 1460.768111
_symmetry_space_group_name_H-M "C M"
_symmetry_group_IT_number 8
_symmetry_cell_setting 'monoclinic'
loop_
_space_group_symop_operation_xyz
x,y,z
x,-y,z
1/2+x,1/2+y,z
1/2+x,1/2-y,z
loop_
_atom_site_type_symbol
_atom_site_label
_atom_site_fract_x
_atom_site_fract_y
_atom_site_fract_z
Si Si1 0.349540 0.553029 0.264040
Si Si2 0.251161 0.126137 0.182067
Si Si3 0.779843 0.906206 0.518076
Si Si4 0.945074 0.329433 0.146065
Si Si5 0.689205 0.689305 0.363509
Si Si6 0.611900 0.776071 0.094461
Si Si7 0.090795 0.447842 0.591663
Si Si8 0.473497 0.339136 0.391767
O O1 0.447742 0.500000 0.379047
O O2 0.275079 0.558925 0.357626
O O3 0.454496 0.604711 0.372985
O O4 0.179796 0.553902 0.893356
O O5 0.410246 0.161311 0.292092
O O6 0.254563 0.139605 0.376191
O O7 0.365253 0.078060 0.293038
O O8 0.004325 0.121946 0.805889
O O9 0.576312 0.872294 0.240038
O O10 0.753508 0.927093 0.667065
O O11 0.074292 0.286722 0.240702
O O12 0.704973 0.327846 0.767636
O O13 0.642245 0.721196 0.143150
O O14 0.491671 0.679994 0.228575
O O15 0.895730 0.710561 0.720113
O O16 0.795668 0.808608 0.256204
O O17 0.057134 0.500000 0.498198
#
# Coordination Sequence:
#
# PCOD9133256 Si02
#       8
#     4   4   4   4   4   4   4   4
#     4  11  22  42  71  99 136 185 230 285 347 409
#     4  11  23  43  68  97 136 180 224 285 350 404
#     4  11  22  43  70  96 138 182 232 285 348 411
#     4  10  22  41  68  93 132 172 222 277 342 408
#     4  11  28  41  71  99 131 183 228 281 353 416
#     4  11  25  44  66  97 135 174 228 281 344 412
#     4  10  24  42  63 100 140 182 235 287 345 417
#     4  11  23  46  66  97 140 174 226 289 340 415
#
# _framework density 21.906282999999998
#
# number of rings (size 3 to 8) (size 9 to 14) (size 15 to 20)
#    0.000    1.250    2.500    1.875    7.000    3.000 
#    0.000    1.250    0.000    0.000    0.000    0.000 
#    0.000    0.000    0.000    0.000    0.000    0.000 
#
# Total GULP energy -89126.200944 kJ/mol
# GULP energy per Si atom -5570.387559 kJ/mol
# Density = 2.185642 g / cm^3
# Si number density = 21.906283 Si / 1000 Ang^3
#
#
#
# Elastic Constant Matrix: (Units=GPa)
#
#
# Indices 1 2 3 4 5 6 
#
# 1 124.5817 41.9216 36.7214 0.0000 16.6883 0.0000
# 2 41.9216 90.8991 11.9353 0.0000 18.9281 0.0000
# 3 36.7214 11.9353 65.7080 0.0000 14.7201 0.0000
# 4 0.0000 0.0000 0.0000 27.7005 0.0000 -4.9910
# 5 16.6883 18.9281 14.7201 0.0000 30.8629 0.0000
# 6 0.0000 0.0000 0.0000 -4.9910 0.0000 29.6661
#
#
#
# Elastic Compliance Matrix: (Units=1/GPa)
#
#
# Indices 1 2 3 4 5 6 
#
# 1 0.011125 -0.004253 -0.005241 0.000000 -0.000907 0.000000
# 2 -0.004253 0.014261 0.001378 0.000000 -0.007104 0.000000
# 3 -0.005241 0.001378 0.019540 0.000000 -0.007331 0.000000
# 4 0.000000 0.000000 0.000000 0.037229 0.000000 0.006263
# 5 -0.000907 -0.007104 -0.007331 0.000000 0.040745 0.000000
# 6 0.000000 0.000000 0.000000 0.006263 0.000000 0.034762
#
#
# Mechanical properties :
#
#
# Convention : Reuss Voigt Hill
#
# Bulk Modulus (GPa) = 34.85277 51.37172 43.11225
# Shear Modulus (GPa) = 27.25409 30.35329 28.80369
#
# Velocity S-wave (km/s) = 3.53104 3.72640 3.63003
# Velocity P-wave (km/s) = 5.70691 6.48200 6.10676
#
# Compressibility (1/GPa) = 0.02869212
#
# Stress axis : x y z
#
# Youngs Moduli (GPa) = 89.89149 70.12082 51.17737
#
# Poissons Ratio (x) = 0.29826 0.26823
# Poissons Ratio (y) = 0.38235 -0.07052
# Poissons Ratio (z) = 0.47115 -0.09663
#
# Static dielectric constant tensor:
#      x y z
#    x 1.861570 0.000000 -0.044940 
#    y 0.000000 1.862920 0.000000 
#    z -0.044940 0.000000 1.764980 
# 
# From -- ./inp_files/11691.got.cif
#   From: 2010.05.17/outbox.cif.g08.bks.cpg/sg8_6_cif.got.tgz:11691.got - 2010.06.03 19:46:02.
