data_PCOD9133804
_publ_section_title
;
Structure prediction by ZEFSAII (Michael W. Deem and Ramdas Pophale) SiO2 
 PCOD9133804
Probable space group: C C
;
_chemical_formula_sum "Si O2"
_cell_formula_units_Z 32
_cell_length_a 20.995144
_cell_length_b 9.687498
_cell_length_c 12.208949
_cell_angle_alpha 90.000000
_cell_angle_beta 42.081150
_cell_angle_gamma 90.000000
_cell_volume 1664.185874
_symmetry_space_group_name_H-M "C C"
_symmetry_group_IT_number 9
_symmetry_cell_setting 'monoclinic'
loop_
_space_group_symop_operation_xyz
x,y,z
x,-y,1/2+z
1/2+x,1/2+y,z
1/2+x,1/2-y,1/2+z
loop_
_atom_site_type_symbol
_atom_site_label
_atom_site_fract_x
_atom_site_fract_y
_atom_site_fract_z
Si Si1 0.122950 0.565133 0.787310
Si Si2 0.861343 0.267039 0.094538
Si Si3 0.453277 0.732490 0.217671
Si Si4 0.431424 0.423828 0.308581
Si Si5 0.240583 0.453435 0.457199
Si Si6 0.658553 0.174797 0.392792
Si Si7 0.081678 0.705839 0.060018
Si Si8 0.454334 0.012334 0.845483
O O1 0.217676 0.543719 0.595004
O O2 0.113147 0.413812 0.853233
O O3 0.036924 0.580555 0.813481
O O4 0.117253 0.675872 0.891474
O O5 0.746806 0.268030 0.245516
O O6 0.907005 0.236132 0.155215
O O7 0.897019 0.147958 0.964904
O O8 0.895472 0.411386 0.998570
O O9 0.440272 0.588080 0.295601
O O10 0.407865 0.861013 0.341167
O O11 0.567351 0.755960 0.063445
O O12 0.346662 0.399172 0.329156
O O13 0.527771 0.348271 0.148149
O O14 0.211351 0.558052 0.398599
O O15 0.168341 0.326286 0.531967
O O16 0.005203 0.586727 0.190718
#
# Coordination Sequence:
#
# PCOD9133804 Si02
#       8
#     4   4   4   4   4   4   4   4
#     4  10  16  35  65  85 111 165 216 248 303 381
#     4  11  23  39  64  91 124 175 209 258 327 371
#     4  12  23  41  62  94 133 160 217 271 309 375
#     4  11  24  38  62  98 127 161 212 268 316 376
#     4  10  19  38  64  89 119 172 215 250 318 392
#     4  11  20  38  64  90 122 166 209 259 317 378
#     4   9  20  36  60  90 121 163 212 258 310 380
#     4  10  19  37  61  87 119 168 214 250 312 381
#
# _framework density 19.228622000000001
#
# number of rings (size 3 to 8) (size 9 to 14) (size 15 to 20)
#    0.000    1.500    7.500    0.000    0.000    1.000 
#    0.000    6.250    0.000    0.000    0.000    0.000 
#    0.000    0.000    0.000    0.000    0.000    0.000 
#
# Total GULP energy -89145.939182 kJ/mol
# GULP energy per Si atom -5571.621199 kJ/mol
# Density = 1.918486 g / cm^3
# Si number density = 19.228622 Si / 1000 Ang^3
#
#
#
# Elastic Constant Matrix: (Units=GPa)
#
#
# Indices 1 2 3 4 5 6 
#
# 1 76.1586 27.1491 23.2966 0.0000 0.0435 0.0000
# 2 27.1491 91.0003 14.7692 0.0000 2.6860 0.0000
# 3 23.2966 14.7692 54.2757 0.0000 -0.4066 0.0000
# 4 0.0000 0.0000 0.0000 22.0423 0.0000 2.5458
# 5 0.0435 2.6860 -0.4066 0.0000 35.9174 0.0000
# 6 0.0000 0.0000 0.0000 2.5458 0.0000 23.2151
#
#
#
# Elastic Compliance Matrix: (Units=1/GPa)
#
#
# Indices 1 2 3 4 5 6 
#
# 1 0.016347 -0.003917 -0.005949 0.000000 0.000206 0.000000
# 2 -0.003917 0.012464 -0.001717 0.000000 -0.000947 0.000000
# 3 -0.005949 -0.001717 0.021448 0.000000 0.000378 0.000000
# 4 0.000000 0.000000 0.000000 0.045949 0.000000 -0.005039
# 5 0.000206 -0.000947 0.000378 0.000000 0.027916 0.000000
# 6 0.000000 0.000000 0.000000 -0.005039 0.000000 0.043628
#
#
# Mechanical properties :
#
#
# Convention : Reuss Voigt Hill
#
# Bulk Modulus (GPa) = 36.91175 39.09607 38.00391
# Shear Modulus (GPa) = 25.00618 26.64962 25.82790
#
# Velocity S-wave (km/s) = 3.61011 3.72685 3.66895
# Velocity P-wave (km/s) = 6.05104 6.23663 6.14454
#
# Compressibility (1/GPa) = 0.02709164
#
# Stress axis : x y z
#
# Youngs Moduli (GPa) = 61.17481 80.22866 46.62437
#
# Poissons Ratio (x) = 0.31429 0.27736
# Poissons Ratio (y) = 0.23965 0.08007
# Poissons Ratio (z) = 0.36392 0.13778
#
# Static dielectric constant tensor:
#      x y z
#    x 1.682620 0.000000 0.005790 
#    y 0.000000 1.683690 0.000000 
#    z 0.005790 0.000000 1.732700 
# 
# From -- ./inp_files/19126.got.cif
#   From: 2010.05.17/outbox.cif.g08.bks.cpg/sg9_10_cif.got.tgz:19126.got - 2010.06.03 20:04:27.
