data_PCOD9133699
_publ_section_title
;
Structure prediction by ZEFSAII (Michael W. Deem and Ramdas Pophale) SiO2 
 PCOD9133699
Probable space group: C M
;
_chemical_formula_sum "Si O2"
_cell_formula_units_Z 16
_cell_length_a 27.000000
_cell_length_b 9.000000
_cell_length_c 21.000000
_cell_angle_alpha 90.000000
_cell_angle_beta 20.000000
_cell_angle_gamma 90.000000
_cell_volume 1745.328791
_symmetry_space_group_name_H-M "C M"
_symmetry_group_IT_number 8
_symmetry_cell_setting 'monoclinic'
loop_
_space_group_symop_operation_xyz
x,y,z
x,-y,z
1/2+x,1/2+y,z
1/2+x,1/2-y,z
loop_
_atom_site_type_symbol
_atom_site_label
_atom_site_fract_x
_atom_site_fract_y
_atom_site_fract_z
Si Si1 0.160250 0.678666 0.585180
Si Si2 0.035416 0.174640 0.617462
Si Si3 0.912449 0.177635 0.373256
Si Si4 0.169854 0.677327 0.774089
Si Si5 0.923171 0.680328 0.973667
Si Si6 0.596976 0.677006 0.393643
Si Si7 0.793242 0.676812 0.746535
Si Si8 0.712870 0.178764 0.978195
O O1 0.160000 0.500000 0.587425
O O2 0.134646 0.736249 0.545810
O O3 0.310436 0.725306 0.437039
O O4 0.022119 0.729612 0.794635
O O5 0.084638 0.194549 0.485018
O O6 0.865479 0.218456 0.827995
O O7 0.045799 0.000000 0.619482
O O8 0.806749 0.202359 0.561332
O O9 0.938099 0.000000 0.338080
O O10 0.066480 0.259079 0.186495
O O11 0.166043 0.500000 0.792092
O O12 0.195639 0.770260 0.805946
O O13 0.022091 0.717537 0.915471
O O14 0.917917 0.500000 0.978199
O O15 0.755990 0.729015 0.178751
O O16 0.581649 0.500000 0.398234
O O17 0.456685 0.762468 0.537106
O O18 0.795165 0.500000 0.751202
O O19 0.732702 0.752027 0.883961
O O20 0.707328 0.000000 0.980529
#
# Coordination Sequence:
#
# PCOD9133699 Si02
#       8
#     4   4   4   4   4   4   4   4
#     4   9  18  33  53  77 104 133 166 206 252 303
#     4   9  19  33  49  73 102 131 167 212 255 300
#     4   9  19  35  54  78 107 137 172 213 255 304
#     4   9  18  35  56  77 105 140 174 209 254 306
#     4   8  16  33  56  77  98 131 174 211 245 298
#     4   9  18  35  55  74  99 133 174 213 252 302
#     4  11  22  35  52  77 107 136 172 216 260 306
#     4  10  21  37  55  75 102 137 177 216 257 307
#
# _framework density 9.1673270000000002
#
# number of rings (size 3 to 8) (size 9 to 14) (size 15 to 20)
#    0.000    2.750    0.000    3.750    0.000    5.500 
#    0.000    8.125    0.000    0.000    0.000    0.000 
#    0.000    0.000    0.000    0.000    0.000    0.000 
#
# Total GULP energy -89223.256208 kJ/mol
# GULP energy per Si atom -5576.453513 kJ/mol
# Density = 0.914646 g / cm^3
# Si number density = 9.167327 Si / 1000 Ang^3
#
#
#
# Elastic Constant Matrix: (Units=GPa)
#
#
# Indices 1 2 3 4 5 6 
#
# 1 28.2997 5.1276 -39.8028 -0.0001 -1.6498 0.0000
# 2 5.1276 27.3945 -3.6497 0.0001 0.8998 0.0000
# 3 -39.8028 -3.6497 38.5710 -0.0001 -3.5018 0.0000
# 4 -0.0001 0.0001 -0.0001 24.3403 0.0000 -4.7619
# 5 -1.6498 0.8998 -3.5018 0.0000 7.9628 0.0000
# 6 0.0000 0.0000 0.0000 -4.7619 0.0000 25.4198
#
#
#
# Elastic Compliance Matrix: (Units=1/GPa)
#
#
# Indices 1 2 3 4 5 6 
#
# 1 -0.060562 0.003931 -0.065937 -0.000001 -0.041989 0.000000
# 2 0.003931 0.036773 0.007533 0.000000 -0.000028 0.000000
# 3 -0.065937 0.007533 -0.044498 -0.000001 -0.034081 0.000000
# 4 -0.000001 0.000000 -0.000001 0.042647 -0.000001 0.007989
# 5 -0.041989 -0.000028 -0.034081 -0.000001 0.101900 0.000000
# 6 0.000000 0.000000 0.000000 0.007989 0.000000 0.040836
#
#
# Mechanical properties :
#
#
# Convention : Reuss Voigt Hill
#
# Bulk Modulus (GPa) = -5.64225 1.95726 -1.84249
# Shear Modulus (GPa) = 29.94659 20.38389 25.16524
#
# Velocity S-wave (km/s) = 4.04584 3.33794 3.70881
# Velocity P-wave (km/s) = 4.32909 3.99069 4.16333
#
# Compressibility (1/GPa) = -0.17723434
#
# Stress axis : x y z
#
# Youngs Moduli (GPa) = -16.51188 27.19423 -22.47304
#
# Poissons Ratio (x) = -0.10689 -1.48180
# Poissons Ratio (y) = 0.06490 0.16929
# Poissons Ratio (z) = -1.08874 -0.20485
#
# Static dielectric constant tensor:
#      x y z
#    x 1.633830 0.000000 0.003360 
#    y 0.000000 1.609890 0.000000 
#    z 0.003360 0.000000 1.626200 
# 
# From -- ./inp_files/16780.got.cif
#   From: 2010.05.17/outbox.ucp.g08.bks.cvg/sg8_9_cif.got.tgz:16780.got - 2010.06.11 13:00:03.
