data_PCOD9133093
_publ_section_title
;
Structure prediction by ZEFSAII (Michael W. Deem and Ramdas Pophale) SiO2 
 PCOD9133093
Probable space group: C M
;
_chemical_formula_sum "Si O2"
_cell_formula_units_Z 30
_cell_length_a 11.538716
_cell_length_b 18.548198
_cell_length_c 8.051289
_cell_angle_alpha 90.000000
_cell_angle_beta 60.199469
_cell_angle_gamma 90.000000
_cell_volume 1495.287403
_symmetry_space_group_name_H-M "C M"
_symmetry_group_IT_number 8
_symmetry_cell_setting 'monoclinic'
loop_
_space_group_symop_operation_xyz
x,y,z
x,-y,z
1/2+x,1/2+y,z
1/2+x,1/2-y,z
loop_
_atom_site_type_symbol
_atom_site_label
_atom_site_fract_x
_atom_site_fract_y
_atom_site_fract_z
Si Si1 0.990130 0.500000 0.452170
Si Si2 0.352181 0.699323 0.187497
Si Si3 0.562134 0.415420 0.954819
Si Si4 0.416519 0.418639 0.725484
Si Si5 0.155936 0.384626 0.130469
Si Si6 0.356471 0.869893 0.738462
Si Si7 0.526163 0.822702 0.911995
Si Si8 0.825952 0.217571 0.590954
O O1 0.892682 0.435982 0.594350
O O2 0.092402 0.438573 0.304457
O O3 0.214561 0.682370 0.191846
O O4 0.335894 0.724347 0.386541
O O5 0.440362 0.626424 0.127257
O O6 0.433131 0.754918 0.016880
O O7 0.561112 0.500000 0.995041
O O8 0.534388 0.408216 0.775961
O O9 0.702443 0.379671 0.900336
O O10 0.425146 0.500000 0.648152
O O11 0.404769 0.352479 0.606096
O O12 0.281585 0.414665 0.934369
O O13 0.048203 0.363346 0.069552
O O14 0.455957 0.871477 0.824145
O O15 0.371923 0.791475 0.643869
O O16 0.671443 0.797010 0.748543
#
# Coordination Sequence:
#
# PCOD9133093 Si02
#       8
#     2   4   4   4   4   4   4   4
#     4  12  24  42  64  98 132 170 226 274 328 398
#     4  11  23  42  69  95 128 173 223 285 327 389
#     4  10  21  42  66  88 130 176 215 265 338 394
#     4   9  19  41  70  94 127 170 214 272 332 390
#     4  10  22  42  64  96 128 171 222 267 333 390
#     4  12  24  42  65  96 135 176 216 270 340 394
#     4  11  23  44  67  93 135 173 218 278 333 397
#     4  11  24  41  68 103 128 168 229 274 330 394
#
# _framework density 20.063030999999999
#
# number of rings (size 3 to 8) (size 9 to 14) (size 15 to 20)
#    0.000    1.333    2.667    4.000    0.933    1.067 
#    6.000    1.333    0.000    0.000    0.000    0.000 
#    0.000    0.000    0.000    0.000    0.000    0.000 
#
# Total GULP energy -83535.847789 kJ/mol
# GULP energy per Si atom -5569.056519 kJ/mol
# Density = 2.001737 g / cm^3
# Si number density = 20.063031 Si / 1000 Ang^3
#
#
#
# Elastic Constant Matrix: (Units=GPa)
#
#
# Indices 1 2 3 4 5 6 
#
# 1 82.9118 12.0574 -6.0636 0.0000 5.2197 0.0000
# 2 12.0574 76.3312 -9.8762 0.0000 -2.5246 0.0000
# 3 -6.0636 -9.8762 29.6025 0.0000 0.3458 0.0000
# 4 0.0000 0.0000 0.0000 29.2591 0.0000 -16.1107
# 5 5.2197 -2.5246 0.3458 0.0000 14.5903 0.0000
# 6 0.0000 0.0000 0.0000 -16.1107 0.0000 19.5041
#
#
#
# Elastic Compliance Matrix: (Units=1/GPa)
#
#
# Indices 1 2 3 4 5 6 
#
# 1 0.012802 -0.001923 0.002039 0.000000 -0.004961 0.000000
# 2 -0.001923 0.014056 0.004260 0.000000 0.003019 0.000000
# 3 0.002039 0.004260 0.035630 0.000000 -0.000837 0.000000
# 4 0.000000 0.000000 0.000000 0.062690 0.000000 0.051783
# 5 -0.004961 0.003019 -0.000837 0.000000 0.070855 0.000000
# 6 0.000000 0.000000 0.000000 0.051783 0.000000 0.094044
#
#
# Mechanical properties :
#
#
# Convention : Reuss Voigt Hill
#
# Bulk Modulus (GPa) = 14.03698 20.12009 17.07854
# Shear Modulus (GPa) = 16.38964 25.51924 20.95444
#
# Velocity S-wave (km/s) = 2.86126 3.57031 3.23527
# Velocity P-wave (km/s) = 4.23407 5.20062 4.74203
#
# Compressibility (1/GPa) = 0.07124038
#
# Stress axis : x y z
#
# Youngs Moduli (GPa) = 78.11276 71.14627 28.06647
#
# Poissons Ratio (x) = 0.13678 -0.05722
# Poissons Ratio (y) = 0.15017 -0.11957
# Poissons Ratio (z) = -0.15926 -0.30310
#
# Static dielectric constant tensor:
#      x y z
#    x 1.727900 0.000000 0.006320 
#    y 0.000000 1.753910 0.000000 
#    z 0.006320 0.000000 1.703320 
# 
# From -- ./inp_files/11137.got.cif
#   From: 2010.05.17/outbox.cif.g08.bks.cpg/sg8_6_cif.got.tgz:11137.got - 2010.06.03 19:46:02.
