data_PCOD9133615
_publ_section_title
;
Structure prediction by ZEFSAII (Michael W. Deem and Ramdas Pophale) SiO2 
 PCOD9133615
Probable space group: C M
;
_chemical_formula_sum "Si O2"
_cell_formula_units_Z 24
_cell_length_a 16.017841
_cell_length_b 14.363779
_cell_length_c 9.236890
_cell_angle_alpha 90.000000
_cell_angle_beta 148.556825
_cell_angle_gamma 90.000000
_cell_volume 1108.612834
_symmetry_space_group_name_H-M "C M"
_symmetry_group_IT_number 8
_symmetry_cell_setting 'monoclinic'
loop_
_space_group_symop_operation_xyz
x,y,z
x,-y,z
1/2+x,1/2+y,z
1/2+x,1/2-y,z
loop_
_atom_site_type_symbol
_atom_site_label
_atom_site_fract_x
_atom_site_fract_y
_atom_site_fract_z
Si Si1 0.060530 0.000000 0.403800
Si Si2 0.929602 0.810647 0.709548
Si Si3 0.426817 0.000000 0.044649
Si Si4 0.150389 0.500000 0.617291
Si Si5 0.052903 0.298988 0.136905
Si Si6 0.965483 0.000000 0.924806
Si Si7 0.462304 0.685290 0.415369
Si Si8 0.768379 0.800271 0.884641
O O1 0.978122 0.088118 0.355947
O O2 0.242411 0.000000 0.727081
O O3 0.040920 0.000000 0.199335
O O4 0.024602 0.727521 0.927805
O O5 0.994961 0.905978 0.879285
O O6 0.946477 0.818826 0.562709
O O7 0.739252 0.793151 0.455306
O O8 0.497704 0.903719 0.088420
O O9 0.474967 0.000000 0.286805
O O10 0.274222 0.500000 0.666617
O O11 0.199334 0.405004 0.769394
O O12 0.930172 0.227194 0.036362
O O13 0.623441 0.738915 0.614587
O O14 0.310919 0.729667 0.110863
#
# Coordination Sequence:
#
# PCOD9133615 Si02
#       8
#     2   4   2   2   4   2   4   4
#     4  12  25  42  72 101 128 174 233 273 321 401
#     4  12  26  43  68 100 141 174 215 279 339 390
#     4  12  24  40  68 104 124 166 236 280 312 379
#     4  12  22  44  69  99 126 172 231 269 325 386
#     4  12  23  43  69  98 132 181 226 271 323 398
#     4  12  23  44  69  96 130 182 224 266 326 404
#     4  12  25  44  66 104 138 173 217 278 340 385
#     4  12  24  43  73  98 133 179 226 272 320 407
#
# _framework density 21.648675000000001
#
# number of rings (size 3 to 8) (size 9 to 14) (size 15 to 20)
#    0.000    0.000    6.667    3.500    2.333    0.000 
#    0.000    2.500    0.000    0.000    0.000    0.000 
#    0.000    0.000    0.000    0.000    0.000    0.000 
#
# Total GULP energy -67028.304200 kJ/mol
# GULP energy per Si atom -5585.692017 kJ/mol
# Density = 2.159940 g / cm^3
# Si number density = 21.648675 Si / 1000 Ang^3
#
#
#
# Elastic Constant Matrix: (Units=GPa)
#
#
# Indices 1 2 3 4 5 6 
#
# 1 79.2049 12.1712 40.7867 0.0000 -21.6926 0.0000
# 2 12.1712 93.9906 52.5589 0.0000 -7.0283 0.0000
# 3 40.7867 52.5589 186.5315 0.0000 -17.4185 0.0000
# 4 0.0000 0.0000 0.0000 35.2333 0.0000 -10.0959
# 5 -21.6926 -7.0283 -17.4185 0.0000 45.8477 0.0000
# 6 0.0000 0.0000 0.0000 -10.0959 0.0000 14.0568
#
#
#
# Elastic Compliance Matrix: (Units=1/GPa)
#
#
# Indices 1 2 3 4 5 6 
#
# 1 0.015860 0.000036 -0.002879 0.000000 0.006416 0.000000
# 2 0.000036 0.012646 -0.003513 0.000000 0.000621 0.000000
# 3 -0.002879 -0.003513 0.007053 0.000000 0.000779 0.000000
# 4 0.000000 0.000000 0.000000 0.035737 0.000000 0.025667
# 5 0.006416 0.000621 0.000779 0.000000 0.025238 0.000000
# 6 0.000000 0.000000 0.000000 0.025667 0.000000 0.089575
#
#
# Mechanical properties :
#
#
# Convention : Reuss Voigt Hill
#
# Bulk Modulus (GPa) = 43.77084 63.41784 53.59434
# Shear Modulus (GPa) = 24.22066 35.97491 30.09779
#
# Velocity S-wave (km/s) = 3.34848 4.08089 3.73270
# Velocity P-wave (km/s) = 5.93400 7.18071 6.58692
#
# Compressibility (1/GPa) = 0.02284626
#
# Stress axis : x y z
#
# Youngs Moduli (GPa) = 63.05348 79.07895 141.78148
#
# Poissons Ratio (x) = -0.00283 0.40816
# Poissons Ratio (y) = -0.00226 0.49808
# Poissons Ratio (z) = 0.18152 0.27780
#
# Static dielectric constant tensor:
#      x y z
#    x 1.818560 0.000000 -0.030050 
#    y 0.000000 1.837990 0.000000 
#    z -0.030050 0.000000 1.805110 
# 
# From -- ./inp_files/15152.got.cif
#   From: 2010.05.17/outbox.cif.g08.bks.cpg/sg8_8_cif.got.tgz:15152.got - 2010.06.03 19:46:02.
