data_PCOD9133902
_publ_section_title
;
Structure prediction by ZEFSAII (Michael W. Deem and Ramdas Pophale) SiO2 
 PCOD9133902
Probable space group: C C
;
_chemical_formula_sum "Si O2"
_cell_formula_units_Z 28
_cell_length_a 11.406892
_cell_length_b 9.355950
_cell_length_c 11.842632
_cell_angle_alpha 90.000000
_cell_angle_beta 58.577030
_cell_angle_gamma 90.000000
_cell_volume 1078.515779
_symmetry_space_group_name_H-M "C C"
_symmetry_group_IT_number 9
_symmetry_cell_setting 'monoclinic'
loop_
_space_group_symop_operation_xyz
x,y,z
x,-y,1/2+z
1/2+x,1/2+y,z
1/2+x,1/2-y,1/2+z
loop_
_atom_site_type_symbol
_atom_site_label
_atom_site_fract_x
_atom_site_fract_y
_atom_site_fract_z
Si Si1 0.712040 0.138043 0.787600
Si Si2 0.890378 0.944931 0.020868
Si Si3 0.328483 0.094906 0.311822
Si Si4 0.285367 0.790069 0.404838
Si Si5 0.642186 0.127134 0.212573
Si Si6 0.041872 0.215654 0.165986
Si Si7 0.634730 0.460739 0.249990
O O1 0.029809 0.013077 0.907911
O O2 0.739384 0.258198 0.868220
O O3 0.617074 0.201840 0.733198
O O4 0.654817 0.975973 0.819095
O O5 0.862375 0.807066 0.958058
O O6 0.765468 0.059454 0.075712
O O7 0.864600 0.885082 0.158724
O O8 0.297273 0.961211 0.409616
O O9 0.627572 0.747270 0.010752
O O10 0.274956 0.037401 0.217731
O O11 0.381928 0.752388 0.249069
O O12 0.154393 0.795189 0.222254
O O13 0.490991 0.110110 0.236635
O O14 0.066310 0.051321 0.185565
#
# Coordination Sequence:
#
# PCOD9133902 Si02
#       7
#     4   4   4   4   4   4   4
#     4   8  18  40  61  93 130 171 220 283 324 398
#     4   8  19  42  62  92 147 168 209 302 333 372
#     4  11  21  39  71  93 121 184 232 256 353 402
#     4  10  17  37  67  96 125 181 216 268 343 393
#     4  10  21  44  63  91 142 168 219 282 335 392
#     4   9  18  37  66  88 139 172 207 283 331 384
#     4  10  22  41  64 101 130 176 231 272 331 413
#
# _framework density 25.961604999999999
#
# number of rings (size 3 to 8) (size 9 to 14) (size 15 to 20)
#    0.857    1.714    1.429    0.000    0.000    1.143 
#   15.429    0.000    0.000    0.000    0.000    0.000 
#    0.000    0.000    0.000    0.000    0.000    0.000 
#
# Total GULP energy -78020.120424 kJ/mol
# GULP energy per Si atom -5572.865745 kJ/mol
# Density = 2.590252 g / cm^3
# Si number density = 25.961605 Si / 1000 Ang^3
#
#
#
# Elastic Constant Matrix: (Units=GPa)
#
#
# Indices 1 2 3 4 5 6 
#
# 1 135.0117 45.4241 58.1875 0.0000 -22.2069 0.0000
# 2 45.4241 209.8212 47.0178 0.0000 9.1813 0.0000
# 3 58.1875 47.0178 53.4188 0.0000 -21.7751 0.0000
# 4 0.0000 0.0000 0.0000 38.8907 0.0000 11.5326
# 5 -22.2069 9.1813 -21.7751 0.0000 38.5339 0.0000
# 6 0.0000 0.0000 0.0000 11.5326 0.0000 44.1836
#
#
#
# Elastic Compliance Matrix: (Units=1/GPa)
#
#
# Indices 1 2 3 4 5 6 
#
# 1 0.014048 0.000719 -0.016508 0.000000 -0.001404 0.000000
# 2 0.000719 0.007112 -0.009829 0.000000 -0.006834 0.000000
# 3 -0.016508 -0.009829 0.055128 0.000000 0.023981 0.000000
# 4 0.000000 0.000000 0.000000 0.027870 0.000000 -0.007275
# 5 -0.001404 -0.006834 0.023981 0.000000 0.040322 0.000000
# 6 0.000000 0.000000 0.000000 -0.007275 0.000000 0.024532
#
#
# Mechanical properties :
#
#
# Convention : Reuss Voigt Hill
#
# Bulk Modulus (GPa) = 39.91512 77.72338 58.81925
# Shear Modulus (GPa) = 21.87251 40.82980 31.35115
#
# Velocity S-wave (km/s) = 2.90572 3.97003 3.47882
# Velocity P-wave (km/s) = 5.16388 7.14266 6.23231
#
# Compressibility (1/GPa) = 0.02505316
#
# Stress axis : x y z
#
# Youngs Moduli (GPa) = 71.18232 140.61120 18.13970
#
# Poissons Ratio (x) = -0.10113 0.29945
# Poissons Ratio (y) = -0.05120 0.17829
# Poissons Ratio (z) = 1.17506 1.38205
#
# Static dielectric constant tensor:
#      x y z
#    x 2.011420 0.000000 0.005460 
#    y 0.000000 2.111580 0.000000 
#    z 0.005460 0.000000 2.126540 
# 
# From -- ./inp_files/24102.got.cif
#   From: 2010.05.17/outbox.cif.g08.bks.cpg/sg9_13_cif.got.tgz:24102.got - 2010.06.03 20:04:27.
