data_PCOD9133958
_publ_section_title
;
Structure prediction by ZEFSAII (Michael W. Deem and Ramdas Pophale) SiO2 
 PCOD9133958
Probable space group: C C
;
_chemical_formula_sum "Si O2"
_cell_formula_units_Z 28
_cell_length_a 17.949763
_cell_length_b 6.817124
_cell_length_c 9.749907
_cell_angle_alpha 90.000000
_cell_angle_beta 121.618294
_cell_angle_gamma 90.000000
_cell_volume 1015.957237
_symmetry_space_group_name_H-M "C C"
_symmetry_group_IT_number 9
_symmetry_cell_setting 'monoclinic'
loop_
_space_group_symop_operation_xyz
x,y,z
x,-y,1/2+z
1/2+x,1/2+y,z
1/2+x,1/2-y,1/2+z
loop_
_atom_site_type_symbol
_atom_site_label
_atom_site_fract_x
_atom_site_fract_y
_atom_site_fract_z
Si Si1 0.057560 0.487763 0.292630
Si Si2 0.661732 0.644385 0.523442
Si Si3 0.903602 0.355616 0.805812
Si Si4 0.901917 0.966689 0.690695
Si Si5 0.007774 0.987764 0.536622
Si Si6 0.782667 0.339379 0.914626
Si Si7 0.663417 0.033313 0.638556
O O1 0.090919 0.268899 0.363540
O O2 0.122472 0.607157 0.456646
O O3 0.084348 0.532858 0.164250
O O4 0.959830 0.524779 0.250375
O O5 0.605504 0.524780 0.578877
O O6 0.727218 0.549460 0.477324
O O7 0.709507 0.826973 0.646085
O O8 0.838117 0.450540 0.851931
O O9 0.855827 0.173028 0.683167
O O10 0.974415 0.231101 0.965713
O O11 0.845437 0.810740 0.556566
O O12 0.942861 0.892843 0.872605
O O13 0.980986 0.032859 0.665002
O O14 0.719897 0.189262 0.772685
#
# Coordination Sequence:
#
# PCOD9133958 Si02
#       7
#     4   4   4   4   4   4   4
#     4   9  19  32  54  77 102 131 173 207 248 300
#     4   9  19  33  54  76 102 133 169 212 247 299
#     4   9  19  33  54  76 102 133 169 212 247 299
#     4   9  19  32  56  77  99 133 173 209 246 297
#     4   9  19  32  54  77 102 131 173 207 248 300
#     4  10  18  32  52  82 102 128 172 212 250 294
#     4   9  19  32  56  77  99 133 173 209 246 297
#
# _framework density 27.560213999999998
#
# number of rings (size 3 to 8) (size 9 to 14) (size 15 to 20)
#    1.714    1.143    0.000    1.714    0.000    4.571 
#    0.000    0.000    0.000   13.714    0.000    0.000 
#    0.000    0.000    0.000    0.000    0.000    0.000 
#
# Total GULP energy -78200.049818 kJ/mol
# GULP energy per Si atom -5585.717844 kJ/mol
# Density = 2.749749 g / cm^3
# Si number density = 27.560214 Si / 1000 Ang^3
#
#
#
# Elastic Constant Matrix: (Units=GPa)
#
#
# Indices 1 2 3 4 5 6 
#
# 1 196.7314 35.1191 5.1136 0.0000 -42.9332 0.0000
# 2 35.1191 54.0465 26.8356 0.0000 5.1823 0.0000
# 3 5.1136 26.8356 101.8901 0.0000 -8.5037 0.0000
# 4 0.0000 0.0000 0.0000 38.4303 0.0000 7.2322
# 5 -42.9332 5.1823 -8.5037 0.0000 41.5891 0.0000
# 6 0.0000 0.0000 0.0000 7.2322 0.0000 32.0328
#
#
#
# Elastic Compliance Matrix: (Units=1/GPa)
#
#
# Indices 1 2 3 4 5 6 
#
# 1 0.008730 -0.007937 0.002530 0.000000 0.010518 0.000000
# 2 -0.007937 0.029132 -0.008405 0.000000 -0.013542 0.000000
# 3 0.002530 -0.008405 0.012418 0.000000 0.006198 0.000000
# 4 0.000000 0.000000 0.000000 0.027176 0.000000 -0.006136
# 5 0.010518 -0.013542 0.006198 0.000000 0.037858 0.000000
# 6 0.000000 0.000000 0.000000 -0.006136 0.000000 0.032603
#
#
# Mechanical properties :
#
#
# Convention : Reuss Voigt Hill
#
# Bulk Modulus (GPa) = 44.13735 54.08940 49.11337
# Shear Modulus (GPa) = 27.30863 41.45043 34.37953
#
# Velocity S-wave (km/s) = 3.15123 3.88234 3.53573
# Velocity P-wave (km/s) = 5.41202 6.30597 5.87602
#
# Compressibility (1/GPa) = 0.02265655
#
# Stress axis : x y z
#
# Youngs Moduli (GPa) = 114.55231 34.32665 80.52556
#
# Poissons Ratio (x) = 0.27246 -0.20375
# Poissons Ratio (y) = 0.90924 0.67678
# Poissons Ratio (z) = -0.28985 0.28850
#
# Static dielectric constant tensor:
#      x y z
#    x 2.179370 0.000000 0.051110 
#    y 0.000000 2.208200 0.000000 
#    z 0.051110 0.000000 2.131800 
# 
# From -- ./inp_files/18112.got.cif
#   From: 2010.05.17/outbox.cif.g08.bks.cpg/sg9_10_cif.got.tgz:18112.got - 2010.06.03 20:04:27.
