data_PCOD9133185
_publ_section_title
;
Structure prediction by ZEFSAII (Michael W. Deem and Ramdas Pophale) SiO2 
 PCOD9133185
Probable space group: C M
;
_chemical_formula_sum "Si O2"
_cell_formula_units_Z 32
_cell_length_a 20.940372
_cell_length_b 8.890615
_cell_length_c 25.680421
_cell_angle_alpha 90.000000
_cell_angle_beta 22.541015
_cell_angle_gamma 90.000000
_cell_volume 1832.769243
_symmetry_space_group_name_H-M "C M"
_symmetry_group_IT_number 8
_symmetry_cell_setting 'monoclinic'
loop_
_space_group_symop_operation_xyz
x,y,z
x,-y,z
1/2+x,1/2+y,z
1/2+x,1/2-y,z
loop_
_atom_site_type_symbol
_atom_site_label
_atom_site_fract_x
_atom_site_fract_y
_atom_site_fract_z
Si Si1 0.420020 0.680835 0.297410
Si Si2 0.443249 0.821800 0.011800
Si Si3 0.656557 0.679422 0.417586
Si Si4 0.881079 0.819852 0.448502
Si Si5 0.300327 0.820541 0.003780
Si Si6 0.190693 0.678854 0.278203
Si Si7 0.122403 0.821347 0.717175
Si Si8 0.274255 0.679721 0.706562
O O1 0.406058 0.500000 0.302744
O O2 0.284558 0.759162 0.363509
O O3 0.395239 0.717320 0.376931
O O4 0.609038 0.722680 0.139659
O O5 0.348795 0.794291 0.027915
O O6 0.636081 0.786209 0.854374
O O7 0.427346 0.000000 0.035180
O O8 0.355377 0.728249 0.122835
O O9 0.672131 0.500000 0.400789
O O10 0.690071 0.754732 0.336576
O O11 0.464313 0.712748 0.577338
O O12 0.713076 0.756733 0.600513
O O13 0.035049 0.748670 0.363960
O O14 0.888907 0.000000 0.448402
O O15 0.434187 0.734060 0.868204
O O16 0.318667 0.000000 0.981532
O O17 0.174906 0.500000 0.291723
O O18 0.222131 0.766643 0.693589
O O19 0.130740 0.000000 0.706421
O O20 0.259265 0.500000 0.706861
#
# Coordination Sequence:
#
# PCOD9133185 Si02
#       8
#     4   4   4   4   4   4   4   4
#     4  10  22  40  61  84 114 152 194 237 285 343
#     4   9  17  34  58  83 110 147 191 234 283 341
#     4  11  23  39  60  84 116 156 191 233 290 349
#     4  11  21  38  60  83 113 153 194 236 287 341
#     4   9  18  36  58  81 113 154 190 228 285 348
#     4  12  23  35  56  88 118 147 190 243 286 335
#     4  11  21  32  54  89 118 145 186 243 287 330
#     4   9  19  36  57  80 112 154 192 228 283 349
#
# _framework density 17.459917000000001
#
# number of rings (size 3 to 8) (size 9 to 14) (size 15 to 20)
#    0.000    1.750    2.500    3.750    0.000    4.000 
#    0.000    1.250    0.000    3.000    0.000    0.000 
#    0.000    0.000    0.000    0.000    0.000    0.000 
#
# Total GULP energy -89358.139165 kJ/mol
# GULP energy per Si atom -5584.883698 kJ/mol
# Density = 1.742018 g / cm^3
# Si number density = 17.459917 Si / 1000 Ang^3
#
#
#
# Elastic Constant Matrix: (Units=GPa)
#
#
# Indices 1 2 3 4 5 6 
#
# 1 101.0622 61.7646 79.2762 -0.0004 -3.5902 -0.0001
# 2 61.7646 75.7030 71.7266 -0.0007 -0.0049 -0.0001
# 3 79.2762 71.7266 164.7083 -0.0014 -2.0055 0.0002
# 4 -0.0004 -0.0007 -0.0014 11.6396 0.0013 -9.6260
# 5 -3.5902 -0.0049 -2.0055 0.0013 24.2259 0.0002
# 6 -0.0001 -0.0001 0.0002 -9.6260 0.0002 23.7900
#
#
#
# Elastic Compliance Matrix: (Units=1/GPa)
#
#
# Indices 1 2 3 4 5 6 
#
# 1 0.021832 -0.013430 -0.004625 -0.000001 0.002850 0.000000
# 2 -0.013430 0.030766 -0.006965 0.000001 -0.002561 0.000001
# 3 -0.004625 -0.006965 0.011333 0.000001 0.000251 0.000000
# 4 -0.000001 0.000001 0.000001 0.129120 -0.000007 0.052245
# 5 0.002850 -0.002561 0.000251 -0.000007 0.041721 -0.000003
# 6 0.000000 0.000001 0.000000 0.052245 -0.000003 0.063174
#
#
# Mechanical properties :
#
#
# Convention : Reuss Voigt Hill
#
# Bulk Modulus (GPa) = 71.98643 85.22314 78.60478
# Shear Modulus (GPa) = 14.17975 20.51152 17.34563
#
# Velocity S-wave (km/s) = 2.85288 3.43122 3.15533
# Velocity P-wave (km/s) = 7.22295 8.03831 7.64151
#
# Compressibility (1/GPa) = 0.01389151
#
# Stress axis : x y z
#
# Youngs Moduli (GPa) = 45.80481 32.50367 88.23511
#
# Poissons Ratio (x) = 0.43653 0.40806
# Poissons Ratio (y) = 0.61517 0.61454
# Poissons Ratio (z) = 0.21183 0.22638
#
# Static dielectric constant tensor:
#      x y z
#    x 1.554880 0.000000 0.002430 
#    y 0.000000 1.580540 0.000000 
#    z 0.002430 0.000000 1.611560 
# 
# From -- ./inp_files/31361.got.cif
#   From: 2010.05.17/outbox.cif.g08.bks.cpg/sg8_16_cif.got.tgz:31361.got - 2010.06.03 19:46:02.
