data_PCOD9133630
_publ_section_title
;
Structure prediction by ZEFSAII (Michael W. Deem and Ramdas Pophale) SiO2 
 PCOD9133630
Probable space group: C M
;
_chemical_formula_sum "Si O2"
_cell_formula_units_Z 16
_cell_length_a 7.303800
_cell_length_b 22.254759
_cell_length_c 5.039937
_cell_angle_alpha 90.000000
_cell_angle_beta 130.876466
_cell_angle_gamma 90.000000
_cell_volume 619.425306
_symmetry_space_group_name_H-M "C M"
_symmetry_group_IT_number 8
_symmetry_cell_setting 'monoclinic'
loop_
_space_group_symop_operation_xyz
x,y,z
x,-y,z
1/2+x,1/2+y,z
1/2+x,1/2-y,z
loop_
_atom_site_type_symbol
_atom_site_label
_atom_site_fract_x
_atom_site_fract_y
_atom_site_fract_z
Si Si1 0.029330 0.000000 0.791330
Si Si2 0.745534 0.400401 0.329687
Si Si3 0.609519 0.192190 0.566928
Si Si4 0.022363 0.500000 0.336288
Si Si5 0.939148 0.172961 0.386264
O O1 0.771017 0.000000 0.416983
O O2 0.046847 0.058748 0.994862
O O3 0.295326 0.000000 0.915284
O O4 0.844484 0.338262 0.299823
O O5 0.975299 0.443518 0.486501
O O6 0.628030 0.379907 0.494835
O O7 0.787210 0.168967 0.508517
O O8 0.579068 0.263614 0.516052
O O9 0.737700 0.176033 0.964054
#
# Coordination Sequence:
#
# PCOD9133630 Si02
#       5
#     2   4   4   2   4
#     4   8  18  40  66  99 136 181 235 287 346 410
#     4   9  22  38  70  96 138 183 228 290 342 417
#     4  12  25  42  66 101 142 182 231 282 350 417
#     4   8  18  40  66  99 136 181 235 287 346 410
#     4  12  25  42  66 101 142 182 231 282 350 417
#
# _framework density 25.830396
#
# number of rings (size 3 to 8) (size 9 to 14) (size 15 to 20)
#    1.500    0.000    2.500    3.000    0.000    0.000 
#    0.000    5.000    0.000   15.000    0.000    0.000 
#    0.000    0.000    0.000    0.000    0.000    0.000 
#
# Total GULP energy -44680.269650 kJ/mol
# GULP energy per Si atom -5585.033706 kJ/mol
# Density = 2.577161 g / cm^3
# Si number density = 25.830396 Si / 1000 Ang^3
#
#
#
# Elastic Constant Matrix: (Units=GPa)
#
#
# Indices 1 2 3 4 5 6 
#
# 1 141.2075 21.8754 35.6394 0.0000 21.6803 0.0000
# 2 21.8754 119.1508 30.2313 0.0000 -5.7444 0.0000
# 3 35.6394 30.2313 82.0267 0.0000 20.7135 0.0000
# 4 0.0000 0.0000 0.0000 31.9403 0.0000 5.3185
# 5 21.6803 -5.7444 20.7135 0.0000 48.6121 0.0000
# 6 0.0000 0.0000 0.0000 5.3185 0.0000 18.2059
#
#
#
# Elastic Compliance Matrix: (Units=1/GPa)
#
#
# Indices 1 2 3 4 5 6 
#
# 1 0.008300 -0.001011 -0.002542 0.000000 -0.002738 0.000000
# 2 -0.001011 0.009749 -0.003988 0.000000 0.003302 0.000000
# 3 -0.002542 -0.003988 0.016358 0.000000 -0.006308 0.000000
# 4 0.000000 0.000000 0.000000 0.032909 0.000000 -0.009614
# 5 -0.002738 0.003302 -0.006308 0.000000 0.024870 0.000000
# 6 0.000000 0.000000 0.000000 -0.009614 0.000000 0.057736
#
#
# Mechanical properties :
#
#
# Convention : Reuss Voigt Hill
#
# Bulk Modulus (GPa) = 51.74408 57.54190 54.64299
# Shear Modulus (GPa) = 29.16347 36.72757 32.94552
#
# Velocity S-wave (km/s) = 3.36376 3.77487 3.57523
# Velocity P-wave (km/s) = 5.92978 6.42843 6.18413
#
# Compressibility (1/GPa) = 0.01932588
#
# Stress axis : x y z
#
# Youngs Moduli (GPa) = 120.47552 102.57140 61.13082
#
# Poissons Ratio (x) = 0.10368 0.15542
# Poissons Ratio (y) = 0.12178 0.24378
# Poissons Ratio (z) = 0.30631 0.40904
#
# Static dielectric constant tensor:
#      x y z
#    x 1.973950 0.000000 0.063410 
#    y 0.000000 2.026100 0.000000 
#    z 0.063410 0.000000 2.060860 
# 
# From -- ./inp_files/435.got.cif
#   From: 2010.05.17/outbox.cif.g08.bks.cpg/sg8_1_cif.got.tgz:435.got - 2010.06.03 19:46:02.
