data_PCOD9133837
_publ_section_title
;
Structure prediction by ZEFSAII (Michael W. Deem and Ramdas Pophale) SiO2 
 PCOD9133837
Probable space group: C C
;
_chemical_formula_sum "Si O2"
_cell_formula_units_Z 32
_cell_length_a 11.778596
_cell_length_b 19.948237
_cell_length_c 5.077881
_cell_angle_alpha 90.000000
_cell_angle_beta 98.321636
_cell_angle_gamma 90.000000
_cell_volume 1180.548205
_symmetry_space_group_name_H-M "C C"
_symmetry_group_IT_number 9
_symmetry_cell_setting 'monoclinic'
loop_
_space_group_symop_operation_xyz
x,y,z
x,-y,1/2+z
1/2+x,1/2+y,z
1/2+x,1/2-y,1/2+z
loop_
_atom_site_type_symbol
_atom_site_label
_atom_site_fract_x
_atom_site_fract_y
_atom_site_fract_z
Si Si1 0.071000 0.959619 0.224630
Si Si2 0.594362 0.803738 0.662418
Si Si3 0.316494 0.365569 0.699432
Si Si4 0.614537 0.044902 0.157958
Si Si5 0.806565 0.672044 0.526867
Si Si6 0.544609 0.668067 0.394178
Si Si7 0.348347 0.036897 0.760838
Si Si8 0.775371 0.755388 0.052117
O O1 0.036430 0.886173 0.125306
O O2 0.032239 0.988244 0.487918
O O3 0.209906 0.960583 0.249193
O O4 0.714876 0.819874 0.536486
O O5 0.557899 0.880933 0.679513
O O6 0.533690 0.744982 0.483828
O O7 0.638512 0.771981 0.954832
O O8 0.251899 0.435434 0.704143
O O9 0.320518 0.328860 0.987371
O O10 0.445718 0.353657 0.658730
O O11 0.592983 0.989731 0.372286
O O12 0.678648 0.658058 0.360541
O O13 0.875462 0.605346 0.617167
O O14 0.792499 0.705571 0.807022
O O15 0.846421 0.721630 0.311717
O O16 0.383015 0.978602 0.569701
#
# Coordination Sequence:
#
# PCOD9133837 Si02
#       8
#     4   4   4   4   4   4   4   4
#     4   9  19  32  47  77 115 149 186 224 284 352
#     4   7  19  34  57  85 113 152 201 243 299 350
#     4   8  20  35  56  87 117 150 197 244 305 351
#     4   9  19  37  59  84 121 159 192 247 306 364
#     4  10  17  31  53  67 106 146 176 225 282 329
#     4  10  18  35  59  83 120 157 202 247 291 362
#     4   9  16  25  40  67  95 127 175 210 246 325
#     4   8  18  33  47  74 103 136 181 230 277 343
#
# _framework density 27.106052999999999
#
# number of rings (size 3 to 8) (size 9 to 14) (size 15 to 20)
#    1.500    1.500    0.000    0.750    0.000   13.000 
#    0.000    6.250    0.000    0.000    0.000    7.000 
#    0.000    0.000    0.000    0.000    0.000    0.000 
#
# Total GULP energy -89157.866836 kJ/mol
# GULP energy per Si atom -5572.366677 kJ/mol
# Density = 2.704436 g / cm^3
# Si number density = 27.106053 Si / 1000 Ang^3
#
#
#
# Elastic Constant Matrix: (Units=GPa)
#
#
# Indices 1 2 3 4 5 6 
#
# 1 93.0855 22.5285 18.3520 0.0000 19.7126 0.0000
# 2 22.5285 171.4058 57.5357 0.0000 12.8404 0.0000
# 3 18.3520 57.5357 119.6512 0.0000 19.8941 0.0000
# 4 0.0000 0.0000 0.0000 38.9618 0.0000 5.4529
# 5 19.7126 12.8404 19.8941 0.0000 23.7661 0.0000
# 6 0.0000 0.0000 0.0000 5.4529 0.0000 38.9625
#
#
#
# Elastic Compliance Matrix: (Units=1/GPa)
#
#
# Indices 1 2 3 4 5 6 
#
# 1 0.013184 -0.001016 0.000225 0.000000 -0.010574 0.000000
# 2 -0.001016 0.007061 -0.003189 0.000000 -0.000303 0.000000
# 3 0.000225 -0.003189 0.011154 0.000000 -0.007800 0.000000
# 4 0.000000 0.000000 0.000000 0.026179 0.000000 -0.003664
# 5 -0.010574 -0.000303 -0.007800 0.000000 0.057540 0.000000
# 6 0.000000 0.000000 0.000000 -0.003664 0.000000 0.026178
#
#
# Mechanical properties :
#
#
# Convention : Reuss Voigt Hill
#
# Bulk Modulus (GPa) = 42.66768 64.55276 53.61022
# Shear Modulus (GPa) = 31.83321 39.38651 35.60986
#
# Velocity S-wave (km/s) = 3.43066 3.81603 3.62846
# Velocity P-wave (km/s) = 5.60961 6.57896 6.11353
#
# Compressibility (1/GPa) = 0.02343694
#
# Stress axis : x y z
#
# Youngs Moduli (GPa) = 75.85112 141.62692 89.65765
#
# Poissons Ratio (x) = 0.14390 -0.02014
# Poissons Ratio (y) = 0.07707 0.28593
# Poissons Ratio (z) = -0.01704 0.45167
#
# Static dielectric constant tensor:
#      x y z
#    x 2.442460 0.000000 -0.044480 
#    y 0.000000 2.125500 0.000000 
#    z -0.044480 0.000000 2.155370 
# 
# From -- ./inp_files/2589.got.cif
#   From: 2010.05.17/outbox.cif.g08.bks.cpg/sg9_2_cif.got.tgz:2589.got - 2010.06.03 20:04:27.
