data_PCOD9133300
_publ_section_title
;
Structure prediction by ZEFSAII (Michael W. Deem and Ramdas Pophale) SiO2 
 PCOD9133300
Probable space group: C M
;
_chemical_formula_sum "Si O2"
_cell_formula_units_Z 32
_cell_length_a 19.784408
_cell_length_b 8.967432
_cell_length_c 12.006962
_cell_angle_alpha 90.000000
_cell_angle_beta 51.098222
_cell_angle_gamma 90.000000
_cell_volume 1657.786959
_symmetry_space_group_name_H-M "C M"
_symmetry_group_IT_number 8
_symmetry_cell_setting 'monoclinic'
loop_
_space_group_symop_operation_xyz
x,y,z
x,-y,z
1/2+x,1/2+y,z
1/2+x,1/2-y,z
loop_
_atom_site_type_symbol
_atom_site_label
_atom_site_fract_x
_atom_site_fract_y
_atom_site_fract_z
Si Si1 0.058480 0.678997 0.609620
Si Si2 0.073960 0.320504 0.853522
Si Si3 0.392427 0.676551 0.660894
Si Si4 0.227836 0.322385 0.285766
Si Si5 0.951890 0.325644 0.385327
Si Si6 0.132863 0.827612 0.193620
Si Si7 0.405508 0.822677 0.175391
Si Si8 0.212401 0.172990 0.868621
O O1 0.046274 0.500000 0.616164
O O2 0.065854 0.720653 0.732133
O O3 0.147845 0.714239 0.452022
O O4 0.975976 0.755404 0.636994
O O5 0.083730 0.500000 0.850265
O O6 0.155826 0.245798 0.829229
O O7 0.986558 0.280881 0.012441
O O8 0.393960 0.500000 0.668909
O O9 0.397212 0.727558 0.527178
O O10 0.302306 0.743019 0.797427
O O11 0.227142 0.500000 0.267934
O O12 0.209452 0.233014 0.191515
O O13 0.319630 0.269515 0.237852
O O14 0.940270 0.500000 0.423050
O O15 0.930313 0.300283 0.278691
O O16 0.051008 0.277136 0.300994
O O17 0.112628 0.000000 0.242181
O O18 0.157260 0.819319 0.039189
O O19 0.389227 0.000000 0.175988
O O20 0.230178 0.000000 0.824875
#
# Coordination Sequence:
#
# PCOD9133300 Si02
#       8
#     4   4   4   4   4   4   4   4
#     4  10  23  43  64  90 127 168 208 258 313 366
#     4  10  22  43  66  91 126 167 210 256 311 372
#     4  12  26  42  65  94 126 167 213 259 311 375
#     4  11  24  40  63  93 128 167 208 259 312 369
#     4  11  22  41  67  94 126 162 207 261 315 370
#     4  11  23  41  66  93 124 164 210 261 314 370
#     4  10  23  41  64  93 127 166 206 256 312 373
#     4  11  25  43  65  94 128 165 208 262 316 371
#
# _framework density 19.302841999999998
#
# number of rings (size 3 to 8) (size 9 to 14) (size 15 to 20)
#    0.000    1.250    2.500    2.625    3.500    4.000 
#    0.000    0.000    0.000    0.000    0.000    0.000 
#    0.000    0.000    0.000    0.000    0.000    0.000 
#
# Total GULP energy -89452.539095 kJ/mol
# GULP energy per Si atom -5590.783693 kJ/mol
# Density = 1.925891 g / cm^3
# Si number density = 19.302842 Si / 1000 Ang^3
#
#
#
# Elastic Constant Matrix: (Units=GPa)
#
#
# Indices 1 2 3 4 5 6 
#
# 1 103.4953 47.1686 22.2363 0.0000 1.4641 0.0000
# 2 47.1686 59.9604 23.7953 0.0000 4.5265 0.0000
# 3 22.2363 23.7953 47.5976 0.0000 8.6603 0.0000
# 4 0.0000 0.0000 0.0000 28.1849 0.0000 -6.3428
# 5 1.4641 4.5265 8.6603 0.0000 33.7789 0.0000
# 6 0.0000 0.0000 0.0000 -6.3428 0.0000 35.3290
#
#
#
# Elastic Compliance Matrix: (Units=1/GPa)
#
#
# Indices 1 2 3 4 5 6 
#
# 1 0.015190 -0.011399 -0.001632 0.000000 0.001288 0.000000
# 2 -0.011399 0.029360 -0.009154 0.000000 -0.001093 0.000000
# 3 -0.001632 -0.009154 0.027390 0.000000 -0.005725 0.000000
# 4 0.000000 0.000000 0.000000 0.036974 0.000000 0.006638
# 5 0.001288 -0.001093 -0.005725 0.000000 0.031163 0.000000
# 6 0.000000 0.000000 0.000000 0.006638 0.000000 0.029497
#
#
# Mechanical properties :
#
#
# Convention : Reuss Voigt Hill
#
# Bulk Modulus (GPa) = 36.27062 44.16154 40.21608
# Shear Modulus (GPa) = 22.40830 27.31544 24.86187
#
# Velocity S-wave (km/s) = 3.41087 3.76586 3.59275
# Velocity P-wave (km/s) = 5.86030 6.46814 6.17171
#
# Compressibility (1/GPa) = 0.02757052
#
# Stress axis : x y z
#
# Youngs Moduli (GPa) = 65.83394 34.06020 36.51020
#
# Poissons Ratio (x) = 0.38824 0.05958
# Poissons Ratio (y) = 0.75042 0.33420
# Poissons Ratio (z) = 0.10744 0.31177
#
# Static dielectric constant tensor:
#      x y z
#    x 1.634360 0.000000 0.002150 
#    y 0.000000 1.646250 0.000000 
#    z 0.002150 0.000000 1.673820 
# 
# From -- ./inp_files/23869.got.cif
#   From: 2010.05.17/outbox.cif.g08.bks.cpg/sg8_12_cif.got.tgz:23869.got - 2010.06.03 19:46:02.
