data_PCOD9133355
_publ_section_title
;
Structure prediction by ZEFSAII (Michael W. Deem and Ramdas Pophale) SiO2 
 PCOD9133355
Probable space group: C M
;
_chemical_formula_sum "Si O2"
_cell_formula_units_Z 26
_cell_length_a 7.020746
_cell_length_b 16.836947
_cell_length_c 13.159287
_cell_angle_alpha 90.000000
_cell_angle_beta 137.574816
_cell_angle_gamma 90.000000
_cell_volume 1049.403777
_symmetry_space_group_name_H-M "C M"
_symmetry_group_IT_number 8
_symmetry_cell_setting 'monoclinic'
loop_
_space_group_symop_operation_xyz
x,y,z
x,-y,z
1/2+x,1/2+y,z
1/2+x,1/2-y,z
loop_
_atom_site_type_symbol
_atom_site_label
_atom_site_fract_x
_atom_site_fract_y
_atom_site_fract_z
Si Si1 0.680700 0.358387 0.759670
Si Si2 0.681917 0.820387 0.817573
Si Si3 0.183589 0.590613 0.429635
Si Si4 0.364442 0.910737 0.520166
Si Si5 0.175723 0.821423 0.146218
Si Si6 0.866046 0.500000 0.966751
Si Si7 0.310260 0.361917 0.199382
O O1 0.632972 0.273813 0.792960
O O2 0.471076 0.370092 0.581822
O O3 0.673642 0.431079 0.833380
O O4 0.990287 0.355700 0.831786
O O5 0.558881 0.856591 0.666770
O O6 0.003009 0.838001 0.975362
O O7 0.221273 0.500000 0.409904
O O8 0.005965 0.587655 0.465116
O O9 0.985357 0.640695 0.276478
O O10 0.045557 0.880799 0.377570
O O11 0.361606 0.000000 0.561146
O O12 0.191677 0.726816 0.165963
O O13 0.990832 0.857263 0.165268
O O14 0.078626 0.429880 0.095194
#
# Coordination Sequence:
#
# PCOD9133355 Si02
#       7
#     4   4   4   4   4   2   4
#     4  12  25  43  69  97 131 172 219 268 328 383
#     4  12  24  41  67  98 132 169 220 267 326 384
#     4  10  23  42  66  95 134 175 216 267 327 384
#     4  10  23  40  67  98 135 170 218 270 325 380
#     4  11  23  41  67  96 129 170 218 264 322 384
#     4  12  22  42  72  94 128 170 220 266 324 386
#     4  11  23  44  68  96 129 173 217 264 326 382
#
# _framework density 24.775970999999998
#
# number of rings (size 3 to 8) (size 9 to 14) (size 15 to 20)
#    0.000    0.923    4.615    1.846    2.154    4.308 
#    0.000    0.000    1.692    1.846    0.000    0.000 
#    0.000    0.000    0.000    0.000    0.000    0.000 
#
# Total GULP energy -72632.483205 kJ/mol
# GULP energy per Si atom -5587.114093 kJ/mol
# Density = 2.471958 g / cm^3
# Si number density = 24.775971 Si / 1000 Ang^3
#
#
#
# Elastic Constant Matrix: (Units=GPa)
#
#
# Indices 1 2 3 4 5 6 
#
# 1 52.1306 14.7543 22.1054 0.0006 3.9610 0.0001
# 2 14.7543 135.1566 95.0964 0.0005 4.4301 0.0000
# 3 22.1054 95.0964 255.2280 0.0017 26.6751 0.0005
# 4 0.0006 0.0005 0.0017 50.8042 0.0008 13.5138
# 5 3.9610 4.4301 26.6751 0.0008 39.9570 0.0002
# 6 0.0001 0.0000 0.0005 13.5138 0.0002 2.5181
#
#
#
# Elastic Compliance Matrix: (Units=1/GPa)
#
#
# Indices 1 2 3 4 5 6 
#
# 1 0.020129 -0.001376 -0.001116 0.000000 -0.001098 -0.000001
# 2 -0.001376 0.010205 -0.003847 0.000000 0.001574 -0.000001
# 3 -0.001116 -0.003847 0.005797 0.000000 -0.003333 0.000001
# 4 0.000000 0.000000 0.000000 -0.046040 0.000000 0.247082
# 5 -0.001098 0.001574 -0.003333 0.000000 0.027186 -0.000001
# 6 -0.000001 -0.000001 0.000001 0.247082 -0.000001 -0.928888
#
#
# Mechanical properties :
#
#
# Convention : Reuss Voigt Hill
#
# Bulk Modulus (GPa) = 42.64255 78.49192 60.56723
# Shear Modulus (GPa) = -5.61094 39.35979 16.87442
#
# Velocity S-wave (km/s) = -1.50652 3.99008 2.61258
# Velocity P-wave (km/s) = 3.77127 7.27854 5.79653
#
# Compressibility (1/GPa) = 0.02345076
#
# Stress axis : x y z
#
# Youngs Moduli (GPa) = 49.68038 97.99575 172.51713
#
# Poissons Ratio (x) = 0.13487 0.19250
# Poissons Ratio (y) = 0.06837 0.66374
# Poissons Ratio (z) = 0.05543 0.37703
#
# Static dielectric constant tensor:
#      x y z
#    x 2.057420 0.000000 -0.020420 
#    y 0.000000 1.869690 0.000000 
#    z -0.020420 0.000000 1.945890 
# 
# From -- ./inp_files/25428.got.cif
#   From: 2010.05.17/outbox.cif.g08.bks.cpg/sg8_13_cif.got.tgz:25428.got - 2010.06.03 19:46:02.
