data_PCOD9133079
_publ_section_title
;
Structure prediction by ZEFSAII (Michael W. Deem and Ramdas Pophale) SiO2 
 PCOD9133079
Probable space group: C M
;
_chemical_formula_sum "Si O2"
_cell_formula_units_Z 32
_cell_length_a 10.656707
_cell_length_b 19.941163
_cell_length_c 9.842743
_cell_angle_alpha 90.000000
_cell_angle_beta 42.969258
_cell_angle_gamma 90.000000
_cell_volume 1425.682985
_symmetry_space_group_name_H-M "C M"
_symmetry_group_IT_number 8
_symmetry_cell_setting 'monoclinic'
loop_
_space_group_symop_operation_xyz
x,y,z
x,-y,z
1/2+x,1/2+y,z
1/2+x,1/2-y,z
loop_
_atom_site_type_symbol
_atom_site_label
_atom_site_fract_x
_atom_site_fract_y
_atom_site_fract_z
Si Si1 0.470680 0.122527 0.896170
Si Si2 0.654875 0.744377 0.794668
Si Si3 0.803554 0.575922 0.753920
Si Si4 0.039522 0.347410 0.352937
Si Si5 0.967690 0.181921 0.687853
Si Si6 0.156032 0.423993 0.009269
Si Si7 0.440614 0.645857 0.141566
Si Si8 0.090204 0.186822 0.295517
O O1 0.622912 0.180295 0.767737
O O2 0.423888 0.085890 0.794407
O O3 0.544335 0.075939 0.957184
O O4 0.288522 0.163302 0.085720
O O5 0.835066 0.755450 0.747740
O O6 0.609120 0.704146 0.692229
O O7 0.505074 0.715555 0.019585
O O8 0.813119 0.500000 0.697436
O O9 0.595910 0.595551 0.961357
O O10 0.885141 0.626159 0.577741
O O11 0.053406 0.267071 0.323305
O O12 0.030379 0.385091 0.217414
O O13 0.235974 0.369652 0.259221
O O14 0.837082 0.122660 0.846880
O O15 0.063866 0.163137 0.470540
O O16 0.199540 0.500000 0.016290
O O17 0.456106 0.654045 0.290358
#
# Coordination Sequence:
#
# PCOD9133079 Si02
#       8
#     4   4   4   4   4   4   4   4
#     4  10  21  41  68  91 129 167 216 280 330 391
#     4  11  20  41  63  98 135 166 220 279 348 384
#     4  11  26  46  65  95 135 181 226 265 322 405
#     4  12  24  42  72  98 131 174 216 277 340 392
#     4  11  24  38  68  98 138 174 214 280 335 404
#     4  11  24  44  64  92 133 180 221 261 326 409
#     4  11  24  42  66 101 132 172 218 280 336 396
#     4  11  23  40  68 103 131 160 219 284 351 395
#
# _framework density 22.445381000000001
#
# number of rings (size 3 to 8) (size 9 to 14) (size 15 to 20)
#    0.000    1.000    2.500    5.250    5.250    2.000 
#    0.000    3.125    0.000    0.000    0.000    0.000 
#    0.000    0.000    0.000    0.000    0.000    0.000 
#
# Total GULP energy -89445.234653 kJ/mol
# GULP energy per Si atom -5590.327166 kJ/mol
# Density = 2.239429 g / cm^3
# Si number density = 22.445381 Si / 1000 Ang^3
#
#
#
# Elastic Constant Matrix: (Units=GPa)
#
#
# Indices 1 2 3 4 5 6 
#
# 1 120.7589 10.1126 22.0585 0.0000 8.3299 0.0000
# 2 10.1126 107.2634 22.2312 0.0000 -1.0986 0.0000
# 3 22.0585 22.2312 110.6070 0.0000 18.9398 0.0000
# 4 0.0000 0.0000 0.0000 12.3088 0.0000 3.9975
# 5 8.3299 -1.0986 18.9398 0.0000 27.1822 0.0000
# 6 0.0000 0.0000 0.0000 3.9975 0.0000 18.4497
#
#
#
# Elastic Compliance Matrix: (Units=1/GPa)
#
#
# Indices 1 2 3 4 5 6 
#
# 1 0.008691 -0.000565 -0.001317 0.000000 -0.001768 0.000000
# 2 -0.000565 0.009861 -0.002234 0.000000 0.002128 0.000000
# 3 -0.001317 -0.002234 0.011013 0.000000 -0.007360 0.000000
# 4 0.000000 0.000000 0.000000 0.087392 0.000000 -0.018935
# 5 -0.001768 0.002128 -0.007360 0.000000 0.042545 0.000000
# 6 0.000000 0.000000 0.000000 -0.018935 0.000000 0.058304
#
#
# Mechanical properties :
#
#
# Convention : Reuss Voigt Hill
#
# Bulk Modulus (GPa) = 46.87316 49.71489 48.29403
# Shear Modulus (GPa) = 21.44561 30.53659 25.99110
#
# Velocity S-wave (km/s) = 3.09440 3.69248 3.40659
# Velocity P-wave (km/s) = 5.80479 6.35425 6.08573
#
# Compressibility (1/GPa) = 0.02133417
#
# Stress axis : x y z
#
# Youngs Moduli (GPa) = 115.06441 101.41145 90.80211
#
# Poissons Ratio (x) = 0.05725 0.11958
# Poissons Ratio (y) = 0.06496 0.20283
# Poissons Ratio (z) = 0.15153 0.22653
#
# Static dielectric constant tensor:
#      x y z
#    x 1.874360 0.000000 -0.023010 
#    y 0.000000 1.826110 0.000000 
#    z -0.023010 0.000000 1.865360 
# 
# From -- ./inp_files/11431.got.cif
#   From: 2010.05.17/outbox.cif.g08.bks.cpg/sg8_6_cif.got.tgz:11431.got - 2010.06.03 19:46:02.
