data_PCOD9133750
_publ_section_title
;
Structure prediction by ZEFSAII (Michael W. Deem and Ramdas Pophale) SiO2 
 PCOD9133750
Probable space group: C C
;
_chemical_formula_sum "Si O2"
_cell_formula_units_Z 28
_cell_length_a 29.730789
_cell_length_b 6.949866
_cell_length_c 5.399758
_cell_angle_alpha 90.000000
_cell_angle_beta 90.010800
_cell_angle_gamma 90.000000
_cell_volume 1115.724975
_symmetry_space_group_name_H-M "C C"
_symmetry_group_IT_number 9
_symmetry_cell_setting 'monoclinic'
loop_
_space_group_symop_operation_xyz
x,y,z
x,-y,1/2+z
1/2+x,1/2+y,z
1/2+x,1/2-y,1/2+z
loop_
_atom_site_type_symbol
_atom_site_label
_atom_site_fract_x
_atom_site_fract_y
_atom_site_fract_z
Si Si1 0.543850 0.272188 0.140010
Si Si2 0.445611 0.372412 0.258178
Si Si3 0.349121 0.735810 0.653543
Si Si4 0.178502 0.265596 0.332868
Si Si5 0.314068 0.701366 0.153840
Si Si6 0.078391 0.212753 0.140052
Si Si7 0.212366 0.700796 0.332688
O O1 0.492795 0.264024 0.231343
O O2 0.559286 0.496220 0.107324
O O3 0.574983 0.200272 0.365033
O O4 0.549143 0.195720 0.861647
O O5 0.444652 0.482104 0.521617
O O6 0.400819 0.246289 0.231187
O O7 0.339381 0.807709 0.377516
O O8 0.337565 0.506934 0.623496
O O9 0.317808 0.793718 0.883424
O O10 0.128895 0.219744 0.239167
O O11 0.188189 0.494191 0.366266
O O12 0.186808 0.191021 0.610574
O O13 0.211317 0.210203 0.106294
O O14 0.262963 0.672922 0.238521
#
# Coordination Sequence:
#
# PCOD9133750 Si02
#       7
#     4   4   4   4   4   4   4
#     4  10  19  30  42  59  83 110 139 174 202 243
#     4  12  16  27  38  57  81 106 141 165 191 233
#     4  10  16  22  36  56  74 104 138 158 174 234
#     4  10  18  29  43  58  76 105 145 177 204 241
#     4  10  16  25  36  53  79 104 135 159 187 227
#     4  10  18  29  43  58  76 105 145 175 208 239
#     4  10  19  30  42  59  83 110 141 172 202 239
#
# _framework density 25.095790000000001
#
# number of rings (size 3 to 8) (size 9 to 14) (size 15 to 20)
#    0.000    1.714    5.714    5.143    0.000    0.000 
#    0.000    0.000    0.000    0.000    0.000    0.000 
#    0.000    0.000    0.000    0.000    0.000 1394.286 
#
# Total GULP energy -78228.756505 kJ/mol
# GULP energy per Si atom -5587.768322 kJ/mol
# Density = 2.503867 g / cm^3
# Si number density = 25.095790 Si / 1000 Ang^3
#
#
#
# Elastic Constant Matrix: (Units=GPa)
#
#
# Indices 1 2 3 4 5 6 
#
# 1 116.4362 -21.2413 -30.0311 0.0000 1.6463 0.0000
# 2 -21.2413 89.7456 -29.9172 0.0000 1.1679 0.0000
# 3 -30.0311 -29.9172 184.5167 0.0000 4.3254 0.0000
# 4 0.0000 0.0000 0.0000 -130.3654 0.0000 62.2067
# 5 1.6463 1.1679 4.3254 0.0000 52.0628 0.0000
# 6 0.0000 0.0000 0.0000 62.2067 0.0000 -42.6882
#
#
#
# Elastic Compliance Matrix: (Units=1/GPa)
#
#
# Indices 1 2 3 4 5 6 
#
# 1 0.009676 0.002988 0.002072 0.000000 -0.000545 0.000000
# 2 0.002988 0.012711 0.002561 0.000000 -0.000592 0.000000
# 3 0.002072 0.002561 0.006187 0.000000 -0.000637 0.000000
# 4 0.000000 0.000000 0.000000 -0.025179 0.000000 -0.036692
# 5 -0.000545 -0.000592 -0.000637 0.000000 0.019291 0.000000
# 6 0.000000 0.000000 0.000000 -0.036692 0.000000 -0.076894
#
#
# Mechanical properties :
#
#
# Convention : Reuss Voigt Hill
#
# Bulk Modulus (GPa) = 22.82282 25.36880 24.09581
# Shear Modulus (GPa) = -91.16674 7.26104 -41.95285
#
# Velocity S-wave (km/s) = -6.03377 1.70282 -4.09309
# Velocity P-wave (km/s) = 6.27916 3.74124 3.56587
#
# Compressibility (1/GPa) = 0.04381579
#
# Stress axis : x y z
#
# Youngs Moduli (GPa) = 103.35303 78.67037 161.62967
#
# Poissons Ratio (x) = -0.23506 -0.33489
# Poissons Ratio (y) = -0.30880 -0.41396
# Poissons Ratio (z) = -0.21415 -0.20149
#
# Static dielectric constant tensor:
#      x y z
#    x 1.923990 0.000000 0.006240 
#    y 0.000000 2.446380 0.000000 
#    z 0.006240 0.000000 2.096560 
# 
# From -- ./inp_files/3364.got.cif
#   From: 2010.05.17/outbox.cif.g08.bks.cpg/sg9_2_cif.got.tgz:3364.got - 2010.06.03 20:04:27.
