data_PCOD9133655
_publ_section_title
;
Structure prediction by ZEFSAII (Michael W. Deem and Ramdas Pophale) SiO2 
 PCOD9133655
Probable space group: C M
;
_chemical_formula_sum "Si O2"
_cell_formula_units_Z 16
_cell_length_a 15.000000
_cell_length_b 9.000000
_cell_length_c 24.000000
_cell_angle_alpha 90.000000
_cell_angle_beta 30.000000
_cell_angle_gamma 90.000000
_cell_volume 1620.000000
_symmetry_space_group_name_H-M "C M"
_symmetry_group_IT_number 8
_symmetry_cell_setting 'monoclinic'
loop_
_space_group_symop_operation_xyz
x,y,z
x,-y,z
1/2+x,1/2+y,z
1/2+x,1/2-y,z
loop_
_atom_site_type_symbol
_atom_site_label
_atom_site_fract_x
_atom_site_fract_y
_atom_site_fract_z
Si Si1 0.237540 0.324059 0.590470
Si Si2 0.632279 0.178129 0.772834
Si Si3 0.144169 0.679621 0.168502
Si Si4 0.242242 0.321436 0.990902
Si Si5 0.105163 0.322676 0.370704
Si Si6 0.974094 0.822372 0.655048
Si Si7 0.747137 0.678499 0.406299
Si Si8 0.412045 0.320755 0.114425
O O1 0.251689 0.500000 0.574818
O O2 0.228194 0.293518 0.661554
O O3 0.409029 0.246976 0.469630
O O4 0.054658 0.262732 0.663700
O O5 0.442132 0.258454 0.878076
O O6 0.777114 0.222076 0.741261
O O7 0.604282 0.000000 0.791810
O O8 0.146284 0.500000 0.169223
O O9 0.317436 0.728653 0.108611
O O10 0.955518 0.722522 0.298331
O O11 0.161617 0.723645 0.094944
O O12 0.246604 0.500000 0.985028
O O13 0.100141 0.255519 0.024431
O O14 0.086256 0.500000 0.379542
O O15 0.171960 0.263410 0.393774
O O16 0.260136 0.283226 0.242770
O O17 0.118196 0.792660 0.527956
O O18 0.973366 0.000000 0.665128
O O19 0.740909 0.500000 0.399565
O O20 0.434980 0.500000 0.102608
#
# Coordination Sequence:
#
# PCOD9133655 Si02
#       8
#     4   4   4   4   4   4   4   4
#     4  11  23  40  62  88 119 158 198 240 295 355
#     4  10  23  43  62  81 115 160 198 239 298 355
#     4   9  19  36  60  85 115 154 190 229 288 355
#     4  11  23  39  61  87 114 150 200 252 291 336
#     4  11  21  34  59  92 123 155 195 241 291 348
#     4  10  21  39  63  89 118 155 195 240 297 353
#     4  10  18  36  62  86 121 158 189 233 298 361
#     4  10  21  39  61  86 119 158 193 232 292 357
#
# _framework density 9.8765429999999999
#
# number of rings (size 3 to 8) (size 9 to 14) (size 15 to 20)
#    0.000    1.750    2.500    1.875    0.000    5.500 
#    0.000    5.625    0.000    0.000    0.000    0.000 
#    0.000    0.000    0.000    0.000    0.000    0.000 
#
# Total GULP energy -89356.149495 kJ/mol
# GULP energy per Si atom -5584.759343 kJ/mol
# Density = 0.985406 g / cm^3
# Si number density = 9.876543 Si / 1000 Ang^3
#
#
#
# Elastic Constant Matrix: (Units=GPa)
#
#
# Indices 1 2 3 4 5 6 
#
# 1 97.7986 17.4517 9.9250 0.0000 -38.1018 0.0000
# 2 17.4517 20.2076 17.7197 0.0000 -10.8507 0.0000
# 3 9.9250 17.7197 70.5730 -0.0003 -39.4884 0.0000
# 4 0.0000 0.0000 -0.0003 27.7187 0.0000 -5.6234
# 5 -38.1018 -10.8507 -39.4884 0.0000 38.2978 0.0000
# 6 0.0000 0.0000 0.0000 -5.6234 0.0000 29.6118
#
#
#
# Elastic Compliance Matrix: (Units=1/GPa)
#
#
# Indices 1 2 3 4 5 6 
#
# 1 0.049691 -0.041386 0.057920 0.000001 0.097432 0.000000
# 2 -0.041386 0.098146 -0.062170 -0.000001 -0.077470 0.000000
# 3 0.057920 -0.062170 0.104053 0.000001 0.147297 0.000000
# 4 0.000001 -0.000001 0.000001 0.037522 0.000001 0.007126
# 5 0.097432 -0.077470 0.147297 0.000001 0.252971 0.000000
# 6 0.000000 0.000000 0.000000 0.007126 0.000000 0.035124
#
#
# Mechanical properties :
#
#
# Convention : Reuss Voigt Hill
#
# Bulk Modulus (GPa) = 6.22598 30.97464 18.60031
# Shear Modulus (GPa) = 6.92216 28.69117 17.80667
#
# Velocity S-wave (km/s) = 1.87402 3.81529 3.00569
# Velocity P-wave (km/s) = 2.80024 5.92651 4.63492
#
# Compressibility (1/GPa) = 0.16061720
#
# Stress axis : x y z
#
# Youngs Moduli (GPa) = 20.12425 10.18893 9.61053
#
# Poissons Ratio (x) = 0.42168 -0.55664
# Poissons Ratio (y) = 0.83287 0.59749
# Poissons Ratio (z) = -1.16560 0.63345
#
# Static dielectric constant tensor:
#      x y z
#    x 1.728080 0.000000 0.009290 
#    y 0.000000 1.653650 0.000000 
#    z 0.009290 0.000000 1.677310 
# 
# From -- ./inp_files/26544.got.cif
#   From: 2010.05.17/outbox.ucp.g08.bks.cvg/sg8_14_cif.got.tgz:26544.got - 2010.06.11 13:00:03.
