data_PCOD9133107
_publ_section_title
;
Structure prediction by ZEFSAII (Michael W. Deem and Ramdas Pophale) SiO2 
 PCOD9133107
Probable space group: C M
;
_chemical_formula_sum "Si O2"
_cell_formula_units_Z 32
_cell_length_a 15.155249
_cell_length_b 17.238029
_cell_length_c 12.360360
_cell_angle_alpha 90.000000
_cell_angle_beta 152.657705
_cell_angle_gamma 90.000000
_cell_volume 1483.144105
_symmetry_space_group_name_H-M "C M"
_symmetry_group_IT_number 8
_symmetry_cell_setting 'monoclinic'
loop_
_space_group_symop_operation_xyz
x,y,z
x,-y,z
1/2+x,1/2+y,z
1/2+x,1/2-y,z
loop_
_atom_site_type_symbol
_atom_site_label
_atom_site_fract_x
_atom_site_fract_y
_atom_site_fract_z
Si Si1 0.145080 0.801408 0.116450
Si Si2 0.593768 0.859308 0.296751
Si Si3 0.623766 0.088820 0.903811
Si Si4 0.221620 0.824634 0.756455
Si Si5 0.840764 0.720285 0.646060
Si Si6 0.308987 0.346939 0.907686
Si Si7 0.481965 0.913941 0.410475
Si Si8 0.301677 0.628010 0.324443
O O1 0.317922 0.854907 0.268167
O O2 0.231354 0.718074 0.243764
O O3 0.005564 0.781207 0.863339
O O4 0.010218 0.837206 0.063755
O O5 0.675498 0.772743 0.413126
O O6 0.549447 0.897352 0.362355
O O7 0.743572 0.900200 0.379787
O O8 0.400995 0.858563 0.015868
O O9 0.694874 0.091256 0.105517
O O10 0.575077 0.000000 0.822457
O O11 0.446582 0.149894 0.699261
O O12 0.795295 0.121549 0.014488
O O13 0.265547 0.814238 0.677541
O O14 0.209244 0.737648 0.791138
O O15 0.028512 0.871972 0.559037
O O16 0.169210 0.402367 0.687890
O O17 0.405021 0.000000 0.337191
#
# Coordination Sequence:
#
# PCOD9133107 Si02
#       8
#     4   4   4   4   4   4   4   4
#     4  10  21  43  66 101 125 172 227 273 323 393
#     4  12  23  43  70 101 130 176 232 277 333 386
#     4  11  25  43  68 102 144 180 215 276 348 410
#     4  11  22  41  70 102 128 173 232 287 316 394
#     4  10  22  42  70  99 132 175 229 280 329 393
#     4  11  22  42  68  98 137 173 221 277 335 393
#     4  12  27  43  65 100 142 176 217 277 342 401
#     4  11  23  41  71 101 131 175 227 275 329 398
#
# _framework density 21.575786000000001
#
# number of rings (size 3 to 8) (size 9 to 14) (size 15 to 20)
#    0.000    1.000    7.500    1.125    7.000    1.500 
#    0.000    1.250    0.000    0.000    0.000    0.000 
#    0.000    0.000    0.000    0.000    0.000    0.000 
#
# Total GULP energy -89428.769378 kJ/mol
# GULP energy per Si atom -5589.298086 kJ/mol
# Density = 2.152668 g / cm^3
# Si number density = 21.575786 Si / 1000 Ang^3
#
#
#
# Elastic Constant Matrix: (Units=GPa)
#
#
# Indices 1 2 3 4 5 6 
#
# 1 103.6584 24.5807 17.0755 0.0000 -1.4076 0.0000
# 2 24.5807 64.4048 -13.2265 0.0000 11.9781 0.0000
# 3 17.0755 -13.2265 71.1755 0.0000 15.8558 0.0000
# 4 0.0000 0.0000 0.0000 6.7061 0.0000 1.0135
# 5 -1.4076 11.9781 15.8558 0.0000 33.3514 0.0000
# 6 0.0000 0.0000 0.0000 1.0135 0.0000 5.2335
#
#
#
# Elastic Compliance Matrix: (Units=1/GPa)
#
#
# Indices 1 2 3 4 5 6 
#
# 1 0.012236 -0.006819 -0.005439 0.000000 0.005551 0.000000
# 2 -0.006819 0.022157 0.008489 0.000000 -0.012281 0.000000
# 3 -0.005439 0.008489 0.019755 0.000000 -0.012670 0.000000
# 4 0.000000 0.000000 0.000000 0.153615 0.000000 -0.029749
# 5 0.005551 -0.012281 -0.012670 0.000000 0.040653 0.000000
# 6 0.000000 0.000000 0.000000 -0.029749 0.000000 0.196839
#
#
# Mechanical properties :
#
#
# Convention : Reuss Voigt Hill
#
# Bulk Modulus (GPa) = 21.45518 32.89979 27.17748
# Shear Modulus (GPa) = 10.67626 23.11213 16.89420
#
# Velocity S-wave (km/s) = 2.22688 3.27648 2.80128
# Velocity P-wave (km/s) = 4.07157 5.44016 4.80484
#
# Compressibility (1/GPa) = 0.04660880
#
# Stress axis : x y z
#
# Youngs Moduli (GPa) = 81.72913 45.13250 50.62047
#
# Poissons Ratio (x) = 0.30777 0.27534
# Poissons Ratio (y) = 0.55734 -0.42974
# Poissons Ratio (z) = 0.44455 -0.38315
#
# Static dielectric constant tensor:
#      x y z
#    x 1.808720 0.000000 -0.009500 
#    y 0.000000 1.776390 0.000000 
#    z -0.009500 0.000000 1.796380 
# 
# From -- ./inp_files/22423.got.cif
#   From: 2010.05.17/outbox.cif.g08.bks.cpg/sg8_12_cif.got.tgz:22423.got - 2010.06.03 19:46:02.
