data_PCOD9133031
_publ_section_title
;
Structure prediction by ZEFSAII (Michael W. Deem and Ramdas Pophale) SiO2 
 PCOD9133031
Probable space group: C M
;
_chemical_formula_sum "Si O2"
_cell_formula_units_Z 32
_cell_length_a 22.715950
_cell_length_b 8.818384
_cell_length_c 11.361367
_cell_angle_alpha 90.000000
_cell_angle_beta 131.167598
_cell_angle_gamma 90.000000
_cell_volume 1713.258039
_symmetry_space_group_name_H-M "C M"
_symmetry_group_IT_number 8
_symmetry_cell_setting 'monoclinic'
loop_
_space_group_symop_operation_xyz
x,y,z
x,-y,z
1/2+x,1/2+y,z
1/2+x,1/2-y,z
loop_
_atom_site_type_symbol
_atom_site_label
_atom_site_fract_x
_atom_site_fract_y
_atom_site_fract_z
Si Si1 0.418500 0.319282 0.536000
Si Si2 0.655397 0.819589 0.717735
Si Si3 0.803594 0.319896 0.788191
Si Si4 0.770272 0.681400 0.471047
Si Si5 0.460005 0.680699 0.099442
Si Si6 0.570967 0.818759 0.846151
Si Si7 0.485859 0.181236 0.388149
Si Si8 0.109771 0.681377 0.165671
O O1 0.416037 0.500000 0.524118
O O2 0.338641 0.255591 0.484038
O O3 0.490492 0.267590 0.713818
O O4 0.437430 0.247232 0.433914
O O5 0.728937 0.729163 0.766557
O O6 0.630984 0.782239 0.819714
O O7 0.577360 0.789170 0.538295
O O8 0.671516 0.000000 0.732524
O O9 0.816717 0.500000 0.815332
O O10 0.785794 0.283744 0.628606
O O11 0.880256 0.233806 0.933122
O O12 0.771946 0.500000 0.459212
O O13 0.686946 0.745522 0.321847
O O14 0.466090 0.500000 0.106582
O O15 0.462303 0.742064 0.235629
O O16 0.533263 0.752804 0.127691
O O17 0.554823 0.000000 0.816293
O O18 0.603530 0.786527 0.017980
O O19 0.475738 0.000000 0.368742
O O20 0.111894 0.500000 0.184230
#
# Coordination Sequence:
#
# PCOD9133031 Si02
#       8
#     4   4   4   4   4   4   4   4
#     4  11  22  37  61  91 121 154 195 242 293 348
#     4   9  19  37  61  87 116 151 191 239 292 346
#     4  11  24  40  59  84 116 156 199 244 294 347
#     4  11  24  41  60  84 118 158 201 246 293 349
#     4  12  25  40  60  87 119 153 195 245 296 352
#     4   9  20  39  61  86 119 158 196 237 289 350
#     4  10  21  40  64  88 119 157 195 237 290 351
#     4  11  23  40  62  87 118 155 198 246 297 351
#
# _framework density 18.677864
#
# number of rings (size 3 to 8) (size 9 to 14) (size 15 to 20)
#    0.000    1.500    0.000    6.000    0.000   11.500 
#    0.000    3.750    0.000    0.000    0.000    0.000 
#    0.000    0.000    0.000    0.000    0.000    0.000 
#
# Total GULP energy -89482.908232 kJ/mol
# GULP energy per Si atom -5592.681764 kJ/mol
# Density = 1.863535 g / cm^3
# Si number density = 18.677864 Si / 1000 Ang^3
#
#
#
# Elastic Constant Matrix: (Units=GPa)
#
#
# Indices 1 2 3 4 5 6 
#
# 1 112.1562 49.1246 68.6882 0.0000 15.4794 0.0000
# 2 49.1246 76.9680 65.8665 0.0000 -1.1826 0.0000
# 3 68.6882 65.8665 128.6363 0.0000 -8.5151 0.0000
# 4 0.0000 0.0000 0.0000 8.5709 0.0000 -4.3851
# 5 15.4794 -1.1826 -8.5151 0.0000 25.0013 0.0000
# 6 0.0000 0.0000 0.0000 -4.3851 0.0000 35.3815
#
#
#
# Elastic Compliance Matrix: (Units=1/GPa)
#
#
# Indices 1 2 3 4 5 6 
#
# 1 0.017838 -0.004727 -0.008032 0.000000 -0.014003 0.000000
# 2 -0.004727 0.024602 -0.010028 0.000000 0.000675 0.000000
# 3 -0.008032 -0.010028 0.017899 0.000000 0.010594 0.000000
# 4 0.000000 0.000000 0.000000 0.124573 0.000000 0.015439
# 5 -0.014003 0.000675 0.010594 0.000000 0.052308 0.000000
# 6 0.000000 0.000000 0.000000 0.015439 0.000000 0.030177
#
#
# Mechanical properties :
#
#
# Convention : Reuss Voigt Hill
#
# Bulk Modulus (GPa) = 67.72925 76.12434 71.92680
# Shear Modulus (GPa) = 15.72862 22.72949 19.22905
#
# Velocity S-wave (km/s) = 2.90504 3.49222 3.21208
# Velocity P-wave (km/s) = 6.89876 7.55684 7.23528
#
# Compressibility (1/GPa) = 0.01476467
#
# Stress axis : x y z
#
# Youngs Moduli (GPa) = 56.05960 40.64792 55.87058
#
# Poissons Ratio (x) = 0.19215 0.44873
# Poissons Ratio (y) = 0.26500 0.56027
# Poissons Ratio (z) = 0.45025 0.40762
#
# Static dielectric constant tensor:
#      x y z
#    x 1.616200 0.000000 -0.013570 
#    y 0.000000 1.622580 0.000000 
#    z -0.013570 0.000000 1.619180 
# 
# From -- ./inp_files/23905.got.cif
#   From: 2010.05.17/outbox.cif.g08.bks.cpg/sg8_12_cif.got.tgz:23905.got - 2010.06.03 19:46:02.
