data_PCOD9133284
_publ_section_title
;
Structure prediction by ZEFSAII (Michael W. Deem and Ramdas Pophale) SiO2 
 PCOD9133284
Probable space group: C M
;
_chemical_formula_sum "Si O2"
_cell_formula_units_Z 32
_cell_length_a 11.572105
_cell_length_b 18.921266
_cell_length_c 9.634594
_cell_angle_alpha 90.000000
_cell_angle_beta 49.488404
_cell_angle_gamma 90.000000
_cell_volume 1603.859809
_symmetry_space_group_name_H-M "C M"
_symmetry_group_IT_number 8
_symmetry_cell_setting 'monoclinic'
loop_
_space_group_symop_operation_xyz
x,y,z
x,-y,z
1/2+x,1/2+y,z
1/2+x,1/2-y,z
loop_
_atom_site_type_symbol
_atom_site_label
_atom_site_fract_x
_atom_site_fract_y
_atom_site_fract_z
Si Si1 0.490910 0.310958 0.719670
Si Si2 0.759109 0.583537 0.012522
Si Si3 0.578098 0.157522 0.699909
Si Si4 0.203490 0.417278 0.347215
Si Si5 0.977795 0.581737 0.282412
Si Si6 0.652560 0.582603 0.410421
Si Si7 0.640574 0.805872 0.961279
Si Si8 0.011459 0.846337 0.014982
O O1 0.570512 0.235350 0.637779
O O2 0.527471 0.364524 0.567441
O O3 0.312715 0.294629 0.873966
O O4 0.541301 0.344877 0.826895
O O5 0.791745 0.500000 0.981282
O O6 0.909504 0.626491 0.854826
O O7 0.706042 0.599667 0.211890
O O8 0.625967 0.604005 0.010349
O O9 0.671999 0.106462 0.527827
O O10 0.645652 0.168126 0.799176
O O11 0.242632 0.500000 0.308339
O O12 0.048710 0.406398 0.379070
O O13 0.340861 0.372074 0.176902
O O14 0.011431 0.500000 0.218623
O O15 0.798916 0.591052 0.397259
O O16 0.062641 0.634809 0.114542
O O17 0.606164 0.500000 0.449121
O O18 0.544938 0.733495 0.039573
#
# Coordination Sequence:
#
# PCOD9133284 Si02
#       8
#     4   4   4   4   4   4   4   4
#     4  11  25  43  65  97 131 170 219 266 322 385
#     4  11  23  44  67  92 132 173 216 267 321 384
#     4  11  25  41  65  98 130 171 216 265 327 386
#     4  11  25  43  66  99 133 171 215 266 326 383
#     4  10  22  42  68  94 126 172 217 263 321 381
#     4  10  24  42  67  99 128 172 219 264 324 382
#     4  11  23  44  67  92 130 172 216 269 320 381
#     4  11  25  43  65  97 130 171 216 266 325 384
#
# _framework density 19.951868999999999
#
# number of rings (size 3 to 8) (size 9 to 14) (size 15 to 20)
#    0.000    1.250    3.750    0.750    5.250    3.000 
#    0.000    0.000    0.000    0.000    0.000    0.000 
#    0.000    0.000    0.000    0.000    0.000    0.000 
#
# Total GULP energy -89418.897619 kJ/mol
# GULP energy per Si atom -5588.681101 kJ/mol
# Density = 1.990646 g / cm^3
# Si number density = 19.951869 Si / 1000 Ang^3
#
#
#
# Elastic Constant Matrix: (Units=GPa)
#
#
# Indices 1 2 3 4 5 6 
#
# 1 63.9024 17.3525 -0.7283 0.0000 3.4736 0.0000
# 2 17.3525 74.0229 49.1088 0.0000 8.2595 0.0000
# 3 -0.7283 49.1088 59.9905 0.0000 3.0908 0.0000
# 4 0.0000 0.0000 0.0000 37.5448 0.0000 -4.7064
# 5 3.4736 8.2595 3.0908 0.0000 18.4817 0.0000
# 6 0.0000 0.0000 0.0000 -4.7064 0.0000 31.8548
#
#
#
# Elastic Compliance Matrix: (Units=1/GPa)
#
#
# Indices 1 2 3 4 5 6 
#
# 1 0.018397 -0.009679 0.008172 0.000000 -0.000499 0.000000
# 2 -0.009679 0.036312 -0.029353 0.000000 -0.009500 0.000000
# 3 0.008172 -0.029353 0.040550 0.000000 0.004801 0.000000
# 4 0.000000 0.000000 0.000000 0.027137 0.000000 0.004009
# 5 -0.000499 -0.009500 0.004801 0.000000 0.057644 0.000000
# 6 0.000000 0.000000 0.000000 0.004009 0.000000 0.031985
#
#
# Mechanical properties :
#
#
# Convention : Reuss Voigt Hill
#
# Bulk Modulus (GPa) = 29.81552 36.59798 33.20675
# Shear Modulus (GPa) = 17.54845 26.38846 21.96845
#
# Velocity S-wave (km/s) = 2.96892 3.64071 3.32184
# Velocity P-wave (km/s) = 5.16999 6.00466 5.60289
#
# Compressibility (1/GPa) = 0.03353958
#
# Stress axis : x y z
#
# Youngs Moduli (GPa) = 54.35576 27.53910 24.66081
#
# Poissons Ratio (x) = 0.26654 -0.20153
# Poissons Ratio (y) = 0.52609 0.72388
# Poissons Ratio (z) = -0.44420 0.80837
#
# Static dielectric constant tensor:
#      x y z
#    x 1.721550 0.000000 -0.000920 
#    y 0.000000 1.681130 0.000000 
#    z -0.000920 0.000000 1.663100 
# 
# From -- ./inp_files/11436.got.cif
#   From: 2010.05.17/outbox.cif.g08.bks.cpg/sg8_6_cif.got.tgz:11436.got - 2010.06.03 19:46:02.
