data_PCOD9133933
_publ_section_title
;
Structure prediction by ZEFSAII (Michael W. Deem and Ramdas Pophale) SiO2 
 PCOD9133933
Probable space group: C C
;
_chemical_formula_sum "Si O2"
_cell_formula_units_Z 32
_cell_length_a 11.659351
_cell_length_b 8.388901
_cell_length_c 15.938562
_cell_angle_alpha 90.000000
_cell_angle_beta 59.252002
_cell_angle_gamma 90.000000
_cell_volume 1339.788357
_symmetry_space_group_name_H-M "C C"
_symmetry_group_IT_number 9
_symmetry_cell_setting 'monoclinic'
loop_
_space_group_symop_operation_xyz
x,y,z
x,-y,1/2+z
1/2+x,1/2+y,z
1/2+x,1/2-y,1/2+z
loop_
_atom_site_type_symbol
_atom_site_label
_atom_site_fract_x
_atom_site_fract_y
_atom_site_fract_z
Si Si1 0.216780 0.480153 0.666460
Si Si2 0.475330 0.667279 0.509434
Si Si3 0.237599 0.811669 0.267381
Si Si4 0.093805 0.216022 0.170549
Si Si5 0.337519 0.730557 0.989037
Si Si6 0.118253 0.127418 0.974375
Si Si7 0.857536 0.481377 0.589212
Si Si8 0.962233 0.999278 0.836773
O O1 0.352810 0.581408 0.603916
O O2 0.218568 0.369511 0.746401
O O3 0.098684 0.606505 0.704610
O O4 0.223281 0.355783 0.586427
O O5 0.602976 0.563789 0.488259
O O6 0.473866 0.853017 0.531694
O O7 0.455690 0.625408 0.417848
O O8 0.237231 0.832502 0.367072
O O9 0.353632 0.895862 0.169083
O O10 0.101314 0.902712 0.290561
O O11 0.117148 0.213434 0.062825
O O12 0.227866 0.127756 0.151658
O O13 0.974221 0.105594 0.248478
O O14 0.480212 0.683036 0.980660
O O15 0.336006 0.916029 0.012519
O O16 0.351884 0.636458 0.895746
#
# Coordination Sequence:
#
# PCOD9133933 Si02
#       8
#     4   4   4   4   4   4   4   4
#     4   8  15  29  49  67  90 127 166 191 234 300
#     4   8  16  31  48  69  94 128 160 191 236 303
#     4   8  15  30  50  68  94 131 162 194 241 299
#     4  10  18  30  50  75  95 122 164 211 242 278
#     4   8  16  33  48  64  94 133 161 192 240 302
#     4   9  18  32  48  72 102 122 155 209 249 275
#     4   9  16  31  53  69  90 130 169 191 233 304
#     4   8  16  28  46  68  95 125 157 193 243 291
#
# _framework density 23.884367999999998
#
# number of rings (size 3 to 8) (size 9 to 14) (size 15 to 20)
#    0.000    4.000    0.000    0.000    0.000    2.000 
#    0.000   16.250    0.000    0.000    0.000    0.000 
#    0.000    0.000    0.000    0.000    0.000    0.000 
#
# Total GULP energy -89126.320910 kJ/mol
# GULP energy per Si atom -5570.395057 kJ/mol
# Density = 2.383001 g / cm^3
# Si number density = 23.884368 Si / 1000 Ang^3
#
#
#
# Elastic Constant Matrix: (Units=GPa)
#
#
# Indices 1 2 3 4 5 6 
#
# 1 36.6784 12.7110 11.1236 0.0000 4.2797 0.0000
# 2 12.7110 170.7117 72.3675 0.0000 3.1036 0.0000
# 3 11.1236 72.3675 128.0174 0.0000 8.0964 0.0000
# 4 0.0000 0.0000 0.0000 18.0705 0.0000 -11.6235
# 5 4.2797 3.1036 8.0964 0.0000 22.4634 0.0000
# 6 0.0000 0.0000 0.0000 -11.6235 0.0000 1.0484
#
#
#
# Elastic Compliance Matrix: (Units=1/GPa)
#
#
# Indices 1 2 3 4 5 6 
#
# 1 0.028746 -0.001477 -0.001361 0.000000 -0.004782 0.000000
# 2 -0.001477 0.007786 -0.004321 0.000000 0.000763 0.000000
# 3 -0.001361 -0.004321 0.010559 0.000000 -0.002949 0.000000
# 4 0.000000 0.000000 0.000000 -0.009025 0.000000 -0.100063
# 5 -0.004782 0.000763 -0.002949 0.000000 0.046386 0.000000
# 6 0.000000 0.000000 0.000000 -0.100063 0.000000 -0.155564
#
#
# Mechanical properties :
#
#
# Convention : Reuss Voigt Hill
#
# Bulk Modulus (GPa) = 30.51192 58.64577 44.57884
# Shear Modulus (GPa) = -109.00198 24.26347 -42.36925
#
# Velocity S-wave (km/s) = -6.76287 3.19073 -4.21638
# Velocity P-wave (km/s) = 6.94113 6.17914 2.23580
#
# Compressibility (1/GPa) = 0.03277408
#
# Stress axis : x y z
#
# Youngs Moduli (GPa) = 34.78700 128.44006 94.70649
#
# Poissons Ratio (x) = 0.18967 0.12886
# Poissons Ratio (y) = 0.05137 0.40924
# Poissons Ratio (z) = 0.04733 0.55501
#
# Static dielectric constant tensor:
#      x y z
#    x 1.999540 0.000000 -0.008870 
#    y 0.000000 1.985980 0.000000 
#    z -0.008870 0.000000 1.960980 
# 
# From -- ./inp_files/30923.got.cif
#   From: 2010.05.17/outbox.cif.g08.bks.cpg/sg9_16_cif.got.tgz:30923.got - 2010.06.03 20:04:27.
