data_PCOD9133731
_publ_section_title
;
Structure prediction by ZEFSAII (Michael W. Deem and Ramdas Pophale) SiO2 
 PCOD9133731
Probable space group: C C
;
_chemical_formula_sum "Si O2"
_cell_formula_units_Z 32
_cell_length_a 6.843780
_cell_length_b 22.356613
_cell_length_c 9.828703
_cell_angle_alpha 90.000000
_cell_angle_beta 72.829545
_cell_angle_gamma 90.000000
_cell_volume 1436.803780
_symmetry_space_group_name_H-M "C C"
_symmetry_group_IT_number 9
_symmetry_cell_setting 'monoclinic'
loop_
_space_group_symop_operation_xyz
x,y,z
x,-y,1/2+z
1/2+x,1/2+y,z
1/2+x,1/2-y,1/2+z
loop_
_atom_site_type_symbol
_atom_site_label
_atom_site_fract_x
_atom_site_fract_y
_atom_site_fract_z
Si Si1 0.618010 0.425008 0.724030
Si Si2 0.664675 0.002057 0.652022
Si Si3 0.371477 0.733871 0.057550
Si Si4 0.663274 0.342887 0.943400
Si Si5 0.647662 0.071004 0.405450
Si Si6 0.591418 0.445140 0.176431
Si Si7 0.918360 0.104001 0.984063
Si Si8 0.250536 0.296806 0.888098
O O1 0.736390 0.376769 0.790091
O O2 0.397402 0.436617 0.844493
O O3 0.703420 0.491077 0.678429
O O4 0.555004 0.397898 0.592399
O O5 0.562457 0.972246 0.805233
O O6 0.744200 0.945946 0.545063
O O7 0.574549 0.050612 0.567972
O O8 0.869287 0.034084 0.666345
O O9 0.125354 0.641367 0.387056
O O10 0.310694 0.728815 0.228101
O O11 0.263724 0.786107 0.994712
O O12 0.329529 0.670217 0.995804
O O13 0.441977 0.317659 0.939449
O O14 0.665214 0.396836 0.052311
O O15 0.552808 0.413517 0.327869
O O16 0.110411 0.249894 0.995090
#
# Coordination Sequence:
#
# PCOD9133731 Si02
#       8
#     4   4   4   4   4   4   4   4
#     4   9  16  32  58  88 123 155 212 277 318 372
#     4  10  14  27  57  89 117 154 214 263 323 377
#     4  12  25  41  65  94 135 182 216 266 326 398
#     4  11  22  41  64  93 129 177 214 267 337 384
#     4   9  16  31  56  89 119 155 204 274 315 371
#     4  10  16  29  60  95 112 159 222 260 323 392
#     4  10  17  31  53  87 124 157 212 262 305 381
#     4  11  24  44  63  95 137 171 226 273 315 395
#
# _framework density 22.271654999999999
#
# number of rings (size 3 to 8) (size 9 to 14) (size 15 to 20)
#    0.000    2.000    8.750    1.500    0.000    2.000 
#    0.000    0.000    2.750    0.000    3.250    0.000 
#    0.000    0.000    0.000    0.000    0.000    0.000 
#
# Total GULP energy -89298.275810 kJ/mol
# GULP energy per Si atom -5581.142238 kJ/mol
# Density = 2.222096 g / cm^3
# Si number density = 22.271655 Si / 1000 Ang^3
#
#
#
# Elastic Constant Matrix: (Units=GPa)
#
#
# Indices 1 2 3 4 5 6 
#
# 1 44.3516 26.9984 9.8976 0.0000 14.7777 0.0000
# 2 26.9984 156.8310 61.4610 0.0000 11.3062 0.0000
# 3 9.8976 61.4610 124.1594 0.0000 11.0294 0.0000
# 4 0.0000 0.0000 0.0000 51.5869 0.0000 3.6385
# 5 14.7777 11.3062 11.0294 0.0000 21.7578 0.0000
# 6 0.0000 0.0000 0.0000 3.6385 0.0000 16.1756
#
#
#
# Elastic Compliance Matrix: (Units=1/GPa)
#
#
# Indices 1 2 3 4 5 6 
#
# 1 0.031631 -0.004611 0.001525 0.000000 -0.019861 0.000000
# 2 -0.004611 0.008688 -0.003990 0.000000 0.000640 0.000000
# 3 0.001525 -0.003990 0.010278 0.000000 -0.004173 0.000000
# 4 0.000000 0.000000 0.000000 0.019697 0.000000 -0.004431
# 5 -0.019861 0.000640 -0.004173 0.000000 0.061232 0.000000
# 6 0.000000 0.000000 0.000000 -0.004431 0.000000 0.062818
#
#
# Mechanical properties :
#
#
# Convention : Reuss Voigt Hill
#
# Bulk Modulus (GPa) = 27.43811 58.00621 42.72216
# Shear Modulus (GPa) = 22.66089 33.03640 27.84864
#
# Velocity S-wave (km/s) = 3.19325 3.85559 3.53995
# Velocity P-wave (km/s) = 5.09336 6.77659 5.99435
#
# Compressibility (1/GPa) = 0.03644566
#
# Stress axis : x y z
#
# Youngs Moduli (GPa) = 31.61439 115.10749 97.29283
#
# Poissons Ratio (x) = 0.53080 -0.14841
# Poissons Ratio (y) = 0.14578 0.38817
# Poissons Ratio (z) = -0.04822 0.45925
#
# Static dielectric constant tensor:
#      x y z
#    x 1.947390 0.000000 0.033270 
#    y 0.000000 1.818730 0.000000 
#    z 0.033270 0.000000 1.803940 
# 
# From -- ./inp_files/15100.got.cif
#   From: 2010.05.17/outbox.cif.g08.bks.cpg/sg9_8_cif.got.tgz:15100.got - 2010.06.03 20:04:27.
