data_PCOD9133335
_publ_section_title
;
Structure prediction by ZEFSAII (Michael W. Deem and Ramdas Pophale) SiO2 
 PCOD9133335
Probable space group: C M
;
_chemical_formula_sum "Si O2"
_cell_formula_units_Z 24
_cell_length_a 8.508884
_cell_length_b 24.025802
_cell_length_c 5.429117
_cell_angle_alpha 90.000000
_cell_angle_beta 116.522835
_cell_angle_gamma 90.000000
_cell_volume 993.080697
_symmetry_space_group_name_H-M "C M"
_symmetry_group_IT_number 8
_symmetry_cell_setting 'monoclinic'
loop_
_space_group_symop_operation_xyz
x,y,z
x,-y,z
1/2+x,1/2+y,z
1/2+x,1/2-y,z
loop_
_atom_site_type_symbol
_atom_site_label
_atom_site_fract_x
_atom_site_fract_y
_atom_site_fract_z
Si Si1 0.035580 0.229624 0.555240
Si Si2 0.662283 0.500000 0.707699
Si Si3 0.485012 0.849521 0.267452
Si Si4 0.807686 0.890265 0.763443
Si Si5 0.442794 0.500000 0.063485
Si Si6 0.676036 0.620339 0.767225
Si Si7 0.706360 0.802656 0.058018
O O1 0.018566 0.287008 0.390197
O O2 0.162545 0.176504 0.591170
O O3 0.837428 0.209075 0.374081
O O4 0.107644 0.250612 0.868570
O O5 0.520144 0.500000 0.389689
O O6 0.750522 0.560776 0.731840
O O7 0.586559 0.500000 0.937281
O O8 0.617351 0.888935 0.504227
O O9 0.557771 0.845305 0.039925
O O10 0.284843 0.865784 0.091550
O O11 0.972009 0.890381 0.692302
O O12 0.819537 0.833918 0.931356
O O13 0.832704 0.944240 0.946470
#
# Coordination Sequence:
#
# PCOD9133335 Si02
#       7
#     4   2   4   4   2   4   4
#     4  11  23  39  64  97 136 181 223 289 351 425
#     4  10  24  47  71 110 131 199 237 292 361 425
#     4  11  25  42  66 107 130 185 232 289 358 423
#     4  10  24  45  68  99 136 182 232 292 352 426
#     4  10  22  45  79  98 139 189 245 288 361 427
#     4  11  23  45  71  96 145 178 237 292 348 429
#     4  11  24  41  65 100 137 175 236 284 367 420
#
# _framework density 24.167221999999999
#
# number of rings (size 3 to 8) (size 9 to 14) (size 15 to 20)
#    0.000    1.333    3.333    1.000    7.000    0.667 
#   15.000    0.833    0.000    0.000    0.000    0.000 
#    0.000    0.000    0.000    0.000    0.000    0.000 
#
# Total GULP energy -66910.965048 kJ/mol
# GULP energy per Si atom -5575.913754 kJ/mol
# Density = 2.411222 g / cm^3
# Si number density = 24.167222 Si / 1000 Ang^3
#
#
#
# Elastic Constant Matrix: (Units=GPa)
#
#
# Indices 1 2 3 4 5 6 
#
# 1 15.6574 3.3298 20.1844 0.0000 10.7622 0.0000
# 2 3.3298 139.2063 66.5646 0.0000 20.2247 0.0000
# 3 20.1844 66.5646 128.2216 0.0000 37.8022 0.0000
# 4 0.0000 0.0000 0.0000 45.2237 0.0000 9.1340
# 5 10.7622 20.2247 37.8022 0.0000 39.7056 0.0000
# 6 0.0000 0.0000 0.0000 9.1340 0.0000 11.2232
#
#
#
# Elastic Compliance Matrix: (Units=1/GPa)
#
#
# Indices 1 2 3 4 5 6 
#
# 1 0.089548 0.006204 -0.012831 0.000000 -0.015216 0.000000
# 2 0.006204 0.009987 -0.005791 0.000000 -0.001255 0.000000
# 3 -0.012831 -0.005791 0.015195 0.000000 -0.008039 0.000000
# 4 0.000000 0.000000 0.000000 0.026462 0.000000 -0.021536
# 5 -0.015216 -0.001255 -0.008039 0.000000 0.037603 0.000000
# 6 0.000000 0.000000 0.000000 -0.021536 0.000000 0.106628
#
#
# Mechanical properties :
#
#
# Convention : Reuss Voigt Hill
#
# Bulk Modulus (GPa) = 11.12427 51.47143 31.29785
# Shear Modulus (GPa) = 14.69620 32.09760 23.39690
#
# Velocity S-wave (km/s) = 2.46865 3.64833 3.11485
# Velocity P-wave (km/s) = 3.56913 6.25231 5.09068
#
# Compressibility (1/GPa) = 0.08989356
#
# Stress axis : x y z
#
# Youngs Moduli (GPa) = 11.16720 100.13346 65.80928
#
# Poissons Ratio (x) = -0.62126 0.84443
# Poissons Ratio (y) = -0.06929 0.38111
# Poissons Ratio (z) = 0.14329 0.57989
#
# Static dielectric constant tensor:
#      x y z
#    x 1.960670 0.000000 -0.040480 
#    y 0.000000 2.001810 0.000000 
#    z -0.040480 0.000000 1.923880 
# 
# From -- ./inp_files/3074.got.cif
#   From: 2010.05.17/outbox.cif.g08.bks.cpg/sg8_2_cif.got.tgz:3074.got - 2010.06.03 19:46:02.
