data_PCOD9133175
_publ_section_title
;
Structure prediction by ZEFSAII (Michael W. Deem and Ramdas Pophale) SiO2 
 PCOD9133175
Probable space group: C M
;
_chemical_formula_sum "Si O2"
_cell_formula_units_Z 20
_cell_length_a 9.343498
_cell_length_b 14.684499
_cell_length_c 7.318198
_cell_angle_alpha 90.000000
_cell_angle_beta 52.291121
_cell_angle_gamma 90.000000
_cell_volume 794.364738
_symmetry_space_group_name_H-M "C M"
_symmetry_group_IT_number 8
_symmetry_cell_setting 'monoclinic'
loop_
_space_group_symop_operation_xyz
x,y,z
x,-y,z
1/2+x,1/2+y,z
1/2+x,1/2-y,z
loop_
_atom_site_type_symbol
_atom_site_label
_atom_site_fract_x
_atom_site_fract_y
_atom_site_fract_z
Si Si1 0.013480 0.695538 0.074950
Si Si2 0.126833 0.159571 0.467015
Si Si3 0.532405 0.098868 0.429047
Si Si4 0.252793 0.346276 0.563202
Si Si5 0.129591 0.896834 0.860935
O O1 0.813788 0.651817 0.210794
O O2 0.957559 0.845202 0.467316
O O3 0.142030 0.643546 0.835178
O O4 0.035578 0.804684 0.015666
O O5 0.066559 0.329959 0.241004
O O6 0.174312 0.253364 0.535662
O O7 0.087526 0.098922 0.675958
O O8 0.695328 0.091048 0.442540
O O9 0.348131 0.121323 0.685063
O O10 0.499466 0.000000 0.368130
O O11 0.098135 0.000000 0.960903
#
# Coordination Sequence:
#
# PCOD9133175 Si02
#       5
#     4   4   4   4   4
#     4  10  22  44  72  97 139 195 232 285 364 425
#     4  10  22  39  66 101 138 184 238 291 347 420
#     4  10  23  44  72 108 146 185 240 301 357 429
#     4  11  23  41  66  99 136 183 239 290 349 419
#     4   9  20  42  72 107 145 187 239 297 357 429
#
# _framework density 25.177351999999999
#
# number of rings (size 3 to 8) (size 9 to 14) (size 15 to 20)
#    0.000    2.000    0.000    3.600    0.000   11.200 
#    0.000    5.000    0.000   28.800    0.000    0.000 
#    0.000    0.000    0.000    0.000    0.000    0.000 
#
# Total GULP energy -55814.051342 kJ/mol
# GULP energy per Si atom -5581.405134 kJ/mol
# Density = 2.512005 g / cm^3
# Si number density = 25.177352 Si / 1000 Ang^3
#
#
#
# Elastic Constant Matrix: (Units=GPa)
#
#
# Indices 1 2 3 4 5 6 
#
# 1 243.4260 37.3228 78.0736 0.0000 -20.1096 0.0000
# 2 37.3228 135.9364 27.0426 0.0000 7.2704 0.0000
# 3 78.0736 27.0426 145.9822 0.0000 -9.0477 0.0000
# 4 0.0000 0.0000 0.0000 25.9657 0.0000 -10.1421
# 5 -20.1096 7.2704 -9.0477 0.0000 22.9881 0.0000
# 6 0.0000 0.0000 0.0000 -10.1421 0.0000 39.7982
#
#
#
# Elastic Compliance Matrix: (Units=1/GPa)
#
#
# Indices 1 2 3 4 5 6 
#
# 1 0.005414 -0.001231 -0.002409 0.000000 0.004178 0.000000
# 2 -0.001231 0.008132 -0.001101 0.000000 -0.004082 0.000000
# 3 -0.002409 -0.001101 0.008439 0.000000 0.001563 0.000000
# 4 0.000000 0.000000 0.000000 0.042770 0.000000 0.010899
# 5 0.004178 -0.004082 0.001563 0.000000 0.049061 0.000000
# 6 0.000000 0.000000 0.000000 0.010899 0.000000 0.027904
#
#
# Mechanical properties :
#
#
# Convention : Reuss Voigt Hill
#
# Bulk Modulus (GPa) = 79.97486 90.02474 84.99980
# Shear Modulus (GPa) = 32.18127 43.27743 37.72935
#
# Velocity S-wave (km/s) = 3.57905 4.15046 3.87530
# Velocity P-wave (km/s) = 6.99378 7.66827 7.33878
#
# Compressibility (1/GPa) = 0.01250393
#
# Stress axis : x y z
#
# Youngs Moduli (GPa) = 184.69180 122.97593 118.49422
#
# Poissons Ratio (x) = 0.15136 0.28543
# Poissons Ratio (y) = 0.22732 0.13047
# Poissons Ratio (z) = 0.44488 0.13541
#
# Static dielectric constant tensor:
#      x y z
#    x 2.000110 0.000000 -0.006120 
#    y 0.000000 2.118230 0.000000 
#    z -0.006120 0.000000 2.044370 
# 
# From -- ./inp_files/10958.got.cif
#   From: 2010.05.17/outbox.cif.g08.bks.cpg/sg8_6_cif.got.tgz:10958.got - 2010.06.03 19:46:02.
