data_PCOD9133166
_publ_section_title
;
Structure prediction by ZEFSAII (Michael W. Deem and Ramdas Pophale) SiO2 
 PCOD9133166
Probable space group: C M
;
_chemical_formula_sum "Si O2"
_cell_formula_units_Z 32
_cell_length_a 20.362565
_cell_length_b 7.994216
_cell_length_c 12.374050
_cell_angle_alpha 90.000000
_cell_angle_beta 52.103417
_cell_angle_gamma 90.000000
_cell_volume 1589.511501
_symmetry_space_group_name_H-M "C M"
_symmetry_group_IT_number 8
_symmetry_cell_setting 'monoclinic'
loop_
_space_group_symop_operation_xyz
x,y,z
x,-y,z
1/2+x,1/2+y,z
1/2+x,1/2-y,z
loop_
_atom_site_type_symbol
_atom_site_label
_atom_site_fract_x
_atom_site_fract_y
_atom_site_fract_z
Si Si1 0.938310 0.199939 0.474650
Si Si2 0.252977 0.705288 0.139942
Si Si3 0.504941 0.195785 0.635698
Si Si4 0.251827 0.702108 0.608837
Si Si5 0.091473 0.299949 0.166897
Si Si6 0.939055 0.194124 0.925412
Si Si7 0.593362 0.299817 0.913268
Si Si8 0.195471 0.296652 0.432179
O O1 0.845170 0.258316 0.540848
O O2 0.961195 0.278535 0.566187
O O3 0.009358 0.239508 0.314182
O O4 0.936374 0.000000 0.488929
O O5 0.251968 0.500000 0.135093
O O6 0.176368 0.760915 0.140993
O O7 0.237057 0.757321 0.279366
O O8 0.345871 0.766150 0.020371
O O9 0.468145 0.294692 0.772904
O O10 0.599502 0.249970 0.524014
O O11 0.503852 0.000000 0.666517
O O12 0.252886 0.500000 0.605161
O O13 0.178541 0.748871 0.766166
O O14 0.230790 0.764315 0.509821
O O15 0.091310 0.500000 0.175309
O O16 0.091298 0.253344 0.040617
O O17 0.012380 0.265726 0.928084
O O18 0.930560 0.000000 0.967123
O O19 0.590224 0.500000 0.913096
O O20 0.200401 0.500000 0.428265
#
# Coordination Sequence:
#
# PCOD9133166 Si02
#       8
#     4   4   4   4   4   4   4   4
#     4  11  24  40  62  91 122 157 203 252 303 358
#     4   9  19  37  62  87 113 154 201 241 290 356
#     4  11  21  38  64  88 118 156 200 252 302 355
#     4  10  22  40  64  88 117 162 206 245 298 366
#     4  11  23  41  63  87 121 162 204 246 299 365
#     4  10  22  39  62  89 120 157 201 249 298 355
#     4  11  24  40  60  89 126 160 198 254 306 350
#     4   9  17  35  63  87 109 148 203 249 288 347
#
# _framework density 20.131972000000001
#
# number of rings (size 3 to 8) (size 9 to 14) (size 15 to 20)
#    0.000    1.750    2.500    1.500    3.500    1.500 
#    0.000    0.625    0.000    0.000    0.000    0.000 
#    0.000    0.000    0.000    0.000    0.000    0.000 
#
# Total GULP energy -89310.807518 kJ/mol
# GULP energy per Si atom -5581.925470 kJ/mol
# Density = 2.008615 g / cm^3
# Si number density = 20.131972 Si / 1000 Ang^3
#
#
#
# Elastic Constant Matrix: (Units=GPa)
#
#
# Indices 1 2 3 4 5 6 
#
# 1 164.1793 -3.5648 66.6336 0.0000 -11.1776 0.0000
# 2 -3.5648 19.9330 -13.2474 0.0000 -7.3872 0.0000
# 3 66.6336 -13.2474 121.1190 0.0000 -8.0226 0.0000
# 4 0.0000 0.0000 0.0000 28.8286 0.0000 0.8190
# 5 -11.1776 -7.3872 -8.0226 0.0000 41.0854 0.0000
# 6 0.0000 0.0000 0.0000 0.8190 0.0000 10.7053
#
#
#
# Elastic Compliance Matrix: (Units=1/GPa)
#
#
# Indices 1 2 3 4 5 6 
#
# 1 0.007932 -0.001107 -0.004412 0.000000 0.001097 0.000000
# 2 -0.001107 0.059679 0.007930 0.000000 0.011978 0.000000
# 3 -0.004412 0.007930 0.011718 0.000000 0.002513 0.000000
# 4 0.000000 0.000000 0.000000 0.034763 0.000000 -0.002660
# 5 0.001097 0.011978 0.002513 0.000000 0.027282 0.000000
# 6 0.000000 0.000000 0.000000 -0.002660 0.000000 0.093615
#
#
# Mechanical properties :
#
#
# Convention : Reuss Voigt Hill
#
# Bulk Modulus (GPa) = 11.88355 44.98602 28.43478
# Shear Modulus (GPa) = 19.36336 33.15117 26.25727
#
# Velocity S-wave (km/s) = 3.10469 4.06235 3.61537
# Velocity P-wave (km/s) = 4.33218 6.66316 5.61985
#
# Compressibility (1/GPa) = 0.08414997
#
# Stress axis : x y z
#
# Youngs Moduli (GPa) = 126.06534 16.75624 85.34126
#
# Poissons Ratio (x) = 0.01855 0.37656
# Poissons Ratio (y) = 0.13958 -0.67675
# Poissons Ratio (z) = 0.55625 -0.13288
#
# Static dielectric constant tensor:
#      x y z
#    x 1.726610 0.000000 -0.023340 
#    y 0.000000 1.744410 0.000000 
#    z -0.023340 0.000000 1.668990 
# 
# From -- ./inp_files/23835.got.cif
#   From: 2010.05.17/outbox.cif.g08.bks.cpg/sg8_12_cif.got.tgz:23835.got - 2010.06.03 19:46:02.
