data_PCOD9133225
_publ_section_title
;
Structure prediction by ZEFSAII (Michael W. Deem and Ramdas Pophale) SiO2 
 PCOD9133225
Probable space group: C M
;
_chemical_formula_sum "Si O2"
_cell_formula_units_Z 18
_cell_length_a 7.257311
_cell_length_b 24.146611
_cell_length_c 6.967506
_cell_angle_alpha 90.000000
_cell_angle_beta 142.098021
_cell_angle_gamma 90.000000
_cell_volume 750.064467
_symmetry_space_group_name_H-M "C M"
_symmetry_group_IT_number 8
_symmetry_cell_setting 'monoclinic'
loop_
_space_group_symop_operation_xyz
x,y,z
x,-y,z
1/2+x,1/2+y,z
1/2+x,1/2-y,z
loop_
_atom_site_type_symbol
_atom_site_label
_atom_site_fract_x
_atom_site_fract_y
_atom_site_fract_z
Si Si1 0.562470 0.150292 0.471200
Si Si2 0.023780 0.194334 0.291923
Si Si3 0.712632 0.500000 0.497121
Si Si4 0.192125 0.804726 0.873296
Si Si5 0.216192 0.416425 0.935795
O O1 0.310346 0.179702 0.395696
O O2 0.659589 0.094777 0.661666
O O3 0.863570 0.185704 0.692997
O O4 0.400055 0.146469 0.132257
O O5 0.135801 0.196794 0.601696
O O6 0.859033 0.249704 0.085207
O O7 0.789623 0.144043 0.077623
O O8 0.930310 0.451030 0.767757
O O9 0.504601 0.452355 0.221944
#
# Coordination Sequence:
#
# PCOD9133225 Si02
#       5
#     4   4   2   4   4
#     4  12  27  49  70 108 150 197 246 301 357 448
#     4  12  29  48  72 111 153 205 240 301 359 452
#     4  10  22  40  82 106 132 194 244 320 366 432
#     4  12  31  42  75 110 156 197 249 287 370 440
#     4  11  22  46  74 109 142 187 256 297 379 426
#
# _framework density 23.997938999999999
#
# number of rings (size 3 to 8) (size 9 to 14) (size 15 to 20)
#    0.000    0.444    4.444    1.333    9.333    1.778 
#    0.000    0.000    0.000   26.667    0.000    0.000 
#    0.000    0.000    0.000    0.000    0.000    0.000 
#
# Total GULP energy -50137.986714 kJ/mol
# GULP energy per Si atom -5570.887413 kJ/mol
# Density = 2.394332 g / cm^3
# Si number density = 23.997939 Si / 1000 Ang^3
#
#
#
# Elastic Constant Matrix: (Units=GPa)
#
#
# Indices 1 2 3 4 5 6 
#
# 1 89.9948 -14.0723 32.7815 0.0000 5.9899 0.0000
# 2 -14.0723 66.6393 40.5065 0.0000 -4.5669 0.0000
# 3 32.7815 40.5065 213.4553 0.0000 -9.6684 0.0000
# 4 0.0000 0.0000 0.0000 86.6573 0.0000 3.7240
# 5 5.9899 -4.5669 -9.6684 0.0000 58.2236 0.0000
# 6 0.0000 0.0000 0.0000 3.7240 0.0000 -12.5864
#
#
#
# Elastic Compliance Matrix: (Units=1/GPa)
#
#
# Indices 1 2 3 4 5 6 
#
# 1 0.012948 0.004389 -0.002888 0.000000 -0.001467 0.000000
# 2 0.004389 0.018488 -0.004169 0.000000 0.000306 0.000000
# 3 -0.002888 -0.004169 0.005963 0.000000 0.000960 0.000000
# 4 0.000000 0.000000 0.000000 0.011395 0.000000 0.003371
# 5 -0.001467 0.000306 0.000960 0.000000 0.017510 0.000000
# 6 0.000000 0.000000 0.000000 0.003371 0.000000 -0.078453
#
#
# Mechanical properties :
#
#
# Convention : Reuss Voigt Hill
#
# Bulk Modulus (GPa) = 31.18807 54.28010 42.73408
# Shear Modulus (GPa) = 1291.37996 47.18382 669.28189
#
# Velocity S-wave (km/s) = 23.22261 4.43895 16.71816
# Velocity P-wave (km/s) = 27.05692 6.99572 19.76129
#
# Compressibility (1/GPa) = 0.03206354
#
# Stress axis : x y z
#
# Youngs Moduli (GPa) = 77.23442 54.08978 167.70510
#
# Poissons Ratio (x) = -0.23740 0.48429
# Poissons Ratio (y) = -0.33898 0.69908
# Poissons Ratio (z) = 0.22303 0.22547
#
# Static dielectric constant tensor:
#      x y z
#    x 1.992340 0.000000 -0.007050 
#    y 0.000000 1.966860 0.000000 
#    z -0.007050 0.000000 1.930430 
# 
# From -- ./inp_files/9004.got.cif
#   From: 2010.05.17/outbox.cif.g08.bks.cpg/sg8_5_cif.got.tgz:9004.got - 2010.06.03 19:46:02.
