data_PCOD9133808
_publ_section_title
;
Structure prediction by ZEFSAII (Michael W. Deem and Ramdas Pophale) SiO2 
 PCOD9133808
Probable space group: C C
;
_chemical_formula_sum "Si O2"
_cell_formula_units_Z 28
_cell_length_a 18.339158
_cell_length_b 7.628176
_cell_length_c 13.221415
_cell_angle_alpha 90.000000
_cell_angle_beta 37.800175
_cell_angle_gamma 90.000000
_cell_volume 1133.637918
_symmetry_space_group_name_H-M "C C"
_symmetry_group_IT_number 9
_symmetry_cell_setting 'monoclinic'
loop_
_space_group_symop_operation_xyz
x,y,z
x,-y,1/2+z
1/2+x,1/2+y,z
1/2+x,1/2-y,1/2+z
loop_
_atom_site_type_symbol
_atom_site_label
_atom_site_fract_x
_atom_site_fract_y
_atom_site_fract_z
Si Si1 0.784880 0.741952 0.345250
Si Si2 0.602052 0.454828 0.577110
Si Si3 0.907302 0.146138 0.909225
Si Si4 0.779744 0.626893 0.052437
Si Si5 0.472223 0.842819 0.479941
Si Si6 0.076859 0.939018 0.379132
Si Si7 0.719709 0.027186 0.747753
O O1 0.658291 0.648064 0.495033
O O2 0.854172 0.747722 0.374270
O O3 0.867332 0.637609 0.176501
O O4 0.762964 0.927743 0.313661
O O5 0.478941 0.486088 0.772201
O O6 0.709307 0.366372 0.523377
O O7 0.579943 0.378223 0.490857
O O8 0.010188 0.190604 0.876133
O O9 0.797078 0.113403 0.105193
O O10 0.918952 0.609049 0.927563
O O11 0.705822 0.479019 0.193057
O O12 0.751032 0.805400 0.142600
O O13 0.512575 0.635084 0.443946
O O14 0.579244 0.965611 0.395925
#
# Coordination Sequence:
#
# PCOD9133808 Si02
#       7
#     4   4   4   4   4   4   4
#     4  11  19  36  61  89 111 153 200 234 285 347
#     4  11  20  35  61  88 112 156 194 236 289 348
#     4  11  20  33  61  87 114 151 200 235 283 349
#     4   9  19  32  60  85 111 149 199 235 281 344
#     4  10  16  36  57  83 113 146 192 238 273 338
#     4  10  17  34  59  82 109 150 193 234 279 341
#     4  10  19  36  59  86 116 153 194 238 284 345
#
# _framework density 24.699242000000002
#
# number of rings (size 3 to 8) (size 9 to 14) (size 15 to 20)
#    0.000    1.714    8.571    0.000    0.000    0.000 
#    5.143    0.000   12.571    0.000    0.000    0.000 
#    0.000    0.000    0.000    0.000    0.000    0.000 
#
# Total GULP energy -78060.069127 kJ/mol
# GULP energy per Si atom -5575.719223 kJ/mol
# Density = 2.464303 g / cm^3
# Si number density = 24.699242 Si / 1000 Ang^3
#
#
#
# Elastic Constant Matrix: (Units=GPa)
#
#
# Indices 1 2 3 4 5 6 
#
# 1 200.5418 19.7916 30.7698 -0.0001 19.9285 0.0000
# 2 19.7916 52.5363 6.3449 -0.0004 0.5623 0.0003
# 3 30.7698 6.3449 67.1368 -0.0001 -2.3298 0.0002
# 4 -0.0001 -0.0004 -0.0001 8.1744 0.0002 7.7018
# 5 19.9285 0.5623 -2.3298 0.0002 53.6242 -0.0001
# 6 0.0000 0.0003 0.0002 7.7018 -0.0001 33.5772
#
#
#
# Elastic Compliance Matrix: (Units=1/GPa)
#
#
# Indices 1 2 3 4 5 6 
#
# 1 0.005783 -0.001846 -0.002554 0.000000 -0.002241 0.000000
# 2 -0.001846 0.019848 -0.001015 0.000001 0.000434 0.000000
# 3 -0.002554 -0.001015 0.016219 0.000000 0.001664 0.000000
# 4 0.000000 0.000001 0.000000 0.156059 -0.000001 -0.035796
# 5 -0.002241 0.000434 0.001664 -0.000001 0.019549 0.000000
# 6 0.000000 0.000000 0.000000 -0.035796 0.000000 0.037993
#
#
# Mechanical properties :
#
#
# Convention : Reuss Voigt Hill
#
# Bulk Modulus (GPa) = 32.23631 48.22528 40.23080
# Shear Modulus (GPa) = 18.07530 36.62907 27.35218
#
# Velocity S-wave (km/s) = 2.70814 3.85516 3.33139
# Velocity P-wave (km/s) = 4.78107 6.27564 5.57863
#
# Compressibility (1/GPa) = 0.03102092
#
# Stress axis : x y z
#
# Youngs Moduli (GPa) = 172.91403 50.38323 61.65591
#
# Poissons Ratio (x) = 0.09302 0.15746
# Poissons Ratio (y) = 0.31924 0.06255
# Poissons Ratio (z) = 0.44159 0.05112
#
# Static dielectric constant tensor:
#      x y z
#    x 2.039400 0.000000 -0.029910 
#    y 0.000000 2.105220 0.000000 
#    z -0.029910 0.000000 1.969590 
# 
# From -- ./inp_files/18045.got.cif
#   From: 2010.05.17/outbox.cif.g08.bks.cpg/sg9_10_cif.got.tgz:18045.got - 2010.06.03 20:04:27.
