data_PCOD9133859
_publ_section_title
;
Structure prediction by ZEFSAII (Michael W. Deem and Ramdas Pophale) SiO2 
 PCOD9133859
Probable space group: C C
;
_chemical_formula_sum "Si O2"
_cell_formula_units_Z 32
_cell_length_a 6.485529
_cell_length_b 13.547195
_cell_length_c 15.861416
_cell_angle_alpha 90.000000
_cell_angle_beta 67.327763
_cell_angle_gamma 90.000000
_cell_volume 1285.905396
_symmetry_space_group_name_H-M "C C"
_symmetry_group_IT_number 9
_symmetry_cell_setting 'monoclinic'
loop_
_space_group_symop_operation_xyz
x,y,z
x,-y,1/2+z
1/2+x,1/2+y,z
1/2+x,1/2-y,1/2+z
loop_
_atom_site_type_symbol
_atom_site_label
_atom_site_fract_x
_atom_site_fract_y
_atom_site_fract_z
Si Si1 0.075230 0.481391 0.703350
Si Si2 0.381309 0.214875 0.146808
Si Si3 0.401081 0.352892 0.729808
Si Si4 0.024353 0.124835 0.400649
Si Si5 0.370380 0.001129 0.920872
Si Si6 0.598173 0.081263 0.541350
Si Si7 0.667641 0.132537 0.970997
Si Si8 0.945655 0.229222 0.806103
O O1 0.325166 0.438506 0.677647
O O2 0.029043 0.574770 0.649886
O O3 0.933062 0.389094 0.688484
O O4 0.002206 0.495494 0.811635
O O5 0.410440 0.297572 0.213740
O O6 0.124334 0.201021 0.162120
O O7 0.579397 0.215688 0.048189
O O8 0.448859 0.392931 0.816286
O O9 0.186302 0.280428 0.774162
O O10 0.228651 0.201971 0.362583
O O11 0.128512 0.031086 0.430858
O O12 0.800502 0.152703 0.486681
O O13 0.453026 0.104629 0.946010
O O14 0.434184 0.923359 0.986527
O O15 0.688481 0.968374 0.519619
O O16 0.890902 0.146812 0.882509
#
# Coordination Sequence:
#
# PCOD9133859 Si02
#       8
#     4   4   4   4   4   4   4   4
#     4  10  17  34  56  85 117 154 200 250 298 371
#     4   9  19  36  59  84 115 163 209 234 309 380
#     4  10  17  33  62  83 114 165 204 240 296 379
#     4  11  18  36  59  86 114 157 204 239 310 367
#     4  10  19  36  58  85 120 151 200 257 295 360
#     4   9  21  33  56  88 115 153 197 246 305 363
#     4   9  21  40  57  88 126 153 201 260 305 351
#     4  10  20  38  59  83 121 164 197 252 302 371
#
# _framework density 24.885190000000001
#
# number of rings (size 3 to 8) (size 9 to 14) (size 15 to 20)
#    0.750    1.500    5.000    0.000    1.750    0.000 
#    6.750    0.000    0.000    0.000    0.000    0.000 
#    0.000    0.000    0.000    0.000    0.000    0.000 
#
# Total GULP energy -89073.132910 kJ/mol
# GULP energy per Si atom -5567.070807 kJ/mol
# Density = 2.482855 g / cm^3
# Si number density = 24.885190 Si / 1000 Ang^3
#
#
#
# Elastic Constant Matrix: (Units=GPa)
#
#
# Indices 1 2 3 4 5 6 
#
# 1 123.0859 11.2447 21.3968 0.0000 9.3688 0.0000
# 2 11.2447 36.1395 10.6557 0.0000 5.3350 0.0000
# 3 21.3968 10.6557 69.9883 0.0000 12.8676 0.0000
# 4 0.0000 0.0000 0.0000 29.0970 0.0000 -2.2148
# 5 9.3688 5.3350 12.8676 0.0000 30.7861 0.0000
# 6 0.0000 0.0000 0.0000 -2.2148 0.0000 19.7839
#
#
#
# Elastic Compliance Matrix: (Units=1/GPa)
#
#
# Indices 1 2 3 4 5 6 
#
# 1 0.008778 -0.001889 -0.002129 0.000000 -0.001454 0.000000
# 2 -0.001889 0.029718 -0.003364 0.000000 -0.003169 0.000000
# 3 -0.002129 -0.003364 0.016492 0.000000 -0.005662 0.000000
# 4 0.000000 0.000000 0.000000 0.034663 0.000000 0.003881
# 5 -0.001454 -0.003169 -0.005662 0.000000 0.035841 0.000000
# 6 0.000000 0.000000 0.000000 0.003881 0.000000 0.050981
#
#
# Mechanical properties :
#
#
# Convention : Reuss Voigt Hill
#
# Bulk Modulus (GPa) = 24.86076 35.08979 29.97527
# Shear Modulus (GPa) = 24.43265 28.32783 26.38024
#
# Velocity S-wave (km/s) = 3.13679 3.37759 3.25942
# Velocity P-wave (km/s) = 4.80949 5.41684 5.12217
#
# Compressibility (1/GPa) = 0.04022403
#
# Stress axis : x y z
#
# Youngs Moduli (GPa) = 113.92530 33.64955 60.63490
#
# Poissons Ratio (x) = 0.06356 0.12907
# Poissons Ratio (y) = 0.21519 0.20401
# Poissons Ratio (z) = 0.24250 0.11321
#
# Static dielectric constant tensor:
#      x y z
#    x 1.957370 0.000000 0.027820 
#    y 0.000000 2.143290 0.000000 
#    z 0.027820 0.000000 2.155580 
# 
# From -- ./inp_files/22146.got.cif
#   From: 2010.05.17/outbox.cif.g08.bks.cpg/sg9_12_cif.got.tgz:22146.got - 2010.06.03 20:04:27.
