data_PCOD9133857
_publ_section_title
;
Structure prediction by ZEFSAII (Michael W. Deem and Ramdas Pophale) SiO2 
 PCOD9133857
Probable space group: C C
;
_chemical_formula_sum "Si O2"
_cell_formula_units_Z 32
_cell_length_a 21.059620
_cell_length_b 9.412380
_cell_length_c 26.084067
_cell_angle_alpha 90.000000
_cell_angle_beta 159.963042
_cell_angle_gamma 90.000000
_cell_volume 1771.519237
_symmetry_space_group_name_H-M "C C"
_symmetry_group_IT_number 9
_symmetry_cell_setting 'monoclinic'
loop_
_space_group_symop_operation_xyz
x,y,z
x,-y,1/2+z
1/2+x,1/2+y,z
1/2+x,1/2-y,1/2+z
loop_
_atom_site_type_symbol
_atom_site_label
_atom_site_fract_x
_atom_site_fract_y
_atom_site_fract_z
Si Si1 0.956220 0.213687 0.685980
Si Si2 0.572184 0.617058 0.533260
Si Si3 0.678743 0.849758 0.688221
Si Si4 0.300856 0.058732 0.137591
Si Si5 0.688482 0.635453 0.456172
Si Si6 0.188924 0.462934 0.477144
Si Si7 0.251538 0.610514 0.130995
Si Si8 0.854224 0.408745 0.515806
O O1 0.841671 0.284566 0.646224
O O2 0.953984 0.326880 0.638332
O O3 0.849803 0.073372 0.586398
O O4 0.162100 0.172839 0.858994
O O5 0.642660 0.686607 0.640423
O O6 0.352483 0.629837 0.357939
O O7 0.661536 0.472003 0.579481
O O8 0.656747 0.735107 0.558678
O O9 0.726730 0.931765 0.671474
O O10 0.492220 0.903099 0.572853
O O11 0.231546 0.967624 0.036544
O O12 0.501033 0.000935 0.306105
O O13 0.737736 0.799105 0.503055
O O14 0.467210 0.624381 0.281318
O O15 0.796610 0.565113 0.490911
O O16 0.157262 0.475838 0.514360
#
# Coordination Sequence:
#
# PCOD9133857 Si02
#       8
#     4   4   4   4   4   4   4   4
#     4  11  24  36  56  86 126 153 190 249 306 352
#     4  10  17  33  59  86 115 150 201 241 285 346
#     4  10  20  34  57  86 120 155 200 240 291 351
#     4  11  20  35  55  91 115 144 199 243 301 338
#     4  11  19  35  62  86 114 150 200 247 287 349
#     4  12  19  36  59  89 114 149 195 251 303 342
#     4  10  18  32  59  88 109 145 196 251 277 339
#     4  11  23  39  55  90 123 160 193 242 302 359
#
# _framework density 18.063592
#
# number of rings (size 3 to 8) (size 9 to 14) (size 15 to 20)
#    0.750    0.500    6.250    1.500    0.000    0.000 
#    0.000    0.000    0.000    3.000    0.000    0.000 
#    0.000    0.000    0.000    0.000    0.000    0.000 
#
# Total GULP energy -89084.525651 kJ/mol
# GULP energy per Si atom -5567.782853 kJ/mol
# Density = 1.802248 g / cm^3
# Si number density = 18.063592 Si / 1000 Ang^3
#
#
#
# Elastic Constant Matrix: (Units=GPa)
#
#
# Indices 1 2 3 4 5 6 
#
# 1 55.2443 22.2925 7.4203 0.0010 21.2856 -0.0001
# 2 22.2925 67.8728 28.7975 -0.0025 10.2611 0.0001
# 3 7.4203 28.7975 88.2996 -0.0047 4.8939 -0.0001
# 4 0.0010 -0.0025 -0.0047 13.9518 -0.0003 2.5034
# 5 21.2856 10.2611 4.8939 -0.0003 28.0571 0.0000
# 6 -0.0001 0.0001 -0.0001 2.5034 0.0000 21.4720
#
#
#
# Elastic Compliance Matrix: (Units=1/GPa)
#
#
# Indices 1 2 3 4 5 6 
#
# 1 0.027982 -0.006704 0.000884 -0.000003 -0.018931 0.000000
# 2 -0.006704 0.019534 -0.005749 0.000002 -0.001056 0.000000
# 3 0.000884 -0.005749 0.013174 0.000003 -0.000866 0.000000
# 4 -0.000003 0.000002 0.000003 0.073207 0.000002 -0.008535
# 5 -0.018931 -0.001056 -0.000866 0.000002 0.050541 0.000000
# 6 0.000000 0.000000 0.000000 -0.008535 0.000000 0.047567
#
#
# Mechanical properties :
#
#
# Convention : Reuss Voigt Hill
#
# Bulk Modulus (GPa) = 26.62924 36.49302 31.56113
# Shear Modulus (GPa) = 18.68051 22.88994 20.78522
#
# Velocity S-wave (km/s) = 3.21931 3.56362 3.39583
# Velocity P-wave (km/s) = 5.34720 6.09745 5.73461
#
# Compressibility (1/GPa) = 0.03755271
#
# Stress axis : x y z
#
# Youngs Moduli (GPa) = 35.73745 51.19294 75.90888
#
# Poissons Ratio (x) = 0.34318 -0.06711
# Poissons Ratio (y) = 0.23957 0.43639
# Poissons Ratio (z) = -0.03159 0.29430
#
# Static dielectric constant tensor:
#      x y z
#    x 1.639300 0.000000 -0.018580 
#    y 0.000000 1.637270 0.000000 
#    z -0.018580 0.000000 1.614050 
# 
# From -- ./inp_files/36976.got.cif
#   From: 2010.05.17/outbox.cif.g08.bks.cpg/sg9_19_cif.got.tgz:36976.got - 2010.06.03 20:04:27.
