data_PCOD9133277
_publ_section_title
;
Structure prediction by ZEFSAII (Michael W. Deem and Ramdas Pophale) SiO2 
 PCOD9133277
Probable space group: C M
;
_chemical_formula_sum "Si O2"
_cell_formula_units_Z 26
_cell_length_a 9.797422
_cell_length_b 7.479213
_cell_length_c 19.735704
_cell_angle_alpha 90.000000
_cell_angle_beta 43.313947
_cell_angle_gamma 90.000000
_cell_volume 992.068359
_symmetry_space_group_name_H-M "C M"
_symmetry_group_IT_number 8
_symmetry_cell_setting 'monoclinic'
loop_
_space_group_symop_operation_xyz
x,y,z
x,-y,z
1/2+x,1/2+y,z
1/2+x,1/2-y,z
loop_
_atom_site_type_symbol
_atom_site_label
_atom_site_fract_x
_atom_site_fract_y
_atom_site_fract_z
Si Si1 0.602200 0.708126 0.913610
Si Si2 0.162667 0.200386 0.594398
Si Si3 0.628583 0.286193 0.402565
Si Si4 0.026417 0.715354 0.793676
Si Si5 0.243584 0.784202 0.208701
Si Si6 0.166121 0.706884 0.090969
Si Si7 0.150188 0.500000 0.497554
O O1 0.589541 0.500000 0.936855
O O2 0.639597 0.722270 0.819557
O O3 0.796500 0.780955 0.880633
O O4 0.384026 0.791154 0.003125
O O5 0.398989 0.235553 0.501346
O O6 0.109103 0.221968 0.692094
O O7 0.069765 0.345482 0.579031
O O8 0.113708 0.000000 0.590242
O O9 0.655262 0.500000 0.401067
O O10 0.669420 0.236660 0.310139
O O11 0.739564 0.157727 0.414722
O O12 0.028641 0.500000 0.792455
O O13 0.127412 0.712969 0.185817
O O14 0.473742 0.718135 0.122806
O O15 0.243319 0.000000 0.204968
O O16 0.179411 0.500000 0.065793
#
# Coordination Sequence:
#
# PCOD9133277 Si02
#       7
#     4   4   4   4   4   4   2
#     4  10  23  42  66  96 134 174 224 283 343 407
#     4  12  26  45  69 101 139 183 230 288 341 417
#     4  11  25  45  69 102 139 183 231 287 340 415
#     4  11  24  42  66  99 133 178 230 281 344 412
#     4  10  24  41  66  99 132 174 226 279 341 409
#     4  10  22  42  66  96 133 174 222 280 342 407
#     4  12  26  46  72  96 140 184 234 280 354 406
#
# _framework density 26.207868999999999
#
# number of rings (size 3 to 8) (size 9 to 14) (size 15 to 20)
#    0.000    1.231    2.308    1.846    5.385    2.462 
#    0.000    0.000    0.000    0.000    0.000    0.000 
#    0.000    0.000    0.000    0.000    0.000    0.000 
#
# Total GULP energy -72592.619828 kJ/mol
# GULP energy per Si atom -5584.047679 kJ/mol
# Density = 2.614822 g / cm^3
# Si number density = 26.207869 Si / 1000 Ang^3
#
#
#
# Elastic Constant Matrix: (Units=GPa)
#
#
# Indices 1 2 3 4 5 6 
#
# 1 96.3913 -7.5125 3.1768 0.0000 9.3183 0.0000
# 2 -7.5125 163.0726 11.9955 0.0000 18.7241 0.0000
# 3 3.1768 11.9955 103.7797 0.0000 13.1963 0.0000
# 4 0.0000 0.0000 0.0000 24.5191 0.0000 16.3364
# 5 9.3183 18.7241 13.1963 0.0000 52.2837 0.0000
# 6 0.0000 0.0000 0.0000 16.3364 0.0000 16.7554
#
#
#
# Elastic Compliance Matrix: (Units=1/GPa)
#
#
# Indices 1 2 3 4 5 6 
#
# 1 0.010643 0.000745 -0.000141 0.000000 -0.002128 0.000000
# 2 0.000745 0.006469 -0.000474 0.000000 -0.002330 0.000000
# 3 -0.000141 -0.000474 0.009991 0.000000 -0.002327 0.000000
# 4 0.000000 0.000000 0.000000 0.116399 0.000000 -0.113489
# 5 -0.002128 -0.002330 -0.002327 0.000000 0.020927 0.000000
# 6 0.000000 0.000000 0.000000 -0.113489 0.000000 0.170333
#
#
# Mechanical properties :
#
#
# Convention : Reuss Voigt Hill
#
# Bulk Modulus (GPa) = 36.54780 42.06256 39.30518
# Shear Modulus (GPa) = 14.55080 42.41721 28.48401
#
# Velocity S-wave (km/s) = 2.35884 4.02741 3.30032
# Velocity P-wave (km/s) = 4.62541 6.14094 5.43625
#
# Compressibility (1/GPa) = 0.02736143
#
# Stress axis : x y z
#
# Youngs Moduli (GPa) = 93.96005 154.58452 100.09219
#
# Poissons Ratio (x) = -0.11517 0.01414
# Poissons Ratio (y) = -0.07000 0.04747
# Poissons Ratio (z) = 0.01328 0.07332
#
# Static dielectric constant tensor:
#      x y z
#    x 2.425800 0.000000 -0.146410 
#    y 0.000000 1.957220 0.000000 
#    z -0.146410 0.000000 2.125140 
# 
# From -- ./inp_files/30444.got.cif
#   From: 2010.05.17/outbox.cif.g08.bks.cpg/sg8_16_cif.got.tgz:30444.got - 2010.06.03 19:46:02.
