data_PCOD9133278
_publ_section_title
;
Structure prediction by ZEFSAII (Michael W. Deem and Ramdas Pophale) SiO2 
 PCOD9133278
Probable space group: C M
;
_chemical_formula_sum "Si O2"
_cell_formula_units_Z 28
_cell_length_a 18.425945
_cell_length_b 9.864913
_cell_length_c 13.395739
_cell_angle_alpha 90.000000
_cell_angle_beta 148.547397
_cell_angle_gamma 90.000000
_cell_volume 1270.538999
_symmetry_space_group_name_H-M "C M"
_symmetry_group_IT_number 8
_symmetry_cell_setting 'monoclinic'
loop_
_space_group_symop_operation_xyz
x,y,z
x,-y,z
1/2+x,1/2+y,z
1/2+x,1/2-y,z
loop_
_atom_site_type_symbol
_atom_site_label
_atom_site_fract_x
_atom_site_fract_y
_atom_site_fract_z
Si Si1 0.906520 0.659244 0.359410
Si Si2 0.073818 0.853624 0.964887
Si Si3 0.022997 0.743599 0.702887
Si Si4 0.107234 0.152301 0.495791
Si Si5 0.054598 0.661501 0.119803
Si Si6 0.776727 0.656692 0.902193
Si Si7 0.256751 0.146169 0.463746
O O1 0.946749 0.500000 0.418373
O O2 0.741112 0.662221 0.154543
O O3 0.951982 0.745018 0.510579
O O4 0.990907 0.731845 0.369979
O O5 0.022121 0.735654 0.977298
O O6 0.039783 0.000000 0.969464
O O7 0.019091 0.851933 0.787436
O O8 0.186259 0.742678 0.864821
O O9 0.921292 0.638633 0.638338
O O10 0.201394 0.156818 0.705667
O O11 0.206731 0.168187 0.517522
O O12 0.044988 0.000000 0.417752
O O13 0.065781 0.500000 0.120885
O O14 0.192209 0.732969 0.323531
O O15 0.934441 0.690206 0.060368
O O16 0.768402 0.500000 0.930882
O O17 0.198450 0.000000 0.362210
#
# Coordination Sequence:
#
# PCOD9133278 Si02
#       7
#     4   4   4   4   4   4   4
#     4  10  22  42  66  96 135 174 217 276 332 390
#     4  11  24  43  68  97 135 178 222 277 337 395
#     4  11  22  40  69  96 129 175 221 268 332 397
#     4   9  20  39  65  90 126 173 216 269 332 393
#     4  11  24  41  66  97 133 177 226 276 331 401
#     4   9  20  40  62  92 129 166 214 274 330 389
#     4  11  23  43  66  94 137 179 220 278 338 393
#
# _framework density 22.037890000000001
#
# number of rings (size 3 to 8) (size 9 to 14) (size 15 to 20)
#    0.000    1.714    1.429    2.143    2.000    5.143 
#    0.000   10.000    0.000    0.000    0.000    0.000 
#    0.000    0.000    0.000    0.000    0.000    0.000 
#
# Total GULP energy -77972.091991 kJ/mol
# GULP energy per Si atom -5569.435142 kJ/mol
# Density = 2.198773 g / cm^3
# Si number density = 22.037890 Si / 1000 Ang^3
#
#
#
# Elastic Constant Matrix: (Units=GPa)
#
#
# Indices 1 2 3 4 5 6 
#
# 1 153.0381 72.2825 23.5484 0.0000 11.8664 0.0000
# 2 72.2825 109.4838 46.2148 0.0000 8.8907 0.0000
# 3 23.5484 46.2148 51.7138 0.0000 4.6925 0.0000
# 4 0.0000 0.0000 0.0000 16.7100 0.0000 9.2327
# 5 11.8664 8.8907 4.6925 0.0000 44.7296 0.0000
# 6 0.0000 0.0000 0.0000 9.2327 0.0000 6.3607
#
#
#
# Elastic Compliance Matrix: (Units=1/GPa)
#
#
# Indices 1 2 3 4 5 6 
#
# 1 0.009715 -0.007206 0.002140 0.000000 -0.001369 0.000000
# 2 -0.007206 0.020119 -0.014649 0.000000 -0.000551 0.000000
# 3 0.002140 -0.014649 0.031541 0.000000 -0.000965 0.000000
# 4 0.000000 0.000000 0.000000 0.302252 0.000000 -0.438726
# 5 -0.001369 -0.000551 -0.000965 0.000000 0.022931 0.000000
# 6 0.000000 0.000000 0.000000 -0.438726 0.000000 0.794036
#
#
# Mechanical properties :
#
#
# Convention : Reuss Voigt Hill
#
# Bulk Modulus (GPa) = 45.56535 66.48078 56.02306
# Shear Modulus (GPa) = 4.07386 25.03938 14.55662
#
# Velocity S-wave (km/s) = 1.36110 3.37441 2.57286
# Velocity P-wave (km/s) = 4.81569 6.73901 5.85684
#
# Compressibility (1/GPa) = 0.02194650
#
# Stress axis : x y z
#
# Youngs Moduli (GPa) = 102.93686 49.70315 31.70459
#
# Poissons Ratio (x) = 0.35816 -0.06786
# Poissons Ratio (y) = 0.74177 0.46443
# Poissons Ratio (z) = -0.22032 0.72809
#
# Static dielectric constant tensor:
#      x y z
#    x 1.841350 0.000000 -0.015500 
#    y 0.000000 1.804990 0.000000 
#    z -0.015500 0.000000 1.830210 
# 
# From -- ./inp_files/27841.got.cif
#   From: 2010.05.17/outbox.cif.g08.bks.cpg/sg8_14_cif.got.tgz:27841.got - 2010.06.03 19:46:02.
