data_PCOD9133924
_publ_section_title
;
Structure prediction by ZEFSAII (Michael W. Deem and Ramdas Pophale) SiO2 
 PCOD9133924
Probable space group: C C
;
_chemical_formula_sum "Si O2"
_cell_formula_units_Z 32
_cell_length_a 26.300254
_cell_length_b 7.095678
_cell_length_c 6.815420
_cell_angle_alpha 90.000000
_cell_angle_beta 69.977819
_cell_angle_gamma 90.000000
_cell_volume 1195.008658
_symmetry_space_group_name_H-M "C C"
_symmetry_group_IT_number 9
_symmetry_cell_setting 'monoclinic'
loop_
_space_group_symop_operation_xyz
x,y,z
x,-y,1/2+z
1/2+x,1/2+y,z
1/2+x,1/2-y,1/2+z
loop_
_atom_site_type_symbol
_atom_site_label
_atom_site_fract_x
_atom_site_fract_y
_atom_site_fract_z
Si Si1 0.279420 0.871297 0.292060
Si Si2 0.775477 0.207828 0.691841
Si Si3 0.018481 0.204540 0.801306
Si Si4 0.700286 0.814635 0.586927
Si Si5 0.452190 0.649710 0.544542
Si Si6 0.376225 0.333647 0.827721
Si Si7 0.619198 0.337824 0.881873
Si Si8 0.604614 0.225435 0.457481
O O1 0.238726 0.803141 0.179102
O O2 0.340486 0.788292 0.224658
O O3 0.250071 0.795451 0.527755
O O4 0.289869 0.094541 0.276474
O O5 0.828267 0.106088 0.539966
O O6 0.671145 0.294330 0.946213
O O7 0.743386 0.079556 0.888136
O O8 0.043768 0.310513 0.957505
O O9 0.069159 0.214932 0.586631
O O10 0.971554 0.262652 0.711136
O O11 0.999325 0.992858 0.895808
O O12 0.616921 0.562805 0.864027
O O13 0.651686 0.893297 0.786648
O O14 0.409402 0.498816 0.684599
O O15 0.422133 0.758489 0.409008
O O16 0.611946 0.242166 0.679648
#
# Coordination Sequence:
#
# PCOD9133924 Si02
#       8
#     4   4   4   4   4   4   4   4
#     4  10  20  34  50  75 106 149 183 230 260 317
#     4  10  20  34  50  75 106 149 183 230 260 317
#     4  10  18  29  49  67 103 149 168 216 268 327
#     4  11  19  27  47  68 107 145 177 207 274 317
#     4  10  18  38  54  74 108 152 186 226 270 316
#     4   9  23  34  54  79 100 156 193 223 274 318
#     4  11  18  25  41  72 103 143 171 202 264 356
#     4  11  18  25  41  72 103 143 171 202 264 356
#
# _framework density 26.778046
#
# number of rings (size 3 to 8) (size 9 to 14) (size 15 to 20)
#    0.750    1.000    5.000    1.500    1.750    2.000 
#    0.000    0.000    0.000    0.000    0.000    0.000 
#    0.000    0.000  170.000    0.000    0.000    0.000 
#
# Total GULP energy -89203.999935 kJ/mol
# GULP energy per Si atom -5575.249996 kJ/mol
# Density = 2.671710 g / cm^3
# Si number density = 26.778046 Si / 1000 Ang^3
#
#
#
# Elastic Constant Matrix: (Units=GPa)
#
#
# Indices 1 2 3 4 5 6 
#
# 1 207.4814 38.8431 46.2409 0.0000 42.2837 0.0000
# 2 38.8431 84.9920 18.8279 0.0000 7.0628 0.0000
# 3 46.2409 18.8279 170.7851 0.0000 -2.2888 0.0000
# 4 0.0000 0.0000 0.0000 -22.3947 0.0000 -4.0843
# 5 42.2837 7.0628 -2.2888 0.0000 59.8118 0.0000
# 6 0.0000 0.0000 0.0000 -4.0843 0.0000 27.5319
#
#
#
# Elastic Compliance Matrix: (Units=1/GPa)
#
#
# Indices 1 2 3 4 5 6 
#
# 1 0.006482 -0.002252 -0.001565 0.000000 -0.004376 0.000000
# 2 -0.002252 0.012974 -0.000820 0.000000 0.000029 0.000000
# 3 -0.001565 -0.000820 0.006389 0.000000 0.001448 0.000000
# 4 0.000000 0.000000 0.000000 -0.043477 0.000000 -0.006450
# 5 -0.004376 0.000029 0.001448 0.000000 0.019865 0.000000
# 6 0.000000 0.000000 0.000000 -0.006450 0.000000 0.035365
#
#
# Mechanical properties :
#
#
# Convention : Reuss Voigt Hill
#
# Bulk Modulus (GPa) = 60.34949 74.56470 67.45710
# Shear Modulus (GPa) = 95.42582 36.94625 66.18603
#
# Velocity S-wave (km/s) = 5.97605 3.71849 4.97697
# Velocity P-wave (km/s) = 8.37875 6.80751 7.63366
#
# Compressibility (1/GPa) = 0.01657015
#
# Stress axis : x y z
#
# Youngs Moduli (GPa) = 154.27105 77.07520 156.51922
#
# Poissons Ratio (x) = 0.17357 0.24502
# Poissons Ratio (y) = 0.34742 0.12838
# Poissons Ratio (z) = 0.24150 0.06322
#
# Static dielectric constant tensor:
#      x y z
#    x 2.210310 0.000000 0.017880 
#    y 0.000000 2.170100 0.000000 
#    z 0.017880 0.000000 2.183100 
# 
# From -- ./inp_files/12089.got.cif
#   From: 2010.05.17/outbox.cif.g08.bks.cpg/sg9_7_cif.got.tgz:12089.got - 2010.06.03 20:04:27.
