data_PCOD9133001
_publ_section_title
;
Structure prediction by ZEFSAII (Michael W. Deem and Ramdas Pophale) SiO2 
 PCOD9133001
Probable space group: C M
;
_chemical_formula_sum "Si O2"
_cell_formula_units_Z 28
_cell_length_a 10.114000
_cell_length_b 13.800026
_cell_length_c 9.086622
_cell_angle_alpha 90.000000
_cell_angle_beta 72.344810
_cell_angle_gamma 90.000000
_cell_volume 1208.515355
_symmetry_space_group_name_H-M "C M"
_symmetry_group_IT_number 8
_symmetry_cell_setting 'monoclinic'
loop_
_space_group_symop_operation_xyz
x,y,z
x,-y,z
1/2+x,1/2+y,z
1/2+x,1/2-y,z
loop_
_atom_site_type_symbol
_atom_site_label
_atom_site_fract_x
_atom_site_fract_y
_atom_site_fract_z
Si Si1 0.383470 0.883477 0.905850
Si Si2 0.828479 0.612809 0.248375
Si Si3 0.620227 0.384054 0.813345
Si Si4 0.606315 0.110926 0.328667
Si Si5 0.209605 0.383871 0.759641
Si Si6 0.840655 0.116905 0.031597
Si Si7 0.165725 0.756192 0.535105
O O1 0.273337 0.858144 0.817924
O O2 0.544208 0.861867 0.825978
O O3 0.379130 0.000000 0.918808
O O4 0.327177 0.848316 0.082358
O O5 0.779870 0.500000 0.268050
O O6 0.748306 0.676485 0.393733
O O7 0.988640 0.611473 0.244756
O O8 0.613598 0.500000 0.794770
O O9 0.502079 0.355925 0.970922
O O10 0.592295 0.329391 0.671639
O O11 0.571972 0.184128 0.470338
O O12 0.617470 0.000000 0.379932
O O13 0.748462 0.143438 0.202384
O O14 0.228840 0.500000 0.730648
O O15 0.275682 0.357295 0.894785
O O16 0.255374 0.318321 0.606286
O O17 0.834617 0.000000 0.036650
#
# Coordination Sequence:
#
# PCOD9133001 Si02
#       7
#     4   4   4   4   4   4   4
#     4   9  19  42  69  91 122 173 226 268 311 379
#     4  10  22  44  69  94 127 172 222 269 319 384
#     4  10  23  41  64  96 131 168 214 270 330 381
#     4  10  22  44  69  94 127 172 222 269 318 384
#     4  10  21  39  64  92 125 170 223 266 312 382
#     4   9  19  42  67  87 123 171 218 269 318 374
#     4  12  26  36  62  96 139 162 205 261 340 384
#
# _framework density 23.168924000000001
#
# number of rings (size 3 to 8) (size 9 to 14) (size 15 to 20)
#    0.000    2.000    1.429    0.857    4.000    2.286 
#    2.571    0.000    0.000    0.000    0.000    0.000 
#    0.000    0.000    0.000    0.000    0.000    0.000 
#
# Total GULP energy -78259.503427 kJ/mol
# GULP energy per Si atom -5589.964530 kJ/mol
# Density = 2.311619 g / cm^3
# Si number density = 23.168924 Si / 1000 Ang^3
#
#
#
# Elastic Constant Matrix: (Units=GPa)
#
#
# Indices 1 2 3 4 5 6 
#
# 1 66.8918 2.6378 8.2090 0.0000 0.2819 0.0000
# 2 2.6378 121.5463 35.1566 0.0000 -0.8005 0.0000
# 3 8.2090 35.1566 91.9574 0.0000 4.0907 0.0000
# 4 0.0000 0.0000 0.0000 48.8469 0.0000 8.5988
# 5 0.2819 -0.8005 4.0907 0.0000 31.0748 0.0000
# 6 0.0000 0.0000 0.0000 8.5988 0.0000 10.5720
#
#
#
# Elastic Compliance Matrix: (Units=1/GPa)
#
#
# Indices 1 2 3 4 5 6 
#
# 1 0.015116 0.000071 -0.001379 0.000000 0.000046 0.000000
# 2 0.000071 0.009266 -0.003580 0.000000 0.000709 0.000000
# 3 -0.001379 -0.003580 0.012443 0.000000 -0.001718 0.000000
# 4 0.000000 0.000000 0.000000 0.023893 0.000000 -0.019434
# 5 0.000046 0.000709 -0.001718 0.000000 0.032424 0.000000
# 6 0.000000 0.000000 0.000000 -0.019434 0.000000 0.110396
#
#
# Mechanical properties :
#
#
# Convention : Reuss Voigt Hill
#
# Bulk Modulus (GPa) = 36.97037 41.37803 39.17420
# Shear Modulus (GPa) = 22.48907 33.72489 28.10698
#
# Velocity S-wave (km/s) = 3.11892 3.81938 3.48678
# Velocity P-wave (km/s) = 5.38161 6.11133 5.75804
#
# Compressibility (1/GPa) = 0.02704869
#
# Stress axis : x y z
#
# Youngs Moduli (GPa) = 66.15634 107.92063 80.36688
#
# Poissons Ratio (x) = -0.00766 0.11079
# Poissons Ratio (y) = -0.00470 0.28775
# Poissons Ratio (z) = 0.09120 0.38640
#
# Static dielectric constant tensor:
#      x y z
#    x 1.840370 0.000000 -0.006730 
#    y 0.000000 1.911010 0.000000 
#    z -0.006730 0.000000 1.852010 
# 
# From -- ./inp_files/10624.got.cif
#   From: 2010.05.17/outbox.cif.g08.bks.cpg/sg8_6_cif.got.tgz:10624.got - 2010.06.03 19:46:02.
