data_PCOD9133024
_publ_section_title
;
Structure prediction by ZEFSAII (Michael W. Deem and Ramdas Pophale) SiO2 
 PCOD9133024
Probable space group: C M
;
_chemical_formula_sum "Si O2"
_cell_formula_units_Z 20
_cell_length_a 19.148657
_cell_length_b 10.143899
_cell_length_c 5.261958
_cell_angle_alpha 90.000000
_cell_angle_beta 74.452878
_cell_angle_gamma 90.000000
_cell_volume 984.695419
_symmetry_space_group_name_H-M "C M"
_symmetry_group_IT_number 8
_symmetry_cell_setting 'monoclinic'
loop_
_space_group_symop_operation_xyz
x,y,z
x,-y,z
1/2+x,1/2+y,z
1/2+x,1/2-y,z
loop_
_atom_site_type_symbol
_atom_site_label
_atom_site_fract_x
_atom_site_fract_y
_atom_site_fract_z
Si Si1 0.923410 0.154383 0.778950
Si Si2 0.578981 0.774858 0.557793
Si Si3 0.652561 0.859109 0.995346
Si Si4 0.328762 0.654996 0.374206
Si Si5 0.714047 0.649119 0.259949
O O1 0.868050 0.180758 0.602695
O O2 0.996454 0.236829 0.675762
O O3 0.943084 0.000000 0.741190
O O4 0.885360 0.174292 0.087370
O O5 0.595148 0.853692 0.283468
O O6 0.633536 0.651434 0.460713
O O7 0.611048 0.845463 0.773152
O O8 0.703056 0.734172 0.011908
O O9 0.692117 0.000000 0.967794
O O10 0.305709 0.500000 0.389206
O O11 0.264499 0.756578 0.379966
O O12 0.739693 0.500000 0.202234
#
# Coordination Sequence:
#
# PCOD9133024 Si02
#       5
#     4   4   4   4   4
#     4  10  21  40  62  89 121 164 207 249 299 366
#     4  10  22  39  66  92 122 152 216 253 305 353
#     4  10  22  39  63  92 123 159 205 252 303 364
#     4  10  22  39  63  89 121 164 209 248 299 365
#     4  10  24  41  64  94 127 161 203 258 314 362
#
# _framework density 20.310848
#
# number of rings (size 3 to 8) (size 9 to 14) (size 15 to 20)
#    1.200    0.800    0.000    3.000    2.800    1.600 
#    0.000    6.000    0.000    0.000    0.000    0.000 
#    0.000    0.000    0.000    0.000    0.000    0.000 
#
# Total GULP energy -55752.071454 kJ/mol
# GULP energy per Si atom -5575.207145 kJ/mol
# Density = 2.026462 g / cm^3
# Si number density = 20.310848 Si / 1000 Ang^3
#
#
#
# Elastic Constant Matrix: (Units=GPa)
#
#
# Indices 1 2 3 4 5 6 
#
# 1 71.6861 40.9484 16.5628 0.0000 -7.6976 0.0000
# 2 40.9484 122.0888 12.9183 0.0000 -0.9326 0.0000
# 3 16.5628 12.9183 119.8504 0.0000 2.5215 0.0000
# 4 0.0000 0.0000 0.0000 488.3390 0.0000 -410.7786
# 5 -7.6976 -0.9326 2.5215 0.0000 29.9090 0.0000
# 6 0.0000 0.0000 0.0000 -410.7786 0.0000 379.1678
#
#
#
# Elastic Compliance Matrix: (Units=1/GPa)
#
#
# Indices 1 2 3 4 5 6 
#
# 1 0.018273 -0.005882 -0.001990 0.000000 0.004687 0.000000
# 2 -0.005882 0.010182 -0.000260 0.000000 -0.001175 0.000000
# 3 -0.001990 -0.000260 0.008673 0.000000 -0.001251 0.000000
# 4 0.000000 0.000000 0.000000 0.023087 0.000000 0.025012
# 5 0.004687 -0.001175 -0.001251 0.000000 0.034710 0.000000
# 6 0.000000 0.000000 0.000000 0.025012 0.000000 0.029734
#
#
# Mechanical properties :
#
#
# Convention : Reuss Voigt Hill
#
# Bulk Modulus (GPa) = 47.92932 50.49827 49.21380
# Shear Modulus (GPa) = 33.81159 195.69622 114.75390
#
# Velocity S-wave (km/s) = 4.08451 9.82648 7.52472
# Velocity P-wave (km/s) = 6.77447 12.39609 9.98890
#
# Compressibility (1/GPa) = 0.02086406
#
# Stress axis : x y z
#
# Youngs Moduli (GPa) = 54.72605 98.21043 115.29964
#
# Poissons Ratio (x) = 0.57771 0.22942
# Poissons Ratio (y) = 0.32192 0.02996
# Poissons Ratio (z) = 0.10889 0.02552
#
# Static dielectric constant tensor:
#      x y z
#    x 1.706310 0.000000 -0.016630 
#    y 0.000000 0.460110 0.000000 
#    z -0.016630 0.000000 1.741310 
# 
# From -- ./inp_files/3598.got.cif
#   From: 2010.05.17/outbox.cif.g08.bks.cpg/sg8_2_cif.got.tgz:3598.got - 2010.06.03 19:46:02.
