data_PCOD9133881
_publ_section_title
;
Structure prediction by ZEFSAII (Michael W. Deem and Ramdas Pophale) SiO2 
 PCOD9133881
Probable space group: C C
;
_chemical_formula_sum "Si O2"
_cell_formula_units_Z 32
_cell_length_a 10.004613
_cell_length_b 20.340913
_cell_length_c 13.342370
_cell_angle_alpha 90.000000
_cell_angle_beta 34.183699
_cell_angle_gamma 90.000000
_cell_volume 1525.536456
_symmetry_space_group_name_H-M "C C"
_symmetry_group_IT_number 9
_symmetry_cell_setting 'monoclinic'
loop_
_space_group_symop_operation_xyz
x,y,z
x,-y,1/2+z
1/2+x,1/2+y,z
1/2+x,1/2-y,1/2+z
loop_
_atom_site_type_symbol
_atom_site_label
_atom_site_fract_x
_atom_site_fract_y
_atom_site_fract_z
Si Si1 0.535100 0.562684 0.623180
Si Si2 0.891464 0.182532 0.061110
Si Si3 0.325171 0.069540 0.152326
Si Si4 0.076266 0.428675 0.015906
Si Si5 0.096518 0.915509 0.590235
Si Si6 0.889978 0.668854 0.481694
Si Si7 0.772288 0.915475 0.486647
Si Si8 0.306894 0.451429 0.068977
O O1 0.653278 0.491547 0.520596
O O2 0.420659 0.554093 0.803531
O O3 0.324278 0.569780 0.672633
O O4 0.696258 0.628088 0.534983
O O5 0.631583 0.167470 0.267491
O O6 0.071927 0.144354 0.026004
O O7 0.882693 0.258166 0.033201
O O8 0.911560 0.144572 0.944769
O O9 0.271986 0.096905 0.074843
O O10 0.072054 0.063884 0.363921
O O11 0.518579 0.106602 0.100249
O O12 0.444889 0.997291 0.075862
O O13 0.331649 0.423061 0.802383
O O14 0.919223 0.374821 0.061982
O O15 0.123487 0.419474 0.104768
O O16 0.756818 0.971115 0.582304
#
# Coordination Sequence:
#
# PCOD9133881 Si02
#       8
#     4   4   4   4   4   4   4   4
#     4  12  20  37  59  93 122 161 202 266 305 371
#     4  11  24  42  61  92 123 172 208 256 311 386
#     4  10  17  35  56  88 119 154 196 254 310 359
#     4   9  18  36  58  87 120 160 200 259 305 367
#     4  10  19  35  61  90 124 154 207 260 310 361
#     4  11  23  40  65  85 127 165 211 250 319 376
#     4  11  21  36  59  88 125 157 208 254 312 368
#     4  10  20  33  55  89 120 153 196 259 314 358
#
# _framework density 20.976227999999999
#
# number of rings (size 3 to 8) (size 9 to 14) (size 15 to 20)
#    0.000    1.500    6.250    1.500    0.000    0.000 
#    4.500    1.250    0.000    3.000    0.000    0.000 
#    0.000    0.000    0.000    0.000    0.000    0.000 
#
# Total GULP energy -89175.129669 kJ/mol
# GULP energy per Si atom -5573.445604 kJ/mol
# Density = 2.092849 g / cm^3
# Si number density = 20.976228 Si / 1000 Ang^3
#
#
#
# Elastic Constant Matrix: (Units=GPa)
#
#
# Indices 1 2 3 4 5 6 
#
# 1 178.7504 67.0365 20.2415 -0.0118 -5.1055 0.0026
# 2 67.0365 90.4467 18.7463 -0.0078 13.3309 0.0005
# 3 20.2415 18.7463 57.0458 -0.0144 -15.8198 0.0087
# 4 -0.0118 -0.0078 -0.0144 20.9089 0.0126 3.4772
# 5 -5.1055 13.3309 -15.8198 0.0126 21.8930 -0.0041
# 6 0.0026 0.0005 0.0087 3.4772 -0.0041 28.5460
#
#
#
# Elastic Compliance Matrix: (Units=1/GPa)
#
#
# Indices 1 2 3 4 5 6 
#
# 1 0.008608 -0.007966 0.001832 -0.000002 0.008182 0.000000
# 2 -0.007966 0.022834 -0.011316 0.000011 -0.023938 -0.000001
# 3 0.001832 -0.011316 0.028298 0.000000 0.027765 -0.000005
# 4 -0.000002 0.000011 0.000000 0.048815 -0.000036 -0.005946
# 5 0.008182 -0.023938 0.027765 -0.000036 0.082224 0.000007
# 6 0.000000 -0.000001 -0.000005 -0.005946 0.000007 0.035756
#
#
# Mechanical properties :
#
#
# Convention : Reuss Voigt Hill
#
# Bulk Modulus (GPa) = 40.25475 59.81015 50.03245
# Shear Modulus (GPa) = 18.53822 28.95081 23.74452
#
# Velocity S-wave (km/s) = 2.97606 3.71910 3.36813
# Velocity P-wave (km/s) = 5.57149 6.85693 6.24736
#
# Compressibility (1/GPa) = 0.02484179
#
# Stress axis : x y z
#
# Youngs Moduli (GPa) = 116.17193 43.79509 35.33821
#
# Poissons Ratio (x) = 0.34885 -0.06475
# Poissons Ratio (y) = 0.92538 0.39987
# Poissons Ratio (z) = -0.21286 0.49556
#
# Static dielectric constant tensor:
#      x y z
#    x 1.816060 -0.000010 0.008740 
#    y -0.000010 1.806420 -0.000020 
#    z 0.008740 -0.000020 1.823650 
# 
# From -- ./inp_files/23749.got.cif
#   From: 2010.05.17/outbox.cif.g08.bks.cpg/sg9_12_cif.got.tgz:23749.got - 2010.06.03 20:04:27.
