data_PCOD9133973
_publ_section_title
;
Structure prediction by ZEFSAII (Michael W. Deem and Ramdas Pophale) SiO2 
 PCOD9133973
Probable space group: C C
;
_chemical_formula_sum "Si O2"
_cell_formula_units_Z 32
_cell_length_a 8.675231
_cell_length_b 11.499841
_cell_length_c 18.234681
_cell_angle_alpha 90.000000
_cell_angle_beta 46.334499
_cell_angle_gamma 90.000000
_cell_volume 1315.949907
_symmetry_space_group_name_H-M "C C"
_symmetry_group_IT_number 9
_symmetry_cell_setting 'monoclinic'
loop_
_space_group_symop_operation_xyz
x,y,z
x,-y,1/2+z
1/2+x,1/2+y,z
1/2+x,1/2-y,1/2+z
loop_
_atom_site_type_symbol
_atom_site_label
_atom_site_fract_x
_atom_site_fract_y
_atom_site_fract_z
Si Si1 0.141910 0.155456 0.314450
Si Si2 0.877671 0.364891 0.071058
Si Si3 0.226750 0.784523 0.407801
Si Si4 0.885597 0.777556 0.115265
Si Si5 0.975175 0.982541 0.249165
Si Si6 0.047343 0.983698 0.975765
Si Si7 0.700924 0.078945 0.973653
Si Si8 0.939599 0.777820 0.695410
O O1 0.296347 0.247830 0.225502
O O2 0.187074 0.102337 0.378578
O O3 0.904600 0.211409 0.393171
O O4 0.121713 0.050531 0.262047
O O5 0.636076 0.407215 0.147602
O O6 0.883047 0.275352 0.136981
O O7 0.013699 0.291912 0.967765
O O8 0.020864 0.479207 0.035155
O O9 0.328002 0.800418 0.294600
O O10 0.181209 0.907397 0.460018
O O11 0.691356 0.734540 0.126913
O O12 0.930948 0.907747 0.074531
O O13 0.089080 0.698153 0.032434
O O14 0.805232 0.920247 0.358096
O O15 0.879061 0.089107 0.233524
O O16 0.877112 0.040152 0.975252
#
# Coordination Sequence:
#
# PCOD9133973 Si02
#       8
#     4   4   4   4   4   4   4   4
#     4   9  18  35  60  89 111 158 205 232 292 368
#     4  12  18  36  62  86 120 155 197 247 289 352
#     4  10  21  35  60  91 119 153 204 239 298 364
#     4  10  20  33  60  89 113 153 203 239 293 355
#     4   9  19  33  55  90 120 150 202 242 288 356
#     4  11  21  38  59  85 124 155 189 249 298 339
#     4  11  19  36  60  85 116 155 199 243 288 355
#     4  10  18  32  60  91 111 159 199 235 300 355
#
# _framework density 24.317035000000001
#
# number of rings (size 3 to 8) (size 9 to 14) (size 15 to 20)
#    0.000    2.000    7.500    1.500    0.000    0.000 
#    0.000    6.250    0.000    0.000    0.000    0.000 
#    0.000    0.000    0.000    0.000    0.000    0.000 
#
# Total GULP energy -89467.619924 kJ/mol
# GULP energy per Si atom -5591.726245 kJ/mol
# Density = 2.426169 g / cm^3
# Si number density = 24.317035 Si / 1000 Ang^3
#
#
#
# Elastic Constant Matrix: (Units=GPa)
#
#
# Indices 1 2 3 4 5 6 
#
# 1 32.0879 20.3398 4.5813 0.0000 2.5113 0.0000
# 2 20.3398 107.4094 58.3057 -0.0003 -11.5858 0.0001
# 3 4.5813 58.3057 125.0737 -0.0005 -7.3849 0.0000
# 4 0.0000 -0.0003 -0.0005 48.0979 0.0000 2.4929
# 5 2.5113 -11.5858 -7.3849 0.0000 21.2575 0.0000
# 6 0.0000 0.0001 0.0000 2.4929 0.0000 24.2838
#
#
#
# Elastic Compliance Matrix: (Units=1/GPa)
#
#
# Indices 1 2 3 4 5 6 
#
# 1 0.037428 -0.009372 0.002486 0.000000 -0.008666 0.000000
# 2 -0.009372 0.015326 -0.006374 0.000000 0.007246 0.000000
# 3 0.002486 -0.006374 0.010876 0.000000 0.000011 0.000000
# 4 0.000000 0.000000 0.000000 0.020902 0.000000 -0.002146
# 5 -0.008666 0.007246 0.000011 0.000000 0.052019 0.000000
# 6 0.000000 0.000000 0.000000 -0.002146 0.000000 0.041400
#
#
# Mechanical properties :
#
#
# Convention : Reuss Voigt Hill
#
# Bulk Modulus (GPa) = 26.94536 47.89163 37.41850
# Shear Modulus (GPa) = 23.05832 30.81745 26.93788
#
# Velocity S-wave (km/s) = 3.08269 3.56381 3.33194
# Velocity P-wave (km/s) = 4.87601 6.05572 5.49760
#
# Compressibility (1/GPa) = 0.03711214
#
# Stress axis : x y z
#
# Youngs Moduli (GPa) = 26.71765 65.24700 91.94530
#
# Poissons Ratio (x) = 0.61151 -0.22861
# Poissons Ratio (y) = 0.25040 0.58602
# Poissons Ratio (z) = -0.06643 0.41586
#
# Static dielectric constant tensor:
#      x y z
#    x 1.961310 0.000000 0.015360 
#    y 0.000000 1.948250 0.000000 
#    z 0.015360 0.000000 1.943170 
# 
# From -- ./inp_files/33289.got.cif
#   From: 2010.05.17/outbox.cif.g08.bks.cpg/sg9_17_cif.got.tgz:33289.got - 2010.06.03 20:04:27.
