data_PCOD9133609
_publ_section_title
;
Structure prediction by ZEFSAII (Michael W. Deem and Ramdas Pophale) SiO2 
 PCOD9133609
Probable space group: C M
;
_chemical_formula_sum "Si O2"
_cell_formula_units_Z 20
_cell_length_a 5.038900
_cell_length_b 29.731632
_cell_length_c 5.277230
_cell_angle_alpha 90.000000
_cell_angle_beta 86.184640
_cell_angle_gamma 90.000000
_cell_volume 788.854488
_symmetry_space_group_name_H-M "C M"
_symmetry_group_IT_number 8
_symmetry_cell_setting 'monoclinic'
loop_
_space_group_symop_operation_xyz
x,y,z
x,-y,z
1/2+x,1/2+y,z
1/2+x,1/2-y,z
loop_
_atom_site_type_symbol
_atom_site_label
_atom_site_fract_x
_atom_site_fract_y
_atom_site_fract_z
Si Si1 0.206930 0.951350 0.596390
Si Si2 0.075938 0.645876 0.153992
Si Si3 0.731471 0.951497 0.253282
Si Si4 0.728092 0.647791 0.683290
Si Si5 0.912162 0.782832 0.944470
O O1 0.515086 0.950616 0.495774
O O2 0.141627 0.904116 0.728902
O O3 0.023716 0.950469 0.355854
O O4 0.154479 0.000000 0.725037
O O5 0.168414 0.594415 0.116635
O O6 0.893002 0.649753 0.413399
O O7 0.324804 0.679580 0.154440
O O8 0.913298 0.658293 0.912638
O O9 0.688061 0.000000 0.126760
O O10 0.492254 0.684009 0.708173
O O11 0.663989 0.749375 0.954761
#
# Coordination Sequence:
#
# PCOD9133609 Si02
#       5
#     4   4   4   4   4
#     4   9  20  40  70 107 148 192 238 292 357 435
#     4  11  27  49  78 110 150 196 245 304 369 440
#     4   9  20  40  70 107 148 192 238 292 357 435
#     4  11  27  49  78 110 150 196 245 304 369 440
#     4  12  28  52  77 110 145 192 252 312 374 436
#
# _framework density 25.353216
#
# number of rings (size 3 to 8) (size 9 to 14) (size 15 to 20)
#    0.000    1.600    2.000    0.000   11.200    2.400 
#    0.000    1.000    0.000    0.000    0.000    0.000 
#    0.000    0.000    0.000    0.000    0.000    0.000 
#
# Total GULP energy -55902.927303 kJ/mol
# GULP energy per Si atom -5590.292730 kJ/mol
# Density = 2.529551 g / cm^3
# Si number density = 25.353216 Si / 1000 Ang^3
#
#
#
# Elastic Constant Matrix: (Units=GPa)
#
#
# Indices 1 2 3 4 5 6 
#
# 1 115.0668 62.3234 52.4399 0.0000 -18.1841 0.0000
# 2 62.3234 441.1360 143.6190 0.0000 -58.9169 0.0000
# 3 52.4399 143.6190 196.4552 0.0000 -42.7320 0.0000
# 4 0.0000 0.0000 0.0000 31.9401 0.0000 5.3246
# 5 -18.1841 -58.9169 -42.7320 0.0000 57.3802 0.0000
# 6 0.0000 0.0000 0.0000 5.3246 0.0000 78.2935
#
#
#
# Elastic Compliance Matrix: (Units=1/GPa)
#
#
# Indices 1 2 3 4 5 6 
#
# 1 0.010116 -0.000635 -0.002006 0.000000 0.001061 0.000000
# 2 -0.000635 0.003163 -0.001766 0.000000 0.001731 0.000000
# 3 -0.002006 -0.001766 0.007618 0.000000 0.003224 0.000000
# 4 0.000000 0.000000 0.000000 0.031668 0.000000 -0.002154
# 5 0.001061 0.001731 0.003224 0.000000 0.021942 0.000000
# 6 0.000000 0.000000 0.000000 -0.002154 0.000000 0.012919
#
#
# Mechanical properties :
#
#
# Convention : Reuss Voigt Hill
#
# Bulk Modulus (GPa) = 82.75465 141.04697 111.90081
# Shear Modulus (GPa) = 49.86715 66.47447 58.17081
#
# Velocity S-wave (km/s) = 4.43978 5.12604 4.79520
# Velocity P-wave (km/s) = 7.68074 9.52830 8.65397
#
# Compressibility (1/GPa) = 0.01208391
#
# Stress axis : x y z
#
# Youngs Moduli (GPa) = 98.85374 316.18219 131.26611
#
# Poissons Ratio (x) = 0.20063 0.26328
# Poissons Ratio (y) = 0.06273 0.23185
# Poissons Ratio (z) = 0.19827 0.55845
#
# Static dielectric constant tensor:
#      x y z
#    x 1.850470 0.000000 0.296770 
#    y 0.000000 2.015730 0.000000 
#    z 0.296770 0.000000 1.541080 
# 
# From -- ./inp_files/611.got.cif
#   From: 2010.05.17/outbox.cif.g08.bks.cpg/sg8_1_cif.got.tgz:611.got - 2010.06.03 19:46:02.
