data_PCOD9133005
_publ_section_title
;
Structure prediction by ZEFSAII (Michael W. Deem and Ramdas Pophale) SiO2 
 PCOD9133005
Probable space group: C M
;
_chemical_formula_sum "Si O2"
_cell_formula_units_Z 28
_cell_length_a 24.679804
_cell_length_b 10.559818
_cell_length_c 7.893819
_cell_angle_alpha 90.000000
_cell_angle_beta 140.638460
_cell_angle_gamma 90.000000
_cell_volume 1304.726648
_symmetry_space_group_name_H-M "C M"
_symmetry_group_IT_number 8
_symmetry_cell_setting 'monoclinic'
loop_
_space_group_symop_operation_xyz
x,y,z
x,-y,z
1/2+x,1/2+y,z
1/2+x,1/2-y,z
loop_
_atom_site_type_symbol
_atom_site_label
_atom_site_fract_x
_atom_site_fract_y
_atom_site_fract_z
Si Si1 0.976080 0.132367 0.012190
Si Si2 0.712128 0.850968 0.337972
Si Si3 0.832432 0.212348 0.915170
Si Si4 0.010701 0.639597 0.869550
Si Si5 0.968520 0.637210 0.393055
Si Si6 0.099533 0.852521 0.602319
Si Si7 0.241340 0.646148 0.025257
O O1 0.970340 0.255482 0.887750
O O2 0.065917 0.138410 0.328575
O O3 0.970161 0.000000 0.900854
O O4 0.901562 0.136174 0.971184
O O5 0.752566 0.778288 0.594806
O O6 0.610429 0.828217 0.071427
O O7 0.757430 0.830581 0.264827
O O8 0.721545 0.000000 0.401918
O O9 0.881252 0.340709 0.082224
O O10 0.811420 0.149825 0.045717
O O11 0.011056 0.500000 0.950427
O O12 0.958954 0.633533 0.570785
O O13 0.006448 0.500000 0.434848
O O14 0.027288 0.760296 0.507229
O O15 0.105618 0.000000 0.677583
O O16 0.181728 0.764330 0.825871
O O17 0.206225 0.500000 0.937205
#
# Coordination Sequence:
#
# PCOD9133005 Si02
#       7
#     4   4   4   4   4   4   4
#     4  10  22  38  59  93 133 169 214 268 322 389
#     4  10  21  40  65  96 128 165 221 275 318 391
#     4  11  24  39  63  97 135 171 217 267 325 388
#     4  10  21  41  68  95 124 166 226 276 319 390
#     4  10  22  43  67  93 130 174 222 270 325 392
#     4  10  21  39  64  94 130 168 216 272 326 390
#     4  11  22  40  68  94 130 181 220 268 331 386
#
# _framework density 21.460435
#
# number of rings (size 3 to 8) (size 9 to 14) (size 15 to 20)
#    0.000    1.714    1.429    2.571    2.000    6.286 
#    0.000    1.429    0.000    0.000    0.000    0.000 
#    0.000    0.000    0.000    0.000    0.000    0.000 
#
# Total GULP energy -77973.241876 kJ/mol
# GULP energy per Si atom -5569.517277 kJ/mol
# Density = 2.141159 g / cm^3
# Si number density = 21.460435 Si / 1000 Ang^3
#
#
#
# Elastic Constant Matrix: (Units=GPa)
#
#
# Indices 1 2 3 4 5 6 
#
# 1 96.1018 48.1590 23.0285 0.0000 -12.7589 0.0000
# 2 48.1590 166.7691 31.0177 0.0000 -5.0910 0.0000
# 3 23.0285 31.0177 81.3055 0.0000 -7.8777 0.0000
# 4 0.0000 0.0000 0.0000 21.4090 0.0000 -5.7517
# 5 -12.7589 -5.0910 -7.8777 0.0000 16.9254 0.0000
# 6 0.0000 0.0000 0.0000 -5.7517 0.0000 16.3485
#
#
#
# Elastic Compliance Matrix: (Units=1/GPa)
#
#
# Indices 1 2 3 4 5 6 
#
# 1 0.013628 -0.003350 -0.001764 0.000000 0.008445 0.000000
# 2 -0.003350 0.007289 -0.001952 0.000000 -0.001241 0.000000
# 3 -0.001764 -0.001952 0.013989 0.000000 0.004594 0.000000
# 4 0.000000 0.000000 0.000000 0.051585 0.000000 0.018149
# 5 0.008445 -0.001241 0.004594 0.000000 0.067214 0.000000
# 6 0.000000 0.000000 0.000000 0.018149 0.000000 0.067553
#
#
# Mechanical properties :
#
#
# Convention : Reuss Voigt Hill
#
# Bulk Modulus (GPa) = 48.13642 60.95408 54.54525
# Shear Modulus (GPa) = 20.63446 27.06799 23.85122
#
# Velocity S-wave (km/s) = 3.10419 3.55533 3.33739
# Velocity P-wave (km/s) = 5.94365 6.73190 6.35002
#
# Compressibility (1/GPa) = 0.02077429
#
# Stress axis : x y z
#
# Youngs Moduli (GPa) = 73.37828 137.19681 71.48599
#
# Poissons Ratio (x) = 0.45955 0.12609
# Poissons Ratio (y) = 0.24579 0.13955
# Poissons Ratio (z) = 0.12943 0.26783
#
# Static dielectric constant tensor:
#      x y z
#    x 1.814980 0.000000 0.037950 
#    y 0.000000 1.802940 0.000000 
#    z 0.037950 0.000000 1.835330 
# 
# From -- ./inp_files/17437.got.cif
#   From: 2010.05.17/outbox.cif.g08.bks.cpg/sg8_9_cif.got.tgz:17437.got - 2010.06.03 19:46:02.
