data_PCOD9133197
_publ_section_title
;
Structure prediction by ZEFSAII (Michael W. Deem and Ramdas Pophale) SiO2 
 PCOD9133197
Probable space group: C M
;
_chemical_formula_sum "Si O2"
_cell_formula_units_Z 30
_cell_length_a 18.237372
_cell_length_b 16.238597
_cell_length_c 5.075109
_cell_angle_alpha 90.000000
_cell_angle_beta 75.015961
_cell_angle_gamma 90.000000
_cell_volume 1451.885313
_symmetry_space_group_name_H-M "C M"
_symmetry_group_IT_number 8
_symmetry_cell_setting 'monoclinic'
loop_
_space_group_symop_operation_xyz
x,y,z
x,-y,z
1/2+x,1/2+y,z
1/2+x,1/2-y,z
loop_
_atom_site_type_symbol
_atom_site_label
_atom_site_fract_x
_atom_site_fract_y
_atom_site_fract_z
Si Si1 0.211970 0.334638 0.667160
Si Si2 0.502092 0.131962 0.510026
Si Si3 0.854509 0.095431 0.811714
Si Si4 0.302142 0.798478 0.307691
Si Si5 0.430115 0.333869 0.251259
Si Si6 0.827217 0.405339 0.769632
Si Si7 0.548947 0.223198 0.958299
Si Si8 0.131593 0.500000 0.554278
O O1 0.281103 0.349831 0.805607
O O2 0.241050 0.273403 0.412390
O O3 0.138519 0.291734 0.862029
O O4 0.190081 0.425258 0.583216
O O5 0.418239 0.098271 0.637496
O O6 0.514323 0.208276 0.699604
O O7 0.567731 0.070066 0.536181
O O8 0.518541 0.154352 0.192199
O O9 0.916724 0.120872 0.536862
O O10 0.834289 0.000000 0.811963
O O11 0.889015 0.114393 0.062733
O O12 0.381558 0.751407 0.295194
O O13 0.291006 0.867805 0.540067
O O14 0.307001 0.843803 0.025740
O O15 0.515220 0.308089 0.099685
O O16 0.806102 0.500000 0.841180
#
# Coordination Sequence:
#
# PCOD9133197 Si02
#       8
#     4   4   4   4   4   4   4   2
#     4  10  24  43  63  97 140 177 213 271 334 422
#     4  11  21  37  59  93 130 161 206 264 324 402
#     4  11  23  41  62  95 130 171 219 273 328 387
#     4  11  23  40  64  90 132 178 218 263 332 393
#     4  11  21  39  67  87 126 176 223 269 316 398
#     4  12  22  40  65  94 126 170 222 279 323 386
#     4  11  23  39  62  91 125 170 216 265 328 389
#     4  10  22  40  62  98 140 178 202 260 348 404
#
# _framework density 20.662787000000002
#
# number of rings (size 3 to 8) (size 9 to 14) (size 15 to 20)
#    0.000    1.067    4.000    3.200    0.000    8.533 
#    4.800    0.000    0.000    4.800    0.000    0.000 
#    0.000    0.000    0.000    0.000    0.000    0.000 
#
# Total GULP energy -83557.707859 kJ/mol
# GULP energy per Si atom -5570.513857 kJ/mol
# Density = 2.061576 g / cm^3
# Si number density = 20.662787 Si / 1000 Ang^3
#
#
#
# Elastic Constant Matrix: (Units=GPa)
#
#
# Indices 1 2 3 4 5 6 
#
# 1 59.5064 36.6944 15.5236 0.0000 -23.7794 0.0000
# 2 36.6944 86.7776 32.4098 0.0000 -13.0624 0.0000
# 3 15.5236 32.4098 75.8303 0.0000 -10.1562 0.0000
# 4 0.0000 0.0000 0.0000 13.5326 0.0000 10.7009
# 5 -23.7794 -13.0624 -10.1562 0.0000 28.7411 0.0000
# 6 0.0000 0.0000 0.0000 10.7009 0.0000 33.0472
#
#
#
# Elastic Compliance Matrix: (Units=1/GPa)
#
#
# Indices 1 2 3 4 5 6 
#
# 1 0.031754 -0.010478 0.000901 0.000000 0.021828 0.000000
# 2 -0.010478 0.017713 -0.005782 0.000000 -0.002662 0.000000
# 3 0.000901 -0.005782 0.015978 0.000000 0.003764 0.000000
# 4 0.000000 0.000000 0.000000 0.099329 0.000000 -0.032164
# 5 0.021828 -0.002662 0.003764 0.000000 0.052974 0.000000
# 6 0.000000 0.000000 0.000000 -0.032164 0.000000 0.040675
#
#
# Mechanical properties :
#
#
# Convention : Reuss Voigt Hill
#
# Bulk Modulus (GPa) = 28.79553 43.48553 36.14053
# Shear Modulus (GPa) = 16.62693 24.22994 20.42844
#
# Velocity S-wave (km/s) = 2.83977 3.42809 3.14770
# Velocity P-wave (km/s) = 4.97178 6.06301 5.54431
#
# Compressibility (1/GPa) = 0.03472761
#
# Stress axis : x y z
#
# Youngs Moduli (GPa) = 31.49209 56.45479 62.58516
#
# Poissons Ratio (x) = 0.59155 -0.05642
# Poissons Ratio (y) = 0.32998 0.36188
# Poissons Ratio (z) = -0.02839 0.32643
#
# Static dielectric constant tensor:
#      x y z
#    x 1.753410 0.000000 -0.012370 
#    y 0.000000 1.771980 0.000000 
#    z -0.012370 0.000000 1.770230 
# 
# From -- ./inp_files/4953.got.cif
#   From: 2010.05.17/outbox.cif.g08.bks.cpg/sg8_3_cif.got.tgz:4953.got - 2010.06.03 19:46:02.
