data_PCOD9133778
_publ_section_title
;
Structure prediction by ZEFSAII (Michael W. Deem and Ramdas Pophale) SiO2 
 PCOD9133778
Probable space group: C C
;
_chemical_formula_sum "Si O2"
_cell_formula_units_Z 32
_cell_length_a 11.056961
_cell_length_b 26.115129
_cell_length_c 5.544934
_cell_angle_alpha 90.000000
_cell_angle_beta 110.133221
_cell_angle_gamma 90.000000
_cell_volume 1503.284863
_symmetry_space_group_name_H-M "C C"
_symmetry_group_IT_number 9
_symmetry_cell_setting 'monoclinic'
loop_
_space_group_symop_operation_xyz
x,y,z
x,-y,1/2+z
1/2+x,1/2+y,z
1/2+x,1/2-y,1/2+z
loop_
_atom_site_type_symbol
_atom_site_label
_atom_site_fract_x
_atom_site_fract_y
_atom_site_fract_z
Si Si1 0.190480 0.359341 0.892830
Si Si2 0.751123 0.240880 0.685974
Si Si3 0.954173 0.511639 0.747402
Si Si4 0.537588 0.871184 0.290024
Si Si5 0.744859 0.027488 0.449232
Si Si6 0.854778 0.288468 0.358406
Si Si7 0.999028 0.196574 0.038093
Si Si8 0.061029 0.196904 0.555879
O O1 0.130797 0.360600 0.584034
O O2 0.272113 0.411822 0.968850
O O3 0.250916 0.303627 0.980354
O O4 0.098286 0.361959 0.067993
O O5 0.818778 0.291147 0.619196
O O6 0.604434 0.257107 0.624680
O O7 0.852875 0.217380 0.941770
O O8 0.884500 0.499784 0.449768
O O9 0.998665 0.569947 0.776426
O O10 0.087269 0.478231 0.838729
O O11 0.417146 0.835641 0.265351
O O12 0.786424 0.000005 0.727685
O O13 0.968374 0.246217 0.457658
O O14 0.709582 0.285644 0.153304
O O15 0.027813 0.174022 0.794213
O O16 0.028212 0.164200 0.296014
#
# Coordination Sequence:
#
# PCOD9133778 Si02
#       8
#     4   4   4   4   4   4   4   4
#     4  12  21  32  53  78 107 149 180 216 279 331
#     4  10  22  37  53  78 109 146 184 223 261 320
#     4  10  16  31  48  72 107 138 164 223 279 331
#     4  12  21  32  53  78 107 149 180 216 279 331
#     4  10  16  31  48  72 107 138 164 223 279 331
#     4  10  22  37  53  78 109 146 184 223 261 320
#     4  10  20  36  53  70 103 141 177 224 262 301
#     4  10  20  36  53  70 103 141 177 224 262 301
#
# _framework density 21.286719999999999
#
# number of rings (size 3 to 8) (size 9 to 14) (size 15 to 20)
#    0.000    1.500    5.000    3.750    0.000    4.000 
#    0.000    0.000    0.000    0.000    0.000    0.000 
#    0.000   26.000    0.000    0.000    0.000    0.000 
#
# Total GULP energy -89075.822481 kJ/mol
# GULP energy per Si atom -5567.238905 kJ/mol
# Density = 2.123827 g / cm^3
# Si number density = 21.286720 Si / 1000 Ang^3
#
#
#
# Elastic Constant Matrix: (Units=GPa)
#
#
# Indices 1 2 3 4 5 6 
#
# 1 75.4033 20.6009 30.4194 0.0000 -4.5116 0.0000
# 2 20.6009 45.1130 5.5704 0.0000 -3.3405 0.0000
# 3 30.4194 5.5704 154.2456 0.0000 -23.0863 0.0000
# 4 0.0000 0.0000 0.0000 17.9952 0.0000 -8.8346
# 5 -4.5116 -3.3405 -23.0863 0.0000 36.3941 0.0000
# 6 0.0000 0.0000 0.0000 -8.8346 0.0000 10.1555
#
#
#
# Elastic Compliance Matrix: (Units=1/GPa)
#
#
# Indices 1 2 3 4 5 6 
#
# 1 0.016421 -0.007162 -0.003065 0.000000 -0.000566 0.000000
# 2 -0.007162 0.025485 0.000784 0.000000 0.001948 0.000000
# 3 -0.003065 0.000784 0.007749 0.000000 0.004607 0.000000
# 4 0.000000 0.000000 0.000000 0.096996 0.000000 0.084380
# 5 -0.000566 0.001948 0.004607 0.000000 0.030508 0.000000
# 6 0.000000 0.000000 0.000000 0.084380 0.000000 0.171873
#
#
# Mechanical properties :
#
#
# Convention : Reuss Voigt Hill
#
# Bulk Modulus (GPa) = 32.50046 43.10482 37.80264
# Shear Modulus (GPa) = 13.22140 27.45371 20.33755
#
# Velocity S-wave (km/s) = 2.49491 3.59515 3.09432
# Velocity P-wave (km/s) = 4.85804 6.12593 5.52845
#
# Compressibility (1/GPa) = 0.03076879
#
# Stress axis : x y z
#
# Youngs Moduli (GPa) = 60.89664 39.23924 129.05172
#
# Poissons Ratio (x) = 0.28104 0.39548
# Poissons Ratio (y) = 0.43616 -0.10115
# Poissons Ratio (z) = 0.18662 -0.03075
#
# Static dielectric constant tensor:
#      x y z
#    x 1.838830 0.000000 -0.093980 
#    y 0.000000 1.757610 0.000000 
#    z -0.093980 0.000000 1.960580 
# 
# From -- ./inp_files/2174.got.cif
#   From: 2010.05.17/outbox.cif.g08.bks.cpg/sg9_2_cif.got.tgz:2174.got - 2010.06.03 20:04:27.
