data_PCOD9133934
_publ_section_title
;
Structure prediction by ZEFSAII (Michael W. Deem and Ramdas Pophale) SiO2 
 PCOD9133934
Probable space group: C C
;
_chemical_formula_sum "Si O2"
_cell_formula_units_Z 32
_cell_length_a 15.898040
_cell_length_b 8.451385
_cell_length_c 12.850715
_cell_angle_alpha 90.000000
_cell_angle_beta 58.104471
_cell_angle_gamma 90.000000
_cell_volume 1465.929429
_symmetry_space_group_name_H-M "C C"
_symmetry_group_IT_number 9
_symmetry_cell_setting 'monoclinic'
loop_
_space_group_symop_operation_xyz
x,y,z
x,-y,1/2+z
1/2+x,1/2+y,z
1/2+x,1/2-y,1/2+z
loop_
_atom_site_type_symbol
_atom_site_label
_atom_site_fract_x
_atom_site_fract_y
_atom_site_fract_z
Si Si1 0.271310 0.213327 0.646410
Si Si2 0.364072 0.479212 0.134677
Si Si3 0.057758 0.164715 0.018787
Si Si4 0.770025 0.614724 0.892738
Si Si5 0.122681 0.018053 0.264473
Si Si6 0.307498 0.172676 0.255338
Si Si7 0.452286 0.738195 0.394052
Si Si8 0.461357 0.981383 0.024070
O O1 0.287178 0.399510 0.632459
O O2 0.270734 0.178037 0.772411
O O3 0.369159 0.123772 0.541522
O O4 0.173098 0.126807 0.669313
O O5 0.320272 0.359710 0.248663
O O6 0.455391 0.582153 0.119487
O O7 0.404847 0.364875 0.017873
O O8 0.161891 0.148060 0.010016
O O9 0.036598 0.349982 0.015104
O O10 0.079642 0.071150 0.895761
O O11 0.783238 0.425854 0.873917
O O12 0.861095 0.697647 0.887707
O O13 0.216325 0.127489 0.237626
O O14 0.034148 0.129733 0.285884
O O15 0.408076 0.089107 0.146850
O O16 0.501095 0.894161 0.414428
#
# Coordination Sequence:
#
# PCOD9133934 Si02
#       8
#     4   4   4   4   4   4   4   4
#     4   8  16  33  50  68  98 137 167 201 250 312
#     4   9  16  31  55  72  94 136 177 203 249 321
#     4   8  15  30  51  70  93 132 168 198 249 312
#     4   9  18  32  50  74 102 127 164 216 257 288
#     4   8  16  28  47  72  97 127 168 200 248 310
#     4   8  16  31  48  71  96 129 166 199 246 316
#     4  10  18  30  52  79  99 126 170 220 254 290
#     4   8  15  29  49  68  93 128 162 195 245 307
#
# _framework density 21.829155
#
# number of rings (size 3 to 8) (size 9 to 14) (size 15 to 20)
#    0.000    4.000    0.000    0.000    0.000    2.000 
#    0.000   15.000    0.000   10.500    0.000    0.000 
#    0.000    0.000    0.000    0.000    0.000    0.000 
#
# Total GULP energy -89082.079265 kJ/mol
# GULP energy per Si atom -5567.629954 kJ/mol
# Density = 2.177947 g / cm^3
# Si number density = 21.829155 Si / 1000 Ang^3
#
#
#
# Elastic Constant Matrix: (Units=GPa)
#
#
# Indices 1 2 3 4 5 6 
#
# 1 94.2762 52.7281 23.3663 0.0000 -22.8329 0.0000
# 2 52.7281 170.6290 36.2285 0.0000 -26.4417 0.0000
# 3 23.3663 36.2285 55.6770 0.0000 -16.6594 0.0000
# 4 0.0000 0.0000 0.0000 23.2596 0.0000 -12.4860
# 5 -22.8329 -26.4417 -16.6594 0.0000 31.2291 0.0000
# 6 0.0000 0.0000 0.0000 -12.4860 0.0000 25.2643
#
#
#
# Elastic Compliance Matrix: (Units=1/GPa)
#
#
# Indices 1 2 3 4 5 6 
#
# 1 0.014456 -0.002949 -0.002062 0.000000 0.006973 0.000000
# 2 -0.002949 0.007859 -0.003011 0.000000 0.002892 0.000000
# 3 -0.002062 -0.003011 0.023289 0.000000 0.008367 0.000000
# 4 0.000000 0.000000 0.000000 0.058518 0.000000 0.028920
# 5 0.006973 0.002892 0.008367 0.000000 0.044032 0.000000
# 6 0.000000 0.000000 0.000000 0.028920 0.000000 0.053874
#
#
# Mechanical properties :
#
#
# Convention : Reuss Voigt Hill
#
# Bulk Modulus (GPa) = 33.82846 60.58089 47.20467
# Shear Modulus (GPa) = 21.93701 29.83455 25.88578
#
# Velocity S-wave (km/s) = 3.17352 3.70094 3.44733
# Velocity P-wave (km/s) = 5.38134 6.78787 6.12511
#
# Compressibility (1/GPa) = 0.02956091
#
# Stress axis : x y z
#
# Youngs Moduli (GPa) = 69.17428 127.23472 42.93935
#
# Poissons Ratio (x) = 0.37522 0.08853
# Poissons Ratio (y) = 0.20400 0.12929
# Poissons Ratio (z) = 0.14261 0.38311
#
# Static dielectric constant tensor:
#      x y z
#    x 1.856270 0.000000 0.036390 
#    y 0.000000 1.831600 0.000000 
#    z 0.036390 0.000000 1.903650 
# 
# From -- ./inp_files/30922.got.cif
#   From: 2010.05.17/outbox.cif.g08.bks.cpg/sg9_16_cif.got.tgz:30922.got - 2010.06.03 20:04:27.
