data_PCOD9133771
_publ_section_title
;
Structure prediction by ZEFSAII (Michael W. Deem and Ramdas Pophale) SiO2 
 PCOD9133771
Probable space group: C C
;
_chemical_formula_sum "Si O2"
_cell_formula_units_Z 28
_cell_length_a 20.887104
_cell_length_b 7.072854
_cell_length_c 24.380258
_cell_angle_alpha 90.000000
_cell_angle_beta 163.787739
_cell_angle_gamma 90.000000
_cell_volume 1005.590915
_symmetry_space_group_name_H-M "C C"
_symmetry_group_IT_number 9
_symmetry_cell_setting 'monoclinic'
loop_
_space_group_symop_operation_xyz
x,y,z
x,-y,1/2+z
1/2+x,1/2+y,z
1/2+x,1/2-y,1/2+z
loop_
_atom_site_type_symbol
_atom_site_label
_atom_site_fract_x
_atom_site_fract_y
_atom_site_fract_z
Si Si1 0.293790 0.905721 0.228220
Si Si2 0.037018 0.464901 0.120893
Si Si3 0.226921 0.600917 0.015379
Si Si4 0.134760 0.964905 0.419700
Si Si5 0.114039 0.500036 0.298455
Si Si6 0.143179 0.899054 0.223566
Si Si7 0.374469 0.531484 0.808880
O O1 0.535895 0.959108 0.401978
O O2 0.262477 0.959115 0.265253
O O3 0.277161 0.675925 0.211586
O O4 0.091904 0.992068 0.026321
O O5 0.048512 0.370837 0.190552
O O6 0.149449 0.670547 0.226378
O O7 0.183934 0.378194 0.191991
O O8 0.788829 0.515236 0.892968
O O9 0.219361 0.829422 0.011243
O O10 0.145427 0.550497 0.887966
O O11 0.467606 0.515194 0.232291
O O12 0.978493 0.878222 0.339257
O O13 0.378917 0.870850 0.605676
O O14 0.377970 0.550596 0.504310
#
# Coordination Sequence:
#
# PCOD9133771 Si02
#       7
#     4   4   4   4   4   4   4
#     4  10  16  30  52  77 107 137 175 228 278 317
#     4  11  20  35  54  80 113 143 181 224 271 324
#     4  11  20  35  54  80 113 143 181 224 271 324
#     4  11  20  35  54  80 113 143 181 224 271 324
#     4  12  22  34  52  80 116 150 174 218 276 340
#     4  11  20  35  54  80 113 143 181 224 271 324
#     4  10  16  30  52  77 107 137 175 228 278 317
#
# _framework density 27.844324
#
# number of rings (size 3 to 8) (size 9 to 14) (size 15 to 20)
#    0.000    1.143    5.714    6.857    0.000    0.000 
#    0.000    0.000    0.000    0.000    0.000    8.000 
#    0.000    0.000    0.000    0.000    0.000    0.000 
#
# Total GULP energy -78374.046194 kJ/mol
# GULP energy per Si atom -5598.146157 kJ/mol
# Density = 2.778095 g / cm^3
# Si number density = 27.844324 Si / 1000 Ang^3
#
#
#
# Elastic Constant Matrix: (Units=GPa)
#
#
# Indices 1 2 3 4 5 6 
#
# 1 244.2775 14.2563 92.8680 0.0278 11.5336 0.0051
# 2 14.2563 93.1580 33.7609 -0.0883 -7.3318 -0.0038
# 3 92.8680 33.7609 234.9046 -0.0721 -8.1133 -0.0168
# 4 0.0278 -0.0883 -0.0721 -1.6090 0.0147 4.0736
# 5 11.5336 -7.3318 -8.1133 0.0147 67.6362 0.0083
# 6 0.0051 -0.0038 -0.0168 4.0736 0.0083 9.3840
#
#
#
# Elastic Compliance Matrix: (Units=1/GPa)
#
#
# Indices 1 2 3 4 5 6 
#
# 1 0.004895 -0.000126 -0.001955 0.000074 -0.001083 -0.000037
# 2 -0.000126 0.011400 -0.001552 -0.000260 0.001071 0.000114
# 3 -0.001955 -0.001552 0.005280 -0.000074 0.000799 0.000041
# 4 0.000074 -0.000260 -0.000074 -0.296084 -0.000001 0.128529
# 5 -0.001083 0.001071 0.000799 -0.000001 0.015182 -0.000011
# 6 -0.000037 0.000114 0.000041 0.128529 -0.000011 0.050770
#
#
# Mechanical properties :
#
#
# Convention : Reuss Voigt Hill
#
# Bulk Modulus (GPa) = 69.87518 94.90115 82.38817
# Shear Modulus (GPa) = -25.44255 43.84591 9.20168
#
# Velocity S-wave (km/s) = -3.02610 3.97253 1.81985
# Velocity P-wave (km/s) = 3.59719 7.42954 5.83686
#
# Compressibility (1/GPa) = 0.01431123
#
# Stress axis : x y z
#
# Youngs Moduli (GPa) = 204.27929 87.71819 189.38109
#
# Poissons Ratio (x) = 0.01105 0.37016
# Poissons Ratio (y) = 0.02573 0.29387
# Poissons Ratio (z) = 0.39928 0.13612
#
# Static dielectric constant tensor:
#      x y z
#    x 2.293030 0.000100 0.082730 
#    y 0.000100 2.328380 0.000010 
#    z 0.082730 0.000010 2.072160 
# 
# From -- ./inp_files/25964.got.cif
#   From: 2010.05.17/outbox.cif.g08.bks.cpg/sg9_13_cif.got.tgz:25964.got - 2010.06.03 20:04:27.
