data_PCOD9133083
_publ_section_title
;
Structure prediction by ZEFSAII (Michael W. Deem and Ramdas Pophale) SiO2 
 PCOD9133083
Probable space group: C M
;
_chemical_formula_sum "Si O2"
_cell_formula_units_Z 28
_cell_length_a 7.777447
_cell_length_b 29.139640
_cell_length_c 4.822533
_cell_angle_alpha 90.000000
_cell_angle_beta 99.987759
_cell_angle_gamma 90.000000
_cell_volume 1076.376630
_symmetry_space_group_name_H-M "C M"
_symmetry_group_IT_number 8
_symmetry_cell_setting 'monoclinic'
loop_
_space_group_symop_operation_xyz
x,y,z
x,-y,z
1/2+x,1/2+y,z
1/2+x,1/2-y,z
loop_
_atom_site_type_symbol
_atom_site_label
_atom_site_fract_x
_atom_site_fract_y
_atom_site_fract_z
Si Si1 0.860450 0.141808 0.365360
Si Si2 0.108270 0.049487 0.770985
Si Si3 0.207646 0.895909 0.298527
Si Si4 0.439428 0.784573 0.714839
Si Si5 0.052299 0.623378 0.672140
Si Si6 0.752438 0.051712 0.986635
Si Si7 0.666155 0.768603 0.276664
O O1 0.747767 0.137548 0.618943
O O2 0.799111 0.190887 0.228923
O O3 0.069560 0.140711 0.386926
O O4 0.805866 0.094442 0.198208
O O5 0.152302 0.059730 0.466510
O O6 0.903583 0.048452 0.794505
O O7 0.181049 0.000000 0.871768
O O8 0.176119 0.091343 0.973768
O O9 0.406692 0.884151 0.400227
O O10 0.464630 0.836465 0.833953
O O11 0.531142 0.791021 0.445888
O O12 0.263527 0.763797 0.533031
O O13 0.550363 0.755035 0.973390
O O14 0.077550 0.573063 0.810913
O O15 0.735644 0.000000 0.098837
#
# Coordination Sequence:
#
# PCOD9133083 Si02
#       7
#     4   4   4   4   4   4   4
#     4  10  23  45  65  97 143 180 232 288 354 414
#     4  10  22  42  63  94 131 176 234 286 343 417
#     4  11  24  39  68  93 132 182 221 286 355 410
#     4  11  25  45  72 106 143 182 236 292 357 433
#     4  11  24  43  66 102 139 176 238 291 349 421
#     4  10  21  41  70  93 134 188 232 286 353 414
#     4  11  24  45  72 103 144 184 231 295 357 427
#
# _framework density 26.013203000000001
#
# number of rings (size 3 to 8) (size 9 to 14) (size 15 to 20)
#    0.000    1.429    2.857    1.286    4.000    2.286 
#    2.571    0.000    0.000    0.000    0.000    0.000 
#    0.000    0.000    0.000    0.000    0.000    0.000 
#
# Total GULP energy -77957.557564 kJ/mol
# GULP energy per Si atom -5568.396969 kJ/mol
# Density = 2.595400 g / cm^3
# Si number density = 26.013203 Si / 1000 Ang^3
#
#
#
# Elastic Constant Matrix: (Units=GPa)
#
#
# Indices 1 2 3 4 5 6 
#
# 1 47.7479 38.4117 24.9107 0.0000 10.2351 0.0000
# 2 38.4117 116.1500 30.0468 0.0000 5.2441 0.0000
# 3 24.9107 30.0468 121.1378 0.0000 10.1221 0.0000
# 4 0.0000 0.0000 0.0000 24.2638 0.0000 1.3366
# 5 10.2351 5.2441 10.1221 0.0000 47.0499 0.0000
# 6 0.0000 0.0000 0.0000 1.3366 0.0000 30.4964
#
#
#
# Elastic Compliance Matrix: (Units=1/GPa)
#
#
# Indices 1 2 3 4 5 6 
#
# 1 0.031350 -0.009171 -0.003755 0.000000 -0.004990 0.000000
# 2 -0.009171 0.011896 -0.001141 0.000000 0.000915 0.000000
# 3 -0.003755 -0.001141 0.009400 0.000000 -0.001078 0.000000
# 4 0.000000 0.000000 0.000000 0.041313 0.000000 -0.001811
# 5 -0.004990 0.000915 -0.001078 0.000000 0.022470 0.000000
# 6 0.000000 0.000000 0.000000 -0.001811 0.000000 0.032870
#
#
# Mechanical properties :
#
#
# Convention : Reuss Voigt Hill
#
# Bulk Modulus (GPa) = 40.79634 52.41934 46.60784
# Shear Modulus (GPa) = 26.93898 33.13980 30.03939
#
# Velocity S-wave (km/s) = 3.22155 3.57313 3.40188
# Velocity P-wave (km/s) = 5.43643 6.10064 5.77809
#
# Compressibility (1/GPa) = 0.02451200
#
# Stress axis : x y z
#
# Youngs Moduli (GPa) = 31.89823 84.05909 106.37805
#
# Poissons Ratio (x) = 0.77090 0.39946
# Poissons Ratio (y) = 0.29254 0.12141
# Poissons Ratio (z) = 0.11978 0.09593
#
# Static dielectric constant tensor:
#      x y z
#    x 2.075110 0.000000 0.090760 
#    y 0.000000 2.419390 0.000000 
#    z 0.090760 0.000000 2.091720 
# 
# From -- ./inp_files/1904.got.cif
#   From: 2010.05.17/outbox.cif.g08.bks.cpg/sg8_1_cif.got.tgz:1904.got - 2010.06.03 19:46:02.
