data_PCOD9133224
_publ_section_title
;
Structure prediction by ZEFSAII (Michael W. Deem and Ramdas Pophale) SiO2 
 PCOD9133224
Probable space group: C M
;
_chemical_formula_sum "Si O2"
_cell_formula_units_Z 20
_cell_length_a 5.451073
_cell_length_b 14.093686
_cell_length_c 9.217408
_cell_angle_alpha 90.000000
_cell_angle_beta 86.257726
_cell_angle_gamma 90.000000
_cell_volume 706.623995
_symmetry_space_group_name_H-M "C M"
_symmetry_group_IT_number 8
_symmetry_cell_setting 'monoclinic'
loop_
_space_group_symop_operation_xyz
x,y,z
x,-y,z
1/2+x,1/2+y,z
1/2+x,1/2-y,z
loop_
_atom_site_type_symbol
_atom_site_label
_atom_site_fract_x
_atom_site_fract_y
_atom_site_fract_z
Si Si1 0.053660 0.333107 0.078270
Si Si2 0.328335 0.000000 0.923345
Si Si3 0.477762 0.500000 0.735444
Si Si4 0.631898 0.000000 0.475147
Si Si5 0.893689 0.000000 0.174273
Si Si6 0.042267 0.788065 0.809538
Si Si7 0.377690 0.803368 0.401984
O O1 0.259181 0.401454 0.139567
O O2 0.888899 0.309436 0.224382
O O3 0.965001 0.405278 0.956985
O O4 0.090418 0.241890 0.975712
O O5 0.272657 0.000000 0.753186
O O6 0.131334 0.000000 0.064869
O O7 0.293415 0.500000 0.612730
O O8 0.453103 0.396682 0.810090
O O9 0.857748 0.000000 0.347761
O O10 0.463677 0.906828 0.454632
O O11 0.816688 0.733173 0.740027
O O12 0.098557 0.768559 0.441251
#
# Coordination Sequence:
#
# PCOD9133224 Si02
#       7
#     4   2   2   2   2   4   4
#     4  10  22  40  71 116 153 188 258 321 390 450
#     4  11  21  42  77 113 151 203 255 319 395 454
#     4  12  27  48  79 112 163 207 261 311 395 469
#     4  10  27  52  74 114 158 211 257 319 385 475
#     4   9  21  42  78 109 150 201 257 323 387 454
#     4  12  26  46  74 110 154 200 251 317 382 457
#     4  11  26  47  77 112 148 201 257 318 384 453
#
# _framework density 28.303595999999999
#
# number of rings (size 3 to 8) (size 9 to 14) (size 15 to 20)
#    0.000    1.200    2.000    3.000    5.600    4.000 
#    0.000    2.000    0.000    0.000    0.000    0.000 
#    0.000    0.000    0.000    0.000    0.000    0.000 
#
# Total GULP energy -55848.655464 kJ/mol
# GULP energy per Si atom -5584.865546 kJ/mol
# Density = 2.823918 g / cm^3
# Si number density = 28.303596 Si / 1000 Ang^3
#
#
#
# Elastic Constant Matrix: (Units=GPa)
#
#
# Indices 1 2 3 4 5 6 
#
# 1 172.1326 39.7194 53.9493 0.0000 5.1128 0.0000
# 2 39.7194 220.9286 61.7124 0.0000 15.0605 0.0000
# 3 53.9493 61.7124 136.8671 0.0000 38.5104 0.0000
# 4 0.0000 0.0000 0.0000 35.7549 0.0000 8.2069
# 5 5.1128 15.0605 38.5104 0.0000 52.0579 0.0000
# 6 0.0000 0.0000 0.0000 8.2069 0.0000 33.9874
#
#
#
# Elastic Compliance Matrix: (Units=1/GPa)
#
#
# Indices 1 2 3 4 5 6 
#
# 1 0.006790 -0.000522 -0.002900 0.000000 0.001629 0.000000
# 2 -0.000522 0.005222 -0.002195 0.000000 0.000164 0.000000
# 3 -0.002900 -0.002195 0.011593 0.000000 -0.007656 0.000000
# 4 0.000000 0.000000 0.000000 0.029609 0.000000 -0.007150
# 5 0.001629 0.000164 -0.007656 0.000000 0.024666 0.000000
# 6 0.000000 0.000000 0.000000 -0.007150 0.000000 0.031149
#
#
# Mechanical properties :
#
#
# Convention : Reuss Voigt Hill
#
# Bulk Modulus (GPa) = 80.82434 93.41007 87.11720
# Shear Modulus (GPa) = 40.19695 49.32986 44.76341
#
# Velocity S-wave (km/s) = 3.77265 4.17931 3.98118
# Velocity P-wave (km/s) = 6.89894 7.50756 7.20968
#
# Compressibility (1/GPa) = 0.01237251
#
# Stress axis : x y z
#
# Youngs Moduli (GPa) = 147.26888 191.49194 86.25596
#
# Poissons Ratio (x) = 0.09994 0.25011
# Poissons Ratio (y) = 0.07686 0.18935
# Poissons Ratio (z) = 0.42702 0.42036
#
# Static dielectric constant tensor:
#      x y z
#    x 2.734290 0.000000 -0.043110 
#    y 0.000000 2.223840 0.000000 
#    z -0.043110 0.000000 2.225240 
# 
# From -- ./inp_files/17964.got.cif
#   From: 2010.05.17/outbox.cif.g08.bks.cpg/sg8_9_cif.got.tgz:17964.got - 2010.06.03 19:46:02.
