data_PCOD9133413
_publ_section_title
;
Structure prediction by ZEFSAII (Michael W. Deem and Ramdas Pophale) SiO2 
 PCOD9133413
Probable space group: C M
;
_chemical_formula_sum "Si O2"
_cell_formula_units_Z 22
_cell_length_a 8.704245
_cell_length_b 8.951629
_cell_length_c 18.041537
_cell_angle_alpha 90.000000
_cell_angle_beta 38.837561
_cell_angle_gamma 90.000000
_cell_volume 881.563527
_symmetry_space_group_name_H-M "C M"
_symmetry_group_IT_number 8
_symmetry_cell_setting 'monoclinic'
loop_
_space_group_symop_operation_xyz
x,y,z
x,-y,z
1/2+x,1/2+y,z
1/2+x,1/2-y,z
loop_
_atom_site_type_symbol
_atom_site_label
_atom_site_fract_x
_atom_site_fract_y
_atom_site_fract_z
Si Si1 0.229610 0.330862 0.012480
Si Si2 0.676382 0.711590 0.397118
Si Si3 0.397538 0.000000 0.547583
Si Si4 0.167698 0.164977 0.235660
Si Si5 0.932435 0.500000 0.714934
Si Si6 0.972499 0.000000 0.593745
Si Si7 0.199837 0.326194 0.855678
O O1 0.256037 0.500000 0.032360
O O2 0.947762 0.286314 0.124858
O O3 0.309637 0.336688 0.896170
O O4 0.416060 0.213997 0.975398
O O5 0.593709 0.649636 0.349676
O O6 0.592608 0.634551 0.503503
O O7 0.968543 0.721931 0.280418
O O8 0.543587 0.865948 0.456823
O O9 0.426768 0.000000 0.626475
O O10 0.121130 0.000000 0.617465
O O11 0.147400 0.000000 0.208881
O O12 0.814084 0.668633 0.778611
O O13 0.187459 0.500000 0.668307
O O14 0.196170 0.500000 0.825463
#
# Coordination Sequence:
#
# PCOD9133413 Si02
#       7
#     4   4   2   4   2   2   4
#     4  10  23  47  74 114 156 197 256 323 395 480
#     4  12  23  47  69 110 153 197 257 318 386 476
#     4  12  28  52  76 109 158 201 270 336 389 465
#     4  11  22  40  76 111 155 201 243 312 396 474
#     4  12  30  58  81 115 155 215 272 338 404 456
#     4  12  28  52  75 110 153 206 268 332 389 465
#     4  11  26  54  77 109 156 199 264 337 396 470
#
# _framework density 24.955662
#
# number of rings (size 3 to 8) (size 9 to 14) (size 15 to 20)
#    0.000    0.727    4.545    2.182    1.273    1.455 
#    9.818    0.000    0.000    0.000    0.000    0.000 
#    0.000    0.000    0.000    0.000    0.000    0.000 
#
# Total GULP energy -61263.671726 kJ/mol
# GULP energy per Si atom -5569.424702 kJ/mol
# Density = 2.489886 g / cm^3
# Si number density = 24.955662 Si / 1000 Ang^3
#
#
#
# Elastic Constant Matrix: (Units=GPa)
#
#
# Indices 1 2 3 4 5 6 
#
# 1 129.2569 36.4053 33.9438 -0.0001 0.7812 0.0000
# 2 36.4053 162.3629 57.7918 0.0000 -20.9884 0.0000
# 3 33.9438 57.7918 99.3075 -0.0004 -29.9082 0.0003
# 4 -0.0001 0.0000 -0.0004 16.0903 0.0002 2.0523
# 5 0.7812 -20.9884 -29.9082 0.0002 62.7939 -0.0001
# 6 0.0000 0.0000 0.0003 2.0523 -0.0001 21.0732
#
#
#
# Elastic Compliance Matrix: (Units=1/GPa)
#
#
# Indices 1 2 3 4 5 6 
#
# 1 0.008846 -0.001197 -0.002896 0.000000 -0.001889 0.000000
# 2 -0.001197 0.007944 -0.003981 0.000000 0.000774 0.000000
# 3 -0.002896 -0.003981 0.015161 0.000000 0.005927 0.000000
# 4 0.000000 0.000000 0.000000 0.062931 0.000000 -0.006129
# 5 -0.001889 0.000774 0.005927 0.000000 0.019030 0.000000
# 6 0.000000 0.000000 0.000000 -0.006129 0.000000 0.048051
#
#
# Mechanical properties :
#
#
# Convention : Reuss Voigt Hill
#
# Bulk Modulus (GPa) = 63.27687 71.91212 67.59449
# Shear Modulus (GPa) = 27.26603 37.51057 32.38830
#
# Velocity S-wave (km/s) = 3.30900 3.88117 3.60645
# Velocity P-wave (km/s) = 6.32535 6.99737 6.66983
#
# Compressibility (1/GPa) = 0.01580356
#
# Stress axis : x y z
#
# Youngs Moduli (GPa) = 113.05133 125.87344 65.95761
#
# Poissons Ratio (x) = 0.15064 0.19101
# Poissons Ratio (y) = 0.13530 0.26258
# Poissons Ratio (z) = 0.32740 0.50111
#
# Static dielectric constant tensor:
#      x y z
#    x 1.999860 0.000000 0.059190 
#    y 0.000000 1.884610 0.000000 
#    z 0.059190 0.000000 2.064280 
# 
# From -- ./inp_files/30289.got.cif
#   From: 2010.05.17/outbox.cif.g08.bks.cpg/sg8_16_cif.got.tgz:30289.got - 2010.06.03 19:46:02.
