data_PCOD9133294
_publ_section_title
;
Structure prediction by ZEFSAII (Michael W. Deem and Ramdas Pophale) SiO2 
 PCOD9133294
Probable space group: C M
;
_chemical_formula_sum "Si O2"
_cell_formula_units_Z 20
_cell_length_a 7.345063
_cell_length_b 14.624800
_cell_length_c 7.720506
_cell_angle_alpha 90.000000
_cell_angle_beta 80.006151
_cell_angle_gamma 90.000000
_cell_volume 816.753310
_symmetry_space_group_name_H-M "C M"
_symmetry_group_IT_number 8
_symmetry_cell_setting 'monoclinic'
loop_
_space_group_symop_operation_xyz
x,y,z
x,-y,z
1/2+x,1/2+y,z
1/2+x,1/2-y,z
loop_
_atom_site_type_symbol
_atom_site_label
_atom_site_fract_x
_atom_site_fract_y
_atom_site_fract_z
Si Si1 0.809850 0.401004 0.477960
Si Si2 0.629516 0.781601 0.302933
Si Si3 0.977352 0.141379 0.774766
Si Si4 0.596301 0.837450 0.686346
Si Si5 0.973218 0.104304 0.153882
O O1 0.817872 0.500000 0.392414
O O2 0.607108 0.386743 0.593123
O O3 0.928905 0.331588 0.339575
O O4 0.938371 0.399342 0.631110
O O5 0.686807 0.793778 0.496244
O O6 0.772975 0.845821 0.179710
O O7 0.593637 0.679424 0.238645
O O8 0.764581 0.121009 0.764062
O O9 0.000101 0.251134 0.792586
O O10 0.039146 0.100011 0.945251
O O11 0.960902 0.000000 0.224690
#
# Coordination Sequence:
#
# PCOD9133294 Si02
#       5
#     4   4   4   4   4
#     4  10  23  42  71 106 138 188 249 295 356 436
#     4  10  24  46  72  99 147 190 237 304 352 429
#     4  12  21  42  73 104 141 187 241 295 364 428
#     4  10  22  42  72 101 136 192 236 300 350 419
#     4  12  26  46  72 108 148 193 237 298 378 436
#
# _framework density 24.487197999999999
#
# number of rings (size 3 to 8) (size 9 to 14) (size 15 to 20)
#    1.200    0.000    2.000    4.800    0.000    1.600 
#    0.000    8.000    0.000    0.000    0.000    0.000 
#    0.000    0.000    0.000    0.000    0.000    0.000 
#
# Total GULP energy -55784.422160 kJ/mol
# GULP energy per Si atom -5578.442216 kJ/mol
# Density = 2.443146 g / cm^3
# Si number density = 24.487198 Si / 1000 Ang^3
#
#
#
# Elastic Constant Matrix: (Units=GPa)
#
#
# Indices 1 2 3 4 5 6 
#
# 1 122.5262 11.9950 4.5250 0.0000 11.5298 0.0000
# 2 11.9950 178.0172 22.0925 0.0000 -1.4861 0.0000
# 3 4.5250 22.0925 85.8680 0.0000 7.2036 0.0000
# 4 0.0000 0.0000 0.0000 24.6023 0.0000 -0.7394
# 5 11.5298 -1.4861 7.2036 0.0000 29.8720 0.0000
# 6 0.0000 0.0000 0.0000 -0.7394 0.0000 3.7195
#
#
#
# Elastic Compliance Matrix: (Units=1/GPa)
#
#
# Indices 1 2 3 4 5 6 
#
# 1 0.008533 -0.000601 -0.000017 0.000000 -0.003319 0.000000
# 2 -0.000601 0.005858 -0.001551 0.000000 0.000897 0.000000
# 3 -0.000017 -0.001551 0.012300 0.000000 -0.003037 0.000000
# 4 0.000000 0.000000 0.000000 0.040891 0.000000 0.008129
# 5 -0.003319 0.000897 -0.003037 0.000000 0.035534 0.000000
# 6 0.000000 0.000000 0.000000 0.008129 0.000000 0.270471
#
#
# Mechanical properties :
#
#
# Convention : Reuss Voigt Hill
#
# Bulk Modulus (GPa) = 44.73182 51.51519 48.12351
# Shear Modulus (GPa) = 12.97436 34.82534 23.89985
#
# Velocity S-wave (km/s) = 2.30433 3.77528 3.12751
# Velocity P-wave (km/s) = 5.03855 6.33142 5.72162
#
# Compressibility (1/GPa) = 0.02235545
#
# Stress axis : x y z
#
# Youngs Moduli (GPa) = 117.18801 170.71116 81.29805
#
# Poissons Ratio (x) = 0.10253 0.00136
# Poissons Ratio (y) = 0.07039 0.12607
# Poissons Ratio (z) = 0.00195 0.26473
#
# Static dielectric constant tensor:
#      x y z
#    x 1.987960 0.000000 0.049430 
#    y 0.000000 2.077750 0.000000 
#    z 0.049430 0.000000 1.955900 
# 
# From -- ./inp_files/7758.got.cif
#   From: 2010.05.17/outbox.cif.g08.bks.cpg/sg8_4_cif.got.tgz:7758.got - 2010.06.03 19:46:02.
