data_PCOD9133198
_publ_section_title
;
Structure prediction by ZEFSAII (Michael W. Deem and Ramdas Pophale) SiO2 
 PCOD9133198
Probable space group: C M
;
_chemical_formula_sum "Si O2"
_cell_formula_units_Z 32
_cell_length_a 19.495397
_cell_length_b 8.937708
_cell_length_c 12.158378
_cell_angle_alpha 90.000000
_cell_angle_beta 127.484183
_cell_angle_gamma 90.000000
_cell_volume 1681.095983
_symmetry_space_group_name_H-M "C M"
_symmetry_group_IT_number 8
_symmetry_cell_setting 'monoclinic'
loop_
_space_group_symop_operation_xyz
x,y,z
x,-y,z
1/2+x,1/2+y,z
1/2+x,1/2-y,z
loop_
_atom_site_type_symbol
_atom_site_label
_atom_site_fract_x
_atom_site_fract_y
_atom_site_fract_z
Si Si1 0.041040 0.173757 0.542880
Si Si2 0.299308 0.678202 0.518993
Si Si3 0.975501 0.818129 0.075158
Si Si4 0.322937 0.321841 0.091105
Si Si5 0.975151 0.181499 0.819282
Si Si6 0.127179 0.322322 0.821755
Si Si7 0.359183 0.823192 0.360963
Si Si8 0.622563 0.324840 0.383860
O O1 0.113931 0.237641 0.693749
O O2 0.067326 0.183816 0.441582
O O3 0.956582 0.271511 0.481252
O O4 0.022733 0.000000 0.551316
O O5 0.299784 0.500000 0.511869
O O6 0.385089 0.722450 0.671103
O O7 0.302713 0.748460 0.401014
O O8 0.210498 0.734889 0.484471
O O9 0.891816 0.773060 0.065256
O O10 0.061809 0.770339 0.224673
O O11 0.976018 0.000000 0.076269
O O12 0.972965 0.772551 0.945421
O O13 0.336908 0.500000 0.123028
O O14 0.338095 0.238210 0.219949
O O15 0.224580 0.299496 0.957988
O O16 0.055770 0.255163 0.835070
O O17 0.983467 0.000000 0.822177
O O18 0.113011 0.500000 0.795059
O O19 0.350354 0.000000 0.356176
O O20 0.643370 0.500000 0.385280
#
# Coordination Sequence:
#
# PCOD9133198 Si02
#       8
#     4   4   4   4   4   4   4   4
#     4  11  22  41  66  90 124 165 205 254 314 368
#     4  11  24  40  62  91 126 164 205 254 310 367
#     4   9  19  40  64  86 118 162 206 247 302 367
#     4  10  22  42  65  90 124 163 204 251 311 369
#     4  10  22  40  63  86 120 168 206 247 305 369
#     4  11  24  39  63  94 124 161 206 258 305 361
#     4  12  24  40  65  92 122 160 211 262 306 363
#     4  10  22  40  64  91 122 161 205 255 307 366
#
# _framework density 19.035201000000001
#
# number of rings (size 3 to 8) (size 9 to 14) (size 15 to 20)
#    0.000    1.500    2.500    2.250    3.500    2.500 
#    0.000    0.625    0.000    0.000    0.000    0.000 
#    0.000    0.000    0.000    0.000    0.000    0.000 
#
# Total GULP energy -89399.371355 kJ/mol
# GULP energy per Si atom -5587.460710 kJ/mol
# Density = 1.899188 g / cm^3
# Si number density = 19.035201 Si / 1000 Ang^3
#
#
#
# Elastic Constant Matrix: (Units=GPa)
#
#
# Indices 1 2 3 4 5 6 
#
# 1 50.7749 15.7902 24.1952 0.0000 4.8590 0.0000
# 2 15.7902 44.5272 34.6887 0.0000 4.7068 0.0000
# 3 24.1952 34.6887 98.5393 0.0000 -10.0604 0.0000
# 4 0.0000 0.0000 0.0000 25.6644 0.0000 0.4244
# 5 4.8590 4.7068 -10.0604 0.0000 33.2144 0.0000
# 6 0.0000 0.0000 0.0000 0.4244 0.0000 24.7426
#
#
#
# Elastic Compliance Matrix: (Units=1/GPa)
#
#
# Indices 1 2 3 4 5 6 
#
# 1 0.023696 -0.004232 -0.004768 0.000000 -0.004311 0.000000
# 2 -0.004232 0.033866 -0.011670 0.000000 -0.007715 0.000000
# 3 -0.004768 -0.011670 0.016167 0.000000 0.007248 0.000000
# 4 0.000000 0.000000 0.000000 0.038975 0.000000 -0.000669
# 5 -0.004311 -0.007715 0.007248 0.000000 0.034027 0.000000
# 6 0.000000 0.000000 0.000000 -0.000669 0.000000 0.040428
#
#
# Mechanical properties :
#
#
# Convention : Reuss Voigt Hill
#
# Bulk Modulus (GPa) = 30.87657 38.13218 34.50437
# Shear Modulus (GPa) = 20.89450 24.66879 22.78164
#
# Velocity S-wave (km/s) = 3.31671 3.60384 3.46326
# Velocity P-wave (km/s) = 5.56089 6.11497 5.84450
#
# Compressibility (1/GPa) = 0.03238702
#
# Stress axis : x y z
#
# Youngs Moduli (GPa) = 42.20159 29.52785 61.85293
#
# Poissons Ratio (x) = 0.12498 0.29494
# Poissons Ratio (y) = 0.17862 0.72184
# Poissons Ratio (z) = 0.20123 0.34460
#
# Static dielectric constant tensor:
#      x y z
#    x 1.646490 0.000000 0.002810 
#    y 0.000000 1.636660 0.000000 
#    z 0.002810 0.000000 1.653680 
# 
# From -- ./inp_files/23910.got.cif
#   From: 2010.05.17/outbox.cif.g08.bks.cpg/sg8_12_cif.got.tgz:23910.got - 2010.06.03 19:46:02.
