data_PCOD9133842
_publ_section_title
;
Structure prediction by ZEFSAII (Michael W. Deem and Ramdas Pophale) SiO2 
 PCOD9133842
Probable space group: C C
;
_chemical_formula_sum "Si O2"
_cell_formula_units_Z 32
_cell_length_a 9.324257
_cell_length_b 19.933617
_cell_length_c 9.543733
_cell_angle_alpha 90.000000
_cell_angle_beta 134.039806
_cell_angle_gamma 90.000000
_cell_volume 1275.149607
_symmetry_space_group_name_H-M "C C"
_symmetry_group_IT_number 9
_symmetry_cell_setting 'monoclinic'
loop_
_space_group_symop_operation_xyz
x,y,z
x,-y,1/2+z
1/2+x,1/2+y,z
1/2+x,1/2-y,1/2+z
loop_
_atom_site_type_symbol
_atom_site_label
_atom_site_fract_x
_atom_site_fract_y
_atom_site_fract_z
Si Si1 0.758900 0.190938 0.869520
Si Si2 0.235839 0.919110 0.166658
Si Si3 0.861517 0.660233 0.989320
Si Si4 0.252075 0.930764 0.651687
Si Si5 0.770460 0.948390 0.277476
Si Si6 0.632684 0.660155 0.318167
Si Si7 0.413993 0.293207 0.161059
Si Si8 0.803192 0.071744 0.485378
O O1 0.662539 0.117714 0.768813
O O2 0.685455 0.261919 0.880632
O O3 0.814073 0.215423 0.746305
O O4 0.925449 0.167868 0.094192
O O5 0.384022 0.870265 0.351368
O O6 0.045396 0.935228 0.137204
O O7 0.320234 0.992554 0.201433
O O8 0.144644 0.882000 0.969478
O O9 0.629262 0.679468 0.846607
O O10 0.882937 0.604832 0.122393
O O11 0.960614 0.729075 0.098730
O O12 0.263985 0.883867 0.797328
O O13 0.012147 0.934841 0.454423
O O14 0.730071 0.952035 0.086371
O O15 0.731586 0.019521 0.321282
O O16 0.290502 0.347440 0.986789
#
# Coordination Sequence:
#
# PCOD9133842 Si02
#       8
#     4   4   4   4   4   4   4   4
#     4  10  19  34  53  80 104 143 177 218 266 318
#     4  10  21  31  50  84 108 134 175 231 268 297
#     4  11  19  35  55  80 105 142 175 218 270 319
#     4  10  17  32  53  75 103 137 177 222 258 308
#     4   9  17  30  50  76 102 130 177 218 263 304
#     4  11  21  33  55  80 109 140 178 219 266 319
#     4  10  18  35  54  79 106 137 184 214 264 326
#     4   9  18  30  50  76 103 133 171 224 261 303
#
# _framework density 25.095095000000001
#
# number of rings (size 3 to 8) (size 9 to 14) (size 15 to 20)
#    0.000    2.000    6.250    0.750    8.750    2.000 
#    0.000    0.000    0.000    3.000    0.000    0.000 
#    0.000    0.000    0.000    0.000    0.000    0.000 
#
# Total GULP energy -89281.187865 kJ/mol
# GULP energy per Si atom -5580.074242 kJ/mol
# Density = 2.503798 g / cm^3
# Si number density = 25.095095 Si / 1000 Ang^3
#
#
#
# Elastic Constant Matrix: (Units=GPa)
#
#
# Indices 1 2 3 4 5 6 
#
# 1 39.4569 17.0852 19.8876 0.0000 -5.8353 0.0000
# 2 17.0852 167.1375 73.4743 0.0000 -19.5622 0.0000
# 3 19.8876 73.4743 99.6277 0.0000 -25.5426 0.0000
# 4 0.0000 0.0000 0.0000 42.9214 0.0000 -9.8649
# 5 -5.8353 -19.5622 -25.5426 0.0000 35.7320 0.0000
# 6 0.0000 0.0000 0.0000 -9.8649 0.0000 13.5268
#
#
#
# Elastic Compliance Matrix: (Units=1/GPa)
#
#
# Indices 1 2 3 4 5 6 
#
# 1 0.028235 -0.000600 -0.005015 0.000000 0.000698 0.000000
# 2 -0.000600 0.008868 -0.006367 0.000000 0.000205 0.000000
# 3 -0.005015 -0.006367 0.017914 0.000000 0.008500 0.000000
# 4 0.000000 0.000000 0.000000 0.027990 0.000000 0.020413
# 5 0.000698 0.000205 0.008500 0.000000 0.034289 0.000000
# 6 0.000000 0.000000 0.000000 0.020413 0.000000 0.088814
#
#
# Mechanical properties :
#
#
# Convention : Reuss Voigt Hill
#
# Bulk Modulus (GPa) = 32.20453 58.56849 45.38651
# Shear Modulus (GPa) = 20.79664 31.48771 26.14218
#
# Velocity S-wave (km/s) = 2.88186 3.54607 3.23108
# Velocity P-wave (km/s) = 4.89227 6.33683 5.66082
#
# Compressibility (1/GPa) = 0.03105153
#
# Stress axis : x y z
#
# Youngs Moduli (GPa) = 35.41732 112.77063 55.82341
#
# Poissons Ratio (x) = 0.06767 0.27994
# Poissons Ratio (y) = 0.02125 0.35545
# Poissons Ratio (z) = 0.17761 0.71805
#
# Static dielectric constant tensor:
#      x y z
#    x 2.019640 0.000000 0.051770 
#    y 0.000000 2.043080 0.000000 
#    z 0.051770 0.000000 2.036970 
# 
# From -- ./inp_files/8017.got.cif
#   From: 2010.05.17/outbox.cif.g08.bks.cpg/sg9_5_cif.got.tgz:8017.got - 2010.06.03 20:04:27.
