data_PCOD9133840
_publ_section_title
;
Structure prediction by ZEFSAII (Michael W. Deem and Ramdas Pophale) SiO2 
 PCOD9133840
Probable space group: C C
;
_chemical_formula_sum "Si O2"
_cell_formula_units_Z 32
_cell_length_a 18.157410
_cell_length_b 14.910633
_cell_length_c 9.578331
_cell_angle_alpha 90.000000
_cell_angle_beta 35.957306
_cell_angle_gamma 90.000000
_cell_volume 1522.694365
_symmetry_space_group_name_H-M "C C"
_symmetry_group_IT_number 9
_symmetry_cell_setting 'monoclinic'
loop_
_space_group_symop_operation_xyz
x,y,z
x,-y,1/2+z
1/2+x,1/2+y,z
1/2+x,1/2-y,1/2+z
loop_
_atom_site_type_symbol
_atom_site_label
_atom_site_fract_x
_atom_site_fract_y
_atom_site_fract_z
Si Si1 0.716510 0.654294 0.838880
Si Si2 0.953340 0.199153 0.311859
Si Si3 0.778574 0.051787 0.448364
Si Si4 0.505260 0.558852 0.473869
Si Si5 0.867595 0.420232 0.874265
Si Si6 0.607116 0.984552 0.956203
Si Si7 0.650003 0.546244 0.515420
Si Si8 0.381773 0.122325 0.840893
O O1 0.817301 0.652249 0.560587
O O2 0.784847 0.665064 0.881587
O O3 0.587373 0.707430 0.026279
O O4 0.671142 0.551855 0.918858
O O5 0.852957 0.141972 0.375863
O O6 0.976983 0.140133 0.412755
O O7 0.910895 0.300187 0.404210
O O8 0.670904 0.055590 0.496456
O O9 0.882066 0.984092 0.229764
O O10 0.712438 0.010870 0.685818
O O11 0.584448 0.594018 0.485741
O O12 0.566827 0.480335 0.280510
O O13 0.840836 0.525322 0.962034
O O14 0.016546 0.428917 0.622933
O O15 0.778802 0.412908 0.875354
O O16 0.504861 0.910593 0.065424
#
# Coordination Sequence:
#
# PCOD9133840 Si02
#       8
#     4   4   4   4   4   4   4   4
#     4  10  18  37  63  93 118 162 216 257 300 379
#     4  11  23  37  62  97 125 163 209 274 318 370
#     4  12  20  37  59  92 122 165 208 252 306 380
#     4  11  19  34  59  94 126 159 211 264 309 372
#     4   9  19  36  62  94 119 165 214 258 294 384
#     4  10  23  35  60  91 124 164 208 248 309 388
#     4  10  17  31  58  95 116 151 214 266 299 352
#     4   9  23  37  59  94 124 163 206 259 325 367
#
# _framework density 21.015378999999999
#
# number of rings (size 3 to 8) (size 9 to 14) (size 15 to 20)
#    0.750    1.000    5.000    0.750    1.750    0.000 
#    0.000    0.000    0.000    7.500    6.500    0.000 
#    0.000    0.000    0.000    0.000    0.000    0.000 
#
# Total GULP energy -89078.941935 kJ/mol
# GULP energy per Si atom -5567.433871 kJ/mol
# Density = 2.096755 g / cm^3
# Si number density = 21.015379 Si / 1000 Ang^3
#
#
#
# Elastic Constant Matrix: (Units=GPa)
#
#
# Indices 1 2 3 4 5 6 
#
# 1 88.6170 11.4047 30.6261 0.0000 -4.9426 0.0000
# 2 11.4047 52.0627 23.8437 0.0000 0.7042 0.0000
# 3 30.6261 23.8437 106.8041 0.0000 0.4265 0.0000
# 4 0.0000 0.0000 0.0000 4.9720 0.0000 0.4555
# 5 -4.9426 0.7042 0.4265 0.0000 29.7172 0.0000
# 6 0.0000 0.0000 0.0000 0.4555 0.0000 15.1943
#
#
#
# Elastic Compliance Matrix: (Units=1/GPa)
#
#
# Indices 1 2 3 4 5 6 
#
# 1 0.012738 -0.001273 -0.003377 0.000000 0.002197 0.000000
# 2 -0.001273 0.021528 -0.004438 0.000000 -0.000658 0.000000
# 3 -0.003377 -0.004438 0.011325 0.000000 -0.000619 0.000000
# 4 0.000000 0.000000 0.000000 0.201679 0.000000 -0.006046
# 5 0.002197 -0.000658 -0.000619 0.000000 0.034040 0.000000
# 6 0.000000 0.000000 0.000000 -0.006046 0.000000 0.065995
#
#
# Mechanical properties :
#
#
# Convention : Reuss Voigt Hill
#
# Bulk Modulus (GPa) = 36.47886 42.13698 39.30792
# Shear Modulus (GPa) = 13.34682 22.08400 17.71541
#
# Velocity S-wave (km/s) = 2.52285 3.24520 2.90655
# Velocity P-wave (km/s) = 5.08746 5.84259 5.47805
#
# Compressibility (1/GPa) = 0.02741314
#
# Stress axis : x y z
#
# Youngs Moduli (GPa) = 78.50464 46.45084 88.30297
#
# Poissons Ratio (x) = 0.05915 0.29821
# Poissons Ratio (y) = 0.09997 0.39192
# Poissons Ratio (z) = 0.26512 0.20616
#
# Static dielectric constant tensor:
#      x y z
#    x 1.855210 0.000000 -0.059070 
#    y 0.000000 1.738540 0.000000 
#    z -0.059070 0.000000 1.840700 
# 
# From -- ./inp_files/10949.got.cif
#   From: 2010.05.17/outbox.cif.g08.bks.cpg/sg9_6_cif.got.tgz:10949.got - 2010.06.03 20:04:27.
