data_PCOD9133707
_publ_section_title
;
Structure prediction by ZEFSAII (Michael W. Deem and Ramdas Pophale) SiO2 
 PCOD9133707
Probable space group: C M
;
_chemical_formula_sum "Si O2"
_cell_formula_units_Z 16
_cell_length_a 12.000000
_cell_length_b 18.000000
_cell_length_c 15.000000
_cell_angle_alpha 90.000000
_cell_angle_beta 30.000000
_cell_angle_gamma 90.000000
_cell_volume 1620.000000
_symmetry_space_group_name_H-M "C M"
_symmetry_group_IT_number 8
_symmetry_cell_setting 'monoclinic'
loop_
_space_group_symop_operation_xyz
x,y,z
x,-y,z
1/2+x,1/2+y,z
1/2+x,1/2-y,z
loop_
_atom_site_type_symbol
_atom_site_label
_atom_site_fract_x
_atom_site_fract_y
_atom_site_fract_z
Si Si1 0.391150 0.179919 0.556540
Si Si2 0.957699 0.837344 0.733648
Si Si3 0.096063 0.410752 0.106361
Si Si4 0.910074 0.088183 0.392001
Si Si5 0.948494 0.667873 0.711404
Si Si6 0.606450 0.654141 0.433555
Si Si7 0.751074 0.911290 0.198837
Si Si8 0.163082 0.911929 0.036274
O O1 0.344458 0.147843 0.687562
O O2 0.510636 0.261529 0.483402
O O3 0.562399 0.127646 0.386937
O O4 0.169358 0.176012 0.651394
O O5 0.880854 0.752973 0.771122
O O6 0.026453 0.867228 0.588573
O O7 0.772984 0.887433 0.908658
O O8 0.046339 0.500000 0.137193
O O9 0.210067 0.394293 0.123481
O O10 0.872558 0.361154 0.250634
O O11 0.706096 0.145144 0.519881
O O12 0.011808 0.104870 0.418203
O O13 0.081047 0.104764 0.192615
O O14 0.847178 0.000000 0.427664
O O15 0.881595 0.626609 0.848148
O O16 0.979588 0.888996 0.089343
O O17 0.735137 0.000000 0.219112
O O18 0.191265 0.000000 0.011560
#
# Coordination Sequence:
#
# PCOD9133707 Si02
#       8
#     4   4   4   4   4   4   4   4
#     4  11  22  42  67  95 128 168 214 269 323 382
#     4  11  25  43  65  98 127 168 218 266 326 381
#     4  11  25  44  68  97 130 172 218 268 324 383
#     4  11  23  42  65  92 129 170 214 261 317 389
#     4  11  23  39  65  95 128 168 210 263 322 383
#     4  11  25  44  66  95 130 175 216 264 323 385
#     4  10  21  39  67  96 124 165 211 264 324 374
#     4  10  22  39  63  96 128 164 209 263 323 379
#
# _framework density 9.8765429999999999
#
# number of rings (size 3 to 8) (size 9 to 14) (size 15 to 20)
#    0.000    1.250    3.750    1.500    1.750    4.000 
#    0.000    0.000    0.000    0.000    0.000    0.000 
#    0.000    0.000    0.000    0.000    0.000    0.000 
#
# Total GULP energy -89255.510577 kJ/mol
# GULP energy per Si atom -5578.469411 kJ/mol
# Density = 0.985406 g / cm^3
# Si number density = 9.876543 Si / 1000 Ang^3
#
#
#
# Elastic Constant Matrix: (Units=GPa)
#
#
# Indices 1 2 3 4 5 6 
#
# 1 99.9465 22.2804 19.7054 -0.0479 30.1444 -0.0118
# 2 22.2804 -5.8417 24.2756 -0.0196 11.4650 -0.0084
# 3 19.7054 24.2756 91.8483 -0.0488 31.9334 -0.0038
# 4 -0.0479 -0.0196 -0.0488 33.8560 0.0521 8.7313
# 5 30.1444 11.4650 31.9334 0.0521 26.3383 0.0483
# 6 -0.0118 -0.0084 -0.0038 8.7313 0.0483 35.2746
#
#
#
# Elastic Compliance Matrix: (Units=1/GPa)
#
#
# Indices 1 2 3 4 5 6 
#
# 1 0.013859 0.013416 0.001774 0.000060 -0.023852 0.000026
# 2 0.013416 -0.064783 0.016903 0.000018 -0.007648 -0.000003
# 3 0.001774 0.016903 0.016083 0.000073 -0.028888 0.000028
# 4 0.000060 0.000018 0.000073 0.031551 -0.000213 -0.007809
# 5 -0.023852 -0.007648 -0.028888 -0.000213 0.103621 -0.000102
# 6 0.000026 -0.000003 0.000028 -0.007809 -0.000102 0.030282
#
#
# Mechanical properties :
#
#
# Convention : Reuss Voigt Hill
#
# Bulk Modulus (GPa) = 34.07813 35.38620 34.73216
# Shear Modulus (GPa) = 65.60884 27.07323 46.34104
#
# Velocity S-wave (km/s) = 5.76945 3.70615 4.84882
# Velocity P-wave (km/s) = 7.85313 6.02223 6.99782
#
# Compressibility (1/GPa) = 0.02934433
#
# Stress axis : x y z
#
# Youngs Moduli (GPa) = 72.15560 -15.43612 62.17731
#
# Poissons Ratio (x) = 0.20709 -0.11028
# Poissons Ratio (y) = -0.96803 -1.05099
# Poissons Ratio (z) = -0.12798 0.26092
#
# Static dielectric constant tensor:
#      x y z
#    x 1.755880 0.000060 -0.044540 
#    y 0.000060 1.685960 0.000000 
#    z -0.044540 0.000000 1.708510 
# 
# From -- ./inp_files/26254.got.cif
#   From: 2010.05.17/outbox.ucp.g08.bks.cvg/sg8_14_cif.got.tgz:26254.got - 2010.06.11 13:00:03.
