data_PCOD9133257
_publ_section_title
;
Structure prediction by ZEFSAII (Michael W. Deem and Ramdas Pophale) SiO2 
 PCOD9133257
Probable space group: C M
;
_chemical_formula_sum "Si O2"
_cell_formula_units_Z 28
_cell_length_a 7.966666
_cell_length_b 15.096057
_cell_length_c 11.560405
_cell_angle_alpha 90.000000
_cell_angle_beta 57.509771
_cell_angle_gamma 90.000000
_cell_volume 1172.707094
_symmetry_space_group_name_H-M "C M"
_symmetry_group_IT_number 8
_symmetry_cell_setting 'monoclinic'
loop_
_space_group_symop_operation_xyz
x,y,z
x,-y,z
1/2+x,1/2+y,z
1/2+x,1/2-y,z
loop_
_atom_site_type_symbol
_atom_site_label
_atom_site_fract_x
_atom_site_fract_y
_atom_site_fract_z
Si Si1 0.836780 0.295543 0.390300
Si Si2 0.711176 0.268370 0.190679
Si Si3 0.204983 0.394454 0.547369
Si Si4 0.242722 0.102747 0.643451
Si Si5 0.918742 0.161562 0.923799
Si Si6 0.647541 0.405597 0.041692
Si Si7 0.119182 0.396763 0.842392
O O1 0.782383 0.316095 0.278464
O O2 0.797671 0.194044 0.451454
O O3 0.737089 0.362569 0.515076
O O4 0.074537 0.307671 0.295452
O O5 0.864412 0.234044 0.039396
O O6 0.581220 0.333251 0.158728
O O7 0.267748 0.500000 0.503107
O O8 0.215589 0.377505 0.681947
O O9 0.970339 0.392719 0.601228
O O10 0.103485 0.168623 0.768480
O O11 0.175448 0.000000 0.678634
O O12 0.729546 0.148567 0.910374
O O13 0.008877 0.091422 0.981115
O O14 0.646127 0.500000 0.102130
O O15 0.878740 0.388730 0.920283
O O16 0.155067 0.500000 0.851842
#
# Coordination Sequence:
#
# PCOD9133257 Si02
#       7
#     4   4   4   4   4   4   4
#     4  12  26  48  69 106 147 197 245 304 369 444
#     4  12  27  47  67 104 148 193 249 298 376 446
#     4  10  23  45  72 104 147 191 244 304 369 442
#     4  11  25  47  76 107 144 195 250 309 372 439
#     4  12  25  45  74 107 147 187 247 309 369 441
#     4  11  24  45  71 101 147 191 242 307 366 438
#     4  10  22  41  69 107 140 182 240 301 363 430
#
# _framework density 23.876377999999999
#
# number of rings (size 3 to 8) (size 9 to 14) (size 15 to 20)
#    0.000    0.857    4.286    2.143    4.000    1.143 
#    0.000    2.143    0.000    0.000    0.000    0.000 
#    0.000    0.000    0.000    0.000    0.000    0.000 
#
# Total GULP energy -78022.327469 kJ/mol
# GULP energy per Si atom -5573.023391 kJ/mol
# Density = 2.382203 g / cm^3
# Si number density = 23.876378 Si / 1000 Ang^3
#
#
#
# Elastic Constant Matrix: (Units=GPa)
#
#
# Indices 1 2 3 4 5 6 
#
# 1 105.4646 19.6535 29.4461 0.0000 25.5047 0.0000
# 2 19.6535 73.3565 55.7956 0.0000 6.0022 0.0000
# 3 29.4461 55.7956 141.3809 0.0000 26.1887 0.0000
# 4 0.0000 0.0000 0.0000 20.0361 0.0000 9.0205
# 5 25.5047 6.0022 26.1887 0.0000 51.2986 0.0000
# 6 0.0000 0.0000 0.0000 9.0205 0.0000 16.1370
#
#
#
# Elastic Compliance Matrix: (Units=1/GPa)
#
#
# Indices 1 2 3 4 5 6 
#
# 1 0.011267 -0.002191 -0.000543 0.000000 -0.005068 0.000000
# 2 -0.002191 0.020060 -0.007982 0.000000 0.002817 0.000000
# 3 -0.000543 -0.007982 0.011170 0.000000 -0.004498 0.000000
# 4 0.000000 0.000000 0.000000 0.066695 0.000000 -0.037282
# 5 -0.005068 0.002817 -0.004498 0.000000 0.023980 0.000000
# 6 0.000000 0.000000 0.000000 -0.037282 0.000000 0.082810
#
#
# Mechanical properties :
#
#
# Convention : Reuss Voigt Hill
#
# Bulk Modulus (GPa) = 47.47339 58.88804 53.18072
# Shear Modulus (GPa) = 20.45529 31.84812 26.15170
#
# Velocity S-wave (km/s) = 2.93015 3.65619 3.31312
# Velocity P-wave (km/s) = 5.60124 6.52234 6.07926
#
# Compressibility (1/GPa) = 0.02106443
#
# Stress axis : x y z
#
# Youngs Moduli (GPa) = 88.75097 49.85110 89.52907
#
# Poissons Ratio (x) = 0.10921 0.04864
# Poissons Ratio (y) = 0.19444 0.71463
# Poissons Ratio (z) = 0.04822 0.39791
#
# Static dielectric constant tensor:
#      x y z
#    x 2.026300 0.000000 -0.018310 
#    y 0.000000 1.970680 0.000000 
#    z -0.018310 0.000000 1.915960 
# 
# From -- ./inp_files/18836.got.cif
#   From: 2010.05.17/outbox.cif.g08.bks.cpg/sg8_10_cif.got.tgz:18836.got - 2010.06.03 19:46:02.
