data_PCOD9133696
_publ_section_title
;
Structure prediction by ZEFSAII (Michael W. Deem and Ramdas Pophale) SiO2 
 PCOD9133696
Probable space group: C M
;
_chemical_formula_sum "Si O2"
_cell_formula_units_Z 16
_cell_length_a 15.000000
_cell_length_b 9.000000
_cell_length_c 24.000000
_cell_angle_alpha 90.000000
_cell_angle_beta 30.000000
_cell_angle_gamma 90.000000
_cell_volume 1620.000000
_symmetry_space_group_name_H-M "C M"
_symmetry_group_IT_number 8
_symmetry_cell_setting 'monoclinic'
loop_
_space_group_symop_operation_xyz
x,y,z
x,-y,z
1/2+x,1/2+y,z
1/2+x,1/2-y,z
loop_
_atom_site_type_symbol
_atom_site_label
_atom_site_fract_x
_atom_site_fract_y
_atom_site_fract_z
Si Si1 0.698670 0.679047 0.177540
Si Si2 0.952465 0.321475 0.821516
Si Si3 0.812582 0.669351 0.588099
Si Si4 0.102445 0.669710 0.531024
Si Si5 0.466053 0.821468 0.937269
Si Si6 0.326739 0.821683 0.772311
Si Si7 0.856982 0.676791 0.312944
Si Si8 0.126872 0.680441 0.338122
O O1 0.698267 0.500000 0.184773
O O2 0.537107 0.734052 0.226306
O O3 0.671634 0.755777 0.252653
O O4 0.867732 0.725026 0.047615
O O5 0.953272 0.500000 0.822047
O O6 0.148463 0.267950 0.696846
O O7 0.895989 0.270271 0.914028
O O8 0.833214 0.276131 0.833388
O O9 0.750112 0.500000 0.612675
O O10 0.949480 0.666180 0.566161
O O11 0.929596 0.715860 0.470626
O O12 0.175959 0.500000 0.494440
O O13 0.242114 0.785143 0.430572
O O14 0.009105 0.708705 0.639813
O O15 0.666526 0.763152 0.830300
O O16 0.459875 0.000000 0.940496
O O17 0.300157 0.000000 0.782620
O O18 0.880746 0.500000 0.294469
O O19 0.758199 0.745564 0.312642
O O20 0.142986 0.500000 0.329927
#
# Coordination Sequence:
#
# PCOD9133696 Si02
#       8
#     4   4   4   4   4   4   4   4
#     4  11  24  42  63  87 122 167 212 257 304 361
#     4  10  21  36  57  87 118 153 195 240 296 357
#     4   9  18  34  57  85 119 152 188 241 302 357
#     4   9  18  35  57  85 123 160 196 246 304 358
#     4  10  23  42  60  85 121 157 200 253 301 353
#     4  10  21  37  59  87 117 157 202 244 297 359
#     4  11  23  39  61  92 124 162 206 249 307 370
#     4  10  22  41  62  90 124 158 203 258 311 365
#
# _framework density 9.8765429999999999
#
# number of rings (size 3 to 8) (size 9 to 14) (size 15 to 20)
#    0.000    2.000    1.250    2.625    1.750    5.500 
#    0.000    1.250    0.000    0.000    0.000    0.000 
#    0.000    0.000    0.000    0.000    0.000    0.000 
#
# Total GULP energy -89248.388530 kJ/mol
# GULP energy per Si atom -5578.024283 kJ/mol
# Density = 0.985406 g / cm^3
# Si number density = 9.876543 Si / 1000 Ang^3
#
#
#
# Elastic Constant Matrix: (Units=GPa)
#
#
# Indices 1 2 3 4 5 6 
#
# 1 76.5692 7.0819 25.3405 0.0000 31.0247 0.0000
# 2 7.0819 32.8129 11.6594 0.0000 11.0261 0.0000
# 3 25.3405 11.6594 74.0426 -0.0008 29.5649 0.0001
# 4 0.0000 0.0000 -0.0008 27.7527 0.0001 4.7782
# 5 31.0247 11.0261 29.5649 0.0001 38.4053 0.0000
# 6 0.0000 0.0000 0.0001 4.7782 0.0000 27.3436
#
#
#
# Elastic Compliance Matrix: (Units=1/GPa)
#
#
# Indices 1 2 3 4 5 6 
#
# 1 0.019478 0.001267 -0.000632 0.000000 -0.015612 0.000000
# 2 0.001267 0.034037 -0.002141 0.000000 -0.009147 0.000000
# 3 -0.000632 -0.002141 0.019650 0.000001 -0.014002 0.000000
# 4 0.000000 0.000000 0.000001 0.037150 -0.000001 -0.006492
# 5 -0.015612 -0.009147 -0.014002 -0.000001 0.052054 0.000000
# 6 0.000000 0.000000 0.000000 -0.006492 0.000000 0.037706
#
#
# Mechanical properties :
#
#
# Convention : Reuss Voigt Hill
#
# Bulk Modulus (GPa) = 14.25464 30.17648 22.21556
# Shear Modulus (GPa) = 22.07785 27.98984 25.03385
#
# Velocity S-wave (km/s) = 3.34682 3.76837 3.56383
# Velocity P-wave (km/s) = 4.70818 5.85185 5.31089
#
# Compressibility (1/GPa) = 0.07015262
#
# Stress axis : x y z
#
# Youngs Moduli (GPa) = 51.34081 29.37988 50.89083
#
# Poissons Ratio (x) = -0.03722 0.03215
# Poissons Ratio (y) = -0.06504 0.10895
# Poissons Ratio (z) = 0.03244 0.06290
#
# Static dielectric constant tensor:
#      x y z
#    x 1.720870 0.000000 -0.002060 
#    y 0.000000 1.663840 0.000000 
#    z -0.002060 0.000000 1.719940 
# 
# From -- ./inp_files/28187.got.cif
#   From: 2010.05.17/outbox.ucp.g08.bks.cvg/sg8_15_cif.got.tgz:28187.got - 2010.06.11 13:00:03.
