data_PCOD9133056
_publ_section_title
;
Structure prediction by ZEFSAII (Michael W. Deem and Ramdas Pophale) SiO2 
 PCOD9133056
Probable space group: C M
;
_chemical_formula_sum "Si O2"
_cell_formula_units_Z 26
_cell_length_a 21.157276
_cell_length_b 10.758166
_cell_length_c 6.968179
_cell_angle_alpha 90.000000
_cell_angle_beta 139.034236
_cell_angle_gamma 90.000000
_cell_volume 1039.827987
_symmetry_space_group_name_H-M "C M"
_symmetry_group_IT_number 8
_symmetry_cell_setting 'monoclinic'
loop_
_space_group_symop_operation_xyz
x,y,z
x,-y,z
1/2+x,1/2+y,z
1/2+x,1/2-y,z
loop_
_atom_site_type_symbol
_atom_site_label
_atom_site_fract_x
_atom_site_fract_y
_atom_site_fract_z
Si Si1 0.543070 0.863764 0.281650
Si Si2 0.498791 0.865015 0.630347
Si Si3 0.692859 0.757184 0.106147
Si Si4 0.876492 0.127451 0.419571
Si Si5 0.673988 0.637852 0.667152
Si Si6 0.874375 0.000000 0.811843
Si Si7 0.832718 0.267879 0.779000
O O1 0.531925 0.873134 0.486595
O O2 0.612024 0.745027 0.422468
O O3 0.435329 0.830219 0.969265
O O4 0.575902 0.000000 0.287247
O O5 0.596250 0.821810 0.960194
O O6 0.424956 0.753173 0.471148
O O7 0.463420 0.000000 0.611879
O O8 0.669283 0.658395 0.886215
O O9 0.761322 0.857535 0.156104
O O10 0.781774 0.657365 0.836585
O O11 0.899195 0.103795 0.697257
O O12 0.910174 0.000000 0.398644
O O13 0.636940 0.500000 0.534951
O O14 0.759029 0.712720 0.432202
O O15 0.839714 0.120820 0.858562
#
# Coordination Sequence:
#
# PCOD9133056 Si02
#       7
#     4   4   4   4   4   2   4
#     4  10  24  45  67 101 143 184 234 280 346 426
#     4  10  21  40  68 102 140 182 229 288 349 411
#     4  10  23  44  68 101 139 180 228 285 340 417
#     4   9  19  40  65  93 137 174 225 282 331 409
#     4  11  26  46  70 106 139 181 234 287 348 413
#     4   8  22  40  62  98 134 172 238 274 336 418
#     4  11  23  45  71 100 141 185 228 294 341 410
#
# _framework density 25.004135000000002
#
# number of rings (size 3 to 8) (size 9 to 14) (size 15 to 20)
#    0.462    1.538    0.000    1.846    3.231    8.615 
#    2.769    7.692    0.000    0.000    0.000    0.000 
#    0.000    0.000    0.000    0.000    0.000    0.000 
#
# Total GULP energy -72370.797203 kJ/mol
# GULP energy per Si atom -5566.984400 kJ/mol
# Density = 2.494722 g / cm^3
# Si number density = 25.004135 Si / 1000 Ang^3
#
#
#
# Elastic Constant Matrix: (Units=GPa)
#
#
# Indices 1 2 3 4 5 6 
#
# 1 44.4324 42.8939 7.6307 0.0000 4.5247 0.0000
# 2 42.8939 232.0864 49.3087 0.0000 20.6486 0.0000
# 3 7.6307 49.3087 116.6031 0.0000 3.4344 0.0000
# 4 0.0000 0.0000 0.0000 31.0633 0.0000 -5.3245
# 5 4.5247 20.6486 3.4344 0.0000 45.8613 0.0000
# 6 0.0000 0.0000 0.0000 -5.3245 0.0000 26.9634
#
#
#
# Elastic Compliance Matrix: (Units=1/GPa)
#
#
# Indices 1 2 3 4 5 6 
#
# 1 0.027417 -0.005109 0.000379 0.000000 -0.000433 0.000000
# 2 -0.005109 0.005874 -0.002091 0.000000 -0.001984 0.000000
# 3 0.000379 -0.002091 0.009430 0.000000 0.000198 0.000000
# 4 0.000000 0.000000 0.000000 0.033320 0.000000 0.006580
# 5 -0.000433 -0.001984 0.000198 0.000000 0.022726 0.000000
# 6 0.000000 0.000000 0.000000 0.006580 0.000000 0.038387
#
#
# Mechanical properties :
#
#
# Convention : Reuss Voigt Hill
#
# Bulk Modulus (GPa) = 34.38974 65.86538 50.12756
# Shear Modulus (GPa) = 31.15476 40.33017 35.74246
#
# Velocity S-wave (km/s) = 3.53368 4.02050 3.78492
# Velocity P-wave (km/s) = 5.51658 6.92470 6.26036
#
# Compressibility (1/GPa) = 0.02907844
#
# Stress axis : x y z
#
# Youngs Moduli (GPa) = 36.47317 170.24719 106.04742
#
# Poissons Ratio (x) = 0.86984 -0.04020
# Poissons Ratio (y) = 0.18635 0.22176
# Poissons Ratio (z) = -0.01383 0.35600
#
# Static dielectric constant tensor:
#      x y z
#    x 2.055040 0.000000 -0.056900 
#    y 0.000000 2.049210 0.000000 
#    z -0.056900 0.000000 2.035980 
# 
# From -- ./inp_files/16966.got.cif
#   From: 2010.05.17/outbox.cif.g08.bks.cpg/sg8_9_cif.got.tgz:16966.got - 2010.06.03 19:46:02.
