data_PCOD9133644
_publ_section_title
;
Structure prediction by ZEFSAII (Michael W. Deem and Ramdas Pophale) SiO2 
 PCOD9133644
Probable space group: C M
;
_chemical_formula_sum "Si O2"
_cell_formula_units_Z 32
_cell_length_a 19.692977
_cell_length_b 21.154787
_cell_length_c 7.058404
_cell_angle_alpha 90.000000
_cell_angle_beta 149.571080
_cell_angle_gamma 90.000000
_cell_volume 1489.290627
_symmetry_space_group_name_H-M "C M"
_symmetry_group_IT_number 8
_symmetry_cell_setting 'monoclinic'
loop_
_space_group_symop_operation_xyz
x,y,z
x,-y,z
1/2+x,1/2+y,z
1/2+x,1/2-y,z
loop_
_atom_site_type_symbol
_atom_site_label
_atom_site_fract_x
_atom_site_fract_y
_atom_site_fract_z
Si Si1 0.278680 0.700369 0.450360
Si Si2 0.225244 0.567908 0.193195
Si Si3 0.586847 0.791047 0.474812
Si Si4 0.882746 0.796852 0.139276
Si Si5 0.074241 0.794599 0.069350
Si Si6 0.118699 0.431052 0.511961
Si Si7 0.533968 0.432519 0.013915
Si Si8 0.430490 0.569118 0.195136
O O1 0.201783 0.634427 0.235523
O O2 0.332862 0.698556 0.798122
O O3 0.174964 0.756846 0.180074
O O4 0.414124 0.707792 0.653224
O O5 0.191863 0.500000 0.205707
O O6 0.387289 0.567713 0.562112
O O7 0.151497 0.568700 0.815525
O O8 0.742148 0.794095 0.912383
O O9 0.589100 0.740716 0.307912
O O10 0.551970 0.862349 0.319830
O O11 0.481014 0.763045 0.369803
O O12 0.958609 0.863337 0.360089
O O13 0.110436 0.868290 0.157367
O O14 0.056003 0.500000 0.314985
O O15 0.268713 0.430594 0.785394
O O16 0.599973 0.500000 0.133023
O O17 0.496276 0.429581 0.146334
O O18 0.465649 0.500000 0.364611
#
# Coordination Sequence:
#
# PCOD9133644 Si02
#       8
#     4   4   4   4   4   4   4   4
#     4   9  16  27  45  66  91 119 145 184 225 265
#     4   9  16  28  44  67  92 115 149 191 229 263
#     4   9  16  27  43  61  89 117 145 179 223 260
#     4   9  15  26  43  65  85 115 147 180 217 260
#     4   9  16  28  46  68  92 118 150 187 224 260
#     4   9  18  28  42  65  94 120 148 188 227 265
#     4   9  15  26  47  69  89 117 151 186 225 265
#     4   9  14  24  42  67  88 111 147 185 222 260
#
# _framework density 21.486739
#
# number of rings (size 3 to 8) (size 9 to 14) (size 15 to 20)
#    0.000    3.000    3.750    0.000    0.000    0.000 
#    0.000    5.000    0.000    8.250    0.000    0.000 
#    0.000   16.000    0.000    0.000    0.000    0.000 
#
# Total GULP energy -89104.492479 kJ/mol
# GULP energy per Si atom -5569.030780 kJ/mol
# Density = 2.143783 g / cm^3
# Si number density = 21.486739 Si / 1000 Ang^3
#
#
#
# Elastic Constant Matrix: (Units=GPa)
#
#
# Indices 1 2 3 4 5 6 
#
# 1 45.5998 33.0956 10.8539 0.0000 12.3618 0.0000
# 2 33.0956 241.5463 27.1665 0.0000 25.6859 0.0000
# 3 10.8539 27.1665 29.7440 0.0000 -5.2645 0.0000
# 4 0.0000 0.0000 0.0000 11.7992 0.0000 -20.0228
# 5 12.3618 25.6859 -5.2645 0.0000 30.7134 0.0000
# 6 0.0000 0.0000 0.0000 -20.0228 0.0000 -47.6696
#
#
#
# Elastic Compliance Matrix: (Units=1/GPa)
#
#
# Indices 1 2 3 4 5 6 
#
# 1 0.029074 -0.001341 -0.011610 0.000000 -0.012571 0.000000
# 2 -0.001341 0.005452 -0.005365 0.000000 -0.004940 0.000000
# 3 -0.011610 -0.005365 0.045766 0.000000 0.017004 0.000000
# 4 0.000000 0.000000 0.000000 0.049482 0.000000 -0.020784
# 5 -0.012571 -0.004940 0.017004 0.000000 0.044664 0.000000
# 6 0.000000 0.000000 0.000000 -0.020784 0.000000 -0.012248
#
#
# Mechanical properties :
#
#
# Convention : Reuss Voigt Hill
#
# Bulk Modulus (GPa) = 22.90320 51.01356 36.95838
# Shear Modulus (GPa) = 23.43277 15.35355 19.39316
#
# Velocity S-wave (km/s) = 3.30596 2.67602 3.00753
# Velocity P-wave (km/s) = 5.02542 5.77422 5.41278
#
# Compressibility (1/GPa) = 0.04366201
#
# Stress axis : x y z
#
# Youngs Moduli (GPa) = 34.39445 183.40506 21.85021
#
# Poissons Ratio (x) = 0.24598 0.25367
# Poissons Ratio (y) = 0.04613 0.11722
# Poissons Ratio (z) = 0.39930 0.98393
#
# Static dielectric constant tensor:
#      x y z
#    x 1.873990 0.000000 -0.059530 
#    y 0.000000 1.873320 0.000000 
#    z -0.059530 0.000000 1.807100 
# 
# From -- ./inp_files/11369.got.cif
#   From: 2010.05.17/outbox.cif.g08.bks.cpg/sg8_6_cif.got.tgz:11369.got - 2010.06.03 19:46:02.
