data_PCOD9133819
_publ_section_title
;
Structure prediction by ZEFSAII (Michael W. Deem and Ramdas Pophale) SiO2 
 PCOD9133819
Probable space group: C C
;
_chemical_formula_sum "Si O2"
_cell_formula_units_Z 20
_cell_length_a 13.314755
_cell_length_b 13.077550
_cell_length_c 5.094690
_cell_angle_alpha 90.000000
_cell_angle_beta 64.109976
_cell_angle_gamma 90.000000
_cell_volume 798.073894
_symmetry_space_group_name_H-M "C C"
_symmetry_group_IT_number 9
_symmetry_cell_setting 'monoclinic'
loop_
_space_group_symop_operation_xyz
x,y,z
x,-y,1/2+z
1/2+x,1/2+y,z
1/2+x,1/2-y,1/2+z
loop_
_atom_site_type_symbol
_atom_site_label
_atom_site_fract_x
_atom_site_fract_y
_atom_site_fract_z
Si Si1 0.508550 0.565986 0.314330
Si Si2 0.191814 0.218421 0.282322
Si Si3 0.244483 0.437975 0.110566
Si Si4 0.954335 0.459426 0.652024
Si Si5 0.311301 0.138332 0.648595
O O1 0.535245 0.478799 0.498652
O O2 0.582933 0.662639 0.298185
O O3 0.377221 0.586438 0.484179
O O4 0.222981 0.173872 0.532239
O O5 0.182893 0.339688 0.296167
O O6 0.285805 0.194096 0.949449
O O7 0.227316 0.467242 0.827735
O O8 0.009482 0.466949 0.306623
O O9 0.837376 0.520744 0.708394
O O10 0.925019 0.355756 0.838296
#
# Coordination Sequence:
#
# PCOD9133819 Si02
#       5
#     4   4   4   4   4
#     4  10  23  36  61  91 124 144 191 251 305 345
#     4  12  21  31  62  85 109 158 203 235 287 357
#     4  10  23  45  57  82 120 165 198 243 289 353
#     4   8  14  24  36  64 120 138 152 210 292 334
#     4  10  17  26  44  84 109 147 180 229 279 355
#
# _framework density 25.060334000000001
#
# number of rings (size 3 to 8) (size 9 to 14) (size 15 to 20)
#    1.200    0.800    2.000    2.400    8.400    0.000 
#    0.000    0.000    0.000    2.400    0.000    0.000 
#    0.000    0.000    0.000    0.000    0.000    0.000 
#
# Total GULP energy -55710.686124 kJ/mol
# GULP energy per Si atom -5571.068612 kJ/mol
# Density = 2.500330 g / cm^3
# Si number density = 25.060334 Si / 1000 Ang^3
#
#
#
# Elastic Constant Matrix: (Units=GPa)
#
#
# Indices 1 2 3 4 5 6 
#
# 1 48.9926 33.4727 29.6187 0.0000 6.7254 0.0000
# 2 33.4727 76.2468 -0.3500 0.0000 5.5887 0.0000
# 3 29.6187 -0.3500 147.1059 0.0000 33.4814 0.0000
# 4 0.0000 0.0000 0.0000 29.5875 0.0000 -3.1151
# 5 6.7254 5.5887 33.4814 0.0000 47.5701 0.0000
# 6 0.0000 0.0000 0.0000 -3.1151 0.0000 15.9155
#
#
#
# Elastic Compliance Matrix: (Units=1/GPa)
#
#
# Indices 1 2 3 4 5 6 
#
# 1 0.035571 -0.015817 -0.007714 0.000000 0.002258 0.000000
# 2 -0.015817 0.020288 0.003889 0.000000 -0.002885 0.000000
# 3 -0.007714 0.003889 0.009783 0.000000 -0.006252 0.000000
# 4 0.000000 0.000000 0.000000 0.034509 0.000000 0.006754
# 5 0.002258 -0.002885 -0.006252 0.000000 0.025442 0.000000
# 6 0.000000 0.000000 0.000000 0.006754 0.000000 0.064154
#
#
# Mechanical properties :
#
#
# Convention : Reuss Voigt Hill
#
# Bulk Modulus (GPa) = 37.93542 44.20312 41.06927
# Shear Modulus (GPa) = 21.02470 32.58820 26.80645
#
# Velocity S-wave (km/s) = 2.89963 3.61000 3.27414
# Velocity P-wave (km/s) = 5.13624 5.92057 5.54230
#
# Compressibility (1/GPa) = 0.02636059
#
# Stress axis : x y z
#
# Youngs Moduli (GPa) = 28.11292 49.28967 102.21683
#
# Poissons Ratio (x) = 0.77960 0.78845
# Poissons Ratio (y) = 0.44465 -0.39757
# Poissons Ratio (z) = 0.21685 -0.19171
#
# Static dielectric constant tensor:
#      x y z
#    x 2.107160 0.000000 -0.091150 
#    y 0.000000 1.967120 0.000000 
#    z -0.091150 0.000000 2.083390 
# 
# From -- ./inp_files/2304.got.cif
#   From: 2010.05.17/outbox.cif.g08.bks.cpg/sg9_2_cif.got.tgz:2304.got - 2010.06.03 20:04:27.
