data_PCOD9133866
_publ_section_title
;
Structure prediction by ZEFSAII (Michael W. Deem and Ramdas Pophale) SiO2 
 PCOD9133866
Probable space group: C C
;
_chemical_formula_sum "Si O2"
_cell_formula_units_Z 32
_cell_length_a 7.747407
_cell_length_b 19.182125
_cell_length_c 9.678852
_cell_angle_alpha 90.000000
_cell_angle_beta 53.698392
_cell_angle_gamma 90.000000
_cell_volume 1159.216037
_symmetry_space_group_name_H-M "C C"
_symmetry_group_IT_number 9
_symmetry_cell_setting 'monoclinic'
loop_
_space_group_symop_operation_xyz
x,y,z
x,-y,1/2+z
1/2+x,1/2+y,z
1/2+x,1/2-y,1/2+z
loop_
_atom_site_type_symbol
_atom_site_label
_atom_site_fract_x
_atom_site_fract_y
_atom_site_fract_z
Si Si1 0.687900 0.494758 0.853170
Si Si2 0.685510 0.847889 0.692796
Si Si3 0.171188 0.913237 0.131638
Si Si4 0.175377 0.458130 0.901742
Si Si5 0.012301 0.714355 0.817520
Si Si6 0.775139 0.349482 0.687953
Si Si7 0.147992 0.569837 0.717309
Si Si8 0.394393 0.781124 0.052365
O O1 0.580839 0.556465 0.816377
O O2 0.710454 0.430768 0.730446
O O3 0.911476 0.532935 0.798125
O O4 0.600753 0.454861 0.029392
O O5 0.774147 0.916385 0.724580
O O6 0.481075 0.852658 0.691152
O O7 0.852745 0.798856 0.540150
O O8 0.595698 0.806116 0.869213
O O9 0.427475 0.932813 0.017629
O O10 0.192350 0.830269 0.109570
O O11 0.190336 0.536369 0.845617
O O12 0.253664 0.444789 0.018133
O O13 0.934840 0.712369 0.695903
O O14 0.102394 0.790352 0.814766
O O15 0.181472 0.651363 0.729851
O O16 0.844673 0.681828 0.006450
#
# Coordination Sequence:
#
# PCOD9133866 Si02
#       8
#     4   4   4   4   4   4   4   4
#     4  10  17  34  57  87 111 150 208 251 280 350
#     4  11  21  39  59  84 118 160 198 242 298 363
#     4   9  17  31  55  83 108 145 204 247 280 340
#     4   9  17  31  55  83 108 145 204 247 280 340
#     4  12  24  37  59  93 123 156 196 254 307 353
#     4  12  24  37  59  93 123 156 196 254 307 353
#     4  10  17  34  57  87 111 150 208 251 280 350
#     4  11  21  39  59  84 118 160 198 242 298 363
#
# _framework density 27.604865
#
# number of rings (size 3 to 8) (size 9 to 14) (size 15 to 20)
#    0.000    1.500    7.500    3.750    0.000    0.000 
#    0.000    0.000    0.000    3.000    0.000    0.000 
#    0.000    0.000    0.000    0.000    0.000    0.000 
#
# Total GULP energy -89402.904228 kJ/mol
# GULP energy per Si atom -5587.681514 kJ/mol
# Density = 2.754203 g / cm^3
# Si number density = 27.604865 Si / 1000 Ang^3
#
#
#
# Elastic Constant Matrix: (Units=GPa)
#
#
# Indices 1 2 3 4 5 6 
#
# 1 83.3270 3.9796 18.3248 0.0000 24.2685 0.0000
# 2 3.9796 129.1926 1.5461 0.0000 -0.6237 0.0000
# 3 18.3248 1.5461 98.8189 0.0000 6.8716 0.0000
# 4 0.0000 0.0000 0.0000 11.3566 0.0000 -20.7436
# 5 24.2685 -0.6237 6.8716 0.0000 36.2555 0.0000
# 6 0.0000 0.0000 0.0000 -20.7436 0.0000 11.9020
#
#
#
# Elastic Compliance Matrix: (Units=1/GPa)
#
#
# Indices 1 2 3 4 5 6 
#
# 1 0.015381 -0.000496 -0.002156 0.000000 -0.009895 0.000000
# 2 -0.000496 0.007759 -0.000063 0.000000 0.000477 0.000000
# 3 -0.002156 -0.000063 0.010559 0.000000 -0.000559 0.000000
# 4 0.000000 0.000000 0.000000 -0.040328 0.000000 -0.070286
# 5 -0.009895 0.000477 -0.000559 0.000000 0.034320 0.000000
# 6 0.000000 0.000000 0.000000 -0.070286 0.000000 -0.038480
#
#
# Mechanical properties :
#
#
# Convention : Reuss Voigt Hill
#
# Bulk Modulus (GPa) = 35.37413 39.89329 37.63371
# Shear Modulus (GPa) = 1230.59676 31.06867 630.83272
#
# Velocity S-wave (km/s) = 21.13664 3.35845 15.13335
# Velocity P-wave (km/s) = 24.66818 5.43340 17.86114
#
# Compressibility (1/GPa) = 0.02826924
#
# Stress axis : x y z
#
# Youngs Moduli (GPa) = 65.01631 128.88743 94.70383
#
# Poissons Ratio (x) = 0.06390 0.20421
# Poissons Ratio (y) = 0.03223 0.00593
# Poissons Ratio (z) = 0.14020 0.00807
#
# Static dielectric constant tensor:
#      x y z
#    x 2.296890 0.000000 -0.122990 
#    y 0.000000 2.416420 0.000000 
#    z -0.122990 0.000000 2.181240 
# 
# From -- ./inp_files/5760.got.cif
#   From: 2010.05.17/outbox.cif.g08.bks.cpg/sg9_3_cif.got.tgz:5760.got - 2010.06.03 20:04:27.
