data_PCOD9133897
_publ_section_title
;
Structure prediction by ZEFSAII (Michael W. Deem and Ramdas Pophale) SiO2 
 PCOD9133897
Probable space group: C C
;
_chemical_formula_sum "Si O2"
_cell_formula_units_Z 28
_cell_length_a 14.262457
_cell_length_b 5.016872
_cell_length_c 23.341592
_cell_angle_alpha 90.000000
_cell_angle_beta 142.301088
_cell_angle_gamma 90.000000
_cell_volume 1021.322353
_symmetry_space_group_name_H-M "C C"
_symmetry_group_IT_number 9
_symmetry_cell_setting 'monoclinic'
loop_
_space_group_symop_operation_xyz
x,y,z
x,-y,1/2+z
1/2+x,1/2+y,z
1/2+x,1/2-y,1/2+z
loop_
_atom_site_type_symbol
_atom_site_label
_atom_site_fract_x
_atom_site_fract_y
_atom_site_fract_z
Si Si1 0.119240 0.488355 0.595710
Si Si2 0.699204 0.701691 0.793335
Si Si3 0.912609 0.989044 0.312973
Si Si4 0.258936 0.097627 0.591930
Si Si5 0.079600 0.724071 0.792559
Si Si6 0.628732 0.952249 0.967561
Si Si7 0.416731 0.254668 0.080470
O O1 0.264362 0.594865 0.701794
O O2 0.165777 0.176488 0.603583
O O3 0.099199 0.617049 0.523537
O O4 0.968959 0.470946 0.561685
O O5 0.707382 0.425266 0.830450
O O6 0.575876 0.646977 0.683029
O O7 0.840295 0.837221 0.829540
O O8 0.628945 0.924142 0.802072
O O9 0.998535 0.723848 0.374970
O O10 0.018695 0.173182 0.323745
O O11 0.419685 0.255182 0.678794
O O12 0.154128 0.235361 0.493743
O O13 0.323139 0.840609 0.591709
O O14 0.775098 0.929630 0.992699
#
# Coordination Sequence:
#
# PCOD9133897 Si02
#       7
#     4   4   4   4   4   4   4
#     4   8  19  38  56  82 119 150 204 247 307 365
#     4  10  21  39  66  89 123 162 212 247 310 372
#     4  10  21  39  60  93 123 164 206 262 309 366
#     4   8  18  37  56  84 116 148 202 247 292 363
#     4  10  20  41  63  89 121 164 202 255 307 366
#     4  10  20  39  58  87 122 152 212 248 303 371
#     4  10  17  37  61  80 118 164 192 252 310 355
#
# _framework density 27.41544
#
# number of rings (size 3 to 8) (size 9 to 14) (size 15 to 20)
#    0.857    1.714    1.429    0.000    0.000    2.286 
#   10.286    4.286    0.000    0.000    0.000    0.000 
#    0.000    0.000    0.000    0.000    0.000    0.000 
#
# Total GULP energy -77967.757191 kJ/mol
# GULP energy per Si atom -5569.125514 kJ/mol
# Density = 2.735304 g / cm^3
# Si number density = 27.415440 Si / 1000 Ang^3
#
#
#
# Elastic Constant Matrix: (Units=GPa)
#
#
# Indices 1 2 3 4 5 6 
#
# 1 138.5396 -12.1135 12.8082 0.0002 -1.0788 0.0006
# 2 -12.1135 57.5660 -4.6157 0.0009 -1.4078 0.0022
# 3 12.8082 -4.6157 99.7534 -0.0001 -1.5056 0.0001
# 4 0.0002 0.0009 -0.0001 37.3202 -0.0004 -4.6674
# 5 -1.0788 -1.4078 -1.5056 -0.0004 40.6231 0.0000
# 6 0.0006 0.0022 0.0001 -4.6674 0.0000 46.9399
#
#
#
# Elastic Compliance Matrix: (Units=1/GPa)
#
#
# Indices 1 2 3 4 5 6 
#
# 1 0.007432 0.001499 -0.000882 0.000000 0.000217 0.000000
# 2 0.001499 0.017755 0.000639 -0.000001 0.000679 -0.000001
# 3 -0.000882 0.000639 0.010173 0.000000 0.000376 0.000000
# 4 0.000000 -0.000001 0.000000 0.027133 0.000000 0.002698
# 5 0.000217 0.000679 0.000376 0.000000 0.024660 0.000000
# 6 0.000000 -0.000001 0.000000 0.002698 0.000000 0.021572
#
#
# Mechanical properties :
#
#
# Convention : Reuss Voigt Hill
#
# Bulk Modulus (GPa) = 26.40428 32.00188 29.20308
# Shear Modulus (GPa) = 42.07471 44.96198 43.51834
#
# Velocity S-wave (km/s) = 3.92179 4.05411 3.98850
# Velocity P-wave (km/s) = 5.49175 5.79765 5.64677
#
# Compressibility (1/GPa) = 0.03787265
#
# Stress axis : x y z
#
# Youngs Moduli (GPa) = 134.54629 56.32347 98.29768
#
# Poissons Ratio (x) = -0.08441 0.08667
# Poissons Ratio (y) = -0.20163 -0.06285
# Poissons Ratio (z) = 0.11863 -0.03601
#
# Static dielectric constant tensor:
#      x y z
#    x 2.068900 0.000000 -0.197130 
#    y 0.000000 2.146160 -0.000010 
#    z -0.197130 -0.000010 1.707170 
# 
# From -- ./inp_files/30277.got.cif
#   From: 2010.05.17/outbox.cif.g08.bks.cpg/sg9_16_cif.got.tgz:30277.got - 2010.06.03 20:04:27.
