data_PCOD9133216
_publ_section_title
;
Structure prediction by ZEFSAII (Michael W. Deem and Ramdas Pophale) SiO2 
 PCOD9133216
Probable space group: C M
;
_chemical_formula_sum "Si O2"
_cell_formula_units_Z 26
_cell_length_a 14.535555
_cell_length_b 7.462248
_cell_length_c 11.921439
_cell_angle_alpha 90.000000
_cell_angle_beta 127.940034
_cell_angle_gamma 90.000000
_cell_volume 1019.804351
_symmetry_space_group_name_H-M "C M"
_symmetry_group_IT_number 8
_symmetry_cell_setting 'monoclinic'
loop_
_space_group_symop_operation_xyz
x,y,z
x,-y,z
1/2+x,1/2+y,z
1/2+x,1/2-y,z
loop_
_atom_site_type_symbol
_atom_site_label
_atom_site_fract_x
_atom_site_fract_y
_atom_site_fract_z
Si Si1 0.554590 0.281779 0.051710
Si Si2 0.973432 0.198734 0.216149
Si Si3 0.323009 0.000000 0.504881
Si Si4 0.104040 0.704590 0.680329
Si Si5 0.885065 0.798555 0.387348
Si Si6 0.845807 0.210554 0.725103
Si Si7 0.227496 0.210551 0.996828
O O1 0.551123 0.500000 0.056328
O O2 0.546725 0.212198 0.172668
O O3 0.445195 0.233348 0.889611
O O4 0.669322 0.231868 0.069187
O O5 0.938532 0.277159 0.309834
O O6 0.023288 0.000000 0.278028
O O7 0.846352 0.187611 0.062698
O O8 0.307808 0.842932 0.395362
O O9 0.339068 0.841847 0.614636
O O10 0.056951 0.500000 0.645551
O O11 0.221196 0.716752 0.695430
O O12 0.136494 0.756341 0.829950
O O13 0.001158 0.813361 0.549951
O O14 0.839956 0.000000 0.336007
O O15 0.866784 0.000000 0.710489
O O16 0.253361 0.000000 0.019574
#
# Coordination Sequence:
#
# PCOD9133216 Si02
#       7
#     4   4   2   4   4   4   4
#     4   9  19  40  64  95 131 173 216 272 338 404
#     4  10  22  45  66  90 133 180 218 276 344 401
#     4  12  24  42  66  96 128 178 230 274 344 394
#     4  11  22  41  67  99 135 179 227 279 338 399
#     4  11  25  44  68  95 136 182 228 279 338 404
#     4  10  22  40  66 100 137 171 222 283 335 403
#     4  11  22  36  68 100 131 171 225 280 340 401
#
# _framework density 25.495087000000002
#
# number of rings (size 3 to 8) (size 9 to 14) (size 15 to 20)
#    0.000    1.538    2.308    2.308    3.231    1.231 
#    4.154    0.000    0.000    0.000    0.000    0.000 
#    0.000    0.000    0.000    0.000    0.000    0.000 
#
# Total GULP energy -72532.998626 kJ/mol
# GULP energy per Si atom -5579.461433 kJ/mol
# Density = 2.543706 g / cm^3
# Si number density = 25.495087 Si / 1000 Ang^3
#
#
#
# Elastic Constant Matrix: (Units=GPa)
#
#
# Indices 1 2 3 4 5 6 
#
# 1 89.7332 44.8782 40.0627 0.0000 -41.5554 0.0000
# 2 44.8782 160.3371 30.0400 0.0000 -19.3937 0.0000
# 3 40.0627 30.0400 101.5237 0.0000 -38.1344 0.0000
# 4 0.0000 0.0000 0.0000 90.8560 0.0000 -10.8938
# 5 -41.5554 -19.3937 -38.1344 0.0000 60.6898 0.0000
# 6 0.0000 0.0000 0.0000 -10.8938 0.0000 21.7146
#
#
#
# Elastic Compliance Matrix: (Units=1/GPa)
#
#
# Indices 1 2 3 4 5 6 
#
# 1 0.018727 -0.003543 -0.002553 0.000000 0.010086 0.000000
# 2 -0.003543 0.007336 -0.001051 0.000000 -0.000743 0.000000
# 3 -0.002553 -0.001051 0.013594 0.000000 0.006458 0.000000
# 4 0.000000 0.000000 0.000000 0.011711 0.000000 0.005875
# 5 0.010086 -0.000743 0.006458 0.000000 0.027204 0.000000
# 6 0.000000 0.000000 0.000000 0.005875 0.000000 0.048999
#
#
# Mechanical properties :
#
#
# Convention : Reuss Voigt Hill
#
# Bulk Modulus (GPa) = 39.42921 64.61733 52.02327
# Shear Modulus (GPa) = 33.26236 50.42631 41.84434
#
# Velocity S-wave (km/s) = 3.61592 4.45216 4.05565
# Velocity P-wave (km/s) = 5.73866 7.19924 6.51004
#
# Compressibility (1/GPa) = 0.02536191
#
# Stress axis : x y z
#
# Youngs Moduli (GPa) = 53.39876 136.31804 73.56132
#
# Poissons Ratio (x) = 0.48303 0.18779
# Poissons Ratio (y) = 0.18921 0.07733
# Poissons Ratio (z) = 0.13632 0.14331
#
# Static dielectric constant tensor:
#      x y z
#    x 2.132610 0.000000 0.070820 
#    y 0.000000 1.965500 0.000000 
#    z 0.070820 0.000000 2.038710 
# 
# From -- ./inp_files/21417.got.cif
#   From: 2010.05.17/outbox.cif.g08.bks.cpg/sg8_11_cif.got.tgz:21417.got - 2010.06.03 19:46:02.
