data_PCOD9133471
_publ_section_title
;
Structure prediction by ZEFSAII (Michael W. Deem and Ramdas Pophale) SiO2 
 PCOD9133471
Probable space group: C M
;
_chemical_formula_sum "Si O2"
_cell_formula_units_Z 28
_cell_length_a 14.312290
_cell_length_b 17.488869
_cell_length_c 5.766777
_cell_angle_alpha 90.000000
_cell_angle_beta 118.432915
_cell_angle_gamma 90.000000
_cell_volume 1269.340743
_symmetry_space_group_name_H-M "C M"
_symmetry_group_IT_number 8
_symmetry_cell_setting 'monoclinic'
loop_
_space_group_symop_operation_xyz
x,y,z
x,-y,z
1/2+x,1/2+y,z
1/2+x,1/2-y,z
loop_
_atom_site_type_symbol
_atom_site_label
_atom_site_fract_x
_atom_site_fract_y
_atom_site_fract_z
Si Si1 0.735471 0.000000 0.762440
Si Si2 0.570167 0.691953 0.941316
Si Si3 0.694847 0.586307 0.762982
Si Si4 0.112317 0.500000 0.107669
Si Si5 0.445878 0.917412 0.147650
Si Si6 0.429687 0.228572 0.421425
Si Si7 0.849816 0.838081 0.937588
Si Si8 0.728318 0.280230 0.482156
O O1 0.684178 0.000000 0.435524
O O2 0.804415 0.077012 0.873816
O O3 0.663733 0.000000 0.914626
O O4 0.641054 0.622523 0.926732
O O5 0.528553 0.739931 0.676656
O O6 0.462355 0.665111 0.937220
O O7 0.643174 0.743699 0.191062
O O8 0.658344 0.500000 0.679305
O O9 0.675162 0.645558 0.534103
O O10 0.822623 0.586585 0.934085
O O11 0.030560 0.428886 0.042703
O O12 0.466591 0.840618 0.306709
O O13 0.456858 0.000000 0.290638
O O14 0.337882 0.198316 0.483064
O O15 0.375921 0.297847 0.213389
O O16 0.765305 0.782627 0.709563
#
# Coordination Sequence:
#
# PCOD9133471 Si02
#       8
#     2   4   4   2   4   4   4   4
#     4  12  30  56  75 109 159 201 272 320 381 469
#     4  11  25  44  74 113 146 198 247 315 393 448
#     4  11  23  45  73 109 153 185 241 308 386 459
#     4  10  28  50  79 109 147 215 246 330 389 447
#     4   9  21  47  69 112 144 188 249 303 385 458
#     4  11  23  47  74 108 153 193 250 316 377 470
#     4  11  27  49  75 106 149 202 256 315 380 466
#     4  11  23  45  71 112 142 200 245 313 385 452
#
# _framework density 22.058696999999999
#
# number of rings (size 3 to 8) (size 9 to 14) (size 15 to 20)
#    0.429    0.857    2.857    0.857    5.000    5.714 
#    6.429    0.000    0.000    0.000    0.000    0.000 
#    0.000    0.000    0.000    0.000    0.000    0.000 
#
# Total GULP energy -78179.476631 kJ/mol
# GULP energy per Si atom -5584.248331 kJ/mol
# Density = 2.200849 g / cm^3
# Si number density = 22.058697 Si / 1000 Ang^3
#
#
#
# Elastic Constant Matrix: (Units=GPa)
#
#
# Indices 1 2 3 4 5 6 
#
# 1 81.2096 -6.3723 9.0061 0.0000 5.0885 0.0000
# 2 -6.3723 57.5473 21.0498 0.0000 15.3738 0.0000
# 3 9.0061 21.0498 120.0451 0.0000 26.3537 0.0000
# 4 0.0000 0.0000 0.0000 -28.8226 0.0000 3.5266
# 5 5.0885 15.3738 26.3537 0.0000 31.2300 0.0000
# 6 0.0000 0.0000 0.0000 3.5266 0.0000 40.0975
#
#
#
# Elastic Compliance Matrix: (Units=1/GPa)
#
#
# Indices 1 2 3 4 5 6 
#
# 1 0.012753 0.002396 -0.000812 0.000000 -0.002572 0.000000
# 2 0.002396 0.020729 -0.001827 0.000000 -0.009053 0.000000
# 3 -0.000812 -0.001827 0.010414 0.000000 -0.007756 0.000000
# 4 0.000000 0.000000 0.000000 -0.034326 0.000000 0.003019
# 5 -0.002572 -0.009053 -0.007756 0.000000 0.043441 0.000000
# 6 0.000000 0.000000 0.000000 0.003019 0.000000 0.024674
#
#
# Mechanical properties :
#
#
# Convention : Reuss Voigt Hill
#
# Bulk Modulus (GPa) = 23.03585 34.01880 28.52733
# Shear Modulus (GPa) = 53.97092 24.17556 39.07324
#
# Velocity S-wave (km/s) = 4.95177 3.31413 4.21328
# Velocity P-wave (km/s) = 6.56956 5.48635 6.05223
#
# Compressibility (1/GPa) = 0.04341059
#
# Stress axis : x y z
#
# Youngs Moduli (GPa) = 78.41222 48.24099 96.02175
#
# Poissons Ratio (x) = -0.11561 0.07800
# Poissons Ratio (y) = -0.18791 0.17545
# Poissons Ratio (z) = 0.06370 0.08815
#
# Static dielectric constant tensor:
#      x y z
#    x 1.818810 0.000000 -0.031270 
#    y 0.000000 1.793450 0.000000 
#    z -0.031270 0.000000 1.863970 
# 
# From -- ./inp_files/4154.got.cif
#   From: 2010.05.17/outbox.cif.g08.bks.cpg/sg8_3_cif.got.tgz:4154.got - 2010.06.03 19:46:02.
