data_PCOD9133497
_publ_section_title
;
Structure prediction by ZEFSAII (Michael W. Deem and Ramdas Pophale) SiO2 
 PCOD9133497
Probable space group: C M
;
_chemical_formula_sum "Si O2"
_cell_formula_units_Z 32
_cell_length_a 8.370537
_cell_length_b 23.420880
_cell_length_c 14.294787
_cell_angle_alpha 90.000000
_cell_angle_beta 151.183889
_cell_angle_gamma 90.000000
_cell_volume 1350.769711
_symmetry_space_group_name_H-M "C M"
_symmetry_group_IT_number 8
_symmetry_cell_setting 'monoclinic'
loop_
_space_group_symop_operation_xyz
x,y,z
x,-y,z
1/2+x,1/2+y,z
1/2+x,1/2-y,z
loop_
_atom_site_type_symbol
_atom_site_label
_atom_site_fract_x
_atom_site_fract_y
_atom_site_fract_z
Si Si1 0.409310 0.678594 0.729670
Si Si2 0.300973 0.750853 0.498030
Si Si3 0.227321 0.215687 0.064560
Si Si4 0.698773 0.063104 0.396500
Si Si5 0.936420 0.565811 0.783724
Si Si6 0.355930 0.329845 0.045918
Si Si7 0.561594 0.624157 0.431451
Si Si8 0.859534 0.395071 0.399031
O O1 0.426589 0.702259 0.633793
O O2 0.214816 0.618811 0.626717
O O3 0.135791 0.722037 0.630821
O O4 0.712884 0.682362 0.957850
O O5 0.115228 0.807799 0.445310
O O6 0.055510 0.722347 0.296497
O O7 0.165764 0.280794 0.001842
O O8 0.946241 0.190049 0.987953
O O9 0.428604 0.071121 0.338809
O O10 0.062033 0.065519 0.631912
O O11 0.746033 0.106266 0.333518
O O12 0.664334 0.000000 0.337799
O O13 0.047336 0.500000 0.833683
O O14 0.860531 0.596513 0.645726
O O15 0.178638 0.609375 0.958432
O O16 0.704453 0.336908 0.277511
O O17 0.606595 0.593037 0.354065
#
# Coordination Sequence:
#
# PCOD9133497 Si02
#       8
#     4   4   4   4   4   4   4   4
#     4  11  23  36  60  92 131 187 225 277 350 420
#     4  11  21  38  58  93 135 177 236 283 342 425
#     4  12  23  41  63  98 147 184 236 289 363 431
#     4   9  22  41  69  98 126 177 237 299 361 419
#     4   9  21  44  69  96 134 185 246 301 360 426
#     4  12  24  42  64 102 144 189 236 300 362 432
#     4   9  19  40  66  92 130 175 227 293 350 414
#     4  11  22  40  67 101 136 180 242 290 354 435
#
# _framework density 23.690197000000001
#
# number of rings (size 3 to 8) (size 9 to 14) (size 15 to 20)
#    0.750    0.750    3.750    3.000    1.750    3.500 
#    0.000    0.000    0.000    0.000    0.000    0.000 
#    0.000    0.000    0.000    0.000    0.000    0.000 
#
# Total GULP energy -89135.613164 kJ/mol
# GULP energy per Si atom -5570.975823 kJ/mol
# Density = 2.363628 g / cm^3
# Si number density = 23.690197 Si / 1000 Ang^3
#
#
#
# Elastic Constant Matrix: (Units=GPa)
#
#
# Indices 1 2 3 4 5 6 
#
# 1 99.8312 21.4757 19.9639 0.0001 -14.4345 -0.0001
# 2 21.4757 102.4940 27.4135 0.0000 -4.2287 0.0000
# 3 19.9639 27.4135 103.2464 0.0000 -25.1580 0.0000
# 4 0.0001 0.0000 0.0000 23.4302 0.0001 7.9123
# 5 -14.4345 -4.2287 -25.1580 0.0001 31.6889 0.0000
# 6 -0.0001 0.0000 0.0000 7.9123 0.0000 27.4149
#
#
#
# Elastic Compliance Matrix: (Units=1/GPa)
#
#
# Indices 1 2 3 4 5 6 
#
# 1 0.011197 -0.002015 -0.000561 0.000000 0.004386 0.000000
# 2 -0.002015 0.010891 -0.002940 0.000000 -0.001799 0.000000
# 3 -0.000561 -0.002940 0.012915 0.000000 0.009606 0.000000
# 4 0.000000 0.000000 0.000000 0.047289 0.000000 -0.013648
# 5 0.004386 -0.001799 0.009606 0.000000 0.040940 0.000000
# 6 0.000000 0.000000 0.000000 -0.013648 0.000000 0.040416
#
#
# Mechanical properties :
#
#
# Convention : Reuss Voigt Hill
#
# Bulk Modulus (GPa) = 41.71947 49.25310 45.48629
# Shear Modulus (GPa) = 27.37153 32.28804 29.82978
#
# Velocity S-wave (km/s) = 3.40280 3.69579 3.55232
# Velocity P-wave (km/s) = 5.75216 6.24880 6.00562
#
# Compressibility (1/GPa) = 0.02396962
#
# Stress axis : x y z
#
# Youngs Moduli (GPa) = 89.31163 91.81791 77.42676
#
# Poissons Ratio (x) = 0.18501 0.04347
# Poissons Ratio (y) = 0.17996 0.22767
# Poissons Ratio (z) = 0.05014 0.26999
#
# Static dielectric constant tensor:
#      x y z
#    x 2.010980 0.000000 -0.009620 
#    y 0.000000 1.897150 0.000000 
#    z -0.009620 0.000000 1.977640 
# 
# From -- ./inp_files/25693.got.cif
#   From: 2010.05.17/outbox.cif.g08.bks.cpg/sg8_13_cif.got.tgz:25693.got - 2010.06.03 19:46:02.
