data_PCOD9133359
_publ_section_title
;
Structure prediction by ZEFSAII (Michael W. Deem and Ramdas Pophale) SiO2 
 PCOD9133359
Probable space group: C M
;
_chemical_formula_sum "Si O2"
_cell_formula_units_Z 32
_cell_length_a 33.959089
_cell_length_b 8.644979
_cell_length_c 12.871559
_cell_angle_alpha 90.000000
_cell_angle_beta 25.973945
_cell_angle_gamma 90.000000
_cell_volume 1654.961639
_symmetry_space_group_name_H-M "C M"
_symmetry_group_IT_number 8
_symmetry_cell_setting 'monoclinic'
loop_
_space_group_symop_operation_xyz
x,y,z
x,-y,z
1/2+x,1/2+y,z
1/2+x,1/2-y,z
loop_
_atom_site_type_symbol
_atom_site_label
_atom_site_fract_x
_atom_site_fract_y
_atom_site_fract_z
Si Si1 0.599320 0.317535 0.395440
Si Si2 0.235436 0.314828 0.372272
Si Si3 0.787628 0.185276 0.021419
Si Si4 0.540216 0.812838 0.750544
Si Si5 0.295380 0.815153 0.650457
Si Si6 0.848275 0.313931 0.293440
Si Si7 0.103504 0.681202 0.162323
Si Si8 0.925983 0.816768 0.515363
O O1 0.586880 0.500000 0.411260
O O2 0.703101 0.276719 0.175228
O O3 0.544973 0.257608 0.624077
O O4 0.577827 0.230833 0.340087
O O5 0.236190 0.500000 0.382650
O O6 0.291643 0.277410 0.134005
O O7 0.132372 0.267820 0.591505
O O8 0.279528 0.241570 0.368469
O O9 0.768202 0.000000 0.059344
O O10 0.874073 0.217132 0.746714
O O11 0.541604 0.000000 0.738504
O O12 0.449336 0.763931 0.023585
O O13 0.320132 0.763490 0.475225
O O14 0.359604 0.733393 0.581264
O O15 0.307262 0.000000 0.630360
O O16 0.192914 0.772382 0.918749
O O17 0.848132 0.500000 0.293738
O O18 0.122475 0.500000 0.113423
O O19 0.019315 0.726476 0.291030
O O20 0.942897 0.000000 0.471446
#
# Coordination Sequence:
#
# PCOD9133359 Si02
#       8
#     4   4   4   4   4   4   4   4
#     4  11  21  35  60  92 126 160 203 255 306 365
#     4   9  19  36  59  88 122 159 200 244 298 365
#     4   9  19  37  60  88 127 162 195 247 313 371
#     4   9  20  40  60  85 122 164 200 244 309 369
#     4  11  24  44  64  90 127 165 211 260 308 364
#     4  10  23  41  63  89 121 160 205 254 301 361
#     4  12  25  41  62  90 124 166 210 255 311 370
#     4  11  23  40  64  94 125 160 206 257 314 371
#
# _framework density 19.335794
#
# number of rings (size 3 to 8) (size 9 to 14) (size 15 to 20)
#    0.000    1.750    1.250    3.750    1.750    5.000 
#    0.000    1.250    0.000    0.000    0.000    0.000 
#    0.000    0.000    0.000    0.000    0.000    0.000 
#
# Total GULP energy -89411.711341 kJ/mol
# GULP energy per Si atom -5588.231959 kJ/mol
# Density = 1.929179 g / cm^3
# Si number density = 19.335794 Si / 1000 Ang^3
#
#
#
# Elastic Constant Matrix: (Units=GPa)
#
#
# Indices 1 2 3 4 5 6 
#
# 1 73.5074 -6.8566 63.0610 0.0000 9.5970 0.0000
# 2 -6.8566 19.0347 6.7943 0.0000 6.6150 0.0000
# 3 63.0610 6.7943 84.9599 0.0000 7.3600 0.0000
# 4 0.0000 0.0000 0.0000 24.6118 0.0000 -2.8015
# 5 9.5970 6.6150 7.3600 0.0000 23.5455 0.0000
# 6 0.0000 0.0000 0.0000 -2.8015 0.0000 34.5359
#
#
#
# Elastic Compliance Matrix: (Units=1/GPa)
#
#
# Indices 1 2 3 4 5 6 
#
# 1 0.062587 0.048079 -0.048225 0.000000 -0.023943 0.000000
# 2 0.048079 0.096086 -0.040429 0.000000 -0.033954 0.000000
# 3 -0.048225 -0.040429 0.049451 0.000000 0.015557 0.000000
# 4 0.000000 0.000000 0.000000 0.041010 0.000000 0.003327
# 5 -0.023943 -0.033954 0.015557 0.000000 0.056906 0.000000
# 6 0.000000 0.000000 0.000000 0.003327 0.000000 0.029225
#
#
# Mechanical properties :
#
#
# Convention : Reuss Voigt Hill
#
# Bulk Modulus (GPa) = 7.87573 33.72217 20.79895
# Shear Modulus (GPa) = 10.89945 24.17219 17.53582
#
# Velocity S-wave (km/s) = 2.37680 3.53955 3.01476
# Velocity P-wave (km/s) = 3.40796 5.84660 4.78523
#
# Compressibility (1/GPa) = 0.12697233
#
# Stress axis : x y z
#
# Youngs Moduli (GPa) = 15.97783 10.40739 20.22213
#
# Poissons Ratio (x) = -0.50038 0.97522
# Poissons Ratio (y) = -0.76820 0.81757
# Poissons Ratio (z) = 0.77054 0.42076
#
# Static dielectric constant tensor:
#      x y z
#    x 1.661290 0.000000 -0.001530 
#    y 0.000000 1.651610 0.000000 
#    z -0.001530 0.000000 1.675030 
# 
# From -- ./inp_files/24373.got.cif
#   From: 2010.05.17/outbox.cif.g08.bks.cpg/sg8_13_cif.got.tgz:24373.got - 2010.06.03 19:46:02.
