data_PCOD9133008
_publ_section_title
;
Structure prediction by ZEFSAII (Michael W. Deem and Ramdas Pophale) SiO2 
 PCOD9133008
Probable space group: C M
;
_chemical_formula_sum "Si O2"
_cell_formula_units_Z 32
_cell_length_a 13.762875
_cell_length_b 11.767984
_cell_length_c 14.313332
_cell_angle_alpha 90.000000
_cell_angle_beta 139.516438
_cell_angle_gamma 90.000000
_cell_volume 1505.048405
_symmetry_space_group_name_H-M "C M"
_symmetry_group_IT_number 8
_symmetry_cell_setting 'monoclinic'
loop_
_space_group_symop_operation_xyz
x,y,z
x,-y,z
1/2+x,1/2+y,z
1/2+x,1/2-y,z
loop_
_atom_site_type_symbol
_atom_site_label
_atom_site_fract_x
_atom_site_fract_y
_atom_site_fract_z
Si Si1 0.709580 0.127583 0.829890
Si Si2 0.360099 0.629998 0.424127
Si Si3 0.038899 0.371303 0.197727
Si Si4 0.552565 0.874298 0.983880
Si Si5 0.323681 0.707123 0.717235
Si Si6 0.374286 0.332623 0.127515
Si Si7 0.059738 0.874829 0.751752
Si Si8 0.088137 0.868166 0.444186
O O1 0.739559 0.145435 0.741617
O O2 0.635462 0.248585 0.809185
O O3 0.637915 0.000000 0.789378
O O4 0.851077 0.124484 0.004481
O O5 0.321243 0.500000 0.368122
O O6 0.202819 0.678674 0.342631
O O7 0.480817 0.626058 0.593489
O O8 0.444715 0.679271 0.397598
O O9 0.028416 0.500000 0.222559
O O10 0.040008 0.365352 0.086188
O O11 0.903814 0.301019 0.140432
O O12 0.722174 0.860461 0.071435
O O13 0.503249 0.000000 0.920574
O O14 0.441038 0.787597 0.855727
O O15 0.426268 0.627244 0.728982
O O16 0.220228 0.785106 0.574088
O O17 0.520183 0.373602 0.290483
O O18 0.140563 0.000000 0.818957
O O19 0.120819 0.000000 0.496020
#
# Coordination Sequence:
#
# PCOD9133008 Si02
#       8
#     4   4   4   4   4   4   4   4
#     4  12  26  43  66 100 140 178 220 282 345 397
#     4   9  18  37  64  94 127 171 223 278 330 394
#     4  10  21  39  65  94 129 174 228 280 334 398
#     4  11  22  39  63  93 131 174 224 276 326 397
#     4  12  24  42  65 102 132 174 222 281 339 396
#     4  12  23  41  67  98 133 178 226 274 340 402
#     4  11  24  43  68  95 131 182 230 275 333 405
#     4  11  22  38  68 102 133 175 229 278 329 409
#
# _framework density 21.261776000000001
#
# number of rings (size 3 to 8) (size 9 to 14) (size 15 to 20)
#    0.000    1.000    5.000    2.625    0.000    1.500 
#    0.000    0.625    0.000    0.000    0.000    0.000 
#    0.000    0.000    0.000    0.000    0.000    0.000 
#
# Total GULP energy -89128.481514 kJ/mol
# GULP energy per Si atom -5570.530095 kJ/mol
# Density = 2.121338 g / cm^3
# Si number density = 21.261776 Si / 1000 Ang^3
#
#
#
# Elastic Constant Matrix: (Units=GPa)
#
#
# Indices 1 2 3 4 5 6 
#
# 1 49.6259 28.4360 -6.1328 0.0000 -10.7003 0.0000
# 2 28.4360 141.7336 27.9093 0.0000 9.0255 0.0000
# 3 -6.1328 27.9093 95.4919 0.0000 -10.3814 0.0000
# 4 0.0000 0.0000 0.0000 -33.3127 0.0000 8.3345
# 5 -10.7003 9.0255 -10.3814 0.0000 27.1317 0.0000
# 6 0.0000 0.0000 0.0000 8.3345 0.0000 25.3624
#
#
#
# Elastic Compliance Matrix: (Units=1/GPa)
#
#
# Indices 1 2 3 4 5 6 
#
# 1 0.029056 -0.008060 0.006009 0.000000 0.016440 0.000000
# 2 -0.008060 0.010049 -0.004344 0.000000 -0.008184 0.000000
# 3 0.006009 -0.004344 0.013087 0.000000 0.008822 0.000000
# 4 0.000000 0.000000 0.000000 -0.027738 0.000000 0.009115
# 5 0.016440 -0.008184 0.008822 0.000000 0.049439 0.000000
# 6 0.000000 0.000000 0.000000 0.009115 0.000000 0.036433
#
#
# Mechanical properties :
#
#
# Convention : Reuss Voigt Hill
#
# Bulk Modulus (GPa) = 25.37938 43.03070 34.20504
# Shear Modulus (GPa) = 36.69713 19.61221 28.15467
#
# Velocity S-wave (km/s) = 4.15898 3.04043 3.64289
# Velocity P-wave (km/s) = 5.91823 5.71035 5.81521
#
# Compressibility (1/GPa) = 0.03940207
#
# Stress axis : x y z
#
# Youngs Moduli (GPa) = 34.41591 99.51141 76.41262
#
# Poissons Ratio (x) = 0.80203 -0.45916
# Poissons Ratio (y) = 0.27738 0.33196
# Poissons Ratio (z) = -0.20680 0.43231
#
# Static dielectric constant tensor:
#      x y z
#    x 1.816430 0.000000 -0.004350 
#    y 0.000000 1.826440 0.000000 
#    z -0.004350 0.000000 1.812100 
# 
# From -- ./inp_files/26829.got.cif
#   From: 2010.05.17/outbox.cif.g08.bks.cpg/sg8_14_cif.got.tgz:26829.got - 2010.06.03 19:46:02.
