data_PCOD9133690
_publ_section_title
;
Structure prediction by ZEFSAII (Michael W. Deem and Ramdas Pophale) SiO2 
 PCOD9133690
Probable space group: C M
;
_chemical_formula_sum "Si O2"
_cell_formula_units_Z 16
_cell_length_a 30.000000
_cell_length_b 9.000000
_cell_length_c 12.000000
_cell_angle_alpha 90.000000
_cell_angle_beta 150.000000
_cell_angle_gamma 90.000000
_cell_volume 1620.000000
_symmetry_space_group_name_H-M "C M"
_symmetry_group_IT_number 8
_symmetry_cell_setting 'monoclinic'
loop_
_space_group_symop_operation_xyz
x,y,z
x,-y,z
1/2+x,1/2+y,z
1/2+x,1/2-y,z
loop_
_atom_site_type_symbol
_atom_site_label
_atom_site_fract_x
_atom_site_fract_y
_atom_site_fract_z
Si Si1 0.243390 0.823664 0.300000
Si Si2 0.130686 0.677744 0.245496
Si Si3 0.152173 0.673189 0.912219
Si Si4 0.961570 0.177516 0.547380
Si Si5 0.442741 0.176562 0.747400
Si Si6 0.891850 0.322746 0.176977
Si Si7 0.223154 0.824989 0.657455
Si Si8 0.596025 0.169560 0.542667
O O1 0.171176 0.741557 0.219182
O O2 0.340896 0.801683 0.565490
O O3 0.226861 0.000000 0.257851
O O4 0.231011 0.752023 0.150725
O O5 0.136856 0.500000 0.263709
O O6 0.191347 0.745315 0.475220
O O7 0.024452 0.716950 0.006846
O O8 0.145224 0.500000 0.931687
O O9 0.152737 0.674376 0.779836
O O10 0.061179 0.761201 0.740666
O O11 0.944256 0.236195 0.634173
O O12 0.898914 0.242342 0.312560
O O13 0.958376 0.000000 0.536663
O O14 0.453309 0.000000 0.746422
O O15 0.880453 0.500000 0.172151
O O16 0.991395 0.303337 0.340539
O O17 0.813031 0.276280 0.920275
O O18 0.140443 0.788509 0.559189
O O19 0.233257 0.000000 0.657483
O O20 0.603410 0.000000 0.513533
#
# Coordination Sequence:
#
# PCOD9133690 Si02
#       8
#     4   4   4   4   4   4   4   4
#     4  11  23  39  62  92 121 158 207 256 304 365
#     4  11  24  44  65  85 121 168 206 251 308 368
#     4  10  20  37  60  88 128 166 197 245 313 371
#     4  11  21  34  60  93 125 159 203 256 300 357
#     4  10  23  41  61  87 123 164 201 246 312 373
#     4   9  21  41  61  85 122 166 199 243 312 372
#     4  11  24  41  64  90 120 159 207 258 303 360
#     4   9  20  39  61  86 120 160 202 243 298 372
#
# _framework density 9.8765429999999999
#
# number of rings (size 3 to 8) (size 9 to 14) (size 15 to 20)
#    0.000    1.750    1.250    3.375    1.750    6.000 
#    0.000    5.000    0.000    0.000    0.000    0.000 
#    0.000    0.000    0.000    0.000    0.000    0.000 
#
# Total GULP energy -89276.349316 kJ/mol
# GULP energy per Si atom -5579.771832 kJ/mol
# Density = 0.985406 g / cm^3
# Si number density = 9.876543 Si / 1000 Ang^3
#
#
#
# Elastic Constant Matrix: (Units=GPa)
#
#
# Indices 1 2 3 4 5 6 
#
# 1 29.2893 15.8710 19.7496 0.0000 -5.5237 0.0000
# 2 15.8710 66.5653 50.0297 0.0000 -5.9364 0.0000
# 3 19.7496 50.0297 162.3382 0.0000 -15.8889 0.0000
# 4 0.0000 0.0000 0.0000 36.1710 0.0000 -9.6930
# 5 -5.5237 -5.9364 -15.8889 0.0000 25.1067 0.0000
# 6 0.0000 0.0000 0.0000 -9.6930 0.0000 27.0820
#
#
#
# Elastic Compliance Matrix: (Units=1/GPa)
#
#
# Indices 1 2 3 4 5 6 
#
# 1 0.040773 -0.007681 -0.002018 0.000000 0.005877 0.000000
# 2 -0.007681 0.021016 -0.005566 0.000000 -0.000243 0.000000
# 3 -0.002018 -0.005566 0.008473 0.000000 0.003602 0.000000
# 4 0.000000 0.000000 0.000000 0.030579 0.000000 0.010945
# 5 0.005877 -0.000243 0.003602 0.000000 0.043345 0.000000
# 6 0.000000 0.000000 0.000000 0.010945 0.000000 0.040842
#
#
# Mechanical properties :
#
#
# Convention : Reuss Voigt Hill
#
# Bulk Modulus (GPa) = 25.16798 47.72147 36.44473
# Shear Modulus (GPa) = 21.85284 29.17477 25.51381
#
# Velocity S-wave (km/s) = 3.32972 3.84731 3.59783
# Velocity P-wave (km/s) = 5.24897 6.62927 5.97908
#
# Compressibility (1/GPa) = 0.03973303
#
# Stress axis : x y z
#
# Youngs Moduli (GPa) = 24.52590 47.58314 118.01555
#
# Poissons Ratio (x) = 0.36546 0.23817
# Poissons Ratio (y) = 0.18837 0.65689
# Poissons Ratio (z) = 0.04950 0.26485
#
# Static dielectric constant tensor:
#      x y z
#    x 1.736110 0.000000 0.009610 
#    y 0.000000 1.663220 0.000000 
#    z 0.009610 0.000000 1.697920 
# 
# From -- ./inp_files/24801.got.cif
#   From: 2010.05.17/outbox.ucp.g08.bks.cvg/sg8_13_cif.got.tgz:24801.got - 2010.06.11 13:00:03.
