data_PCOD9133432
_publ_section_title
;
Structure prediction by ZEFSAII (Michael W. Deem and Ramdas Pophale) SiO2 
 PCOD9133432
Probable space group: C M
;
_chemical_formula_sum "Si O2"
_cell_formula_units_Z 32
_cell_length_a 9.494841
_cell_length_b 15.069419
_cell_length_c 23.532493
_cell_angle_alpha 90.000000
_cell_angle_beta 152.586026
_cell_angle_gamma 90.000000
_cell_volume 1550.253912
_symmetry_space_group_name_H-M "C M"
_symmetry_group_IT_number 8
_symmetry_cell_setting 'monoclinic'
loop_
_space_group_symop_operation_xyz
x,y,z
x,-y,z
1/2+x,1/2+y,z
1/2+x,1/2-y,z
loop_
_atom_site_type_symbol
_atom_site_label
_atom_site_fract_x
_atom_site_fract_y
_atom_site_fract_z
Si Si1 0.253820 0.665564 0.881760
Si Si2 0.708215 0.224988 0.342305
Si Si3 0.334820 0.229038 0.517265
Si Si4 0.479324 0.643084 0.756052
Si Si5 0.105050 0.902771 0.673105
Si Si6 0.922923 0.105206 0.182582
Si Si7 0.731273 0.402439 0.964041
Si Si8 0.607536 0.605611 0.118271
O O1 0.515132 0.649875 0.928951
O O2 0.128336 0.762108 0.823051
O O3 0.949097 0.605082 0.771744
O O4 0.398996 0.649914 0.995380
O O5 0.771841 0.240894 0.430952
O O6 0.634388 0.320856 0.287553
O O7 0.428387 0.157820 0.233320
O O8 0.021864 0.189029 0.428468
O O9 0.617987 0.161570 0.621594
O O10 0.422517 0.317568 0.584406
O O11 0.604539 0.606060 0.741496
O O12 0.570646 0.591778 0.845293
O O13 0.976979 0.000000 0.612226
O O14 0.959164 0.114322 0.127655
O O15 0.981978 0.000000 0.216984
O O16 0.577628 0.128281 0.078122
O O17 0.755486 0.500000 0.998662
O O18 0.641749 0.500000 0.119002
#
# Coordination Sequence:
#
# PCOD9133432 Si02
#       8
#     4   4   4   4   4   4   4   4
#     4  11  23  40  64  96 130 160 205 263 324 380
#     4  12  24  45  66  92 130 170 217 271 318 379
#     4  11  25  43  64  92 126 167 216 261 319 379
#     4  11  23  42  65  91 125 170 207 255 318 387
#     4  11  23  42  68  94 126 168 215 263 317 389
#     4  10  24  44  67  93 127 172 217 263 321 390
#     4  11  23  39  62  96 128 154 202 264 319 372
#     4  11  24  43  67  94 128 173 218 262 322 388
#
# _framework density 20.641779
#
# number of rings (size 3 to 8) (size 9 to 14) (size 15 to 20)
#    0.000    1.000    2.500    4.500    3.500    4.000 
#    0.000    1.250    0.000    0.000    0.000    0.000 
#    0.000    0.000    0.000    0.000    0.000    0.000 
#
# Total GULP energy -89423.672313 kJ/mol
# GULP energy per Si atom -5588.979520 kJ/mol
# Density = 2.059480 g / cm^3
# Si number density = 20.641779 Si / 1000 Ang^3
#
#
#
# Elastic Constant Matrix: (Units=GPa)
#
#
# Indices 1 2 3 4 5 6 
#
# 1 104.3786 17.8427 20.6090 -0.0010 13.1159 0.0007
# 2 17.8427 71.0262 7.0512 0.0005 14.2851 0.0008
# 3 20.6090 7.0512 81.6577 0.0032 18.8907 -0.0026
# 4 -0.0010 0.0005 0.0032 11.1765 0.0000 -3.7575
# 5 13.1159 14.2851 18.8907 0.0000 49.4777 0.0001
# 6 0.0007 0.0008 -0.0026 -3.7575 0.0001 12.3166
#
#
#
# Elastic Compliance Matrix: (Units=1/GPa)
#
#
# Indices 1 2 3 4 5 6 
#
# 1 0.010547 -0.002164 -0.002164 0.000002 -0.001345 0.000000
# 2 -0.002164 0.015399 0.000123 -0.000001 -0.003919 -0.000001
# 3 -0.002164 0.000123 0.013884 -0.000003 -0.004763 0.000002
# 4 0.000002 -0.000001 -0.000003 0.099699 0.000001 0.030416
# 5 -0.001345 -0.003919 -0.004763 0.000001 0.023518 0.000000
# 6 0.000000 -0.000001 0.000002 0.030416 0.000000 0.090470
#
#
# Mechanical properties :
#
#
# Convention : Reuss Voigt Hill
#
# Bulk Modulus (GPa) = 31.82725 38.67423 35.25074
# Shear Modulus (GPa) = 18.35542 28.69816 23.52679
#
# Velocity S-wave (km/s) = 2.98524 3.73271 3.37970
# Velocity P-wave (km/s) = 5.22825 6.11180 5.68721
#
# Compressibility (1/GPa) = 0.03141961
#
# Stress axis : x y z
#
# Youngs Moduli (GPa) = 94.81665 64.93921 72.02779
#
# Poissons Ratio (x) = 0.14054 0.15585
# Poissons Ratio (y) = 0.20520 -0.00887
# Poissons Ratio (z) = 0.20517 -0.00800
#
# Static dielectric constant tensor:
#      x y z
#    x 1.688870 0.000000 0.012740 
#    y 0.000000 1.793670 0.000000 
#    z 0.012740 0.000000 1.715620 
# 
# From -- ./inp_files/31777.got.cif
#   From: 2010.05.17/outbox.cif.g08.bks.cpg/sg8_16_cif.got.tgz:31777.got - 2010.06.03 19:46:02.
