data_PCOD9133391
_publ_section_title
;
Structure prediction by ZEFSAII (Michael W. Deem and Ramdas Pophale) SiO2 
 PCOD9133391
Probable space group: C M
;
_chemical_formula_sum "Si O2"
_cell_formula_units_Z 24
_cell_length_a 7.884336
_cell_length_b 13.857770
_cell_length_c 15.665995
_cell_angle_alpha 90.000000
_cell_angle_beta 36.046037
_cell_angle_gamma 90.000000
_cell_volume 1007.198409
_symmetry_space_group_name_H-M "C M"
_symmetry_group_IT_number 8
_symmetry_cell_setting 'monoclinic'
loop_
_space_group_symop_operation_xyz
x,y,z
x,-y,z
1/2+x,1/2+y,z
1/2+x,1/2-y,z
loop_
_atom_site_type_symbol
_atom_site_label
_atom_site_fract_x
_atom_site_fract_y
_atom_site_fract_z
Si Si1 0.995870 0.203773 0.069880
Si Si2 0.672994 0.385525 0.673438
Si Si3 0.002455 0.112784 0.475763
Si Si4 0.612220 0.886361 0.792819
Si Si5 0.505610 0.802264 0.391091
Si Si6 0.286694 0.385654 0.981858
O O1 0.820892 0.177770 0.226051
O O2 0.834002 0.153431 0.057459
O O3 0.321260 0.166687 0.933187
O O4 0.032115 0.319414 0.048124
O O5 0.712543 0.500000 0.647436
O O6 0.382355 0.356565 0.740928
O O7 0.582338 0.367566 0.807638
O O8 0.929462 0.336041 0.517971
O O9 0.276783 0.145902 0.421661
O O10 0.978577 0.186613 0.407985
O O11 0.724628 0.125304 0.650363
O O12 0.028314 0.000000 0.443571
O O13 0.567482 0.000000 0.825267
O O14 0.231622 0.500000 0.000810
#
# Coordination Sequence:
#
# PCOD9133391 Si02
#       6
#     4   4   4   4   4   4
#     4  12  24  39  65  99 132 167 211 268 327 377
#     4   9  20  41  67  93 127 173 218 262 316 381
#     4  10  23  44  66  92 131 174 215 261 316 383
#     4   9  19  38  66  97 129 170 217 264 317 380
#     4  11  23  40  66  97 130 169 211 265 328 378
#     4  11  25  44  66  94 131 173 216 262 316 383
#
# _framework density 23.828471
#
# number of rings (size 3 to 8) (size 9 to 14) (size 15 to 20)
#    0.000    1.667    0.000    5.000    0.000    8.667 
#    0.000    4.167    0.000    8.000    0.000    0.000 
#    0.000    0.000    0.000    0.000    0.000    0.000 
#
# Total GULP energy -67140.725953 kJ/mol
# GULP energy per Si atom -5595.060496 kJ/mol
# Density = 2.377424 g / cm^3
# Si number density = 23.828471 Si / 1000 Ang^3
#
#
#
# Elastic Constant Matrix: (Units=GPa)
#
#
# Indices 1 2 3 4 5 6 
#
# 1 14.1922 6.9376 -0.8563 -0.0117 -2.7515 -0.0068
# 2 6.9376 98.4114 56.0058 -0.0380 0.0645 -0.0005
# 3 -0.8563 56.0058 140.5406 -0.0409 0.1180 -0.0082
# 4 -0.0117 -0.0380 -0.0409 7.0809 -0.0008 1.1268
# 5 -2.7515 0.0645 0.1180 -0.0008 30.0153 0.0001
# 6 -0.0068 -0.0005 -0.0082 1.1268 0.0001 34.9215
#
#
#
# Elastic Compliance Matrix: (Units=1/GPa)
#
#
# Indices 1 2 3 4 5 6 
#
# 1 0.075538 -0.007227 0.003335 0.000104 0.006927 0.000012
# 2 -0.007227 0.013833 -0.005556 0.000031 -0.000670 -0.000003
# 3 0.003335 -0.005556 0.009350 0.000029 0.000281 0.000002
# 4 0.000104 0.000031 0.000029 0.141954 0.000013 -0.004580
# 5 0.006927 -0.000670 0.000281 0.000013 0.033952 0.000001
# 6 0.000012 -0.000003 0.000002 -0.004580 0.000001 0.028783
#
#
# Mechanical properties :
#
#
# Convention : Reuss Voigt Hill
#
# Bulk Modulus (GPa) = 12.52765 41.92427 27.22596
# Shear Modulus (GPa) = 14.33012 27.14070 20.73541
#
# Velocity S-wave (km/s) = 2.45498 3.37857 2.95311
# Velocity P-wave (km/s) = 3.64757 5.73167 4.80400
#
# Compressibility (1/GPa) = 0.07982345
#
# Stress axis : x y z
#
# Youngs Moduli (GPa) = 13.23833 72.28919 106.95665
#
# Poissons Ratio (x) = 0.52246 -0.35666
# Poissons Ratio (y) = 0.09568 0.59426
# Poissons Ratio (z) = -0.04414 0.40164
#
# Static dielectric constant tensor:
#      x y z
#    x 1.947570 0.000000 0.021340 
#    y 0.000000 1.905320 0.000000 
#    z 0.021340 0.000000 1.891370 
# 
# From -- ./inp_files/25327.got.cif
#   From: 2010.05.17/outbox.cif.g08.bks.cpg/sg8_13_cif.got.tgz:25327.got - 2010.06.03 19:46:02.
