data_PCOD9133009
_publ_section_title
;
Structure prediction by ZEFSAII (Michael W. Deem and Ramdas Pophale) SiO2 
 PCOD9133009
Probable space group: C M
;
_chemical_formula_sum "Si O2"
_cell_formula_units_Z 24
_cell_length_a 13.036675
_cell_length_b 14.094958
_cell_length_c 11.896679
_cell_angle_alpha 90.000000
_cell_angle_beta 148.301250
_cell_angle_gamma 90.000000
_cell_volume 1148.656880
_symmetry_space_group_name_H-M "C M"
_symmetry_group_IT_number 8
_symmetry_cell_setting 'monoclinic'
loop_
_space_group_symop_operation_xyz
x,y,z
x,-y,z
1/2+x,1/2+y,z
1/2+x,1/2-y,z
loop_
_atom_site_type_symbol
_atom_site_label
_atom_site_fract_x
_atom_site_fract_y
_atom_site_fract_z
Si Si1 0.170720 0.111193 0.091320
Si Si2 0.650801 0.711475 0.415843
Si Si3 0.364226 0.727514 0.952155
Si Si4 0.150115 0.110148 0.649012
Si Si5 0.966456 0.387301 0.548186
Si Si6 0.913551 0.891828 0.647118
O O1 0.379749 0.132765 0.342120
O O2 0.137453 0.000000 0.087720
O O3 0.110914 0.121516 0.905540
O O4 0.015848 0.174453 0.012905
O O5 0.608113 0.659285 0.491923
O O6 0.800936 0.647440 0.481530
O O7 0.760296 0.811469 0.535736
O O8 0.458257 0.725791 0.162412
O O9 0.326316 0.832194 0.869986
O O10 0.160666 0.671399 0.754157
O O11 0.972614 0.118157 0.572145
O O12 0.194957 0.000000 0.676096
O O13 0.000842 0.500000 0.590620
O O14 0.845417 0.000000 0.604619
#
# Coordination Sequence:
#
# PCOD9133009 Si02
#       6
#     4   4   4   4   4   4
#     4   9  19  38  66  94 126 165 216 270 320 387
#     4  11  23  43  67  94 131 175 220 268 323 394
#     4  11  22  39  67  95 129 172 222 267 324 389
#     4  11  24  43  65  97 135 171 215 272 331 389
#     4  10  21  39  65  98 130 168 217 271 327 384
#     4  10  21  42  68  96 131 171 216 268 329 391
#
# _framework density 20.893967
#
# number of rings (size 3 to 8) (size 9 to 14) (size 15 to 20)
#    0.000    1.667    3.333    1.000    0.000    4.000 
#    3.000    0.000    0.000    0.000    0.000    0.000 
#    0.000    0.000    0.000    0.000    0.000    0.000 
#
# Total GULP energy -67075.585038 kJ/mol
# GULP energy per Si atom -5589.632086 kJ/mol
# Density = 2.084641 g / cm^3
# Si number density = 20.893967 Si / 1000 Ang^3
#
#
#
# Elastic Constant Matrix: (Units=GPa)
#
#
# Indices 1 2 3 4 5 6 
#
# 1 57.7761 49.3785 40.8290 0.0000 -25.2916 0.0000
# 2 49.3785 159.7947 89.1693 0.0000 -7.7138 0.0000
# 3 40.8290 89.1693 162.2629 0.0000 -23.4458 0.0000
# 4 0.0000 0.0000 0.0000 28.2292 0.0000 -2.7699
# 5 -25.2916 -7.7138 -23.4458 0.0000 38.1165 0.0000
# 6 0.0000 0.0000 0.0000 -2.7699 0.0000 28.2255
#
#
#
# Elastic Compliance Matrix: (Units=1/GPa)
#
#
# Indices 1 2 3 4 5 6 
#
# 1 0.034980 -0.009484 -0.000564 0.000000 0.020945 0.000000
# 2 -0.009484 0.011660 -0.005037 0.000000 -0.007032 0.000000
# 3 -0.000564 -0.005037 0.009737 0.000000 0.004596 0.000000
# 4 0.000000 0.000000 0.000000 0.035769 0.000000 0.003510
# 5 0.020945 -0.007032 0.004596 0.000000 0.041537 0.000000
# 6 0.000000 0.000000 0.000000 0.003510 0.000000 0.035773
#
#
# Mechanical properties :
#
#
# Convention : Reuss Voigt Hill
#
# Bulk Modulus (GPa) = 38.15670 82.06527 60.11098
# Shear Modulus (GPa) = 23.99667 32.27803 28.13735
#
# Velocity S-wave (km/s) = 3.39263 3.93472 3.67369
# Velocity P-wave (km/s) = 5.80071 7.74629 6.84300
#
# Compressibility (1/GPa) = 0.02620772
#
# Stress axis : x y z
#
# Youngs Moduli (GPa) = 28.58738 85.76244 102.70113
#
# Poissons Ratio (x) = 0.81334 0.05792
# Poissons Ratio (y) = 0.27111 0.51734
# Poissons Ratio (z) = 0.01612 0.43202
#
# Static dielectric constant tensor:
#      x y z
#    x 1.761670 0.000000 -0.017430 
#    y 0.000000 1.740390 0.000000 
#    z -0.017430 0.000000 1.750480 
# 
# From -- ./inp_files/3891.got.cif
#   From: 2010.05.17/outbox.cif.g08.bks.cpg/sg8_2_cif.got.tgz:3891.got - 2010.06.03 19:46:02.
