data_PCOD9133968
_publ_section_title
;
Structure prediction by ZEFSAII (Michael W. Deem and Ramdas Pophale) SiO2 
 PCOD9133968
Probable space group: C C
;
_chemical_formula_sum "Si O2"
_cell_formula_units_Z 32
_cell_length_a 7.684503
_cell_length_b 30.524038
_cell_length_c 5.660613
_cell_angle_alpha 90.000000
_cell_angle_beta 89.802823
_cell_angle_gamma 90.000000
_cell_volume 1327.757193
_symmetry_space_group_name_H-M "C C"
_symmetry_group_IT_number 9
_symmetry_cell_setting 'monoclinic'
loop_
_space_group_symop_operation_xyz
x,y,z
x,-y,1/2+z
1/2+x,1/2+y,z
1/2+x,1/2-y,1/2+z
loop_
_atom_site_type_symbol
_atom_site_label
_atom_site_fract_x
_atom_site_fract_y
_atom_site_fract_z
Si Si1 0.364860 0.693743 0.362060
Si Si2 0.717865 0.327457 0.999265
Si Si3 0.882307 0.395577 0.729884
Si Si4 0.353979 0.487845 0.008328
Si Si5 0.212831 0.607284 0.506956
Si Si6 0.649895 0.745739 0.185139
Si Si7 0.452158 0.019849 0.982335
Si Si8 0.027509 0.667235 0.868703
O O1 0.520311 0.685787 0.554689
O O2 0.289661 0.645099 0.335594
O O3 0.476638 0.716006 0.153065
O O4 0.228764 0.728628 0.464352
O O5 0.772226 0.288652 0.818251
O O6 0.720906 0.374624 0.867004
O O7 0.855322 0.330155 0.205761
O O8 0.968939 0.353712 0.608565
O O9 0.876201 0.431896 0.529989
O O10 0.028719 0.411426 0.912308
O O11 0.438821 0.504148 0.251683
O O12 0.325681 0.435820 0.035516
O O13 0.165244 0.513889 0.988450
O O14 0.163267 0.634675 0.739946
O O15 0.602293 0.784301 0.368432
O O16 0.395719 0.995245 0.223293
#
# Coordination Sequence:
#
# PCOD9133968 Si02
#       8
#     4   4   4   4   4   4   4   4
#     4   9  20  40  59  87 122 158 211 252 318 375
#     4   9  22  38  55  86 119 158 203 255 311 377
#     4  11  20  34  59  90 121 155 207 256 320 367
#     4  10  18  32  57  92 125 162 211 268 317 377
#     4  10  20  34  58  89 123 155 206 265 306 377
#     4   9  19  39  58  85 116 162 209 254 308 381
#     4  10  19  32  57  92 125 162 212 268 313 380
#     4  10  20  35  59  85 119 158 201 260 311 372
#
# _framework density 24.100791000000001
#
# number of rings (size 3 to 8) (size 9 to 14) (size 15 to 20)
#    0.750    1.500    2.500    2.250    1.750    1.000 
#    6.750    1.250    0.000    1.500    0.000    0.000 
#    0.000    0.000    0.000    0.000    0.000    0.000 
#
# Total GULP energy -89201.700402 kJ/mol
# GULP energy per Si atom -5575.106275 kJ/mol
# Density = 2.404594 g / cm^3
# Si number density = 24.100791 Si / 1000 Ang^3
#
#
#
# Elastic Constant Matrix: (Units=GPa)
#
#
# Indices 1 2 3 4 5 6 
#
# 1 63.0380 26.1909 21.0947 0.0000 -6.6043 0.0000
# 2 26.1909 107.8028 23.4929 0.0000 -4.8292 0.0000
# 3 21.0947 23.4929 84.9622 0.0000 -0.4686 0.0000
# 4 0.0000 0.0000 0.0000 31.5384 0.0000 -0.1749
# 5 -6.6043 -4.8292 -0.4686 0.0000 14.0290 0.0000
# 6 0.0000 0.0000 0.0000 -0.1749 0.0000 7.8286
#
#
#
# Elastic Compliance Matrix: (Units=1/GPa)
#
#
# Indices 1 2 3 4 5 6 
#
# 1 0.019424 -0.003541 -0.003800 0.000000 0.007798 0.000000
# 2 -0.003541 0.010673 -0.002061 0.000000 0.001938 0.000000
# 3 -0.003800 -0.002061 0.013272 0.000000 -0.002055 0.000000
# 4 0.000000 0.000000 0.000000 0.031711 0.000000 0.000709
# 5 0.007798 0.001938 -0.002055 0.000000 0.075550 0.000000
# 6 0.000000 0.000000 0.000000 0.000709 0.000000 0.127752
#
#
# Mechanical properties :
#
#
# Convention : Reuss Voigt Hill
#
# Bulk Modulus (GPa) = 40.71253 44.15110 42.43181
# Shear Modulus (GPa) = 16.37331 23.01418 19.69374
#
# Velocity S-wave (km/s) = 2.60930 3.09352 2.86167
# Velocity P-wave (km/s) = 5.09972 5.57844 5.34444
#
# Compressibility (1/GPa) = 0.02456246
#
# Stress axis : x y z
#
# Youngs Moduli (GPa) = 51.48396 93.69802 75.34624
#
# Poissons Ratio (x) = 0.33183 0.28634
# Poissons Ratio (y) = 0.18233 0.15530
# Poissons Ratio (z) = 0.19565 0.19312
#
# Static dielectric constant tensor:
#      x y z
#    x 1.968640 0.000000 -0.008740 
#    y 0.000000 1.932910 0.000000 
#    z -0.008740 0.000000 1.964920 
# 
# From -- ./inp_files/1286.got.cif
#   From: 2010.05.17/outbox.cif.g08.bks.cpg/sg9_1_cif.got.tgz:1286.got - 2010.06.03 20:04:27.
