data_PCOD9133777
_publ_section_title
;
Structure prediction by ZEFSAII (Michael W. Deem and Ramdas Pophale) SiO2 
 PCOD9133777
Probable space group: C C
;
_chemical_formula_sum "Si O2"
_cell_formula_units_Z 32
_cell_length_a 23.755967
_cell_length_b 11.192259
_cell_length_c 5.298545
_cell_angle_alpha 90.000000
_cell_angle_beta 106.528003
_cell_angle_gamma 90.000000
_cell_volume 1350.582524
_symmetry_space_group_name_H-M "C C"
_symmetry_group_IT_number 9
_symmetry_cell_setting 'monoclinic'
loop_
_space_group_symop_operation_xyz
x,y,z
x,-y,1/2+z
1/2+x,1/2+y,z
1/2+x,1/2-y,1/2+z
loop_
_atom_site_type_symbol
_atom_site_label
_atom_site_fract_x
_atom_site_fract_y
_atom_site_fract_z
Si Si1 0.998300 0.941388 0.697820
Si Si2 0.522057 0.830829 0.230044
Si Si3 0.628523 0.543318 0.805483
Si Si4 0.725548 0.930535 0.947188
Si Si5 0.396246 0.837182 0.904503
Si Si6 0.315091 0.031802 0.592229
Si Si7 0.353952 0.416106 0.216363
Si Si8 0.597457 0.181062 0.309652
O O1 0.998570 0.803128 0.759861
O O2 0.973467 0.983969 0.398815
O O3 0.066929 0.972276 0.754893
O O4 0.459727 0.885101 0.070637
O O5 0.558603 0.870394 0.524849
O O6 0.562760 0.827445 0.031220
O O7 0.658840 0.486097 0.605231
O O8 0.610732 0.680737 0.762642
O O9 0.661823 0.874860 0.914683
O O10 0.727495 0.960243 0.651715
O O11 0.786345 0.866231 0.100032
O O12 0.348286 0.845426 0.071612
O O13 0.367887 0.934015 0.682216
O O14 0.393027 0.704422 0.786605
O O15 0.282171 0.982266 0.308392
O O16 0.359066 0.494852 0.480825
#
# Coordination Sequence:
#
# PCOD9133777 Si02
#       8
#     4   4   4   4   4   4   4   4
#     4  10  16  31  45  69 113 160 179 236 302 352
#     4  12  23  32  57  89 124 162 210 253 312 393
#     4  10  16  31  50  71 113 151 184 231 303 353
#     4  10  23  47  63  88 122 166 215 278 311 362
#     4  10  24  41  65  94 130 169 216 263 341 379
#     4   8  20  40  60  80 126 166 198 254 314 366
#     4  10  24  43  72  98 129 164 222 282 333 388
#     4  12  22  37  58  85 119 172 202 249 318 371
#
# _framework density 23.693480999999998
#
# number of rings (size 3 to 8) (size 9 to 14) (size 15 to 20)
#    0.750    1.000    5.000    0.750    3.500    1.000 
#    6.750    0.000    2.750    0.000    0.000    0.000 
#    0.000    0.000    0.000    0.000    0.000    0.000 
#
# Total GULP energy -89173.374134 kJ/mol
# GULP energy per Si atom -5573.335883 kJ/mol
# Density = 2.363955 g / cm^3
# Si number density = 23.693481 Si / 1000 Ang^3
#
#
#
# Elastic Constant Matrix: (Units=GPa)
#
#
# Indices 1 2 3 4 5 6 
#
# 1 96.4698 -1.7578 14.6097 0.0000 6.4729 0.0000
# 2 -1.7578 58.1315 24.8143 0.0000 27.1381 0.0000
# 3 14.6097 24.8143 253.0099 0.0000 74.8669 0.0000
# 4 0.0000 0.0000 0.0000 16.4682 0.0000 -9.1086
# 5 6.4729 27.1381 74.8669 0.0000 124.0243 0.0000
# 6 0.0000 0.0000 0.0000 -9.1086 0.0000 -16.6169
#
#
#
# Elastic Compliance Matrix: (Units=1/GPa)
#
#
# Indices 1 2 3 4 5 6 
#
# 1 0.010490 0.000730 -0.000570 0.000000 -0.000363 0.000000
# 2 0.000730 0.019337 -0.000822 0.000000 -0.003773 0.000000
# 3 -0.000570 -0.000822 0.004875 0.000000 -0.002733 0.000000
# 4 0.000000 0.000000 0.000000 0.046596 0.000000 -0.025542
# 5 -0.000363 -0.003773 -0.002733 0.000000 0.010557 0.000000
# 6 0.000000 0.000000 0.000000 -0.025542 0.000000 -0.046179
#
#
# Mechanical properties :
#
#
# Convention : Reuss Voigt Hill
#
# Bulk Modulus (GPa) = 29.96055 53.66040 41.81048
# Shear Modulus (GPa) = 86.02090 49.43812 67.72951
#
# Velocity S-wave (km/s) = 6.03196 4.57286 5.35236
# Velocity P-wave (km/s) = 7.82210 7.11184 7.47541
#
# Compressibility (1/GPa) = 0.03337723
#
# Stress axis : x y z
#
# Youngs Moduli (GPa) = 95.32975 51.71492 205.14327
#
# Poissons Ratio (x) = -0.03775 0.11690
# Poissons Ratio (y) = -0.06959 0.16867
# Poissons Ratio (z) = 0.05432 0.04252
#
# Static dielectric constant tensor:
#      x y z
#    x 1.776690 0.000000 0.065840 
#    y 0.000000 1.883780 0.000000 
#    z 0.065840 0.000000 1.999740 
# 
# From -- ./inp_files/3402.got.cif
#   From: 2010.05.17/outbox.cif.g08.bks.cpg/sg9_2_cif.got.tgz:3402.got - 2010.06.03 20:04:27.
