data_PCOD9133126
_publ_section_title
;
Structure prediction by ZEFSAII (Michael W. Deem and Ramdas Pophale) SiO2 
 PCOD9133126
Probable space group: C M
;
_chemical_formula_sum "Si O2"
_cell_formula_units_Z 30
_cell_length_a 11.478042
_cell_length_b 20.973135
_cell_length_c 4.955433
_cell_angle_alpha 90.000000
_cell_angle_beta 98.881786
_cell_angle_gamma 90.000000
_cell_volume 1178.619630
_symmetry_space_group_name_H-M "C M"
_symmetry_group_IT_number 8
_symmetry_cell_setting 'monoclinic'
loop_
_space_group_symop_operation_xyz
x,y,z
x,-y,z
1/2+x,1/2+y,z
1/2+x,1/2-y,z
loop_
_atom_site_type_symbol
_atom_site_label
_atom_site_fract_x
_atom_site_fract_y
_atom_site_fract_z
Si Si1 0.736620 0.357373 0.522580
Si Si2 0.925576 0.000000 0.698158
Si Si3 0.978311 0.424800 0.521414
Si Si4 0.032114 0.913369 0.165304
Si Si5 0.845253 0.110550 0.467499
Si Si6 0.440047 0.713151 0.890502
Si Si7 0.632348 0.924721 0.068674
Si Si8 0.197681 0.223921 0.002799
O O1 0.869156 0.380566 0.555937
O O2 0.656674 0.410974 0.351775
O O3 0.716610 0.296473 0.319335
O O4 0.694926 0.338665 0.805776
O O5 0.819836 0.057862 0.684605
O O6 0.017356 0.053267 0.880303
O O7 0.950259 0.500000 0.553423
O O8 0.021755 0.415812 0.232820
O O9 0.084551 0.408300 0.759483
O O10 0.940893 0.938867 0.360493
O O11 0.981165 0.842341 0.110569
O O12 0.899649 0.173880 0.611257
O O13 0.737484 0.117680 0.227324
O O14 0.320026 0.744726 0.950363
O O15 0.564486 0.751714 0.910026
O O16 0.663910 0.000000 0.103462
#
# Coordination Sequence:
#
# PCOD9133126 Si02
#       8
#     4   2   4   4   4   4   4   4
#     4  11  24  46  69  98 139 179 229 293 344 420
#     4  10  22  36  64 104 136 178 222 270 354 412
#     4  10  23  42  62  98 137 188 224 276 335 424
#     4  10  23  41  65 101 137 174 228 286 346 423
#     4  11  21  40  67  99 134 179 225 286 347 416
#     4  10  25  45  69 103 135 185 236 301 353 425
#     4  10  22  38  62  91 141 177 225 273 335 405
#     4  11  25  47  73  98 143 178 239 297 361 408
#
# _framework density 25.453506000000001
#
# number of rings (size 3 to 8) (size 9 to 14) (size 15 to 20)
#    0.000    1.600    2.000    1.200    6.533    1.067 
#    2.400    0.000    0.000    0.000    0.000    0.000 
#    0.000    0.000    0.000    0.000    0.000    0.000 
#
# Total GULP energy -83558.692684 kJ/mol
# GULP energy per Si atom -5570.579512 kJ/mol
# Density = 2.539557 g / cm^3
# Si number density = 25.453506 Si / 1000 Ang^3
#
#
#
# Elastic Constant Matrix: (Units=GPa)
#
#
# Indices 1 2 3 4 5 6 
#
# 1 148.7970 30.2771 4.8621 0.0000 39.0952 0.0000
# 2 30.2771 45.4749 -1.0436 0.0000 13.8879 0.0000
# 3 4.8621 -1.0436 70.8885 0.0000 14.9963 0.0000
# 4 0.0000 0.0000 0.0000 47.9058 0.0000 -11.5472
# 5 39.0952 13.8879 14.9963 0.0000 50.6635 0.0000
# 6 0.0000 0.0000 0.0000 -11.5472 0.0000 41.3727
#
#
#
# Elastic Compliance Matrix: (Units=1/GPa)
#
#
# Indices 1 2 3 4 5 6 
#
# 1 0.009160 -0.004226 0.000597 0.000000 -0.006087 0.000000
# 2 -0.004226 0.026182 0.001604 0.000000 -0.004390 0.000000
# 3 0.000597 0.001604 0.015234 0.000000 -0.005410 0.000000
# 4 0.000000 0.000000 0.000000 0.022380 0.000000 0.006246
# 5 -0.006087 -0.004390 -0.005410 0.000000 0.027240 0.000000
# 6 0.000000 0.000000 0.000000 0.006246 0.000000 0.025914
#
#
# Mechanical properties :
#
#
# Convention : Reuss Voigt Hill
#
# Bulk Modulus (GPa) = 21.49354 37.03909 29.26631
# Shear Modulus (GPa) = 34.32464 43.39271 38.85868
#
# Velocity S-wave (km/s) = 3.67621 4.13338 3.91148
# Velocity P-wave (km/s) = 5.14606 6.11253 5.65000
#
# Compressibility (1/GPa) = 0.04652560
#
# Stress axis : x y z
#
# Youngs Moduli (GPa) = 109.16658 38.19472 65.64382
#
# Poissons Ratio (x) = 0.16142 -0.03920
# Poissons Ratio (y) = 0.46137 -0.10530
# Poissons Ratio (z) = -0.06519 -0.06127
#
# Static dielectric constant tensor:
#      x y z
#    x 2.259130 0.000000 -0.300790 
#    y 0.000000 1.974710 0.000000 
#    z -0.300790 0.000000 2.466440 
# 
# From -- ./inp_files/3132.got.cif
#   From: 2010.05.17/outbox.cif.g08.bks.cpg/sg8_2_cif.got.tgz:3132.got - 2010.06.03 19:46:02.
