data_PCOD9133895
_publ_section_title
;
Structure prediction by ZEFSAII (Michael W. Deem and Ramdas Pophale) SiO2 
 PCOD9133895
Probable space group: C C
;
_chemical_formula_sum "Si O2"
_cell_formula_units_Z 32
_cell_length_a 6.151238
_cell_length_b 17.659125
_cell_length_c 14.181963
_cell_angle_alpha 90.000000
_cell_angle_beta 93.202128
_cell_angle_gamma 90.000000
_cell_volume 1538.117316
_symmetry_space_group_name_H-M "C C"
_symmetry_group_IT_number 9
_symmetry_cell_setting 'monoclinic'
loop_
_space_group_symop_operation_xyz
x,y,z
x,-y,1/2+z
1/2+x,1/2+y,z
1/2+x,1/2-y,1/2+z
loop_
_atom_site_type_symbol
_atom_site_label
_atom_site_fract_x
_atom_site_fract_y
_atom_site_fract_z
Si Si1 0.218210 0.647329 0.724410
Si Si2 0.888906 0.536882 0.620972
Si Si3 0.025746 0.139221 0.029435
Si Si4 0.853026 0.531748 0.930347
Si Si5 0.922863 0.271149 0.608363
Si Si6 0.133505 0.682407 0.919169
Si Si7 0.205191 0.598799 0.181122
Si Si8 0.534594 0.489713 0.256980
O O1 0.368194 0.692338 0.654699
O O2 0.127040 0.699281 0.807674
O O3 0.372457 0.580839 0.770407
O O4 0.015347 0.608348 0.666741
O O5 0.908675 0.532307 0.508148
O O6 0.648360 0.527344 0.658544
O O7 0.018757 0.463089 0.661326
O O8 0.192322 0.185756 0.096914
O O9 0.845007 0.101497 0.089351
O O10 0.164454 0.078755 0.977608
O O11 0.885949 0.188630 0.953916
O O12 0.738927 0.504977 0.832274
O O13 0.038481 0.595559 0.919971
O O14 0.008764 0.274178 0.501441
O O15 0.088760 0.319746 0.677647
O O16 0.380751 0.564045 0.257434
#
# Coordination Sequence:
#
# PCOD9133895 Si02
#       8
#     4   4   4   4   4   4   4   4
#     4  11  24  39  65  96 131 176 221 282 327 397
#     4  11  21  37  64  97 128 158 223 279 327 388
#     4  10  17  36  66  85 110 170 213 257 313 395
#     4  11  19  36  63  93 122 163 214 272 331 401
#     4  10  22  39  66  89 130 174 223 267 327 401
#     4  10  20  39  65  91 118 177 227 257 331 417
#     4  10  19  37  61  91 121 163 216 259 326 399
#     4  11  22  35  66  94 126 167 219 275 340 386
#
# _framework density 20.804653999999999
#
# number of rings (size 3 to 8) (size 9 to 14) (size 15 to 20)
#    0.000    1.500    7.500    0.000    0.000    2.000 
#    0.000    0.000   16.500    0.000    0.000    0.000 
#    0.000    0.000    0.000    0.000    0.000    0.000 
#
# Total GULP energy -89123.498192 kJ/mol
# GULP energy per Si atom -5570.218637 kJ/mol
# Density = 2.075730 g / cm^3
# Si number density = 20.804654 Si / 1000 Ang^3
#
#
#
# Elastic Constant Matrix: (Units=GPa)
#
#
# Indices 1 2 3 4 5 6 
#
# 1 86.4912 16.9624 14.3291 0.0000 -1.2260 0.0000
# 2 16.9624 29.0666 22.5223 0.0000 -2.6581 0.0000
# 3 14.3291 22.5223 94.4882 0.0000 6.1611 0.0000
# 4 0.0000 0.0000 0.0000 20.6708 0.0000 -7.3074
# 5 -1.2260 -2.6581 6.1611 0.0000 37.6312 0.0000
# 6 0.0000 0.0000 0.0000 -7.3074 0.0000 19.9610
#
#
#
# Elastic Compliance Matrix: (Units=1/GPa)
#
#
# Indices 1 2 3 4 5 6 
#
# 1 0.013059 -0.007478 -0.000193 0.000000 -0.000071 0.000000
# 2 -0.007478 0.047310 -0.010456 0.000000 0.004810 0.000000
# 3 -0.000193 -0.010456 0.013296 0.000000 -0.002922 0.000000
# 4 0.000000 0.000000 0.000000 0.055569 0.000000 0.020343
# 5 -0.000071 0.004810 -0.002922 0.000000 0.027390 0.000000
# 6 0.000000 0.000000 0.000000 0.020343 0.000000 0.057545
#
#
# Mechanical properties :
#
#
# Convention : Reuss Voigt Hill
#
# Bulk Modulus (GPa) = 26.73119 35.29708 31.01414
# Shear Modulus (GPa) = 19.01914 26.06807 22.54360
#
# Velocity S-wave (km/s) = 3.02682 3.54360 3.29536
# Velocity P-wave (km/s) = 5.00920 5.80910 5.42391
#
# Compressibility (1/GPa) = 0.03740948
#
# Stress axis : x y z
#
# Youngs Moduli (GPa) = 76.57314 21.13735 75.21296
#
# Poissons Ratio (x) = 0.15806 0.01455
# Poissons Ratio (y) = 0.57259 0.78646
# Poissons Ratio (z) = 0.01481 0.22102
#
# Static dielectric constant tensor:
#      x y z
#    x 1.744790 0.000000 0.038640 
#    y 0.000000 1.771060 0.000000 
#    z 0.038640 0.000000 1.834780 
# 
# From -- ./inp_files/13513.got.cif
#   From: 2010.05.17/outbox.cif.g08.bks.cpg/sg9_7_cif.got.tgz:13513.got - 2010.06.03 20:04:27.
