data_PCOD9133996
_publ_section_title
;
Structure prediction by ZEFSAII (Michael W. Deem and Ramdas Pophale) SiO2 
 PCOD9133996
Probable space group: C C
;
_chemical_formula_sum "Si O2"
_cell_formula_units_Z 32
_cell_length_a 13.723495
_cell_length_b 11.809420
_cell_length_c 13.851286
_cell_angle_alpha 90.000000
_cell_angle_beta 137.086605
_cell_angle_gamma 90.000000
_cell_volume 1528.486808
_symmetry_space_group_name_H-M "C C"
_symmetry_group_IT_number 9
_symmetry_cell_setting 'monoclinic'
loop_
_space_group_symop_operation_xyz
x,y,z
x,-y,1/2+z
1/2+x,1/2+y,z
1/2+x,1/2-y,1/2+z
loop_
_atom_site_type_symbol
_atom_site_label
_atom_site_fract_x
_atom_site_fract_y
_atom_site_fract_z
Si Si1 0.722420 0.124773 0.668560
Si Si2 0.749817 0.594488 0.870932
Si Si3 0.554597 0.351785 0.059172
Si Si4 0.657822 0.516214 0.983162
Si Si5 0.266625 0.652013 0.467925
Si Si6 0.986061 0.235381 0.926410
Si Si7 0.555499 0.914786 0.527240
Si Si8 0.480684 0.952010 0.785152
O O1 0.772624 0.141960 0.590728
O O2 0.574122 0.194612 0.569271
O O3 0.834813 0.174255 0.825076
O O4 0.687343 0.992961 0.653860
O O5 0.687455 0.608000 0.720039
O O6 0.651337 0.513992 0.863287
O O7 0.911768 0.553698 0.980905
O O8 0.745226 0.717636 0.919079
O O9 0.412801 0.378537 0.018884
O O10 0.570249 0.418599 0.971490
O O11 0.569798 0.218288 0.052281
O O12 0.589928 0.633561 0.970608
O O13 0.828405 0.517747 0.129027
O O14 0.126992 0.579526 0.334518
O O15 0.959055 0.332674 0.826468
O O16 0.523528 0.952717 0.394086
#
# Coordination Sequence:
#
# PCOD9133996 Si02
#       8
#     4   4   4   4   4   4   4   4
#     4  10  19  36  65  95 129 165 216 273 325 375
#     4  11  20  37  63  94 123 169 218 271 313 380
#     4  11  24  39  61  98 126 171 220 268 323 400
#     4  12  22  37  66  93 132 163 214 275 330 380
#     4   9  20  33  63  90 119 160 222 263 309 376
#     4  10  18  33  62  94 116 162 212 267 318 371
#     4   9  22  39  62  90 136 167 211 268 332 390
#     4  10  19  40  64  94 129 163 209 275 332 378
#
# _framework density 20.935737
#
# number of rings (size 3 to 8) (size 9 to 14) (size 15 to 20)
#    0.000    2.000    5.000    0.750    3.500    2.000 
#    0.000    0.000   11.000    0.000    0.000    0.000 
#    0.000    0.000    0.000    0.000    0.000    0.000 
#
# Total GULP energy -89198.364431 kJ/mol
# GULP energy per Si atom -5574.897777 kJ/mol
# Density = 2.088809 g / cm^3
# Si number density = 20.935737 Si / 1000 Ang^3
#
#
#
# Elastic Constant Matrix: (Units=GPa)
#
#
# Indices 1 2 3 4 5 6 
#
# 1 83.8065 39.3757 19.6751 0.0000 10.1336 0.0000
# 2 39.3757 65.9596 15.4189 0.0000 7.4272 0.0000
# 3 19.6751 15.4189 63.7845 0.0000 22.7077 0.0000
# 4 0.0000 0.0000 0.0000 16.5937 0.0000 1.4134
# 5 10.1336 7.4272 22.7077 0.0000 31.4551 0.0000
# 6 0.0000 0.0000 0.0000 1.4134 0.0000 30.4224
#
#
#
# Elastic Compliance Matrix: (Units=1/GPa)
#
#
# Indices 1 2 3 4 5 6 
#
# 1 0.017153 -0.009495 -0.002458 0.000000 -0.001509 0.000000
# 2 -0.009495 0.021367 -0.002058 0.000000 -0.000500 0.000000
# 3 -0.002458 -0.002058 0.022179 0.000000 -0.014733 0.000000
# 4 0.000000 0.000000 0.000000 0.060503 0.000000 -0.002811
# 5 -0.001509 -0.000500 -0.014733 0.000000 0.043032 0.000000
# 6 0.000000 0.000000 0.000000 -0.002811 0.000000 0.033001
#
#
# Mechanical properties :
#
#
# Convention : Reuss Voigt Hill
#
# Bulk Modulus (GPa) = 30.60436 40.27667 35.44052
# Shear Modulus (GPa) = 21.17304 24.96630 23.06967
#
# Velocity S-wave (km/s) = 3.18360 3.45704 3.32313
# Velocity P-wave (km/s) = 5.30695 5.93421 5.62932
#
# Compressibility (1/GPa) = 0.03267508
#
# Stress axis : x y z
#
# Youngs Moduli (GPa) = 58.29835 46.80213 45.08845
#
# Poissons Ratio (x) = 0.44440 0.11085
# Poissons Ratio (y) = 0.55356 0.09279
# Poissons Ratio (z) = 0.14332 0.09632
#
# Static dielectric constant tensor:
#      x y z
#    x 1.800380 0.000000 -0.004800 
#    y 0.000000 1.745520 0.000000 
#    z -0.004800 0.000000 1.816600 
# 
# From -- ./inp_files/25868.got.cif
#   From: 2010.05.17/outbox.cif.g08.bks.cpg/sg9_13_cif.got.tgz:25868.got - 2010.06.03 20:04:27.
