data_PCOD9133780
_publ_section_title
;
Structure prediction by ZEFSAII (Michael W. Deem and Ramdas Pophale) SiO2 
 PCOD9133780
Probable space group: C C
;
_chemical_formula_sum "Si O2"
_cell_formula_units_Z 32
_cell_length_a 14.844402
_cell_length_b 13.380514
_cell_length_c 20.007527
_cell_angle_alpha 90.000000
_cell_angle_beta 158.633172
_cell_angle_gamma 90.000000
_cell_volume 1447.881444
_symmetry_space_group_name_H-M "C C"
_symmetry_group_IT_number 9
_symmetry_cell_setting 'monoclinic'
loop_
_space_group_symop_operation_xyz
x,y,z
x,-y,1/2+z
1/2+x,1/2+y,z
1/2+x,1/2-y,1/2+z
loop_
_atom_site_type_symbol
_atom_site_label
_atom_site_fract_x
_atom_site_fract_y
_atom_site_fract_z
Si Si1 0.325610 0.131030 0.960320
Si Si2 0.092894 0.318092 0.394778
Si Si3 0.620705 0.211519 0.769884
Si Si4 0.551926 0.535497 0.886792
Si Si5 0.300669 0.852190 0.663040
Si Si6 0.231720 0.359214 0.633248
Si Si7 0.828181 0.191580 0.559191
Si Si8 0.112396 0.679477 0.616978
O O1 0.268972 0.064749 0.985524
O O2 0.070506 0.131038 0.743472
O O3 0.546038 0.109273 0.063428
O O4 0.365340 0.240724 0.019393
O O5 0.344168 0.253371 0.575537
O O6 0.130170 0.354284 0.343920
O O7 0.106717 0.376401 0.474480
O O8 0.841509 0.252203 0.219254
O O9 0.666667 0.157710 0.731694
O O10 0.815919 0.305862 0.905466
O O11 0.467729 0.427830 0.807244
O O12 0.303516 0.606656 0.709637
O O13 0.658393 0.554050 0.034331
O O14 0.284291 0.769672 0.590750
O O15 0.193398 0.791930 0.651716
O O16 0.583421 0.871423 0.876774
#
# Coordination Sequence:
#
# PCOD9133780 Si02
#       8
#     4   4   4   4   4   4   4   4
#     4  10  20  35  60  91 120 170 204 260 316 374
#     4   9  21  42  59  81 115 172 222 261 294 371
#     4   9  19  32  64  88 118 169 207 246 304 388
#     4  11  23  35  60  98 128 158 208 272 314 377
#     4  10  16  31  56  93 133 159 189 246 318 379
#     4  11  23  42  65  83 122 172 222 265 315 366
#     4   9  16  31  57  87 124 164 203 242 301 382
#     4  11  16  32  59  99 126 160 189 246 328 385
#
# _framework density 22.101255999999999
#
# number of rings (size 3 to 8) (size 9 to 14) (size 15 to 20)
#    0.000    2.000    5.000    0.750    0.000    3.000 
#    0.000    2.500    0.000    6.000    0.000    0.000 
#    0.000    0.000    0.000    0.000    0.000    0.000 
#
# Total GULP energy -89104.904746 kJ/mol
# GULP energy per Si atom -5569.056547 kJ/mol
# Density = 2.205095 g / cm^3
# Si number density = 22.101256 Si / 1000 Ang^3
#
#
#
# Elastic Constant Matrix: (Units=GPa)
#
#
# Indices 1 2 3 4 5 6 
#
# 1 137.4495 14.5557 18.4607 -0.0120 5.2982 -0.0055
# 2 14.5557 12.1484 -12.1156 0.0643 -6.7802 -0.0059
# 3 18.4607 -12.1156 67.6866 0.1015 -11.0657 -0.0183
# 4 -0.0120 0.0643 0.1015 21.9990 0.0004 3.7691
# 5 5.2982 -6.7802 -11.0657 0.0004 35.5899 -0.0106
# 6 -0.0055 -0.0059 -0.0183 3.7691 -0.0106 7.8549
#
#
#
# Elastic Compliance Matrix: (Units=1/GPa)
#
#
# Indices 1 2 3 4 5 6 
#
# 1 0.012758 -0.033136 -0.011330 0.000181 -0.011735 -0.000145
# 2 -0.033136 0.215808 0.058152 -0.001068 0.064127 0.000872
# 3 -0.011330 0.058152 0.031986 -0.000380 0.022710 0.000322
# 4 0.000181 -0.001068 -0.000380 0.049534 -0.000356 -0.023771
# 5 -0.011735 0.064127 0.022710 -0.000356 0.049123 0.000329
# 6 -0.000145 0.000872 0.000322 -0.023771 0.000329 0.138717
#
#
# Mechanical properties :
#
#
# Convention : Reuss Voigt Hill
#
# Bulk Modulus (GPa) = 3.47313 28.78734 16.13023
# Shear Modulus (GPa) = 8.82565 26.18100 17.50333
#
# Velocity S-wave (km/s) = 2.00049 3.44553 2.81723
# Velocity P-wave (km/s) = 2.62884 5.37423 4.23043
#
# Compressibility (1/GPa) = 0.28792474
#
# Stress axis : x y z
#
# Youngs Moduli (GPa) = 78.37930 4.63375 31.26341
#
# Poissons Ratio (x) = 0.15354 0.35420
# Poissons Ratio (y) = 2.59718 -1.81802
# Poissons Ratio (z) = 0.88801 -0.26946
#
# Static dielectric constant tensor:
#      x y z
#    x 1.869600 0.000000 0.003840 
#    y 0.000000 1.872000 -0.000020 
#    z 0.003840 -0.000020 1.840670 
# 
# From -- ./inp_files/9694.got.cif
#   From: 2010.05.17/outbox.cif.g08.bks.cpg/sg9_5_cif.got.tgz:9694.got - 2010.06.03 20:04:27.
