data_PCOD9133128
_publ_section_title
;
Structure prediction by ZEFSAII (Michael W. Deem and Ramdas Pophale) SiO2 
 PCOD9133128
Probable space group: C M
;
_chemical_formula_sum "Si O2"
_cell_formula_units_Z 28
_cell_length_a 12.380735
_cell_length_b 22.953383
_cell_length_c 4.882519
_cell_angle_alpha 90.000000
_cell_angle_beta 97.589725
_cell_angle_gamma 90.000000
_cell_volume 1375.357374
_symmetry_space_group_name_H-M "C M"
_symmetry_group_IT_number 8
_symmetry_cell_setting 'monoclinic'
loop_
_space_group_symop_operation_xyz
x,y,z
x,-y,z
1/2+x,1/2+y,z
1/2+x,1/2-y,z
loop_
_atom_site_type_symbol
_atom_site_label
_atom_site_fract_x
_atom_site_fract_y
_atom_site_fract_z
Si Si1 0.853570 0.348669 0.449190
Si Si2 0.733482 0.435852 0.686523
Si Si3 0.200622 0.706628 0.169459
Si Si4 0.150670 0.216667 0.639998
Si Si5 0.452482 0.679905 0.237515
Si Si6 0.474719 0.807129 0.980482
Si Si7 0.580124 0.432463 0.111074
O O1 0.841633 0.411815 0.576889
O O2 0.736754 0.324857 0.513068
O O3 0.936532 0.311524 0.658169
O O4 0.891946 0.340953 0.153815
O O5 0.759389 0.500000 0.800211
O O6 0.669606 0.408411 0.923335
O O7 0.642962 0.438400 0.418201
O O8 0.167206 0.725905 0.461657
O O9 0.321848 0.681592 0.225843
O O10 0.191091 0.761962 0.952331
O O11 0.097117 0.668764 0.042907
O O12 0.031618 0.190181 0.529403
O O13 0.473122 0.739469 0.072133
O O14 0.491199 0.618740 0.117903
O O15 0.545656 0.500000 0.024082
#
# Coordination Sequence:
#
# PCOD9133128 Si02
#       7
#     4   4   4   4   4   4   4
#     4  12  20  39  57  84 121 148 188 243 291 349
#     4  10  22  38  60  88 117 151 194 246 300 349
#     4  11  24  38  53  83 124 152 201 224 292 358
#     4  11  22  35  55  87 114 154 188 239 289 356
#     4  11  22  38  61  82 122 161 188 246 300 347
#     4  11  24  35  55  87 118 156 192 238 287 358
#     4  10  22  37  57  89 118 150 199 244 293 351
#
# _framework density 20.358346000000001
#
# number of rings (size 3 to 8) (size 9 to 14) (size 15 to 20)
#    0.000    1.143    4.286    2.571    4.000    2.286 
#    0.000    0.000    0.000    1.714    0.000    0.000 
#    0.000    0.000    0.000    0.000    0.000    0.000 
#
# Total GULP energy -77965.948765 kJ/mol
# GULP energy per Si atom -5568.996340 kJ/mol
# Density = 2.031201 g / cm^3
# Si number density = 20.358346 Si / 1000 Ang^3
#
#
#
# Elastic Constant Matrix: (Units=GPa)
#
#
# Indices 1 2 3 4 5 6 
#
# 1 150.8125 43.8373 22.0356 0.0000 0.5100 0.0000
# 2 43.8373 74.9869 -0.3187 0.0000 -7.2838 0.0000
# 3 22.0356 -0.3187 70.5252 0.0000 -12.2739 0.0000
# 4 0.0000 0.0000 0.0000 19.6225 0.0000 -8.5493
# 5 0.5100 -7.2838 -12.2739 0.0000 35.4900 0.0000
# 6 0.0000 0.0000 0.0000 -8.5493 0.0000 19.8425
#
#
#
# Elastic Compliance Matrix: (Units=1/GPa)
#
#
# Indices 1 2 3 4 5 6 
#
# 1 0.008629 -0.005280 -0.003118 0.000000 -0.002286 0.000000
# 2 -0.005280 0.016860 0.002491 0.000000 0.004398 0.000000
# 3 -0.003118 0.002491 0.016239 0.000000 0.006172 0.000000
# 4 0.000000 0.000000 0.000000 0.062739 0.000000 0.027032
# 5 -0.002286 0.004398 0.006172 0.000000 0.031247 0.000000
# 6 0.000000 0.000000 0.000000 0.027032 0.000000 0.062043
#
#
# Mechanical properties :
#
#
# Convention : Reuss Voigt Hill
#
# Bulk Modulus (GPa) = 33.42790 47.49255 40.46023
# Shear Modulus (GPa) = 22.77480 30.37571 26.57526
#
# Velocity S-wave (km/s) = 3.34832 3.86690 3.61692
# Velocity P-wave (km/s) = 5.60390 6.58150 6.11228
#
# Compressibility (1/GPa) = 0.02991513
#
# Stress axis : x y z
#
# Youngs Moduli (GPa) = 115.89297 59.31249 61.58061
#
# Poissons Ratio (x) = 0.31315 0.19199
# Poissons Ratio (y) = 0.61187 -0.15341
# Poissons Ratio (z) = 0.36132 -0.14776
#
# Static dielectric constant tensor:
#      x y z
#    x 1.798280 0.000000 0.010540 
#    y 0.000000 1.973030 0.000000 
#    z 0.010540 0.000000 1.775210 
# 
# From -- ./inp_files/3055.got.cif
#   From: 2010.05.17/outbox.cif.g08.bks.cpg/sg8_2_cif.got.tgz:3055.got - 2010.06.03 19:46:02.
