data_PCOD9133474
_publ_section_title
;
Structure prediction by ZEFSAII (Michael W. Deem and Ramdas Pophale) SiO2 
 PCOD9133474
Probable space group: C M
;
_chemical_formula_sum "Si O2"
_cell_formula_units_Z 32
_cell_length_a 14.495231
_cell_length_b 21.919067
_cell_length_c 14.780745
_cell_angle_alpha 90.000000
_cell_angle_beta 160.482956
_cell_angle_gamma 90.000000
_cell_volume 1568.929535
_symmetry_space_group_name_H-M "C M"
_symmetry_group_IT_number 8
_symmetry_cell_setting 'monoclinic'
loop_
_space_group_symop_operation_xyz
x,y,z
x,-y,z
1/2+x,1/2+y,z
1/2+x,1/2-y,z
loop_
_atom_site_type_symbol
_atom_site_label
_atom_site_fract_x
_atom_site_fract_y
_atom_site_fract_z
Si Si1 0.234520 0.707261 0.392980
Si Si2 0.377652 0.429286 0.774535
Si Si3 0.818475 0.218471 0.259452
Si Si4 0.700901 0.429989 0.424609
Si Si5 0.281066 0.603433 0.881329
Si Si6 0.887613 0.664195 0.735999
Si Si7 0.405541 0.148545 0.248592
Si Si8 0.232156 0.725684 0.898045
O O1 0.215844 0.708467 0.266926
O O2 0.092198 0.661064 0.331474
O O3 0.560223 0.714736 0.711948
O O4 0.024719 0.764252 0.215046
O O5 0.366335 0.500000 0.734564
O O6 0.409030 0.427460 0.912451
O O7 0.100400 0.391951 0.493800
O O8 0.636354 0.391027 0.976239
O O9 0.138768 0.201674 0.548834
O O10 0.807391 0.287459 0.206151
O O11 0.640407 0.169288 0.038526
O O12 0.633015 0.500000 0.377327
O O13 0.764197 0.396897 0.578053
O O14 0.982176 0.423516 0.626719
O O15 0.462192 0.403088 0.139680
O O16 0.256291 0.676184 0.841351
O O17 0.019003 0.697338 0.771318
#
# Coordination Sequence:
#
# PCOD9133474 Si02
#       8
#     4   4   4   4   4   4   4   4
#     4  12  23  38  64  88 129 159 204 259 314 381
#     4  12  25  42  63  90 130 171 216 267 312 377
#     4  12  23  40  63  94 124 162 210 260 326 377
#     4  11  22  37  60  90 127 171 210 253 317 387
#     4  11  22  37  62  93 126 167 212 251 317 384
#     4  11  21  38  60  88 129 160 197 257 312 377
#     4  12  24  42  64  95 126 169 213 263 323 385
#     4  11  19  38  58  92 123 163 191 252 317 374
#
# _framework density 20.396072
#
# number of rings (size 3 to 8) (size 9 to 14) (size 15 to 20)
#    0.000    0.500    2.500    9.000    0.000    0.000 
#    0.000    0.000    0.000    4.500    0.000    0.000 
#    0.000    0.000    0.000    0.000    0.000    0.000 
#
# Total GULP energy -89231.947674 kJ/mol
# GULP energy per Si atom -5576.996730 kJ/mol
# Density = 2.034965 g / cm^3
# Si number density = 20.396072 Si / 1000 Ang^3
#
#
#
# Elastic Constant Matrix: (Units=GPa)
#
#
# Indices 1 2 3 4 5 6 
#
# 1 83.3810 32.8245 15.1417 -0.0610 0.5310 -0.0025
# 2 32.8245 64.9935 3.2262 -0.0909 -2.8023 -0.0050
# 3 15.1417 3.2262 97.1178 -0.2738 5.4425 -0.0169
# 4 -0.0610 -0.0909 -0.2738 -335.5824 -0.0692 -30.8102
# 5 0.5310 -2.8023 5.4425 -0.0692 30.2900 -0.0030
# 6 -0.0025 -0.0050 -0.0169 -30.8102 -0.0030 8.8126
#
#
#
# Elastic Compliance Matrix: (Units=1/GPa)
#
#
# Indices 1 2 3 4 5 6 
#
# 1 0.015414 -0.007706 -0.002113 0.000001 -0.000603 0.000000
# 2 -0.007706 0.019335 0.000456 -0.000004 0.001842 -0.000004
# 3 -0.002113 0.000456 0.010715 -0.000007 -0.001846 -0.000007
# 4 0.000001 -0.000004 -0.000007 -0.002256 -0.000005 -0.007887
# 5 -0.000603 0.001842 -0.001846 -0.000005 0.033527 -0.000009
# 6 0.000000 -0.000004 -0.000007 -0.007887 -0.000009 0.085901
#
#
# Mechanical properties :
#
#
# Convention : Reuss Voigt Hill
#
# Bulk Modulus (GPa) = 37.40186 38.65301 38.02744
# Shear Modulus (GPa) = 26.27772 -46.34263 -10.03245
#
# Velocity S-wave (km/s) = 3.59328 -4.77186 -2.22025
# Velocity P-wave (km/s) = 5.96600 3.37173 3.48027
#
# Compressibility (1/GPa) = 0.02673664
#
# Stress axis : x y z
#
# Youngs Moduli (GPa) = 64.87433 51.72011 93.33094
#
# Poissons Ratio (x) = 0.39856 0.19725
# Poissons Ratio (y) = 0.49993 -0.04255
# Poissons Ratio (z) = 0.13711 -0.02358
#
# Static dielectric constant tensor:
#      x y z
#    x 1.771840 -0.000100 -0.016170 
#    y -0.000100 3.019100 0.000160 
#    z -0.016170 0.000160 1.738410 
# 
# From -- ./inp_files/27082.got.cif
#   From: 2010.05.17/outbox.cif.g08.bks.cpg/sg8_14_cif.got.tgz:27082.got - 2010.06.03 19:46:02.
