data_PCOD9133878
_publ_section_title
;
Structure prediction by ZEFSAII (Michael W. Deem and Ramdas Pophale) SiO2 
 PCOD9133878
Probable space group: C C
;
_chemical_formula_sum "Si O2"
_cell_formula_units_Z 32
_cell_length_a 9.684148
_cell_length_b 17.654716
_cell_length_c 7.705659
_cell_angle_alpha 90.000000
_cell_angle_beta 77.532968
_cell_angle_gamma 90.000000
_cell_volume 1286.378514
_symmetry_space_group_name_H-M "C C"
_symmetry_group_IT_number 9
_symmetry_cell_setting 'monoclinic'
loop_
_space_group_symop_operation_xyz
x,y,z
x,-y,1/2+z
1/2+x,1/2+y,z
1/2+x,1/2-y,1/2+z
loop_
_atom_site_type_symbol
_atom_site_label
_atom_site_fract_x
_atom_site_fract_y
_atom_site_fract_z
Si Si1 0.745480 0.320046 0.199630
Si Si2 0.022973 0.219060 0.068936
Si Si3 0.279831 0.396640 0.567010
Si Si4 0.968859 0.613472 0.175440
Si Si5 0.841270 0.463948 0.375548
Si Si6 0.860940 0.053138 0.699015
Si Si7 0.568981 0.542296 0.376251
Si Si8 0.704131 0.689773 0.319214
O O1 0.893264 0.277467 0.122343
O O2 0.637862 0.291595 0.380974
O O3 0.797394 0.404553 0.237147
O O4 0.673032 0.311616 0.030853
O O5 0.116823 0.239992 0.212530
O O6 0.923297 0.143102 0.090415
O O7 0.277542 0.482251 0.641267
O O8 0.279642 0.395917 0.356976
O O9 0.130258 0.363288 0.661095
O O10 0.931326 0.538292 0.298627
O O11 0.871182 0.685358 0.246461
O O12 0.926933 0.583500 0.995170
O O13 0.686438 0.499321 0.459094
O O14 0.983231 0.017219 0.787203
O O15 0.945429 0.086012 0.515034
O O16 0.657741 0.606785 0.260103
#
# Coordination Sequence:
#
# PCOD9133878 Si02
#       8
#     4   4   4   4   4   4   4   4
#     4  12  28  48  77 105 144 199 252 307 354 439
#     4  12  28  51  74 104 148 196 252 301 360 449
#     4  11  23  41  63 105 152 180 237 297 375 429
#     4  11  23  39  73 108 148 187 232 311 370 446
#     4  11  21  41  69 108 145 187 246 290 377 430
#     4  10  19  32  63  98 140 175 225 291 369 420
#     4  10  17  34  66 102 128 177 226 300 353 437
#     4  11  23  46  75 102 137 187 244 301 372 430
#
# _framework density 24.876035999999999
#
# number of rings (size 3 to 8) (size 9 to 14) (size 15 to 20)
#    0.000    1.000    2.500    6.750    1.750    2.000 
#    0.000    1.250    0.000    0.000    0.000    0.000 
#    0.000    0.000    0.000    0.000    0.000    0.000 
#
# Total GULP energy -89253.342342 kJ/mol
# GULP energy per Si atom -5578.333896 kJ/mol
# Density = 2.481942 g / cm^3
# Si number density = 24.876036 Si / 1000 Ang^3
#
#
#
# Elastic Constant Matrix: (Units=GPa)
#
#
# Indices 1 2 3 4 5 6 
#
# 1 138.6731 12.2525 45.9919 0.0000 -16.6865 0.0000
# 2 12.2525 35.0118 0.4203 0.0000 -6.3464 0.0000
# 3 45.9919 0.4203 98.4738 0.0000 9.6082 0.0000
# 4 0.0000 0.0000 0.0000 13.6982 0.0000 3.2674
# 5 -16.6865 -6.3464 9.6082 0.0000 34.7147 0.0000
# 6 0.0000 0.0000 0.0000 3.2674 0.0000 38.1035
#
#
#
# Elastic Compliance Matrix: (Units=1/GPa)
#
#
# Indices 1 2 3 4 5 6 
#
# 1 0.009804 -0.002335 -0.005125 0.000000 0.005704 0.000000
# 2 -0.002335 0.030140 0.000549 0.000000 0.004236 0.000000
# 3 -0.005125 0.000549 0.013132 0.000000 -0.005998 0.000000
# 4 0.000000 0.000000 0.000000 0.074527 0.000000 -0.006391
# 5 0.005704 0.004236 -0.005998 0.000000 0.033983 0.000000
# 6 0.000000 0.000000 0.000000 -0.006391 0.000000 0.026792
#
#
# Mechanical properties :
#
#
# Convention : Reuss Voigt Hill
#
# Bulk Modulus (GPa) = 25.47658 43.27646 34.37652
# Shear Modulus (GPa) = 23.22499 31.53620 27.38060
#
# Velocity S-wave (km/s) = 3.05885 3.56439 3.32125
# Velocity P-wave (km/s) = 4.76855 5.86297 5.34385
#
# Compressibility (1/GPa) = 0.03925174
#
# Stress axis : x y z
#
# Youngs Moduli (GPa) = 102.00120 33.17821 76.15169
#
# Poissons Ratio (x) = 0.07748 0.39031
# Poissons Ratio (y) = 0.23821 -0.04179
# Poissons Ratio (z) = 0.52280 -0.01821
#
# Static dielectric constant tensor:
#      x y z
#    x 1.983830 0.000000 0.022950 
#    y 0.000000 2.051880 0.000000 
#    z 0.022950 0.000000 2.066030 
# 
# From -- ./inp_files/5759.got.cif
#   From: 2010.05.17/outbox.cif.g08.bks.cpg/sg9_3_cif.got.tgz:5759.got - 2010.06.03 20:04:27.
