data_PCOD9133108
_publ_section_title
;
Structure prediction by ZEFSAII (Michael W. Deem and Ramdas Pophale) SiO2 
 PCOD9133108
Probable space group: C M
;
_chemical_formula_sum "Si O2"
_cell_formula_units_Z 30
_cell_length_a 14.126483
_cell_length_b 19.402125
_cell_length_c 4.946463
_cell_angle_alpha 90.000000
_cell_angle_beta 66.827304
_cell_angle_gamma 90.000000
_cell_volume 1246.367809
_symmetry_space_group_name_H-M "C M"
_symmetry_group_IT_number 8
_symmetry_cell_setting 'monoclinic'
loop_
_space_group_symop_operation_xyz
x,y,z
x,-y,z
1/2+x,1/2+y,z
1/2+x,1/2-y,z
loop_
_atom_site_type_symbol
_atom_site_label
_atom_site_fract_x
_atom_site_fract_y
_atom_site_fract_z
Si Si1 0.507310 0.000000 0.639210
Si Si2 0.397541 0.190972 0.195258
Si Si3 0.697826 0.751165 0.283108
Si Si4 0.344627 0.886095 0.751603
Si Si5 0.610682 0.138215 0.757866
Si Si6 0.638511 0.660616 0.849427
Si Si7 0.934414 0.080593 0.216642
Si Si8 0.795648 0.080522 0.871618
O O1 0.430064 0.058383 0.591871
O O2 0.572792 0.062381 0.711545
O O3 0.322243 0.251920 0.185158
O O4 0.379861 0.179398 0.531796
O O5 0.350401 0.128531 0.064706
O O6 0.516036 0.182656 0.986775
O O7 0.648213 0.819852 0.455172
O O8 0.669679 0.721168 0.024017
O O9 0.703221 0.873400 0.864297
O O10 0.227043 0.897014 0.800562
O O11 0.654242 0.307725 0.537059
O O12 0.527345 0.630240 0.033951
O O13 0.892564 0.092197 0.564541
O O14 0.966075 0.000000 0.156125
O O15 0.837559 0.089423 0.125194
O O16 0.764193 0.000000 0.882048
#
# Coordination Sequence:
#
# PCOD9133108 Si02
#       8
#     2   4   4   4   4   4   4   4
#     4  10  22  40  66 102 132 172 230 278 346 398
#     4   9  21  41  60  94 131 174 217 272 336 412
#     4  10  23  41  66  97 136 178 227 275 338 416
#     4   9  20  38  63  93 136 166 217 279 334 405
#     4  11  23  43  70  97 140 184 224 291 345 402
#     4  10  21  43  66  97 137 178 225 276 339 411
#     4  10  22  40  68  97 134 174 228 280 345 403
#     4  10  22  41  59  97 133 171 225 284 333 410
#
# _framework density 24.069941
#
# number of rings (size 3 to 8) (size 9 to 14) (size 15 to 20)
#    0.000    2.133    0.667    0.800    0.933    8.533 
#    2.400    9.333    0.000    0.000    0.000    0.000 
#    0.000    0.000    0.000    0.000    0.000    0.000 
#
# Total GULP energy -83611.844516 kJ/mol
# GULP energy per Si atom -5574.122968 kJ/mol
# Density = 2.401516 g / cm^3
# Si number density = 24.069941 Si / 1000 Ang^3
#
#
#
# Elastic Constant Matrix: (Units=GPa)
#
#
# Indices 1 2 3 4 5 6 
#
# 1 102.0029 33.4847 7.0322 0.0000 -22.8049 0.0000
# 2 33.4847 81.1209 25.0944 0.0000 -23.4077 0.0000
# 3 7.0322 25.0944 81.8985 0.0000 -3.3277 0.0000
# 4 0.0000 0.0000 0.0000 12.4559 0.0000 -1.6815
# 5 -22.8049 -23.4077 -3.3277 0.0000 34.3615 0.0000
# 6 0.0000 0.0000 0.0000 -1.6815 0.0000 31.6752
#
#
#
# Elastic Compliance Matrix: (Units=1/GPa)
#
#
# Indices 1 2 3 4 5 6 
#
# 1 0.012211 -0.003448 0.000243 0.000000 0.005779 0.000000
# 2 -0.003448 0.017984 -0.004829 0.000000 0.009495 0.000000
# 3 0.000243 -0.004829 0.013595 0.000000 -0.001812 0.000000
# 4 0.000000 0.000000 0.000000 0.080863 0.000000 0.004293
# 5 0.005779 0.009495 -0.001812 0.000000 0.039230 0.000000
# 6 0.000000 0.000000 0.000000 0.004293 0.000000 0.031798
#
#
# Mechanical properties :
#
#
# Convention : Reuss Voigt Hill
#
# Bulk Modulus (GPa) = 36.07165 44.02722 40.04944
# Shear Modulus (GPa) = 22.62547 28.99258 25.80903
#
# Velocity S-wave (km/s) = 3.06925 3.47438 3.27808
# Velocity P-wave (km/s) = 5.25158 5.86738 5.56800
#
# Compressibility (1/GPa) = 0.02772260
#
# Stress axis : x y z
#
# Youngs Moduli (GPa) = 81.89535 55.60476 73.55476
#
# Poissons Ratio (x) = 0.19172 -0.01786
# Poissons Ratio (y) = 0.28237 0.35517
# Poissons Ratio (z) = -0.01988 0.26849
#
# Static dielectric constant tensor:
#      x y z
#    x 1.950650 0.000000 -0.031700 
#    y 0.000000 1.929260 0.000000 
#    z -0.031700 0.000000 1.908170 
# 
# From -- ./inp_files/4107.got.cif
#   From: 2010.05.17/outbox.cif.g08.bks.cpg/sg8_3_cif.got.tgz:4107.got - 2010.06.03 19:46:02.
