data_PCOD9133458
_publ_section_title
;
Structure prediction by ZEFSAII (Michael W. Deem and Ramdas Pophale) SiO2 
 PCOD9133458
Probable space group: C M
;
_chemical_formula_sum "Si O2"
_cell_formula_units_Z 22
_cell_length_a 8.217617
_cell_length_b 13.060700
_cell_length_c 8.380166
_cell_angle_alpha 90.000000
_cell_angle_beta 82.260003
_cell_angle_gamma 90.000000
_cell_volume 891.230756
_symmetry_space_group_name_H-M "C M"
_symmetry_group_IT_number 8
_symmetry_cell_setting 'monoclinic'
loop_
_space_group_symop_operation_xyz
x,y,z
x,-y,z
1/2+x,1/2+y,z
1/2+x,1/2-y,z
loop_
_atom_site_type_symbol
_atom_site_label
_atom_site_fract_x
_atom_site_fract_y
_atom_site_fract_z
Si Si1 0.490460 0.301459 0.329820
Si Si2 0.030795 0.500000 0.790899
Si Si3 0.920710 0.174555 0.993783
Si Si4 0.293084 0.877390 0.451598
Si Si5 0.254298 0.833092 0.794395
Si Si6 0.263952 0.500000 0.450988
Si Si7 0.675146 0.000000 0.120243
O O1 0.451431 0.195983 0.426113
O O2 0.673340 0.344737 0.324276
O O3 0.374906 0.396213 0.408698
O O4 0.466961 0.266499 0.149192
O O5 0.176750 0.500000 0.637907
O O6 0.913056 0.404592 0.775165
O O7 0.061944 0.500000 0.978143
O O8 0.093752 0.131268 0.910252
O O9 0.823864 0.231518 0.866377
O O10 0.793747 0.094369 0.076357
O O11 0.198763 0.834675 0.619580
O O12 0.306620 0.000000 0.458156
O O13 0.138550 0.500000 0.314369
#
# Coordination Sequence:
#
# PCOD9133458 Si02
#       7
#     4   2   4   4   4   2   2
#     4  11  26  50  80 109 159 202 258 335 392 473
#     4  12  27  46  73 110 151 209 250 330 384 471
#     4  11  25  49  74 109 147 202 254 323 392 472
#     4  12  27  48  76 118 153 205 259 326 395 480
#     4  12  26  47  70 109 148 194 261 307 395 466
#     4  10  26  49  76 117 156 205 270 320 408 467
#     4  10  25  47  79 107 153 200 256 322 390 480
#
# _framework density 24.684965999999999
#
# number of rings (size 3 to 8) (size 9 to 14) (size 15 to 20)
#    0.000    0.727    1.818    3.818   10.182    1.455 
#    8.182    0.000    0.000    0.000    0.000    0.000 
#    0.000    0.000    0.000    0.000    0.000    0.000 
#
# Total GULP energy -61423.873860 kJ/mol
# GULP energy per Si atom -5583.988533 kJ/mol
# Density = 2.462878 g / cm^3
# Si number density = 24.684966 Si / 1000 Ang^3
#
#
#
# Elastic Constant Matrix: (Units=GPa)
#
#
# Indices 1 2 3 4 5 6 
#
# 1 81.2225 20.2690 15.5211 0.0000 0.4496 0.0000
# 2 20.2690 129.7095 30.5927 0.0000 -6.7259 0.0000
# 3 15.5211 30.5927 67.2548 0.0000 8.7101 0.0000
# 4 0.0000 0.0000 0.0000 28.9118 0.0000 -3.9818
# 5 0.4496 -6.7259 8.7101 0.0000 44.1348 0.0000
# 6 0.0000 0.0000 0.0000 -3.9818 0.0000 39.4556
#
#
#
# Elastic Compliance Matrix: (Units=1/GPa)
#
#
# Indices 1 2 3 4 5 6 
#
# 1 0.013135 -0.001489 -0.002368 0.000000 0.000107 0.000000
# 2 -0.001489 0.009007 -0.004037 0.000000 0.002185 0.000000
# 3 -0.002368 -0.004037 0.017783 0.000000 -0.004100 0.000000
# 4 0.000000 0.000000 0.000000 0.035075 0.000000 0.003540
# 5 0.000107 0.002185 -0.004100 0.000000 0.023799 0.000000
# 6 0.000000 0.000000 0.000000 0.003540 0.000000 0.025702
#
#
# Mechanical properties :
#
#
# Convention : Reuss Voigt Hill
#
# Bulk Modulus (GPa) = 41.42718 45.66135 43.54426
# Shear Modulus (GPa) = 33.70755 36.62071 35.16413
#
# Velocity S-wave (km/s) = 3.69929 3.85583 3.77837
# Velocity P-wave (km/s) = 5.92158 6.19363 6.05913
#
# Compressibility (1/GPa) = 0.02413874
#
# Stress axis : x y z
#
# Youngs Moduli (GPa) = 76.13097 111.01877 56.23480
#
# Poissons Ratio (x) = 0.16525 0.13317
# Poissons Ratio (y) = 0.11332 0.22700
# Poissons Ratio (z) = 0.18028 0.44815
#
# Static dielectric constant tensor:
#      x y z
#    x 1.974250 0.000000 0.093570 
#    y 0.000000 1.933000 0.000000 
#    z 0.093570 0.000000 2.142110 
# 
# From -- ./inp_files/7839.got.cif
#   From: 2010.05.17/outbox.cif.g08.bks.cpg/sg8_4_cif.got.tgz:7839.got - 2010.06.03 19:46:02.
