data_PCOD9133785
_publ_section_title
;
Structure prediction by ZEFSAII (Michael W. Deem and Ramdas Pophale) SiO2 
 PCOD9133785
Probable space group: C C
;
_chemical_formula_sum "Si O2"
_cell_formula_units_Z 28
_cell_length_a 12.273451
_cell_length_b 14.792140
_cell_length_c 8.448464
_cell_angle_alpha 90.000000
_cell_angle_beta 112.339177
_cell_angle_gamma 90.000000
_cell_volume 1418.710347
_symmetry_space_group_name_H-M "C C"
_symmetry_group_IT_number 9
_symmetry_cell_setting 'monoclinic'
loop_
_space_group_symop_operation_xyz
x,y,z
x,-y,1/2+z
1/2+x,1/2+y,z
1/2+x,1/2-y,1/2+z
loop_
_atom_site_type_symbol
_atom_site_label
_atom_site_fract_x
_atom_site_fract_y
_atom_site_fract_z
Si Si1 0.743000 0.056837 0.399080
Si Si2 0.392701 0.586613 0.196931
Si Si3 0.365948 0.103618 0.464678
Si Si4 0.566761 0.430371 0.366456
Si Si5 0.230122 0.969613 0.181554
Si Si6 0.634850 0.900203 0.153255
Si Si7 0.365826 0.697635 0.890171
O O1 0.827270 0.109070 0.324691
O O2 0.665872 0.108234 0.484632
O O3 0.821133 0.986383 0.547000
O O4 0.662457 0.999207 0.237080
O O5 0.505741 0.528260 0.305979
O O6 0.405232 0.672050 0.090688
O O7 0.278717 0.090426 0.564932
O O8 0.498080 0.111519 0.602332
O O9 0.355263 0.196257 0.361961
O O10 0.335676 0.018202 0.336182
O O11 0.648108 0.415022 0.258752
O O12 0.651258 0.449140 0.562495
O O13 0.462524 0.357981 0.339815
O O14 0.734083 0.839645 0.290645
#
# Coordination Sequence:
#
# PCOD9133785 Si02
#       7
#     4   4   4   4   4   4   4
#     4   9  16  31  57  87 115 151 198 236 315 356
#     4  10  16  32  58  95 119 152 191 261 306 358
#     4  11  25  44  60  88 125 175 208 256 310 386
#     4  11  18  38  68  92 124 162 206 254 309 382
#     4  10  24  41  66  83 130 172 210 235 333 381
#     4  10  20  36  62  85 124 154 205 259 301 364
#     4  11  23  36  65  96 123 156 216 265 308 351
#
# _framework density 19.736234
#
# number of rings (size 3 to 8) (size 9 to 14) (size 15 to 20)
#    0.000    1.714    5.714    0.857    2.000    0.000 
#    2.571    0.000    0.000    0.000    0.000    0.000 
#    0.000    0.000    0.000    0.000    0.000    0.000 
#
# Total GULP energy -77975.355108 kJ/mol
# GULP energy per Si atom -5569.668222 kJ/mol
# Density = 1.969131 g / cm^3
# Si number density = 19.736234 Si / 1000 Ang^3
#
#
#
# Elastic Constant Matrix: (Units=GPa)
#
#
# Indices 1 2 3 4 5 6 
#
# 1 81.3721 7.2454 32.3793 0.0000 9.7089 0.0000
# 2 7.2454 32.5020 4.7715 0.0000 9.8010 0.0000
# 3 32.3793 4.7715 59.3415 0.0000 -4.8606 0.0000
# 4 0.0000 0.0000 0.0000 13.4165 0.0000 -0.7625
# 5 9.7089 9.8010 -4.8606 0.0000 40.2757 0.0000
# 6 0.0000 0.0000 0.0000 -0.7625 0.0000 11.3898
#
#
#
# Elastic Compliance Matrix: (Units=1/GPa)
#
#
# Indices 1 2 3 4 5 6 
#
# 1 0.016723 -0.000840 -0.009464 0.000000 -0.004969 0.000000
# 2 -0.000840 0.033925 -0.002958 0.000000 -0.008410 0.000000
# 3 -0.009464 -0.002958 0.022724 0.000000 0.005744 0.000000
# 4 0.000000 0.000000 0.000000 0.074820 0.000000 0.005009
# 5 -0.004969 -0.008410 0.005744 0.000000 0.028766 0.000000
# 6 0.000000 0.000000 0.000000 0.005009 0.000000 0.088134
#
#
# Mechanical properties :
#
#
# Convention : Reuss Voigt Hill
#
# Bulk Modulus (GPa) = 21.34620 29.11199 25.22909
# Shear Modulus (GPa) = 16.27433 21.60435 18.93934
#
# Velocity S-wave (km/s) = 2.87469 3.31215 3.10114
# Velocity P-wave (km/s) = 4.67522 5.42306 5.06297
#
# Compressibility (1/GPa) = 0.04684675
#
# Stress axis : x y z
#
# Youngs Moduli (GPa) = 59.79837 29.47682 44.00629
#
# Poissons Ratio (x) = 0.02476 0.41648
# Poissons Ratio (y) = 0.05024 0.13018
# Poissons Ratio (z) = 0.56594 0.08720
#
# Static dielectric constant tensor:
#      x y z
#    x 1.754910 0.000000 0.021190 
#    y 0.000000 1.709390 0.000000 
#    z 0.021190 0.000000 1.737610 
# 
# From -- ./inp_files/7161.got.cif
#   From: 2010.05.17/outbox.cif.g08.bks.cpg/sg9_4_cif.got.tgz:7161.got - 2010.06.03 20:04:27.
