data_PCOD9133824
_publ_section_title
;
Structure prediction by ZEFSAII (Michael W. Deem and Ramdas Pophale) SiO2 
 PCOD9133824
Probable space group: C C
;
_chemical_formula_sum "Si O2"
_cell_formula_units_Z 32
_cell_length_a 17.846814
_cell_length_b 6.789404
_cell_length_c 14.438120
_cell_angle_alpha 90.000000
_cell_angle_beta 135.091489
_cell_angle_gamma 90.000000
_cell_volume 1235.075240
_symmetry_space_group_name_H-M "C C"
_symmetry_group_IT_number 9
_symmetry_cell_setting 'monoclinic'
loop_
_space_group_symop_operation_xyz
x,y,z
x,-y,1/2+z
1/2+x,1/2+y,z
1/2+x,1/2-y,1/2+z
loop_
_atom_site_type_symbol
_atom_site_label
_atom_site_fract_x
_atom_site_fract_y
_atom_site_fract_z
Si Si1 0.948660 0.380654 0.972770
Si Si2 0.117329 0.568101 0.761704
Si Si3 0.448609 0.537674 0.278818
Si Si4 0.212675 0.062157 0.272940
Si Si5 0.511841 0.410557 0.026729
Si Si6 0.029527 0.393084 0.855576
Si Si7 0.839339 0.106445 0.519594
Si Si8 0.252323 0.318095 0.126516
O O1 0.834286 0.440243 0.911862
O O2 0.945240 0.434251 0.861063
O O3 0.978420 0.146374 0.999550
O O4 0.050968 0.472887 0.111319
O O5 0.151006 0.795750 0.789436
O O6 0.033958 0.522910 0.769315
O O7 0.228833 0.458470 0.876505
O O8 0.508699 0.648379 0.414993
O O9 0.517869 0.339183 0.322216
O O10 0.398570 0.568847 0.132008
O O11 0.338499 0.476582 0.234784
O O12 0.224057 0.172283 0.183403
O O13 0.128399 0.893243 0.174693
O O14 0.421678 0.325136 0.014833
O O15 0.144593 0.418051 0.001064
O O16 0.805623 0.251672 0.575319
#
# Coordination Sequence:
#
# PCOD9133824 Si02
#       8
#     4   4   4   4   4   4   4   4
#     4  10  18  30  49  74 103 129 168 212 251 291
#     4  10  19  28  51  79 102 129 171 212 248 298
#     4   9  17  28  49  71 102 124 170 208 248 281
#     4  11  17  32  52  78 101 130 168 208 254 293
#     4  10  17  29  50  73 104 127 163 214 248 297
#     4  10  17  30  49  78 101 127 170 208 249 295
#     4   9  18  28  47  79 100 126 170 206 248 297
#     4   9  15  27  47  76  95 122 160 212 236 284
#
# _framework density 25.909351000000001
#
# number of rings (size 3 to 8) (size 9 to 14) (size 15 to 20)
#    0.750    1.500    7.500    0.000    0.000    0.000 
#    0.000    2.500    0.000    3.000    0.000    0.000 
#    0.000    0.000    0.000    0.000    0.000    0.000 
#
# Total GULP energy -89164.821898 kJ/mol
# GULP energy per Si atom -5572.801369 kJ/mol
# Density = 2.585038 g / cm^3
# Si number density = 25.909351 Si / 1000 Ang^3
#
#
#
# Elastic Constant Matrix: (Units=GPa)
#
#
# Indices 1 2 3 4 5 6 
#
# 1 104.7884 7.7716 21.0544 0.0000 -10.3882 0.0000
# 2 7.7716 69.2593 12.6858 0.0000 0.4176 0.0000
# 3 21.0544 12.6858 153.6033 0.0000 9.2008 0.0000
# 4 0.0000 0.0000 0.0000 16.2992 0.0000 4.0133
# 5 -10.3882 0.4176 9.2008 0.0000 57.1048 0.0000
# 6 0.0000 0.0000 0.0000 4.0133 0.0000 19.1993
#
#
#
# Elastic Compliance Matrix: (Units=1/GPa)
#
#
# Indices 1 2 3 4 5 6 
#
# 1 0.010103 -0.000883 -0.001436 0.000000 0.002076 0.000000
# 2 -0.000883 0.014738 -0.001091 0.000000 -0.000093 0.000000
# 3 -0.001436 -0.001091 0.006879 0.000000 -0.001362 0.000000
# 4 0.000000 0.000000 0.000000 0.064682 0.000000 -0.013521
# 5 0.002076 -0.000093 -0.001362 0.000000 0.018109 0.000000
# 6 0.000000 0.000000 0.000000 -0.013521 0.000000 0.054911
#
#
# Mechanical properties :
#
#
# Convention : Reuss Voigt Hill
#
# Bulk Modulus (GPa) = 40.16100 45.63051 42.89576
# Shear Modulus (GPa) = 27.09414 37.59662 32.34538
#
# Velocity S-wave (km/s) = 3.23728 3.81344 3.53711
# Velocity P-wave (km/s) = 5.43208 6.08602 5.76833
#
# Compressibility (1/GPa) = 0.02489978
#
# Stress axis : x y z
#
# Youngs Moduli (GPa) = 98.98171 67.85226 145.37489
#
# Poissons Ratio (x) = 0.05992 0.20879
# Poissons Ratio (y) = 0.08741 0.15854
# Poissons Ratio (z) = 0.14216 0.07400
#
# Static dielectric constant tensor:
#      x y z
#    x 2.014350 0.000000 -0.014330 
#    y 0.000000 2.163830 0.000000 
#    z -0.014330 0.000000 2.063550 
# 
# From -- ./inp_files/26780.got.cif
#   From: 2010.05.17/outbox.cif.g08.bks.cpg/sg9_14_cif.got.tgz:26780.got - 2010.06.03 20:04:27.
