data_PCOD9133692
_publ_section_title
;
Structure prediction by ZEFSAII (Michael W. Deem and Ramdas Pophale) SiO2 
 PCOD9133692
Probable space group: C M
;
_chemical_formula_sum "Si O2"
_cell_formula_units_Z 16
_cell_length_a 24.000000
_cell_length_b 9.000000
_cell_length_c 15.000000
_cell_angle_alpha 90.000000
_cell_angle_beta 30.000000
_cell_angle_gamma 90.000000
_cell_volume 1620.000000
_symmetry_space_group_name_H-M "C M"
_symmetry_group_IT_number 8
_symmetry_cell_setting 'monoclinic'
loop_
_space_group_symop_operation_xyz
x,y,z
x,-y,z
1/2+x,1/2+y,z
1/2+x,1/2-y,z
loop_
_atom_site_type_symbol
_atom_site_label
_atom_site_fract_x
_atom_site_fract_y
_atom_site_fract_z
Si Si1 0.871040 0.319768 0.110740
Si Si2 0.767311 0.323296 0.965808
Si Si3 0.434318 0.820292 0.225301
Si Si4 0.465234 0.321138 0.806943
Si Si5 0.629230 0.822781 0.443726
Si Si6 0.059699 0.672816 0.342585
Si Si7 0.829561 0.676061 0.552563
Si Si8 0.190881 0.322125 0.892273
O O1 0.869648 0.500000 0.105485
O O2 0.903824 0.276721 0.166785
O O3 0.749148 0.251276 0.261275
O O4 0.950943 0.249983 0.924745
O O5 0.788182 0.500000 0.937002
O O6 0.861672 0.238678 0.891309
O O7 0.755986 0.260868 0.881306
O O8 0.650793 0.281741 0.174564
O O9 0.354140 0.772872 0.417378
O O10 0.431206 0.000000 0.230720
O O11 0.560713 0.779007 0.075161
O O12 0.465431 0.500000 0.811092
O O13 0.571816 0.258677 0.606300
O O14 0.557084 0.803854 0.452776
O O15 0.639443 0.000000 0.444962
O O16 0.096016 0.500000 0.278163
O O17 0.943675 0.690124 0.451863
O O18 0.800482 0.500000 0.592322
O O19 0.739292 0.770771 0.730577
O O20 0.200123 0.500000 0.890811
#
# Coordination Sequence:
#
# PCOD9133692 Si02
#       8
#     4   4   4   4   4   4   4   4
#     4  11  23  42  65  92 125 164 212 261 311 366
#     4  12  23  37  62  94 126 160 202 252 312 374
#     4   9  21  41  64  87 122 166 206 254 308 361
#     4  12  25  42  64  92 126 166 210 256 309 370
#     4  11  23  40  64  95 127 162 203 254 316 373
#     4  10  20  37  63  89 124 160 195 245 313 376
#     4  10  20  39  63  90 123 161 201 248 308 367
#     4  11  22  40  63  91 125 163 205 250 305 367
#
# _framework density 9.8765429999999999
#
# number of rings (size 3 to 8) (size 9 to 14) (size 15 to 20)
#    0.000    1.250    2.500    4.125    0.000    3.000 
#    0.000    6.250    0.000    0.000    0.000    0.000 
#    0.000    0.000    0.000    0.000    0.000    0.000 
#
# Total GULP energy -89464.306611 kJ/mol
# GULP energy per Si atom -5591.519163 kJ/mol
# Density = 0.985406 g / cm^3
# Si number density = 9.876543 Si / 1000 Ang^3
#
#
#
# Elastic Constant Matrix: (Units=GPa)
#
#
# Indices 1 2 3 4 5 6 
#
# 1 87.3927 20.5182 7.0191 -0.0001 36.4984 0.0001
# 2 20.5182 106.3183 28.4486 -0.0003 17.6610 0.0002
# 3 7.0191 28.4486 86.3096 -0.0002 38.7549 0.0001
# 4 -0.0001 -0.0003 -0.0002 33.8169 0.0001 7.5300
# 5 36.4984 17.6610 38.7549 0.0001 37.6791 -0.0001
# 6 0.0001 0.0002 0.0001 7.5300 -0.0001 26.7415
#
#
#
# Elastic Compliance Matrix: (Units=1/GPa)
#
#
# Indices 1 2 3 4 5 6 
#
# 1 0.032360 -0.003436 0.022024 0.000000 -0.052389 0.000000
# 2 -0.003436 0.010807 -0.004650 0.000000 0.003046 0.000000
# 3 0.022024 -0.004650 0.037031 0.000000 -0.057243 0.000000
# 4 0.000000 0.000000 0.000000 0.031549 -0.000001 -0.008884
# 5 -0.052389 0.003046 -0.057243 -0.000001 0.134737 0.000001
# 6 0.000000 0.000000 0.000000 -0.008884 0.000001 0.039897
#
#
# Mechanical properties :
#
#
# Convention : Reuss Voigt Hill
#
# Bulk Modulus (GPa) = 9.25285 43.55471 26.40378
# Shear Modulus (GPa) = 16.97625 34.58315 25.77970
#
# Velocity S-wave (km/s) = 2.93477 4.18876 3.61653
# Velocity P-wave (km/s) = 4.02222 6.74476 5.55293
#
# Compressibility (1/GPa) = 0.10807479
#
# Stress axis : x y z
#
# Youngs Moduli (GPa) = 30.90262 92.53102 27.00417
#
# Poissons Ratio (x) = 0.31792 -0.59475
# Poissons Ratio (y) = 0.10618 0.12558
# Poissons Ratio (z) = -0.68061 0.43030
#
# Static dielectric constant tensor:
#      x y z
#    x 1.693610 0.000000 0.008500 
#    y 0.000000 1.655190 0.000000 
#    z 0.008500 0.000000 1.716600 
# 
# From -- ./inp_files/26566.got.cif
#   From: 2010.05.17/outbox.ucp.g08.bks.cvg/sg8_14_cif.got.tgz:26566.got - 2010.06.11 13:00:03.
