data_PCOD9133606
_publ_section_title
;
Structure prediction by ZEFSAII (Michael W. Deem and Ramdas Pophale) SiO2 
 PCOD9133606
Probable space group: C M
;
_chemical_formula_sum "Si O2"
_cell_formula_units_Z 24
_cell_length_a 8.699454
_cell_length_b 20.257616
_cell_length_c 8.313295
_cell_angle_alpha 90.000000
_cell_angle_beta 44.510498
_cell_angle_gamma 90.000000
_cell_volume 1027.061104
_symmetry_space_group_name_H-M "C M"
_symmetry_group_IT_number 8
_symmetry_cell_setting 'monoclinic'
loop_
_space_group_symop_operation_xyz
x,y,z
x,-y,z
1/2+x,1/2+y,z
1/2+x,1/2-y,z
loop_
_atom_site_type_symbol
_atom_site_label
_atom_site_fract_x
_atom_site_fract_y
_atom_site_fract_z
Si Si1 0.397070 0.576213 0.318580
Si Si2 0.380872 0.213122 0.344959
Si Si3 0.695530 0.426571 0.415761
Si Si4 0.827016 0.752244 0.057569
Si Si5 0.069477 0.121418 0.843104
Si Si6 0.008333 0.681309 0.644260
O O1 0.325624 0.500000 0.370584
O O2 0.546448 0.584632 0.367915
O O3 0.189199 0.624344 0.490183
O O4 0.515664 0.589990 0.057645
O O5 0.349174 0.137240 0.320941
O O6 0.579092 0.238264 0.306020
O O7 0.470094 0.244718 0.110345
O O8 0.159529 0.252578 0.547836
O O9 0.794947 0.500000 0.324607
O O10 0.575944 0.424092 0.680110
O O11 0.885213 0.823865 0.947079
O O12 0.879037 0.690170 0.909322
O O13 0.305648 0.159781 0.679218
#
# Coordination Sequence:
#
# PCOD9133606 Si02
#       6
#     4   4   4   4   4   4
#     4  11  27  50  73 105 148 190 236 295 361 426
#     4  12  24  43  69 104 146 180 239 299 355 420
#     4  11  26  47  73 104 143 190 238 291 355 430
#     4  12  25  41  70 111 137 185 240 297 358 422
#     4  12  25  47  74 104 145 187 238 295 358 424
#     4  12  24  44  73 106 142 188 237 299 356 420
#
# _framework density 23.367643000000001
#
# number of rings (size 3 to 8) (size 9 to 14) (size 15 to 20)
#    0.000    0.333    5.000    3.500    4.667    1.333 
#    0.000    1.667    0.000    0.000    0.000    0.000 
#    0.000    0.000    0.000    0.000    0.000    0.000 
#
# Total GULP energy -66864.027734 kJ/mol
# GULP energy per Si atom -5572.002311 kJ/mol
# Density = 2.331446 g / cm^3
# Si number density = 23.367643 Si / 1000 Ang^3
#
#
#
# Elastic Constant Matrix: (Units=GPa)
#
#
# Indices 1 2 3 4 5 6 
#
# 1 103.2623 30.2238 40.1894 0.0000 4.6879 0.0000
# 2 30.2238 138.1437 42.8984 0.0000 -6.7811 0.0000
# 3 40.1894 42.8984 81.4607 0.0000 -1.7969 0.0000
# 4 0.0000 0.0000 0.0000 42.0200 0.0000 1.1520
# 5 4.6879 -6.7811 -1.7969 0.0000 28.8969 0.0000
# 6 0.0000 0.0000 0.0000 1.1520 0.0000 13.7091
#
#
#
# Elastic Compliance Matrix: (Units=1/GPa)
#
#
# Indices 1 2 3 4 5 6 
#
# 1 0.012277 -0.001093 -0.005539 0.000000 -0.002593 0.000000
# 2 -0.001093 0.008841 -0.004072 0.000000 0.001999 0.000000
# 3 -0.005539 -0.004072 0.017175 0.000000 0.001011 0.000000
# 4 0.000000 0.000000 0.000000 0.023853 0.000000 -0.002004
# 5 -0.002593 0.001999 0.001011 0.000000 0.035558 0.000000
# 6 0.000000 0.000000 0.000000 -0.002004 0.000000 0.073113
#
#
# Mechanical properties :
#
#
# Convention : Reuss Voigt Hill
#
# Bulk Modulus (GPa) = 59.22412 61.05442 60.13927
# Shear Modulus (GPa) = 25.27118 30.89556 28.08337
#
# Velocity S-wave (km/s) = 3.29212 3.64008 3.47047
# Velocity P-wave (km/s) = 6.31271 6.62204 6.46922
#
# Compressibility (1/GPa) = 0.01688501
#
# Stress axis : x y z
#
# Youngs Moduli (GPa) = 81.45042 113.11308 58.22400
#
# Poissons Ratio (x) = 0.12369 0.32247
# Poissons Ratio (y) = 0.08906 0.23709
# Poissons Ratio (z) = 0.45111 0.46060
#
# Static dielectric constant tensor:
#      x y z
#    x 1.908520 0.000000 0.116030 
#    y 0.000000 1.863390 0.000000 
#    z 0.116030 0.000000 1.993950 
# 
# From -- ./inp_files/8656.got.cif
#   From: 2010.05.17/outbox.cif.g08.bks.cpg/sg8_5_cif.got.tgz:8656.got - 2010.06.03 19:46:02.
