data_PCOD9133161
_publ_section_title
;
Structure prediction by ZEFSAII (Michael W. Deem and Ramdas Pophale) SiO2 
 PCOD9133161
Probable space group: C M
;
_chemical_formula_sum "Si O2"
_cell_formula_units_Z 32
_cell_length_a 12.692831
_cell_length_b 16.579289
_cell_length_c 14.801071
_cell_angle_alpha 90.000000
_cell_angle_beta 149.815343
_cell_angle_gamma 90.000000
_cell_volume 1566.040059
_symmetry_space_group_name_H-M "C M"
_symmetry_group_IT_number 8
_symmetry_cell_setting 'monoclinic'
loop_
_space_group_symop_operation_xyz
x,y,z
x,-y,z
1/2+x,1/2+y,z
1/2+x,1/2-y,z
loop_
_atom_site_type_symbol
_atom_site_label
_atom_site_fract_x
_atom_site_fract_y
_atom_site_fract_z
Si Si1 0.806880 0.598699 0.980510
Si Si2 0.745167 0.852454 0.394138
Si Si3 0.193869 0.906660 0.698986
Si Si4 0.542648 0.092993 0.424013
Si Si5 0.085057 0.092799 0.987492
Si Si6 0.420702 0.402485 0.047336
Si Si7 0.955281 0.597654 0.724560
Si Si8 0.341216 0.165820 0.444995
O O1 0.801986 0.500000 0.979483
O O2 0.760443 0.628373 0.845347
O O3 0.633127 0.627893 0.924625
O O4 0.034536 0.625815 0.183656
O O5 0.696181 0.870147 0.463101
O O6 0.811335 0.760931 0.427764
O O7 0.943906 0.903219 0.508846
O O8 0.306053 0.871717 0.694055
O O9 0.261192 0.000000 0.752087
O O10 0.313906 0.092234 0.205674
O O11 0.508057 0.139126 0.492095
O O12 0.600002 0.000000 0.483686
O O13 0.018387 0.000000 0.924361
O O14 0.937253 0.128300 0.955587
O O15 0.437924 0.500000 0.056686
O O16 0.197261 0.381598 0.923192
O O17 0.617670 0.370404 0.248281
O O18 0.939642 0.500000 0.706683
O O19 0.897465 0.632047 0.584429
#
# Coordination Sequence:
#
# PCOD9133161 Si02
#       8
#     4   4   4   4   4   4   4   4
#     4   9  18  36  60  87 116 157 205 253 300 357
#     4  11  23  37  62  89 126 160 199 254 320 363
#     4  10  22  39  60  88 121 161 208 248 292 367
#     4   9  18  37  61  87 115 156 208 252 293 365
#     4   7  12  27  55  85 110 134 188 254 294 333
#     4   9  18  36  60  87 116 157 205 253 300 357
#     4  10  22  39  60  88 121 161 208 248 292 367
#     4  11  23  37  62  89 126 160 199 254 320 363
#
# _framework density 20.433705
#
# number of rings (size 3 to 8) (size 9 to 14) (size 15 to 20)
#    0.000    2.500    0.000    3.750    1.750    3.000 
#    0.000    5.000    5.500    0.000    0.000    0.000 
#    0.000    0.000    0.000    0.000    0.000    0.000 
#
# Total GULP energy -89281.869383 kJ/mol
# GULP energy per Si atom -5580.116836 kJ/mol
# Density = 2.038720 g / cm^3
# Si number density = 20.433705 Si / 1000 Ang^3
#
#
#
# Elastic Constant Matrix: (Units=GPa)
#
#
# Indices 1 2 3 4 5 6 
#
# 1 118.4729 19.6833 8.4009 0.0044 8.1510 -0.0007
# 2 19.6833 45.6845 -8.6070 0.0039 -0.7855 0.0033
# 3 8.4009 -8.6070 46.2494 0.0049 -1.9642 0.0063
# 4 0.0044 0.0039 0.0049 5.3142 -0.0008 -1.4685
# 5 8.1510 -0.7855 -1.9642 -0.0008 25.6578 0.0010
# 6 -0.0007 0.0033 0.0063 -1.4685 0.0010 21.6734
#
#
#
# Elastic Compliance Matrix: (Units=1/GPa)
#
#
# Indices 1 2 3 4 5 6 
#
# 1 0.009663 -0.004747 -0.002784 -0.000002 -0.003428 0.000002
# 2 -0.004747 0.025043 0.005638 -0.000021 0.002706 -0.000007
# 3 -0.002784 0.005638 0.023297 -0.000026 0.002841 -0.000010
# 4 -0.000002 -0.000021 -0.000026 0.191767 0.000004 0.012994
# 5 -0.003428 0.002706 0.002841 0.000004 0.040364 -0.000003
# 6 0.000002 -0.000007 -0.000010 0.012994 -0.000003 0.047020
#
#
# Mechanical properties :
#
#
# Convention : Reuss Voigt Hill
#
# Bulk Modulus (GPa) = 18.44443 27.70681 23.07562
# Shear Modulus (GPa) = 13.92709 23.25770 18.59239
#
# Velocity S-wave (km/s) = 2.61353 3.37739 3.01971
# Velocity P-wave (km/s) = 4.26069 5.36636 4.84516
#
# Compressibility (1/GPa) = 0.05421690
#
# Stress axis : x y z
#
# Youngs Moduli (GPa) = 103.49136 39.93129 42.92316
#
# Poissons Ratio (x) = 0.18954 0.11950
# Poissons Ratio (y) = 0.49124 -0.24199
# Poissons Ratio (z) = 0.28813 -0.22512
#
# Static dielectric constant tensor:
#      x y z
#    x 1.752160 0.000000 0.001220 
#    y 0.000000 1.763040 0.000000 
#    z 0.001220 0.000000 1.718110 
# 
# From -- ./inp_files/26281.got.cif
#   From: 2010.05.17/outbox.cif.g08.bks.cpg/sg8_14_cif.got.tgz:26281.got - 2010.06.03 19:46:02.
