data_PCOD9133818
_publ_section_title
;
Structure prediction by ZEFSAII (Michael W. Deem and Ramdas Pophale) SiO2 
 PCOD9133818
Probable space group: C C
;
_chemical_formula_sum "Si O2"
_cell_formula_units_Z 24
_cell_length_a 9.779693
_cell_length_b 21.535228
_cell_length_c 8.164615
_cell_angle_alpha 90.000000
_cell_angle_beta 33.374229
_cell_angle_gamma 90.000000
_cell_volume 945.923773
_symmetry_space_group_name_H-M "C C"
_symmetry_group_IT_number 9
_symmetry_cell_setting 'monoclinic'
loop_
_space_group_symop_operation_xyz
x,y,z
x,-y,1/2+z
1/2+x,1/2+y,z
1/2+x,1/2-y,1/2+z
loop_
_atom_site_type_symbol
_atom_site_label
_atom_site_fract_x
_atom_site_fract_y
_atom_site_fract_z
Si Si1 0.358400 0.999990 0.481260
Si Si2 0.643214 0.896413 0.811325
Si Si3 0.363418 0.447246 0.869360
Si Si4 0.960203 0.215134 0.634063
Si Si5 0.500710 0.425621 0.145358
Si Si6 0.454505 0.764067 0.009963
O O1 0.437972 0.049089 0.541961
O O2 0.277518 0.052201 0.424130
O O3 0.602231 0.958375 0.219277
O O4 0.116319 0.955204 0.720675
O O5 0.830996 0.913657 0.478477
O O6 0.492596 0.835036 0.923819
O O7 0.814773 0.889570 0.800461
O O8 0.390082 0.505884 0.717087
O O9 0.203914 0.252990 0.334125
O O10 0.954828 0.224513 0.839810
O O11 0.981548 0.141308 0.578898
O O12 0.700175 0.744235 0.856936
#
# Coordination Sequence:
#
# PCOD9133818 Si02
#       6
#     4   4   4   4   4   4
#     4   9  20  32  44  68  94 131 168 198 240 285
#     4  11  19  33  53  65 108 138 159 207 242 289
#     4   9  22  30  46  71  93 137 172 193 241 293
#     4  10  17  26  43  67  91 126 149 186 238 297
#     4   9  19  32  46  67 103 126 164 193 238 292
#     4  10  19  27  44  74  93 130 158 183 247 308
#
# _framework density 25.372024
#
# number of rings (size 3 to 8) (size 9 to 14) (size 15 to 20)
#    1.000    1.333    3.333    2.000    4.667    0.000 
#    0.000    0.000    0.000    0.000    0.000    0.000 
#    0.000   18.667    0.000    0.000    0.000    0.000 
#
# Total GULP energy -66803.054155 kJ/mol
# GULP energy per Si atom -5566.921180 kJ/mol
# Density = 2.531428 g / cm^3
# Si number density = 25.372024 Si / 1000 Ang^3
#
#
#
# Elastic Constant Matrix: (Units=GPa)
#
#
# Indices 1 2 3 4 5 6 
#
# 1 36.6127 -7.2873 14.3266 0.0000 -24.4471 0.0000
# 2 -7.2873 111.9777 20.6419 0.0000 -7.3795 0.0000
# 3 14.3266 20.6419 143.6188 0.0000 -52.5059 0.0000
# 4 0.0000 0.0000 0.0000 38.5763 0.0000 -8.1474
# 5 -24.4471 -7.3795 -52.5059 0.0000 39.8181 0.0000
# 6 0.0000 0.0000 0.0000 -8.1474 0.0000 23.4478
#
#
#
# Elastic Compliance Matrix: (Units=1/GPa)
#
#
# Indices 1 2 3 4 5 6 
#
# 1 0.060549 0.005105 0.013831 0.000000 0.056359 0.000000
# 2 0.005105 0.009604 -0.000180 0.000000 0.004678 0.000000
# 3 0.013831 -0.000180 0.016801 0.000000 0.030612 0.000000
# 4 0.000000 0.000000 0.000000 0.027976 0.000000 0.009721
# 5 0.056359 0.004678 0.030612 0.000000 0.100951 0.000000
# 6 0.000000 0.000000 0.000000 0.009721 0.000000 0.046026
#
#
# Mechanical properties :
#
#
# Convention : Reuss Voigt Hill
#
# Bulk Modulus (GPa) = 8.03429 38.61908 23.32668
# Shear Modulus (GPa) = 18.80530 38.00363 28.40447
#
# Velocity S-wave (km/s) = 2.72542 3.87441 3.34955
# Velocity P-wave (km/s) = 3.61626 5.93877 4.91662
#
# Compressibility (1/GPa) = 0.12446652
#
# Stress axis : x y z
#
# Youngs Moduli (GPa) = 16.51545 104.12398 59.52141
#
# Poissons Ratio (x) = -0.53156 -0.82322
# Poissons Ratio (y) = -0.08431 0.01069
# Poissons Ratio (z) = -0.22842 0.01869
#
# Static dielectric constant tensor:
#      x y z
#    x 2.092500 0.000000 0.019390 
#    y 0.000000 1.956220 0.000000 
#    z 0.019390 0.000000 2.097050 
# 
# From -- ./inp_files/887.got.cif
#   From: 2010.05.17/outbox.cif.g08.bks.cpg/sg9_1_cif.got.tgz:887.got - 2010.06.03 20:04:27.
