data_PCOD9133032
_publ_section_title
;
Structure prediction by ZEFSAII (Michael W. Deem and Ramdas Pophale) SiO2 
 PCOD9133032
Probable space group: C M
;
_chemical_formula_sum "Si O2"
_cell_formula_units_Z 32
_cell_length_a 17.001615
_cell_length_b 8.858345
_cell_length_c 21.193839
_cell_angle_alpha 90.000000
_cell_angle_beta 149.526925
_cell_angle_gamma 90.000000
_cell_volume 1618.730741
_symmetry_space_group_name_H-M "C M"
_symmetry_group_IT_number 8
_symmetry_cell_setting 'monoclinic'
loop_
_space_group_symop_operation_xyz
x,y,z
x,-y,z
1/2+x,1/2+y,z
1/2+x,1/2-y,z
loop_
_atom_site_type_symbol
_atom_site_label
_atom_site_fract_x
_atom_site_fract_y
_atom_site_fract_z
Si Si1 0.041050 0.175307 0.905240
Si Si2 0.145502 0.181744 0.844122
Si Si3 0.440559 0.681353 0.975287
Si Si4 0.554313 0.166593 0.401817
Si Si5 0.415146 0.671241 0.489983
Si Si6 0.854888 0.672030 0.574281
Si Si7 0.685441 0.163282 0.633602
Si Si8 0.757312 0.679511 0.262312
O O1 0.144994 0.234360 0.918134
O O2 0.867864 0.178709 0.756849
O O3 0.089205 0.000000 0.948150
O O4 0.006114 0.236596 0.951989
O O5 0.981004 0.229668 0.699558
O O6 0.154592 0.000000 0.850839
O O7 0.284467 0.246996 0.896606
O O8 0.414827 0.500000 0.951079
O O9 0.581637 0.706878 0.121239
O O10 0.675587 0.283646 0.459100
O O11 0.612515 0.153971 0.514182
O O12 0.374116 0.207042 0.284031
O O13 0.569990 0.000000 0.382935
O O14 0.383399 0.500000 0.486968
O O15 0.380856 0.791469 0.519630
O O16 0.597743 0.697340 0.603759
O O17 0.317890 0.718092 0.361160
O O18 0.881343 0.500000 0.609996
O O19 0.654278 0.000000 0.644099
O O20 0.775064 0.500000 0.289716
#
# Coordination Sequence:
#
# PCOD9133032 Si02
#       8
#     4   4   4   4   4   4   4   4
#     4   9  18  35  60  86 118 159 199 236 293 363
#     4  11  22  39  61  91 126 159 200 254 302 357
#     4  10  21  40  64  89 119 164 209 246 294 361
#     4   9  17  33  56  81 112 153 190 234 290 350
#     4  11  22  35  56  85 115 150 196 248 303 358
#     4  12  23  36  56  86 120 154 193 244 307 365
#     4   9  16  32  56  81 114 152 186 229 292 362
#     4   9  20  40  61  81 116 159 201 241 291 356
#
# _framework density 19.768574000000001
#
# number of rings (size 3 to 8) (size 9 to 14) (size 15 to 20)
#    0.000    2.000    1.250    4.125    0.000    3.500 
#    2.250    1.250    0.000    0.000    0.000    0.000 
#    0.000    0.000    0.000    0.000    0.000    0.000 
#
# Total GULP energy -89082.649558 kJ/mol
# GULP energy per Si atom -5567.665597 kJ/mol
# Density = 1.972358 g / cm^3
# Si number density = 19.768574 Si / 1000 Ang^3
#
#
#
# Elastic Constant Matrix: (Units=GPa)
#
#
# Indices 1 2 3 4 5 6 
#
# 1 93.5360 20.0176 14.0091 0.0000 3.2979 0.0000
# 2 20.0176 41.0987 14.0524 0.0000 8.9615 0.0000
# 3 14.0091 14.0524 33.3575 -0.0001 6.7972 0.0000
# 4 0.0000 0.0000 -0.0001 19.3008 0.0000 4.8895
# 5 3.2979 8.9615 6.7972 0.0000 18.2236 0.0000
# 6 0.0000 0.0000 0.0000 4.8895 0.0000 25.7878
#
#
#
# Elastic Compliance Matrix: (Units=1/GPa)
#
#
# Indices 1 2 3 4 5 6 
#
# 1 0.012235 -0.005179 -0.003273 0.000000 0.001553 0.000000
# 2 -0.005179 0.032522 -0.009153 0.000000 -0.011641 0.000000
# 3 -0.003273 -0.009153 0.036982 0.000000 -0.008700 0.000000
# 4 0.000000 0.000000 0.000000 0.054426 0.000000 -0.010319
# 5 0.001553 -0.011641 -0.008700 0.000000 0.063563 0.000000
# 6 0.000000 0.000000 0.000000 -0.010319 0.000000 0.040735
#
#
# Mechanical properties :
#
#
# Convention : Reuss Voigt Hill
#
# Bulk Modulus (GPa) = 21.49232 29.35003 25.42117
# Shear Modulus (GPa) = 17.17142 20.65665 18.91404
#
# Velocity S-wave (km/s) = 2.95044 3.23603 3.09653
# Velocity P-wave (km/s) = 4.74366 5.37044 5.06675
#
# Compressibility (1/GPa) = 0.04652825
#
# Stress axis : x y z
#
# Youngs Moduli (GPa) = 81.73392 30.74830 27.04030
#
# Poissons Ratio (x) = 0.15923 0.08851
# Poissons Ratio (y) = 0.42327 0.24751
# Poissons Ratio (z) = 0.26753 0.28145
#
# Static dielectric constant tensor:
#      x y z
#    x 1.813800 0.000000 0.044610 
#    y 0.000000 1.700470 0.000000 
#    z 0.044610 0.000000 1.746240 
# 
# From -- ./inp_files/32136.got.cif
#   From: 2010.05.17/outbox.cif.g08.bks.cpg/sg8_17_cif.got.tgz:32136.got - 2010.06.03 19:46:02.
