data_PCOD9133304
_publ_section_title
;
Structure prediction by ZEFSAII (Michael W. Deem and Ramdas Pophale) SiO2 
 PCOD9133304
Probable space group: C M
;
_chemical_formula_sum "Si O2"
_cell_formula_units_Z 16
_cell_length_a 6.845047
_cell_length_b 15.813630
_cell_length_c 6.707243
_cell_angle_alpha 90.000000
_cell_angle_beta 69.343078
_cell_angle_gamma 90.000000
_cell_volume 679.349250
_symmetry_space_group_name_H-M "C M"
_symmetry_group_IT_number 8
_symmetry_cell_setting 'monoclinic'
loop_
_space_group_symop_operation_xyz
x,y,z
x,-y,z
1/2+x,1/2+y,z
1/2+x,1/2-y,z
loop_
_atom_site_type_symbol
_atom_site_label
_atom_site_fract_x
_atom_site_fract_y
_atom_site_fract_z
Si Si1 0.965880 0.091553 0.152390
Si Si2 0.157930 0.676710 0.951104
Si Si3 0.787085 0.602349 0.329380
Si Si4 0.844562 0.359190 0.769355
O O1 0.820563 0.139394 0.050240
O O2 0.054199 0.124633 0.331667
O O3 0.868835 0.000000 0.221918
O O4 0.183416 0.085705 0.953771
O O5 0.944612 0.665188 0.156382
O O6 0.257348 0.764688 0.845319
O O7 0.076864 0.632299 0.776713
O O8 0.818473 0.500000 0.284546
O O9 0.821992 0.619001 0.548197
#
# Coordination Sequence:
#
# PCOD9133304 Si02
#       4
#     4   4   4   4
#     4  10  22  43  67  94 135 177 218 270 331 396
#     4  11  23  43  65  99 134 171 219 276 329 388
#     4  10  24  44  69  97 133 176 222 270 330 397
#     4  11  23  42  65 100 134 170 219 276 330 387
#
# _framework density 23.551952
#
# number of rings (size 3 to 8) (size 9 to 14) (size 15 to 20)
#    0.000    1.500    2.500    1.500    0.000    9.000 
#    0.000    0.000    0.000    0.000    0.000    0.000 
#    0.000    0.000    0.000    0.000    0.000    0.000 
#
# Total GULP energy -44576.529536 kJ/mol
# GULP energy per Si atom -5572.066192 kJ/mol
# Density = 2.349835 g / cm^3
# Si number density = 23.551952 Si / 1000 Ang^3
#
#
#
# Elastic Constant Matrix: (Units=GPa)
#
#
# Indices 1 2 3 4 5 6 
#
# 1 165.9512 49.4050 41.6552 0.0000 60.0503 0.0000
# 2 49.4050 77.7051 14.5053 0.0000 24.4565 0.0000
# 3 41.6552 14.5053 113.3007 0.0000 56.4564 0.0000
# 4 0.0000 0.0000 0.0000 41.4951 0.0000 22.5150
# 5 60.0503 24.4565 56.4564 0.0000 60.5555 0.0000
# 6 0.0000 0.0000 0.0000 22.5150 0.0000 23.9713
#
#
#
# Elastic Compliance Matrix: (Units=1/GPa)
#
#
# Indices 1 2 3 4 5 6 
#
# 1 0.010532 -0.003662 0.001987 0.000000 -0.010817 0.000000
# 2 -0.003662 0.016268 0.001359 0.000000 -0.004205 0.000000
# 3 0.001987 0.001359 0.017139 0.000000 -0.018498 0.000000
# 4 0.000000 0.000000 0.000000 0.049145 0.000000 -0.046159
# 5 -0.010817 -0.004205 -0.018498 0.000000 0.046185 0.000000
# 6 0.000000 0.000000 0.000000 -0.046159 0.000000 0.085072
#
#
# Mechanical properties :
#
#
# Convention : Reuss Voigt Hill
#
# Bulk Modulus (GPa) = 23.09151 63.12089 43.10620
# Shear Modulus (GPa) = 20.88487 41.96381 31.42434
#
# Velocity S-wave (km/s) = 2.98108 4.22566 3.65671
# Velocity P-wave (km/s) = 4.65563 7.11809 6.01424
#
# Compressibility (1/GPa) = 0.04330595
#
# Stress axis : x y z
#
# Youngs Moduli (GPa) = 94.95134 61.47187 58.34662
#
# Poissons Ratio (x) = 0.22514 -0.11593
# Poissons Ratio (y) = 0.34775 -0.07931
# Poissons Ratio (z) = -0.18866 -0.08356
#
# Static dielectric constant tensor:
#      x y z
#    x 1.983730 0.000000 0.063550 
#    y 0.000000 1.934480 0.000000 
#    z 0.063550 0.000000 1.920790 
# 
# From -- ./inp_files/288.got.cif
#   From: 2010.05.17/outbox.cif.g08.bks.cpg/sg8_1_cif.got.tgz:288.got - 2010.06.03 19:46:02.
