data_PCOD9133758
_publ_section_title
;
Structure prediction by ZEFSAII (Michael W. Deem and Ramdas Pophale) SiO2 
 PCOD9133758
Probable space group: C C
;
_chemical_formula_sum "Si O2"
_cell_formula_units_Z 24
_cell_length_a 7.109423
_cell_length_b 13.075691
_cell_length_c 13.394830
_cell_angle_alpha 90.000000
_cell_angle_beta 45.004409
_cell_angle_gamma 90.000000
_cell_volume 880.551232
_symmetry_space_group_name_H-M "C C"
_symmetry_group_IT_number 9
_symmetry_cell_setting 'monoclinic'
loop_
_space_group_symop_operation_xyz
x,y,z
x,-y,1/2+z
1/2+x,1/2+y,z
1/2+x,1/2-y,1/2+z
loop_
_atom_site_type_symbol
_atom_site_label
_atom_site_fract_x
_atom_site_fract_y
_atom_site_fract_z
Si Si1 0.248440 0.667378 0.375000
Si Si2 0.659728 0.723600 0.628969
Si Si3 0.275014 0.563607 0.860559
Si Si4 0.380338 0.552393 0.515109
Si Si5 0.811327 0.673018 0.111692
Si Si6 0.944723 0.433965 0.763846
O O1 0.222670 0.551234 0.344149
O O2 0.320717 0.648521 0.465595
O O3 0.507771 0.708007 0.221131
O O4 0.966457 0.720623 0.486196
O O5 0.529772 0.623268 0.724960
O O6 0.487347 0.738809 0.594008
O O7 0.585502 0.823469 0.722999
O O8 0.338309 0.544250 0.954405
O O9 0.999182 0.626393 0.956359
O O10 0.149827 0.527359 0.679525
O O11 0.687877 0.549701 0.428736
O O12 0.812251 0.585392 0.201006
#
# Coordination Sequence:
#
# PCOD9133758 Si02
#       6
#     4   4   4   4   4   4
#     4   9  15  27  47  70  90 112 145 188 225 261
#     4  10  16  28  47  70  87 122 147 180 224 265
#     4   9  15  27  47  70  90 112 145 188 225 261
#     4   8  14  28  44  70  90 108 136 202 224 248
#     4   8  17  28  39  72  95 106 142 197 213 254
#     4   8  15  26  44  68  90 108 141 185 229 253
#
# _framework density 27.255652999999999
#
# number of rings (size 3 to 8) (size 9 to 14) (size 15 to 20)
#    2.000    1.333    0.000    2.000    0.000    0.000 
#    0.000    3.333    0.000    0.000   13.000    0.000 
#    0.000    0.000    0.000    0.000    0.000    0.000 
#
# Total GULP energy -67054.197146 kJ/mol
# GULP energy per Si atom -5587.849762 kJ/mol
# Density = 2.719362 g / cm^3
# Si number density = 27.255653 Si / 1000 Ang^3
#
#
#
# Elastic Constant Matrix: (Units=GPa)
#
#
# Indices 1 2 3 4 5 6 
#
# 1 67.5660 6.3789 34.3495 -0.0012 -9.6039 0.0004
# 2 6.3789 97.6124 63.4576 -0.0011 -12.0258 0.0004
# 3 34.3495 63.4576 274.9618 -0.0058 -51.7826 0.0021
# 4 -0.0012 -0.0011 -0.0058 52.7576 0.0017 1.1096
# 5 -9.6039 -12.0258 -51.7826 0.0017 51.2646 -0.0004
# 6 0.0004 0.0004 0.0021 1.1096 -0.0004 32.2771
#
#
#
# Elastic Compliance Matrix: (Units=1/GPa)
#
#
# Indices 1 2 3 4 5 6 
#
# 1 0.015871 0.000297 -0.001825 0.000000 0.001199 0.000000
# 2 0.000297 0.012059 -0.002812 0.000000 0.000044 0.000000
# 3 -0.001825 -0.002812 0.005341 0.000000 0.004394 0.000000
# 4 0.000000 0.000000 0.000000 0.018968 0.000000 -0.000652
# 5 0.001199 0.000044 0.004394 0.000000 0.024180 0.000000
# 6 0.000000 0.000000 0.000000 -0.000652 0.000000 0.031004
#
#
# Mechanical properties :
#
#
# Convention : Reuss Voigt Hill
#
# Bulk Modulus (GPa) = 40.66568 72.05691 56.36130
# Shear Modulus (GPa) = 40.22545 49.65682 44.94114
#
# Velocity S-wave (km/s) = 3.84586 4.27299 4.06504
# Velocity P-wave (km/s) = 5.88840 7.13018 6.53883
#
# Compressibility (1/GPa) = 0.02459076
#
# Stress axis : x y z
#
# Youngs Moduli (GPa) = 63.00900 82.92875 187.22117
#
# Poissons Ratio (x) = -0.02466 0.34176
# Poissons Ratio (y) = -0.01873 0.52642
# Poissons Ratio (z) = 0.11502 0.23318
#
# Static dielectric constant tensor:
#      x y z
#    x 2.396290 0.000000 0.034170 
#    y 0.000000 2.145460 0.000000 
#    z 0.034170 0.000000 2.062610 
# 
# From -- ./inp_files/6976.got.cif
#   From: 2010.05.17/outbox.cif.g08.bks.cpg/sg9_4_cif.got.tgz:6976.got - 2010.06.03 20:04:27.
