data_PCOD9133914
_publ_section_title
;
Structure prediction by ZEFSAII (Michael W. Deem and Ramdas Pophale) SiO2 
 PCOD9133914
Probable space group: C C
;
_chemical_formula_sum "Si O2"
_cell_formula_units_Z 32
_cell_length_a 14.018821
_cell_length_b 14.749891
_cell_length_c 5.653070
_cell_angle_alpha 90.000000
_cell_angle_beta 86.102570
_cell_angle_gamma 90.000000
_cell_volume 1166.216337
_symmetry_space_group_name_H-M "C C"
_symmetry_group_IT_number 9
_symmetry_cell_setting 'monoclinic'
loop_
_space_group_symop_operation_xyz
x,y,z
x,-y,1/2+z
1/2+x,1/2+y,z
1/2+x,1/2-y,1/2+z
loop_
_atom_site_type_symbol
_atom_site_label
_atom_site_fract_x
_atom_site_fract_y
_atom_site_fract_z
Si Si1 0.907910 0.411866 0.457100
Si Si2 0.329585 0.399279 0.533694
Si Si3 0.120883 0.904524 0.021371
Si Si4 0.602657 0.872197 0.564196
Si Si5 0.337956 0.884527 0.965188
Si Si6 0.106525 0.113150 0.023596
Si Si7 0.139357 0.694458 0.559621
Si Si8 0.840626 0.888283 0.031941
O O1 0.873928 0.357232 0.696458
O O2 0.851179 0.506075 0.448276
O O3 0.017383 0.439627 0.506820
O O4 0.891132 0.363808 0.205596
O O5 0.213290 0.402690 0.553860
O O6 0.363834 0.352514 0.767825
O O7 0.363151 0.504060 0.529162
O O8 0.363476 0.352422 0.288198
O O9 0.063814 0.882644 0.268557
O O10 0.145560 0.011523 0.016756
O O11 0.225762 0.859287 0.006342
O O12 0.062699 0.885649 0.793147
O O13 0.595970 0.808748 0.331053
O O14 0.583097 0.831181 0.828425
O O15 0.172259 0.201971 0.016130
O O16 0.225662 0.624216 0.552139
#
# Coordination Sequence:
#
# PCOD9133914 Si02
#       8
#     4   4   4   4   4   4   4   4
#     4  10  18  27  41  60  87 118 143 181 224 250
#     4   8  14  23  34  46  68 106 144 171 187 211
#     4  10  19  33  50  68  84 107 155 206 233 260
#     4  10  19  28  38  57  87 120 156 179 196 252
#     4  10  19  30  45  67  87 109 157 203 219 254
#     4  10  18  30  48  63  82 111 144 190 243 270
#     4  10  19  29  39  58  84 113 151 184 212 259
#     4   8  14  22  33  47  67  96 136 174 198 222
#
# _framework density 27.439162
#
# number of rings (size 3 to 8) (size 9 to 14) (size 15 to 20)
#    0.000    2.500    0.000    5.250    0.000    8.000 
#    0.000    0.000    0.000    0.000    0.000    0.000 
#    0.000    0.000    0.000    0.000    0.000 1160.000 
#
# Total GULP energy -89109.672324 kJ/mol
# GULP energy per Si atom -5569.354520 kJ/mol
# Density = 2.737671 g / cm^3
# Si number density = 27.439162 Si / 1000 Ang^3
#
#
#
# Elastic Constant Matrix: (Units=GPa)
#
#
# Indices 1 2 3 4 5 6 
#
# 1 133.5922 -8.9362 26.9984 0.0000 34.7618 0.0000
# 2 -8.9362 89.9220 28.1030 0.0000 33.2441 0.0000
# 3 26.9984 28.1030 397.7715 0.0000 52.3843 0.0000
# 4 0.0000 0.0000 0.0000 4.0658 0.0000 1.1283
# 5 34.7618 33.2441 52.3843 0.0000 80.0380 0.0000
# 6 0.0000 0.0000 0.0000 1.1283 0.0000 0.7623
#
#
#
# Elastic Compliance Matrix: (Units=1/GPa)
#
#
# Indices 1 2 3 4 5 6 
#
# 1 0.008992 0.002774 -0.000153 0.000000 -0.004957 0.000000
# 2 0.002774 0.014013 -0.000277 0.000000 -0.006844 0.000000
# 3 -0.000153 -0.000277 0.002758 0.000000 -0.001623 0.000000
# 4 0.000000 0.000000 0.000000 0.417428 0.000000 -0.617888
# 5 -0.004957 -0.006844 -0.001623 0.000000 0.018552 0.000000
# 6 0.000000 0.000000 0.000000 -0.617888 0.000000 2.226464
#
#
# Mechanical properties :
#
#
# Convention : Reuss Voigt Hill
#
# Bulk Modulus (GPa) = 32.84029 79.29068 56.06549
# Shear Modulus (GPa) = 1.85620 55.31459 28.58540
#
# Velocity S-wave (km/s) = 0.82338 4.49475 3.23115
# Velocity P-wave (km/s) = 3.59142 7.47641 5.86494
#
# Compressibility (1/GPa) = 0.03045040
#
# Stress axis : x y z
#
# Youngs Moduli (GPa) = 111.21054 71.36098 362.61256
#
# Poissons Ratio (x) = -0.19797 0.05566
# Poissons Ratio (y) = -0.30852 0.10045
# Poissons Ratio (z) = 0.01707 0.01977
#
# Static dielectric constant tensor:
#      x y z
#    x 2.105800 0.000000 -0.040260 
#    y 0.000000 2.059930 0.000000 
#    z -0.040260 0.000000 2.235880 
# 
# From -- ./inp_files/2541.got.cif
#   From: 2010.05.17/outbox.cif.g08.bks.cpg/sg9_2_cif.got.tgz:2541.got - 2010.06.03 20:04:27.
