data_PCOD9133643
_publ_section_title
;
Structure prediction by ZEFSAII (Michael W. Deem and Ramdas Pophale) SiO2 
 PCOD9133643
Probable space group: C M
;
_chemical_formula_sum "Si O2"
_cell_formula_units_Z 24
_cell_length_a 19.265875
_cell_length_b 7.478304
_cell_length_c 16.516477
_cell_angle_alpha 90.000000
_cell_angle_beta 150.355468
_cell_angle_gamma 90.000000
_cell_volume 1177.006231
_symmetry_space_group_name_H-M "C M"
_symmetry_group_IT_number 8
_symmetry_cell_setting 'monoclinic'
loop_
_space_group_symop_operation_xyz
x,y,z
x,-y,z
1/2+x,1/2+y,z
1/2+x,1/2-y,z
loop_
_atom_site_type_symbol
_atom_site_label
_atom_site_fract_x
_atom_site_fract_y
_atom_site_fract_z
Si Si1 0.435000 0.214325 0.860530
Si Si2 0.661903 0.787804 0.663925
Si Si3 0.768377 0.279850 0.531353
Si Si4 0.753443 0.782208 0.194252
Si Si5 0.423554 0.791082 0.529674
Si Si6 0.997576 0.797122 0.335562
O O1 0.327458 0.259131 0.823801
O O2 0.361426 0.275945 0.702874
O O3 0.442100 0.000000 0.863536
O O4 0.593411 0.279775 0.029063
O O5 0.575729 0.721849 0.654638
O O6 0.590185 0.699935 0.512370
O O7 0.635811 0.000000 0.630050
O O8 0.762574 0.500000 0.525689
O O9 0.843049 0.216268 0.525507
O O10 0.607887 0.217957 0.383463
O O11 0.826548 0.726509 0.352000
O O12 0.851026 0.717949 0.218430
O O13 0.756339 0.000000 0.195071
O O14 0.444078 0.000000 0.569489
O O15 0.967548 0.000000 0.278893
#
# Coordination Sequence:
#
# PCOD9133643 Si02
#       6
#     4   4   4   4   4   4
#     4   9  17  30  47  64  85 114 147 180 209 246
#     4   9  16  26  42  64  88 114 143 173 210 256
#     4   8  14  27  46  65  85 111 143 177 212 250
#     4   9  17  29  46  67  87 111 144 178 213 252
#     4   9  17  29  45  66  90 113 139 175 217 257
#     4   8  14  27  46  64  83 111 146 177 207 251
#
# _framework density 20.390716999999999
#
# number of rings (size 3 to 8) (size 9 to 14) (size 15 to 20)
#    0.000    3.333    0.000    1.500    0.000    1.333 
#    0.000    5.000    0.000    6.000    0.000    0.000 
#    0.000    0.000    0.000    0.000    0.000    0.000 
#
# Total GULP energy -66806.930060 kJ/mol
# GULP energy per Si atom -5567.244172 kJ/mol
# Density = 2.034431 g / cm^3
# Si number density = 20.390717 Si / 1000 Ang^3
#
#
#
# Elastic Constant Matrix: (Units=GPa)
#
#
# Indices 1 2 3 4 5 6 
#
# 1 190.8232 -0.6827 68.8287 0.0000 61.2008 0.0000
# 2 -0.6827 61.0404 -6.4175 0.0000 2.1615 0.0000
# 3 68.8287 -6.4175 105.7012 0.0000 56.0099 0.0000
# 4 0.0000 0.0000 0.0000 7.8320 0.0000 2.9785
# 5 61.2008 2.1615 56.0099 0.0000 42.6485 0.0000
# 6 0.0000 0.0000 0.0000 2.9785 0.0000 12.4791
#
#
#
# Elastic Compliance Matrix: (Units=1/GPa)
#
#
# Indices 1 2 3 4 5 6 
#
# 1 0.010206 0.001245 0.004024 0.000000 -0.019993 0.000000
# 2 0.001245 0.017315 0.005433 0.000000 -0.009800 0.000000
# 3 0.004024 0.005433 0.034120 0.000000 -0.050860 0.000000
# 4 0.000000 0.000000 0.000000 0.140428 0.000000 -0.033517
# 5 -0.019993 -0.009800 -0.050860 0.000000 0.119429 0.000000
# 6 0.000000 0.000000 0.000000 -0.033517 0.000000 0.088133
#
#
# Mechanical properties :
#
#
# Convention : Reuss Voigt Hill
#
# Bulk Modulus (GPa) = 12.04151 53.44688 32.74420
# Shear Modulus (GPa) = 12.02192 32.31433 22.16813
#
# Velocity S-wave (km/s) = 2.43076 3.98522 3.30080
# Velocity P-wave (km/s) = 3.71434 6.88798 5.53356
#
# Compressibility (1/GPa) = 0.08304605
#
# Stress axis : x y z
#
# Youngs Moduli (GPa) = 97.98513 57.75419 29.30822
#
# Poissons Ratio (x) = -0.07192 -0.11795
# Poissons Ratio (y) = -0.12201 -0.15924
# Poissons Ratio (z) = -0.39432 -0.31379
#
# Static dielectric constant tensor:
#      x y z
#    x 1.762810 0.000000 0.069650 
#    y 0.000000 1.794740 0.000000 
#    z 0.069650 0.000000 1.712470 
# 
# From -- ./inp_files/12420.got.cif
#   From: 2010.05.17/outbox.cif.g08.bks.cpg/sg8_7_cif.got.tgz:12420.got - 2010.06.03 19:46:02.
