data_PCOD9133314
_publ_section_title
;
Structure prediction by ZEFSAII (Michael W. Deem and Ramdas Pophale) SiO2 
 PCOD9133314
Probable space group: C M
;
_chemical_formula_sum "Si O2"
_cell_formula_units_Z 22
_cell_length_a 14.974944
_cell_length_b 11.736036
_cell_length_c 12.736311
_cell_angle_alpha 90.000000
_cell_angle_beta 23.345078
_cell_angle_gamma 90.000000
_cell_volume 886.991121
_symmetry_space_group_name_H-M "C M"
_symmetry_group_IT_number 8
_symmetry_cell_setting 'monoclinic'
loop_
_space_group_symop_operation_xyz
x,y,z
x,-y,z
1/2+x,1/2+y,z
1/2+x,1/2-y,z
loop_
_atom_site_type_symbol
_atom_site_label
_atom_site_fract_x
_atom_site_fract_y
_atom_site_fract_z
Si Si1 0.676360 0.000000 0.368670
Si Si2 0.366724 0.000000 0.285235
Si Si3 0.954365 0.000000 0.284130
Si Si4 0.905189 0.688086 0.556605
Si Si5 0.771627 0.304538 0.016250
Si Si6 0.606661 0.500000 0.766192
Si Si7 0.782387 0.871122 0.844072
Si Si8 0.016745 0.500000 0.879759
O O1 0.810525 0.000000 0.332528
O O2 0.518073 0.891177 0.523914
O O3 0.852153 0.000000 0.081603
O O4 0.155170 0.000000 0.590155
O O5 0.521198 0.107158 0.153930
O O6 0.404059 0.000000 0.118187
O O7 0.112395 0.888956 0.120218
O O8 0.784576 0.000000 0.567331
O O9 0.731126 0.609439 0.682168
O O10 0.108877 0.735120 0.268270
O O11 0.790890 0.797809 0.730444
O O12 0.888476 0.208556 0.818461
O O13 0.927696 0.388027 0.915007
O O14 0.870369 0.000000 0.732293
#
# Coordination Sequence:
#
# PCOD9133314 Si02
#       8
#     2   2   2   4   4   2   4   2
#     4  11  26  43  75 111 135 193 248 290 364 430
#     4  10  22  46  72 106 142 193 242 287 367 420
#     4  11  24  45  71 103 141 192 236 297 362 425
#     4  11  23  45  73 104 140 189 239 299 357 423
#     4  11  24  44  70 101 143 183 232 292 365 417
#     4  11  23  49  75 100 156 188 239 299 359 439
#     4  10  22  43  77  99 138 194 235 291 366 424
#     4  11  25  43  71 112 140 184 251 301 350 426
#
# _framework density 24.802954
#
# number of rings (size 3 to 8) (size 9 to 14) (size 15 to 20)
#    0.545    0.727    1.818    3.273    3.818    7.273 
#    3.273    1.818    0.000    0.000    0.000    0.000 
#    0.000    0.000    0.000    0.000    0.000    0.000 
#
# Total GULP energy -61549.035560 kJ/mol
# GULP energy per Si atom -5595.366869 kJ/mol
# Density = 2.474650 g / cm^3
# Si number density = 24.802954 Si / 1000 Ang^3
#
#
#
# Elastic Constant Matrix: (Units=GPa)
#
#
# Indices 1 2 3 4 5 6 
#
# 1 110.3318 56.6927 21.1890 -0.0041 11.0912 0.0020
# 2 56.6927 201.8231 46.4159 -0.0056 14.0021 0.0037
# 3 21.1890 46.4159 121.4395 -0.0079 20.9796 0.0056
# 4 -0.0041 -0.0056 -0.0079 46.1655 0.0063 6.4252
# 5 11.0912 14.0021 20.9796 0.0063 36.5272 -0.0026
# 6 0.0020 0.0037 0.0056 6.4252 -0.0026 13.8636
#
#
#
# Elastic Compliance Matrix: (Units=1/GPa)
#
#
# Indices 1 2 3 4 5 6 
#
# 1 0.010780 -0.002783 -0.000484 0.000001 -0.001928 -0.000001
# 2 -0.002783 0.006183 -0.001792 0.000000 -0.000496 -0.000001
# 3 -0.000484 -0.001792 0.009836 0.000003 -0.004815 -0.000006
# 4 0.000001 0.000000 0.000003 0.023155 -0.000007 -0.010731
# 5 -0.001928 -0.000496 -0.004815 -0.000007 0.030918 0.000011
# 6 -0.000001 -0.000001 -0.000006 -0.010731 0.000011 0.077105
#
#
# Mechanical properties :
#
#
# Convention : Reuss Voigt Hill
#
# Bulk Modulus (GPa) = 59.94845 75.79884 67.87365
# Shear Modulus (GPa) = 28.79250 39.93103 34.36176
#
# Velocity S-wave (km/s) = 3.41082 4.01675 3.72612
# Velocity P-wave (km/s) = 6.30349 7.22074 6.77765
#
# Compressibility (1/GPa) = 0.01668100
#
# Stress axis : x y z
#
# Youngs Moduli (GPa) = 92.76016 161.72942 101.66903
#
# Poissons Ratio (x) = 0.45012 0.04922
# Poissons Ratio (y) = 0.25817 0.18219
# Poissons Ratio (z) = 0.04490 0.28982
#
# Static dielectric constant tensor:
#      x y z
#    x 2.003000 0.000000 0.014790 
#    y 0.000000 1.930780 0.000000 
#    z 0.014790 0.000000 1.950600 
# 
# From -- ./inp_files/21967.got.cif
#   From: 2010.05.17/outbox.cif.g08.bks.cpg/sg8_11_cif.got.tgz:21967.got - 2010.06.03 19:46:02.
