data_PCOD9133588
_publ_section_title
;
Structure prediction by ZEFSAII (Michael W. Deem and Ramdas Pophale) SiO2 
 PCOD9133588
Probable space group: C M
;
_chemical_formula_sum "Si O2"
_cell_formula_units_Z 26
_cell_length_a 10.894337
_cell_length_b 14.390756
_cell_length_c 13.600513
_cell_angle_alpha 90.000000
_cell_angle_beta 146.252134
_cell_angle_gamma 90.000000
_cell_volume 1184.552911
_symmetry_space_group_name_H-M "C M"
_symmetry_group_IT_number 8
_symmetry_cell_setting 'monoclinic'
loop_
_space_group_symop_operation_xyz
x,y,z
x,-y,z
1/2+x,1/2+y,z
1/2+x,1/2-y,z
loop_
_atom_site_type_symbol
_atom_site_label
_atom_site_fract_x
_atom_site_fract_y
_atom_site_fract_z
Si Si1 0.598551 0.500000 0.255630
Si Si2 0.072498 0.600171 0.282884
Si Si3 0.956116 0.197719 0.644832
Si Si4 0.079792 0.500000 0.958115
Si Si5 0.941806 0.674818 0.000168
Si Si6 0.585602 0.705886 0.512794
Si Si7 0.191644 0.000000 0.542878
Si Si8 0.215769 0.838656 0.181901
O O1 0.712893 0.500000 0.438966
O O2 0.661006 0.407708 0.235136
O O3 0.335889 0.500000 0.099842
O O4 0.108278 0.500000 0.261482
O O5 0.270621 0.623059 0.489359
O O6 0.838393 0.602260 0.181093
O O7 0.055547 0.671267 0.182747
O O8 0.825004 0.267960 0.627754
O O9 0.180914 0.161287 0.841315
O O10 0.042980 0.234602 0.596937
O O11 0.025244 0.592839 0.984897
O O12 0.918452 0.500000 0.756107
O O13 0.007874 0.777790 0.008188
O O14 0.566497 0.594861 0.489492
O O15 0.407285 0.762547 0.331707
#
# Coordination Sequence:
#
# PCOD9133588 Si02
#       8
#     2   4   4   2   4   4   2   4
#     4  12  28  49  73 104 150 188 243 304 367 439
#     4  11  25  46  71  99 139 185 239 299 355 429
#     4  11  26  42  72 100 149 185 243 292 363 427
#     4  12  28  45  72 114 141 190 242 300 362 435
#     4  12  26  44  73 105 143 186 243 294 364 430
#     4  11  24  47  69 107 142 195 239 301 359 431
#     4  12  26  44  75 104 151 186 245 288 367 430
#     4  11  26  48  72 104 142 192 239 300 368 428
#
# _framework density 21.949209
#
# number of rings (size 3 to 8) (size 9 to 14) (size 15 to 20)
#    0.000    0.615    4.615    1.846   10.769    0.000 
#    0.000    0.000    0.000    0.000    0.000    0.000 
#    0.000    0.000    0.000    0.000    0.000    0.000 
#
# Total GULP energy -72613.571972 kJ/mol
# GULP energy per Si atom -5585.659382 kJ/mol
# Density = 2.189925 g / cm^3
# Si number density = 21.949209 Si / 1000 Ang^3
#
#
#
# Elastic Constant Matrix: (Units=GPa)
#
#
# Indices 1 2 3 4 5 6 
#
# 1 137.8915 45.7667 25.6487 0.0044 22.1608 0.0011
# 2 45.7667 104.0103 32.4941 0.0062 13.5171 0.0028
# 3 25.6487 32.4941 96.3313 0.0131 10.2649 0.0064
# 4 0.0044 0.0062 0.0131 15.8706 0.0038 4.1035
# 5 22.1608 13.5171 10.2649 0.0038 34.1470 0.0011
# 6 0.0011 0.0028 0.0064 4.1035 0.0011 38.8175
#
#
#
# Elastic Compliance Matrix: (Units=1/GPa)
#
#
# Indices 1 2 3 4 5 6 
#
# 1 0.009189 -0.003186 -0.000900 0.000000 -0.004432 0.000000
# 2 -0.003186 0.012217 -0.003076 -0.000001 -0.001843 0.000000
# 3 -0.000900 -0.003076 0.011845 -0.000008 -0.001759 -0.000001
# 4 0.000000 -0.000001 -0.000008 0.064780 -0.000005 -0.006848
# 5 -0.004432 -0.001843 -0.001759 -0.000005 0.033420 0.000000
# 6 0.000000 0.000000 -0.000001 -0.006848 0.000000 0.026486
#
#
# Mechanical properties :
#
#
# Convention : Reuss Voigt Hill
#
# Bulk Modulus (GPa) = 52.83344 60.67246 56.75295
# Shear Modulus (GPa) = 28.00002 33.38859 30.69430
#
# Velocity S-wave (km/s) = 3.57553 3.90446 3.74361
# Velocity P-wave (km/s) = 6.41630 6.93027 6.67823
#
# Compressibility (1/GPa) = 0.01892741
#
# Stress axis : x y z
#
# Youngs Moduli (GPa) = 108.82257 81.85206 84.42038
#
# Poissons Ratio (x) = 0.26082 0.07594
# Poissons Ratio (y) = 0.34676 0.25969
# Poissons Ratio (z) = 0.09790 0.25179
#
# Static dielectric constant tensor:
#      x y z
#    x 1.832990 0.000000 0.007950 
#    y 0.000000 1.834510 0.000000 
#    z 0.007950 0.000000 1.833480 
# 
# From -- ./inp_files/26163.got.cif
#   From: 2010.05.17/outbox.cif.g08.bks.cpg/sg8_14_cif.got.tgz:26163.got - 2010.06.03 19:46:02.
