data_PCOD9133993
_publ_section_title
;
Structure prediction by ZEFSAII (Michael W. Deem and Ramdas Pophale) SiO2 
 PCOD9133993
Probable space group: C C
;
_chemical_formula_sum "Si O2"
_cell_formula_units_Z 32
_cell_length_a 5.013581
_cell_length_b 13.120425
_cell_length_c 22.068132
_cell_angle_alpha 90.000000
_cell_angle_beta 119.347629
_cell_angle_gamma 90.000000
_cell_volume 1265.347184
_symmetry_space_group_name_H-M "C C"
_symmetry_group_IT_number 9
_symmetry_cell_setting 'monoclinic'
loop_
_space_group_symop_operation_xyz
x,y,z
x,-y,1/2+z
1/2+x,1/2+y,z
1/2+x,1/2-y,1/2+z
loop_
_atom_site_type_symbol
_atom_site_label
_atom_site_fract_x
_atom_site_fract_y
_atom_site_fract_z
Si Si1 0.656230 0.693451 0.826420
Si Si2 0.924687 0.716273 0.044970
Si Si3 0.832590 0.798347 0.406550
Si Si4 0.080816 0.924652 0.722293
Si Si5 0.025837 0.597087 0.369290
Si Si6 0.759961 0.993390 0.579512
Si Si7 0.025087 0.716176 0.194107
Si Si8 0.099822 0.074838 0.507219
O O1 0.424952 0.654438 0.851417
O O2 0.652049 0.816308 0.837919
O O3 0.562547 0.692615 0.746390
O O4 0.996428 0.664843 0.883100
O O5 0.594602 0.681474 0.984165
O O6 0.153550 0.623013 0.063662
O O7 0.920781 0.747365 0.115090
O O8 0.854338 0.674338 0.397423
O O9 0.539806 0.693077 0.515175
O O10 0.878634 0.002918 0.661312
O O11 0.853992 0.838259 0.723135
O O12 0.283396 0.963777 0.801336
O O13 0.292927 0.867009 0.696340
O O14 0.321491 0.545010 0.431385
O O15 0.024127 0.019298 0.561941
O O16 0.449748 0.054745 0.529671
#
# Coordination Sequence:
#
# PCOD9133993 Si02
#       8
#     4   4   4   4   4   4   4   4
#     4   9  16  31  54  91 114 154 217 248 301 386
#     4  10  24  41  68  94 129 175 208 267 334 382
#     4   9  18  31  56  90 115 157 213 251 305 384
#     4  10  19  36  63  88 127 169 212 264 321 382
#     4   8  19  33  63  86 119 171 210 252 322 375
#     4  11  25  42  63  99 130 166 216 273 319 394
#     4  10  18  33  60  93 118 163 217 253 319 387
#     4  11  25  41  67  95 132 167 219 266 325 388
#
# _framework density 25.289501000000001
#
# number of rings (size 3 to 8) (size 9 to 14) (size 15 to 20)
#    0.750    1.500    1.250    1.500    3.500    6.000 
#    0.000    0.000    8.250    0.000    0.000    0.000 
#    0.000    0.000    0.000    0.000    0.000    0.000 
#
# Total GULP energy -89473.308948 kJ/mol
# GULP energy per Si atom -5592.081809 kJ/mol
# Density = 2.523194 g / cm^3
# Si number density = 25.289501 Si / 1000 Ang^3
#
#
#
# Elastic Constant Matrix: (Units=GPa)
#
#
# Indices 1 2 3 4 5 6 
#
# 1 75.7194 0.5418 -0.2267 0.0000 1.5010 0.0000
# 2 0.5418 64.3428 28.0905 0.0000 5.1585 0.0000
# 3 -0.2267 28.0905 154.8707 0.0000 17.4215 0.0000
# 4 0.0000 0.0000 0.0000 42.9115 0.0000 5.4894
# 5 1.5010 5.1585 17.4215 0.0000 37.8668 0.0000
# 6 0.0000 0.0000 0.0000 5.4894 0.0000 22.6735
#
#
#
# Elastic Compliance Matrix: (Units=1/GPa)
#
#
# Indices 1 2 3 4 5 6 
#
# 1 0.013219 -0.000111 0.000102 0.000000 -0.000556 0.000000
# 2 -0.000111 0.016911 -0.002962 0.000000 -0.000937 0.000000
# 3 0.000102 -0.002962 0.007329 0.000000 -0.002972 0.000000
# 4 0.000000 0.000000 0.000000 0.024049 0.000000 -0.005822
# 5 -0.000556 -0.000937 -0.002972 0.000000 0.027925 0.000000
# 6 0.000000 0.000000 0.000000 -0.005822 0.000000 0.045514
#
#
# Mechanical properties :
#
#
# Convention : Reuss Voigt Hill
#
# Bulk Modulus (GPa) = 31.73016 39.08268 35.40642
# Shear Modulus (GPa) = 33.02629 38.45883 35.74256
#
# Velocity S-wave (km/s) = 3.61768 3.90390 3.76351
# Velocity P-wave (km/s) = 5.47943 5.98400 5.73727
#
# Compressibility (1/GPa) = 0.03151576
#
# Stress axis : x y z
#
# Youngs Moduli (GPa) = 75.64996 59.13318 136.44840
#
# Poissons Ratio (x) = 0.00658 -0.01393
# Poissons Ratio (y) = 0.00842 0.40418
# Poissons Ratio (z) = -0.00772 0.17516
#
# Static dielectric constant tensor:
#      x y z
#    x 1.936040 0.000000 -0.002850 
#    y 0.000000 2.072580 0.000000 
#    z -0.002850 0.000000 2.036890 
# 
# From -- ./inp_files/32227.got.cif
#   From: 2010.05.17/outbox.cif.g08.bks.cpg/sg9_17_cif.got.tgz:32227.got - 2010.06.03 20:04:27.
