data_PCOD9133903
_publ_section_title
;
Structure prediction by ZEFSAII (Michael W. Deem and Ramdas Pophale) SiO2 
 PCOD9133903
Probable space group: C C
;
_chemical_formula_sum "Si O2"
_cell_formula_units_Z 24
_cell_length_a 9.507419
_cell_length_b 11.612036
_cell_length_c 8.344870
_cell_angle_alpha 90.000000
_cell_angle_beta 76.663450
_cell_angle_gamma 90.000000
_cell_volume 896.432661
_symmetry_space_group_name_H-M "C C"
_symmetry_group_IT_number 9
_symmetry_cell_setting 'monoclinic'
loop_
_space_group_symop_operation_xyz
x,y,z
x,-y,1/2+z
1/2+x,1/2+y,z
1/2+x,1/2-y,1/2+z
loop_
_atom_site_type_symbol
_atom_site_label
_atom_site_fract_x
_atom_site_fract_y
_atom_site_fract_z
Si Si1 0.416420 0.082493 0.827000
Si Si2 0.768537 0.100926 0.459481
Si Si3 0.944840 0.955824 0.214649
Si Si4 0.259353 0.105844 0.559430
Si Si5 0.076226 0.608903 0.064424
Si Si6 0.021291 0.249810 0.874178
O O1 0.305396 0.132284 0.730635
O O2 0.506521 0.987540 0.704560
O O3 0.509792 0.162417 0.918209
O O4 0.338421 0.012551 0.986737
O O5 0.834852 0.105535 0.619189
O O6 0.636663 0.191214 0.465289
O O7 0.887860 0.081969 0.286207
O O8 0.700970 0.972204 0.465221
O O9 0.097053 0.938001 0.084186
O O10 0.985022 0.883720 0.365931
O O11 0.359816 0.195281 0.434805
O O12 0.090501 0.712306 0.184208
#
# Coordination Sequence:
#
# PCOD9133903 Si02
#       6
#     4   4   4   4   4   4
#     4   9  16  34  68  91 126 187 241 283 359 441
#     4  12  23  48  74 104 152 199 241 316 378 436
#     4  12  28  43  73 112 151 193 250 322 372 437
#     4  10  21  40  62 105 140 184 250 298 363 444
#     4  10  17  37  69 100 131 193 243 285 367 436
#     4  11  25  44  72 106 146 202 253 294 379 468
#
# _framework density 26.772787999999998
#
# number of rings (size 3 to 8) (size 9 to 14) (size 15 to 20)
#    0.000    1.333    6.667    1.000    2.333    1.333 
#    0.000    5.000    0.000    0.000    0.000    0.000 
#    0.000    0.000    0.000    0.000    0.000    0.000 
#
# Total GULP energy -66810.140192 kJ/mol
# GULP energy per Si atom -5567.511683 kJ/mol
# Density = 2.671185 g / cm^3
# Si number density = 26.772788 Si / 1000 Ang^3
#
#
#
# Elastic Constant Matrix: (Units=GPa)
#
#
# Indices 1 2 3 4 5 6 
#
# 1 125.3334 17.2967 58.7701 0.0000 10.2597 0.0000
# 2 17.2967 57.4518 15.9397 0.0000 12.9088 0.0000
# 3 58.7701 15.9397 117.3019 0.0000 37.9962 0.0000
# 4 0.0000 0.0000 0.0000 21.5103 0.0000 19.7595
# 5 10.2597 12.9088 37.9962 0.0000 49.3963 0.0000
# 6 0.0000 0.0000 0.0000 19.7595 0.0000 19.3408
#
#
#
# Elastic Compliance Matrix: (Units=1/GPa)
#
#
# Indices 1 2 3 4 5 6 
#
# 1 0.010929 -0.002269 -0.006159 0.000000 0.003060 0.000000
# 2 -0.002269 0.019104 0.000007 0.000000 -0.004527 0.000000
# 3 -0.006159 0.000007 0.014911 0.000000 -0.010193 0.000000
# 4 0.000000 0.000000 0.000000 0.755880 0.000000 -0.772245
# 5 0.003060 -0.004527 -0.010193 0.000000 0.028632 0.000000
# 6 0.000000 0.000000 0.000000 -0.772245 0.000000 0.840669
#
#
# Mechanical properties :
#
#
# Convention : Reuss Voigt Hill
#
# Bulk Modulus (GPa) = 35.58313 53.78889 44.68601
# Shear Modulus (GPa) = 2.94753 31.92153 17.43453
#
# Velocity S-wave (km/s) = 1.05040 3.45673 2.55464
# Velocity P-wave (km/s) = 3.84587 6.00554 5.04268
#
# Compressibility (1/GPa) = 0.02810320
#
# Stress axis : x y z
#
# Youngs Moduli (GPa) = 91.49774 52.34454 67.06393
#
# Poissons Ratio (x) = 0.11879 0.41302
# Poissons Ratio (y) = 0.20764 -0.00049
# Poissons Ratio (z) = 0.56350 -0.00038
#
# Static dielectric constant tensor:
#      x y z
#    x 2.315160 0.000000 -0.062020 
#    y 0.000000 2.270550 0.000000 
#    z -0.062020 0.000000 2.156690 
# 
# From -- ./inp_files/4944.got.cif
#   From: 2010.05.17/outbox.cif.g08.bks.cpg/sg9_3_cif.got.tgz:4944.got - 2010.06.03 20:04:27.
