data_PCOD9133145
_publ_section_title
;
Structure prediction by ZEFSAII (Michael W. Deem and Ramdas Pophale) SiO2 
 PCOD9133145
Probable space group: C M
;
_chemical_formula_sum "Si O2"
_cell_formula_units_Z 32
_cell_length_a 25.490395
_cell_length_b 7.791966
_cell_length_c 24.406315
_cell_angle_alpha 90.000000
_cell_angle_beta 17.944890
_cell_angle_gamma 90.000000
_cell_volume 1493.552360
_symmetry_space_group_name_H-M "C M"
_symmetry_group_IT_number 8
_symmetry_cell_setting 'monoclinic'
loop_
_space_group_symop_operation_xyz
x,y,z
x,-y,z
1/2+x,1/2+y,z
1/2+x,1/2-y,z
loop_
_atom_site_type_symbol
_atom_site_label
_atom_site_fract_x
_atom_site_fract_y
_atom_site_fract_z
Si Si1 0.027990 0.802337 0.092130
Si Si2 0.478717 0.710602 0.018133
Si Si3 0.159003 0.290626 0.268213
Si Si4 0.793847 0.800522 0.496870
Si Si5 0.769266 0.292972 0.644799
Si Si6 0.836820 0.201418 0.858847
Si Si7 0.688555 0.695627 0.485181
Si Si8 0.689807 0.792064 0.115496
O O1 0.843014 0.792364 0.303421
O O2 0.081851 0.000000 0.035191
O O3 0.165071 0.714661 0.994976
O O4 0.017058 0.731520 0.041554
O O5 0.477359 0.500000 0.019956
O O6 0.625988 0.765414 0.829624
O O7 0.293410 0.765386 0.180234
O O8 0.154935 0.500000 0.273072
O O9 0.228978 0.238837 0.138605
O O10 0.962078 0.233087 0.467489
O O11 0.729774 0.755874 0.621295
O O12 0.716201 0.698907 0.523320
O O13 0.995636 0.761938 0.297306
O O14 0.766130 0.000000 0.513533
O O15 0.772545 0.500000 0.643322
O O16 0.000585 0.272868 0.664605
O O17 0.876060 0.000000 0.826794
O O18 0.804029 0.274497 0.952139
O O19 0.698527 0.500000 0.454953
O O20 0.694723 0.000000 0.109349
#
# Coordination Sequence:
#
# PCOD9133145 Si02
#       8
#     4   4   4   4   4   4   4   4
#     4  11  23  39  59  88 123 155 190 245 301 344
#     4   9  19  34  57  84 110 147 194 234 281 341
#     4   8  15  29  52  82 109 137 182 234 276 325
#     4  11  21  34  55  86 122 153 182 235 302 352
#     4   9  18  34  57  81 109 149 191 235 279 337
#     4  10  22  38  60  86 112 154 204 243 284 345
#     4  11  23  39  60  85 113 156 205 242 284 347
#     4   9  17  33  58  84 112 149 192 238 285 341
#
# _framework density 21.425429999999999
#
# number of rings (size 3 to 8) (size 9 to 14) (size 15 to 20)
#    0.000    2.250    1.250    2.625    1.750    2.000 
#    0.000    3.750    0.000    7.500    0.000    0.000 
#    0.000    0.000    0.000    0.000    0.000    0.000 
#
# Total GULP energy -89336.099341 kJ/mol
# GULP energy per Si atom -5583.506209 kJ/mol
# Density = 2.137666 g / cm^3
# Si number density = 21.425430 Si / 1000 Ang^3
#
#
#
# Elastic Constant Matrix: (Units=GPa)
#
#
# Indices 1 2 3 4 5 6 
#
# 1 65.5985 -5.8291 21.2523 -0.0030 18.1767 -0.0016
# 2 -5.8291 35.8506 -8.0116 -0.0325 1.2351 0.0106
# 3 21.2523 -8.0116 82.8562 -0.0248 17.2762 0.0071
# 4 -0.0030 -0.0325 -0.0248 -0.4567 0.0063 17.5443
# 5 18.1767 1.2351 17.2762 0.0063 20.6175 0.0000
# 6 -0.0016 0.0106 0.0071 17.5443 0.0000 -5.7797
#
#
#
# Elastic Compliance Matrix: (Units=1/GPa)
#
#
# Indices 1 2 3 4 5 6 
#
# 1 0.020851 0.003691 -0.001348 0.000005 -0.017474 0.000015
# 2 0.003691 0.029572 0.003587 0.000002 -0.008032 0.000063
# 3 -0.001348 0.003587 0.015218 0.000002 -0.011778 0.000032
# 4 0.000005 0.000002 0.000002 0.018940 -0.000012 0.057492
# 5 -0.017474 -0.008032 -0.011778 -0.000012 0.074259 -0.000062
# 6 0.000015 0.000063 0.000032 0.057492 -0.000062 0.001497
#
#
# Mechanical properties :
#
#
# Convention : Reuss Voigt Hill
#
# Bulk Modulus (GPa) = 12.90294 22.12536 17.51415
# Shear Modulus (GPa) = 28.68484 14.66913 21.67698
#
# Velocity S-wave (km/s) = 3.66296 2.61944 3.18424
# Velocity P-wave (km/s) = 4.89132 4.41562 4.65955
#
# Compressibility (1/GPa) = 0.07750172
#
# Stress axis : x y z
#
# Youngs Moduli (GPa) = 47.95981 33.81569 65.71378
#
# Poissons Ratio (x) = -0.12482 0.08856
# Poissons Ratio (y) = -0.17702 -0.23574
# Poissons Ratio (z) = 0.06464 -0.12131
#
# Static dielectric constant tensor:
#      x y z
#    x 1.754660 0.000000 0.000810 
#    y 0.000000 1.780570 0.000010 
#    z 0.000810 0.000010 1.787110 
# 
# From -- ./inp_files/32389.got.cif
#   From: 2010.05.17/outbox.cif.g08.bks.cpg/sg8_17_cif.got.tgz:32389.got - 2010.06.03 19:46:02.
