data_PCOD9133186
_publ_section_title
;
Structure prediction by ZEFSAII (Michael W. Deem and Ramdas Pophale) SiO2 
 PCOD9133186
Probable space group: C M
;
_chemical_formula_sum "Si O2"
_cell_formula_units_Z 28
_cell_length_a 10.180991
_cell_length_b 9.707265
_cell_length_c 17.071671
_cell_angle_alpha 90.000000
_cell_angle_beta 52.608772
_cell_angle_gamma 90.000000
_cell_volume 1340.482128
_symmetry_space_group_name_H-M "C M"
_symmetry_group_IT_number 8
_symmetry_cell_setting 'monoclinic'
loop_
_space_group_symop_operation_xyz
x,y,z
x,-y,z
1/2+x,1/2+y,z
1/2+x,1/2-y,z
loop_
_atom_site_type_symbol
_atom_site_label
_atom_site_fract_x
_atom_site_fract_y
_atom_site_fract_z
Si Si1 0.110180 0.342898 0.225560
Si Si2 0.971170 0.838080 0.140984
Si Si3 0.171291 0.153422 0.648656
Si Si4 0.662249 0.156322 0.520015
Si Si5 0.768930 0.659245 0.910864
Si Si6 0.982018 0.277263 0.441522
Si Si7 0.650255 0.163371 0.809070
O O1 0.105441 0.500000 0.198393
O O2 0.300747 0.295111 0.161161
O O3 0.006123 0.247698 0.205990
O O4 0.044668 0.338747 0.338174
O O5 0.952827 0.000000 0.166797
O O6 0.125557 0.822119 0.026846
O O7 0.080054 0.250707 0.617942
O O8 0.346859 0.139591 0.541066
O O9 0.192372 0.244878 0.717869
O O10 0.103698 0.000000 0.686798
O O11 0.859793 0.153019 0.464010
O O12 0.629706 0.233283 0.449766
O O13 0.603916 0.000000 0.542581
O O14 0.759032 0.500000 0.884911
O O15 0.735615 0.767283 0.853390
O O16 0.949486 0.675159 0.884271
O O17 0.689517 0.000000 0.786480
#
# Coordination Sequence:
#
# PCOD9133186 Si02
#       7
#     4   4   4   4   4   4   4
#     4  11  22  39  63  92 124 162 204 250 304 363
#     4  10  23  42  65  92 122 158 204 254 309 366
#     4  10  23  40  62  90 126 165 204 249 301 360
#     4  10  22  40  61  84 120 164 205 250 297 349
#     4  10  23  44  65  90 124 159 200 256 312 364
#     4  10  23  39  62  87 127 164 203 246 301 355
#     4  11  24  40  64  93 123 160 206 251 304 365
#
# _framework density 20.888005
#
# number of rings (size 3 to 8) (size 9 to 14) (size 15 to 20)
#    0.857    0.857    0.000    3.857    2.000    4.571 
#    0.000    0.000    0.000    0.000    0.000    0.000 
#    0.000    0.000    0.000    0.000    0.000    0.000 
#
# Total GULP energy -78034.060663 kJ/mol
# GULP energy per Si atom -5573.861476 kJ/mol
# Density = 2.084046 g / cm^3
# Si number density = 20.888005 Si / 1000 Ang^3
#
#
#
# Elastic Constant Matrix: (Units=GPa)
#
#
# Indices 1 2 3 4 5 6 
#
# 1 72.4243 40.1458 0.4785 0.0000 13.3638 0.0000
# 2 40.1458 91.6153 22.1763 0.0000 15.8535 0.0000
# 3 0.4785 22.1763 50.0242 0.0000 1.1865 0.0000
# 4 0.0000 0.0000 0.0000 5.6927 0.0000 4.1438
# 5 13.3638 15.8535 1.1865 0.0000 42.2030 0.0000
# 6 0.0000 0.0000 0.0000 4.1438 0.0000 27.0460
#
#
#
# Elastic Compliance Matrix: (Units=1/GPa)
#
#
# Indices 1 2 3 4 5 6 
#
# 1 0.019214 -0.008844 0.003805 0.000000 -0.002869 0.000000
# 2 -0.008844 0.017192 -0.007455 0.000000 -0.003448 0.000000
# 3 0.003805 -0.007455 0.023236 0.000000 0.000942 0.000000
# 4 0.000000 0.000000 0.000000 0.197713 0.000000 -0.030292
# 5 -0.002869 -0.003448 0.000942 0.000000 0.025872 0.000000
# 6 0.000000 0.000000 0.000000 -0.030292 0.000000 0.041615
#
#
# Mechanical properties :
#
#
# Convention : Reuss Voigt Hill
#
# Bulk Modulus (GPa) = 28.85659 37.74059 33.29859
# Shear Modulus (GPa) = 13.83572 25.07255 19.45414
#
# Velocity S-wave (km/s) = 2.57646 3.46834 3.05512
# Velocity P-wave (km/s) = 4.76401 5.84350 5.33115
#
# Compressibility (1/GPa) = 0.03465412
#
# Stress axis : x y z
#
# Youngs Moduli (GPa) = 52.04467 58.16674 43.03582
#
# Poissons Ratio (x) = 0.51444 -0.16375
# Poissons Ratio (y) = 0.46030 0.32083
# Poissons Ratio (z) = -0.19803 0.43363
#
# Static dielectric constant tensor:
#      x y z
#    x 1.829930 0.000000 -0.034040 
#    y 0.000000 1.723890 0.000000 
#    z -0.034040 0.000000 1.749080 
# 
# From -- ./inp_files/25126.got.cif
#   From: 2010.05.17/outbox.cif.g08.bks.cpg/sg8_13_cif.got.tgz:25126.got - 2010.06.03 19:46:02.
