data_PCOD9133494
_publ_section_title
;
Structure prediction by ZEFSAII (Michael W. Deem and Ramdas Pophale) SiO2 
 PCOD9133494
Probable space group: C M
;
_chemical_formula_sum "Si O2"
_cell_formula_units_Z 24
_cell_length_a 11.456057
_cell_length_b 14.965312
_cell_length_c 7.072500
_cell_angle_alpha 90.000000
_cell_angle_beta 56.855003
_cell_angle_gamma 90.000000
_cell_volume 1015.242018
_symmetry_space_group_name_H-M "C M"
_symmetry_group_IT_number 8
_symmetry_cell_setting 'monoclinic'
loop_
_space_group_symop_operation_xyz
x,y,z
x,-y,z
1/2+x,1/2+y,z
1/2+x,1/2-y,z
loop_
_atom_site_type_symbol
_atom_site_label
_atom_site_fract_x
_atom_site_fract_y
_atom_site_fract_z
Si Si1 0.418410 0.705402 0.000000
Si Si2 0.617163 0.602107 0.546924
Si Si3 0.758678 0.103494 0.436753
Si Si4 0.010284 0.788203 0.329435
Si Si5 0.461544 0.098574 0.903510
Si Si6 0.935408 0.596128 0.372978
O O1 0.287794 0.654470 0.211755
O O2 0.522199 0.713464 0.091203
O O3 0.498541 0.645627 0.779408
O O4 0.391309 0.804015 0.941311
O O5 0.585086 0.500000 0.531181
O O6 0.621768 0.659214 0.351987
O O7 0.767663 0.603989 0.512898
O O8 0.866042 0.155864 0.478370
O O9 0.607776 0.105309 0.664580
O O10 0.800505 0.000000 0.377118
O O11 0.989252 0.687044 0.413174
O O12 0.396101 0.000000 0.914549
O O13 0.481559 0.094220 0.112825
O O14 0.976214 0.500000 0.421288
#
# Coordination Sequence:
#
# PCOD9133494 Si02
#       6
#     4   4   4   4   4   4
#     4   9  20  34  58  88 121 156 206 256 306 362
#     4  11  21  36  64  95 123 158 212 261 310 368
#     4   9  17  32  57  85 117 158 202 248 305 359
#     4   9  20  37  59  88 123 163 203 256 314 368
#     4   9  17  34  59  82 116 165 200 242 308 367
#     4   9  19  37  61  92 124 162 207 259 311 370
#
# _framework density 23.639683000000002
#
# number of rings (size 3 to 8) (size 9 to 14) (size 15 to 20)
#    1.000    1.667    0.000    2.000    0.000    0.000 
#    0.000   10.833    0.000    8.000    0.000    0.000 
#    0.000    0.000    0.000    0.000    0.000    0.000 
#
# Total GULP energy -66953.079454 kJ/mol
# GULP energy per Si atom -5579.423288 kJ/mol
# Density = 2.358588 g / cm^3
# Si number density = 23.639683 Si / 1000 Ang^3
#
#
#
# Elastic Constant Matrix: (Units=GPa)
#
#
# Indices 1 2 3 4 5 6 
#
# 1 35.3230 32.0135 20.2855 0.0000 1.5218 0.0000
# 2 32.0135 264.4974 61.2224 0.0000 -16.1967 0.0000
# 3 20.2855 61.2224 135.9610 0.0000 -10.5275 0.0000
# 4 0.0000 0.0000 0.0000 32.8114 0.0000 -2.3503
# 5 1.5218 -16.1967 -10.5275 0.0000 27.9535 0.0000
# 6 0.0000 0.0000 0.0000 -2.3503 0.0000 14.5225
#
#
#
# Elastic Compliance Matrix: (Units=1/GPa)
#
#
# Indices 1 2 3 4 5 6 
#
# 1 0.033986 -0.003541 -0.003892 0.000000 -0.005368 0.000000
# 2 -0.003541 0.004678 -0.001394 0.000000 0.002378 0.000000
# 3 -0.003892 -0.001394 0.008773 0.000000 0.002708 0.000000
# 4 0.000000 0.000000 0.000000 0.030835 0.000000 0.004990
# 5 -0.005368 0.002378 0.002708 0.000000 0.038464 0.000000
# 6 0.000000 0.000000 0.000000 0.004990 0.000000 0.069666
#
#
# Mechanical properties :
#
#
# Convention : Reuss Voigt Hill
#
# Bulk Modulus (GPa) = 33.57637 73.64713 53.61175
# Shear Modulus (GPa) = 23.36637 36.54149 29.95393
#
# Velocity S-wave (km/s) = 3.14735 3.93589 3.56350
# Velocity P-wave (km/s) = 5.23851 7.20255 6.29757
#
# Compressibility (1/GPa) = 0.02978285
#
# Stress axis : x y z
#
# Youngs Moduli (GPa) = 29.42388 213.78339 113.98597
#
# Poissons Ratio (x) = 0.75709 0.44360
# Poissons Ratio (y) = 0.10420 0.15887
# Poissons Ratio (z) = 0.11451 0.29797
#
# Static dielectric constant tensor:
#      x y z
#    x 1.927580 0.000000 0.024180 
#    y 0.000000 1.898960 0.000000 
#    z 0.024180 0.000000 1.858740 
# 
# From -- ./inp_files/13198.got.cif
#   From: 2010.05.17/outbox.cif.g08.bks.cpg/sg8_7_cif.got.tgz:13198.got - 2010.06.03 19:46:02.
