data_PCOD9133978
_publ_section_title
;
Structure prediction by ZEFSAII (Michael W. Deem and Ramdas Pophale) SiO2 
 PCOD9133978
Probable space group: C C
;
_chemical_formula_sum "Si O2"
_cell_formula_units_Z 32
_cell_length_a 41.034335
_cell_length_b 6.752635
_cell_length_c 5.148688
_cell_angle_alpha 90.000000
_cell_angle_beta 90.082429
_cell_angle_gamma 90.000000
_cell_volume 1426.647898
_symmetry_space_group_name_H-M "C C"
_symmetry_group_IT_number 9
_symmetry_cell_setting 'monoclinic'
loop_
_space_group_symop_operation_xyz
x,y,z
x,-y,1/2+z
1/2+x,1/2+y,z
1/2+x,1/2-y,1/2+z
loop_
_atom_site_type_symbol
_atom_site_label
_atom_site_fract_x
_atom_site_fract_y
_atom_site_fract_z
Si Si1 0.221100 0.628900 0.588820
Si Si2 0.151725 0.369908 0.969251
Si Si3 0.017122 0.241707 0.153704
Si Si4 0.785642 0.370148 0.465278
Si Si5 0.354230 0.864840 0.587226
Si Si6 0.490472 0.705062 0.651604
Si Si7 0.586941 0.629372 0.087042
Si Si8 0.924142 0.639135 0.989436
O O1 0.221213 0.445800 0.384773
O O2 0.186479 0.733495 0.527831
O O3 0.253190 0.750706 0.525735
O O4 0.151157 0.552046 0.174726
O O5 0.119993 0.244035 0.030597
O O6 0.013332 0.315948 0.445211
O O7 0.053755 0.252990 0.052817
O O8 0.006261 0.010354 0.197185
O O9 0.991751 0.303584 0.933498
O O10 0.785706 0.447542 0.170587
O O11 0.819858 0.260211 0.527630
O O12 0.388640 0.761814 0.530194
O O13 0.354175 0.047717 0.378536
O O14 0.454253 0.714434 0.538265
O O15 0.585737 0.548028 0.379384
O O16 0.925769 0.467696 0.210854
#
# Coordination Sequence:
#
# PCOD9133978 Si02
#       8
#     4   4   4   4   4   4   4   4
#     4  10  21  38  58  79 118 156 175 220 287 335
#     4  10  23  41  57  83 116 149 182 223 285 334
#     4  10  19  35  54  69  96 134 174 211 274 307
#     4  10  19  33  58  86 111 143 194 233 262 320
#     4   8  16  30  49  74 105 140 171 220 271 305
#     4  10  18  33  53  70  98 132 173 211 258 325
#     4  12  21  38  63  83 106 147 187 231 276 336
#     4  10  19  32  50  76 106 137 174 215 269 324
#
# _framework density 22.430199999999999
#
# number of rings (size 3 to 8) (size 9 to 14) (size 15 to 20)
#    0.000    2.000    2.500    2.250    0.000    1.000 
#    0.000    3.750    5.500    0.000    0.000    0.000 
#    0.000    0.000    0.000    0.000    0.000    0.000 
#
# Total GULP energy -89266.639035 kJ/mol
# GULP energy per Si atom -5579.164940 kJ/mol
# Density = 2.237915 g / cm^3
# Si number density = 22.430200 Si / 1000 Ang^3
#
#
#
# Elastic Constant Matrix: (Units=GPa)
#
#
# Indices 1 2 3 4 5 6 
#
# 1 202.4212 9.2769 -7.4147 0.0000 -6.0861 0.0000
# 2 9.2769 20.3916 -12.1042 0.0000 3.6863 0.0000
# 3 -7.4147 -12.1042 111.8642 0.0000 -9.0907 0.0000
# 4 0.0000 0.0000 0.0000 73.6663 0.0000 71.9953
# 5 -6.0861 3.6863 -9.0907 0.0000 35.0820 0.0000
# 6 0.0000 0.0000 0.0000 71.9953 0.0000 109.2589
#
#
#
# Elastic Compliance Matrix: (Units=1/GPa)
#
#
# Indices 1 2 3 4 5 6 
#
# 1 0.005093 -0.002430 0.000171 0.000000 0.001183 0.000000
# 2 -0.002430 0.054155 0.005314 0.000000 -0.004735 0.000000
# 3 0.000171 0.005314 0.009687 0.000000 0.001981 0.000000
# 4 0.000000 0.000000 0.000000 0.038131 0.000000 -0.025126
# 5 0.001183 -0.004735 0.001981 0.000000 0.029721 0.000000
# 6 0.000000 0.000000 0.000000 -0.025126 0.000000 0.025709
#
#
# Mechanical properties :
#
#
# Convention : Reuss Voigt Hill
#
# Bulk Modulus (GPa) = 13.32517 34.91034 24.11775
# Shear Modulus (GPa) = 27.56320 66.59604 47.07962
#
# Velocity S-wave (km/s) = 3.50929 5.45480 4.58639
# Velocity P-wave (km/s) = 4.73009 7.43444 6.23076
#
# Compressibility (1/GPa) = 0.07504595
#
# Stress axis : x y z
#
# Youngs Moduli (GPa) = 196.33347 18.46538 103.23387
#
# Poissons Ratio (x) = 0.04486 -0.01764
# Poissons Ratio (y) = 0.47702 -0.54858
# Poissons Ratio (z) = -0.03355 -0.09812
#
# Static dielectric constant tensor:
#      x y z
#    x 1.875270 0.000000 0.004420 
#    y 0.000000 -2.805730 0.000000 
#    z 0.004420 0.000000 1.859170 
# 
# From -- ./inp_files/3444.got.cif
#   From: 2010.05.17/outbox.cif.g08.bks.cpg/sg9_2_cif.got.tgz:3444.got - 2010.06.03 20:04:27.
