data_PCOD9133945
_publ_section_title
;
Structure prediction by ZEFSAII (Michael W. Deem and Ramdas Pophale) SiO2 
 PCOD9133945
Probable space group: C C
;
_chemical_formula_sum "Si O2"
_cell_formula_units_Z 32
_cell_length_a 14.678025
_cell_length_b 16.990572
_cell_length_c 15.171825
_cell_angle_alpha 90.000000
_cell_angle_beta 160.674467
_cell_angle_gamma 90.000000
_cell_volume 1252.149210
_symmetry_space_group_name_H-M "C C"
_symmetry_group_IT_number 9
_symmetry_cell_setting 'monoclinic'
loop_
_space_group_symop_operation_xyz
x,y,z
x,-y,1/2+z
1/2+x,1/2+y,z
1/2+x,1/2-y,1/2+z
loop_
_atom_site_type_symbol
_atom_site_label
_atom_site_fract_x
_atom_site_fract_y
_atom_site_fract_z
Si Si1 0.138240 0.962697 0.590610
Si Si2 0.004594 0.026036 0.652885
Si Si3 0.058252 0.194067 0.629181
Si Si4 0.619513 0.866891 0.097076
Si Si5 0.924393 0.480620 0.682696
Si Si6 0.383340 0.199423 0.559205
Si Si7 0.347577 0.196816 0.718970
Si Si8 0.038983 0.299022 0.841143
O O1 0.222606 0.005259 0.577783
O O2 0.938883 0.889869 0.381404
O O3 0.983096 0.998131 0.532675
O O4 0.435408 0.941449 0.902293
O O5 0.021829 0.120273 0.659350
O O6 0.740702 0.994200 0.464783
O O7 0.273285 0.003253 0.952994
O O8 0.196910 0.159205 0.665225
O O9 0.769983 0.236825 0.348032
O O10 0.532744 0.841494 0.114622
O O11 0.519745 0.806213 0.930726
O O12 0.967120 0.385683 0.739371
O O13 0.575302 0.276348 0.751098
O O14 0.371565 0.158793 0.644161
O O15 0.150024 0.273212 0.521861
O O16 0.839888 0.238384 0.611561
#
# Coordination Sequence:
#
# PCOD9133945 Si02
#       8
#     4   4   4   4   4   4   4   4
#     4  11  25  46  64  90 132 173 221 279 323 377
#     4  12  25  45  70  95 126 177 219 270 336 392
#     4  10  21  39  63  93 127 159 203 264 330 393
#     4  11  21  38  62  90 133 175 219 273 315 386
#     4  11  25  44  68  94 134 169 220 280 322 390
#     4  10  18  31  56  87 125 166 212 260 318 380
#     4   8  16  31  51  78 119 157 190 251 309 364
#     4  11  21  36  62  99 136 174 210 261 339 404
#
# _framework density 25.556059999999999
#
# number of rings (size 3 to 8) (size 9 to 14) (size 15 to 20)
#    0.000    1.500    0.000    6.750    0.000    3.000 
#    4.500    0.000    0.000    0.000    0.000    0.000 
#    0.000    0.000    0.000    0.000    0.000    0.000 
#
# Total GULP energy -89456.987431 kJ/mol
# GULP energy per Si atom -5591.061714 kJ/mol
# Density = 2.549789 g / cm^3
# Si number density = 25.556060 Si / 1000 Ang^3
#
#
#
# Elastic Constant Matrix: (Units=GPa)
#
#
# Indices 1 2 3 4 5 6 
#
# 1 135.2354 8.6914 19.7889 0.0120 9.2865 -0.0291
# 2 8.6914 31.4316 9.7633 0.0304 -1.2695 0.0202
# 3 19.7889 9.7633 139.2965 0.0423 7.6870 0.0297
# 4 0.0120 0.0304 0.0423 17.5572 -0.0056 -2.2895
# 5 9.2865 -1.2695 7.6870 -0.0056 41.8275 0.0024
# 6 -0.0291 0.0202 0.0297 -2.2895 0.0024 50.6877
#
#
#
# Elastic Compliance Matrix: (Units=1/GPa)
#
#
# Indices 1 2 3 4 5 6 
#
# 1 0.007759 -0.001938 -0.000877 0.000000 -0.001620 0.000006
# 2 -0.001938 0.033091 -0.002145 -0.000052 0.001829 -0.000016
# 3 -0.000877 -0.002145 0.007523 -0.000015 -0.001253 -0.000005
# 4 0.000000 -0.000052 -0.000015 0.057294 0.000009 0.002588
# 5 -0.001620 0.001829 -0.001253 0.000009 0.024553 -0.000002
# 6 0.000006 -0.000016 -0.000005 0.002588 -0.000002 0.019846
#
#
# Mechanical properties :
#
#
# Convention : Reuss Voigt Hill
#
# Bulk Modulus (GPa) = 26.00621 42.49453 34.25037
# Shear Modulus (GPa) = 28.93451 39.86248 34.39849
#
# Velocity S-wave (km/s) = 3.36846 3.95372 3.67277
# Velocity P-wave (km/s) = 5.03259 6.12426 5.60507
#
# Compressibility (1/GPa) = 0.03845236
#
# Stress axis : x y z
#
# Youngs Moduli (GPa) = 128.88783 30.21943 132.92575
#
# Poissons Ratio (x) = 0.05858 0.11657
# Poissons Ratio (y) = 0.24985 0.28511
# Poissons Ratio (z) = 0.11303 0.06482
#
# Static dielectric constant tensor:
#      x y z
#    x 2.109910 -0.000030 -0.012960 
#    y -0.000030 2.038130 -0.000020 
#    z -0.012960 -0.000020 1.902460 
# 
# From -- ./inp_files/2539.got.cif
#   From: 2010.05.17/outbox.cif.g08.bks.cpg/sg9_2_cif.got.tgz:2539.got - 2010.06.03 20:04:27.
