data_PCOD9133683
_publ_section_title
;
Structure prediction by ZEFSAII (Michael W. Deem and Ramdas Pophale) SiO2 
 PCOD9133683
Probable space group: C M
;
_chemical_formula_sum "Si O2"
_cell_formula_units_Z 16
_cell_length_a 27.000000
_cell_length_b 9.000000
_cell_length_c 21.000000
_cell_angle_alpha 90.000000
_cell_angle_beta 160.000000
_cell_angle_gamma 90.000000
_cell_volume 1745.328791
_symmetry_space_group_name_H-M "C M"
_symmetry_group_IT_number 8
_symmetry_cell_setting 'monoclinic'
loop_
_space_group_symop_operation_xyz
x,y,z
x,-y,z
1/2+x,1/2+y,z
1/2+x,1/2-y,z
loop_
_atom_site_type_symbol
_atom_site_label
_atom_site_fract_x
_atom_site_fract_y
_atom_site_fract_z
Si Si1 0.657460 0.825436 0.820040
Si Si2 0.174895 0.679330 0.468797
Si Si3 0.086620 0.322871 0.219943
Si Si4 0.556999 0.821706 0.461877
Si Si5 0.976168 0.824068 0.785068
Si Si6 0.359217 0.825485 0.517099
Si Si7 0.255382 0.676700 0.083136
Si Si8 0.751744 0.325039 0.804877
O O1 0.483105 0.808705 0.614101
O O2 0.716575 0.730498 0.833584
O O3 0.689421 0.000000 0.848414
O O4 0.719734 0.785435 0.965507
O O5 0.162283 0.500000 0.453004
O O6 0.107081 0.727501 0.319000
O O7 0.103954 0.733120 0.448006
O O8 0.345711 0.714477 0.674777
O O9 0.119469 0.500000 0.257269
O O10 0.197783 0.230998 0.310799
O O11 0.922370 0.301043 0.001328
O O12 0.396535 0.760552 0.276641
O O13 0.660112 0.761208 0.641544
O O14 0.559141 0.000000 0.464879
O O15 0.910450 0.778289 0.637179
O O16 0.004345 0.000000 0.821469
O O17 0.121207 0.730405 0.963606
O O18 0.361148 0.000000 0.538146
O O19 0.271327 0.500000 0.105406
O O20 0.721103 0.500000 0.763231
#
# Coordination Sequence:
#
# PCOD9133683 Si02
#       8
#     4   4   4   4   4   4   4   4
#     4   9  19  35  55  80 108 138 174 216 261 313
#     4   8  16  32  55  80 102 131 174 216 255 310
#     4   9  18  34  55  78 104 135 174 216 260 315
#     4  11  22  37  55  75 105 144 181 217 264 315
#     4   9  16  30  53  80 107 135 171 214 262 313
#     4   9  17  30  51  81 110 133 166 215 265 312
#     4  10  20  35  55  82 111 137 174 219 261 311
#     4  11  23  37  53  76 107 141 180 223 264 311
#
# _framework density 9.1673270000000002
#
# number of rings (size 3 to 8) (size 9 to 14) (size 15 to 20)
#    0.000    2.500    0.000    4.125    0.000    5.000 
#    0.000    8.750    0.000    4.500    0.000    0.000 
#    0.000    0.000    0.000    0.000    0.000    0.000 
#
# Total GULP energy -89171.821465 kJ/mol
# GULP energy per Si atom -5573.238842 kJ/mol
# Density = 0.914646 g / cm^3
# Si number density = 9.167327 Si / 1000 Ang^3
#
#
#
# Elastic Constant Matrix: (Units=GPa)
#
#
# Indices 1 2 3 4 5 6 
#
# 1 -6.2822 9.9754 21.2409 0.0000 5.9481 0.0000
# 2 9.9754 51.5819 47.2647 0.0000 4.1400 0.0000
# 3 21.2409 47.2647 100.5370 0.0000 7.0675 0.0000
# 4 0.0000 0.0000 0.0000 24.6080 0.0000 1.0185
# 5 5.9481 4.1400 7.0675 0.0000 18.2720 0.0000
# 6 0.0000 0.0000 0.0000 1.0185 0.0000 23.2356
#
#
#
# Elastic Compliance Matrix: (Units=1/GPa)
#
#
# Indices 1 2 3 4 5 6 
#
# 1 -0.084119 -0.000618 0.016578 0.000000 0.021111 0.000000
# 2 -0.000618 0.034097 -0.015800 0.000000 -0.001413 0.000000
# 3 0.016578 -0.015800 0.014391 0.000000 -0.007383 0.000000
# 4 0.000000 0.000000 0.000000 0.040711 0.000000 -0.001785
# 5 0.021111 -0.001413 -0.007383 0.000000 0.051032 0.000000
# 6 0.000000 0.000000 0.000000 -0.001785 0.000000 0.043116
#
#
# Mechanical properties :
#
#
# Convention : Reuss Voigt Hill
#
# Bulk Modulus (GPa) = -28.32146 33.64430 2.66142
# Shear Modulus (GPa) = 57.38077 17.71350 37.54713
#
# Velocity S-wave (km/s) = 5.60038 3.11162 4.53026
# Velocity P-wave (km/s) = 5.13211 5.59460 5.36834
#
# Compressibility (1/GPa) = -0.03530891
#
# Stress axis : x y z
#
# Youngs Moduli (GPa) = -11.88797 29.32799 69.48799
#
# Poissons Ratio (x) = 0.01811 -1.15200
# Poissons Ratio (y) = -0.00734 1.09791
# Poissons Ratio (z) = 0.19708 0.46338
#
# Static dielectric constant tensor:
#      x y z
#    x 1.623300 0.000000 0.033110 
#    y 0.000000 1.611750 0.000000 
#    z 0.033110 0.000000 1.668440 
# 
# From -- ./inp_files/31637.got.cif
#   From: 2010.05.17/outbox.ucp.g08.bks.cvg/sg8_16_cif.got.tgz:31637.got - 2010.06.11 13:00:03.
