data_PCOD9133297
_publ_section_title
;
Structure prediction by ZEFSAII (Michael W. Deem and Ramdas Pophale) SiO2 
 PCOD9133297
Probable space group: C M
;
_chemical_formula_sum "Si O2"
_cell_formula_units_Z 28
_cell_length_a 9.091805
_cell_length_b 30.088384
_cell_length_c 4.993182
_cell_angle_alpha 90.000000
_cell_angle_beta 55.752459
_cell_angle_gamma 90.000000
_cell_volume 1129.091342
_symmetry_space_group_name_H-M "C M"
_symmetry_group_IT_number 8
_symmetry_cell_setting 'monoclinic'
loop_
_space_group_symop_operation_xyz
x,y,z
x,-y,z
1/2+x,1/2+y,z
1/2+x,1/2-y,z
loop_
_atom_site_type_symbol
_atom_site_label
_atom_site_fract_x
_atom_site_fract_y
_atom_site_fract_z
Si Si1 0.731950 0.450196 0.284290
Si Si2 0.092983 0.452029 0.615823
Si Si3 0.932198 0.901356 0.309993
Si Si4 0.303641 0.649003 0.925704
Si Si5 0.230856 0.736504 0.315880
Si Si6 0.337709 0.788813 0.732399
Si Si7 0.414944 0.120319 0.423753
O O1 0.671130 0.500000 0.434419
O O2 0.608307 0.430179 0.177640
O O3 0.760376 0.408272 0.446864
O O4 0.935499 0.455917 0.987554
O O5 0.116713 0.500000 0.457276
O O6 0.274688 0.435377 0.555214
O O7 0.018390 0.414340 0.501313
O O8 0.882934 0.885381 0.063262
O O9 0.904619 0.860290 0.544558
O O10 0.088406 0.642234 0.095197
O O11 0.324189 0.696594 0.052386
O O12 0.216671 0.774084 0.102054
O O13 0.313393 0.758730 0.493358
O O14 0.042725 0.717558 0.604740
O O15 0.319016 0.839905 0.675781
#
# Coordination Sequence:
#
# PCOD9133297 Si02
#       7
#     4   4   4   4   4   4   4
#     4  11  24  41  65  98 130 170 223 275 326 391
#     4  10  22  43  65  92 133 175 216 273 331 387
#     4  11  23  42  68  99 130 178 216 271 322 400
#     4  10  23  44  68  91 136 174 221 262 333 390
#     4  11  24  44  65 102 130 180 214 282 323 405
#     4  11  25  42  70  94 139 169 228 266 341 388
#     4  10  23  42  67  92 130 178 218 271 328 397
#
# _framework density 24.798703
#
# number of rings (size 3 to 8) (size 9 to 14) (size 15 to 20)
#    0.000    1.429    1.429    2.571    4.000    5.714 
#    0.000    1.429    0.000    0.000    0.000    0.000 
#    0.000    0.000    0.000    0.000    0.000    0.000 
#
# Total GULP energy -78235.661421 kJ/mol
# GULP energy per Si atom -5588.261530 kJ/mol
# Density = 2.474226 g / cm^3
# Si number density = 24.798703 Si / 1000 Ang^3
#
#
#
# Elastic Constant Matrix: (Units=GPa)
#
#
# Indices 1 2 3 4 5 6 
#
# 1 93.9400 30.0371 12.0319 0.0000 -3.7662 0.0000
# 2 30.0371 102.7718 -7.7377 0.0000 -10.9238 0.0000
# 3 12.0319 -7.7377 50.8646 0.0000 9.1026 0.0000
# 4 0.0000 0.0000 0.0000 30.2811 0.0000 -5.6470
# 5 -3.7662 -10.9238 9.1026 0.0000 14.7261 0.0000
# 6 0.0000 0.0000 0.0000 -5.6470 0.0000 -79.9478
#
#
#
# Elastic Compliance Matrix: (Units=1/GPa)
#
#
# Indices 1 2 3 4 5 6 
#
# 1 0.012438 -0.003621 -0.004027 0.000000 0.002984 0.000000
# 2 -0.003621 0.011620 0.001403 0.000000 0.006826 0.000000
# 3 -0.004027 0.001403 0.023414 0.000000 -0.014463 0.000000
# 4 0.000000 0.000000 0.000000 0.032595 0.000000 -0.002302
# 5 0.002984 0.006826 -0.014463 0.000000 0.082674 0.000000
# 6 0.000000 0.000000 0.000000 -0.002302 0.000000 -0.012346
#
#
# Mechanical properties :
#
#
# Convention : Reuss Voigt Hill
#
# Bulk Modulus (GPa) = 28.58722 35.13766 31.86244
# Shear Modulus (GPa) = 28.64548 7.22820 17.93684
#
# Velocity S-wave (km/s) = 3.40239 1.70912 2.69234
# Velocity P-wave (km/s) = 5.19498 4.25378 4.74776
#
# Compressibility (1/GPa) = 0.03498067
#
# Stress axis : x y z
#
# Youngs Moduli (GPa) = 80.39564 86.05908 42.70902
#
# Poissons Ratio (x) = 0.31166 0.17200
# Poissons Ratio (y) = 0.29115 -0.05991
# Poissons Ratio (z) = 0.32377 -0.12071
#
# Static dielectric constant tensor:
#      x y z
#    x 1.946930 0.000000 0.000960 
#    y 0.000000 2.087390 0.000000 
#    z 0.000960 0.000000 2.044760 
# 
# From -- ./inp_files/1936.got.cif
#   From: 2010.05.17/outbox.cif.g08.bks.cpg/sg8_1_cif.got.tgz:1936.got - 2010.06.03 19:46:02.
