data_PCOD9133797
_publ_section_title
;
Structure prediction by ZEFSAII (Michael W. Deem and Ramdas Pophale) SiO2 
 PCOD9133797
Probable space group: C C
;
_chemical_formula_sum "Si O2"
_cell_formula_units_Z 28
_cell_length_a 17.378595
_cell_length_b 17.300436
_cell_length_c 9.040924
_cell_angle_alpha 90.000000
_cell_angle_beta 25.184286
_cell_angle_gamma 90.000000
_cell_volume 1156.686994
_symmetry_space_group_name_H-M "C C"
_symmetry_group_IT_number 9
_symmetry_cell_setting 'monoclinic'
loop_
_space_group_symop_operation_xyz
x,y,z
x,-y,1/2+z
1/2+x,1/2+y,z
1/2+x,1/2-y,1/2+z
loop_
_atom_site_type_symbol
_atom_site_label
_atom_site_fract_x
_atom_site_fract_y
_atom_site_fract_z
Si Si1 0.444240 0.394173 0.159340
Si Si2 0.428581 0.238004 0.717273
Si Si3 0.041532 0.260563 0.343951
Si Si4 0.157581 0.420314 0.167663
Si Si5 0.095421 0.892196 0.410712
Si Si6 0.588432 0.078642 0.438648
Si Si7 0.599108 0.497323 0.645951
O O1 0.246726 0.383984 0.566090
O O2 0.541314 0.442937 0.118842
O O3 0.520215 0.310681 0.989615
O O4 0.456104 0.447324 0.992312
O O5 0.418389 0.250602 0.913858
O O6 0.586208 0.299978 0.401357
O O7 0.442320 0.145793 0.683291
O O8 0.253059 0.259954 0.928342
O O9 0.039736 0.345338 0.416996
O O10 0.076876 0.494179 0.390168
O O11 0.375577 0.410733 0.814525
O O12 0.135137 0.428672 0.030170
O O13 0.169799 0.943936 0.147521
O O14 0.188829 0.928187 0.394308
#
# Coordination Sequence:
#
# PCOD9133797 Si02
#       7
#     4   4   4   4   4   4   4
#     4  11  19  37  61  97 114 159 209 258 291 360
#     4  10  23  41  62  86 130 163 197 253 313 362
#     4  10  23  41  63  86 128 162 201 249 315 358
#     4  10  19  36  60  84 119 162 202 241 297 371
#     4  10  16  34  56  89 114 158 202 251 284 363
#     4  11  20  37  62  87 116 158 209 248 295 357
#     4  10  18  30  62  89 119 154 212 246 291 367
#
# _framework density 24.207066999999999
#
# number of rings (size 3 to 8) (size 9 to 14) (size 15 to 20)
#    0.000    1.714    5.714    0.000    0.000    0.000 
#    5.143    2.857    3.143    0.000    0.000    0.000 
#    0.000    0.000    0.000    0.000    0.000    0.000 
#
# Total GULP energy -78016.773689 kJ/mol
# GULP energy per Si atom -5572.626692 kJ/mol
# Density = 2.415197 g / cm^3
# Si number density = 24.207067 Si / 1000 Ang^3
#
#
#
# Elastic Constant Matrix: (Units=GPa)
#
#
# Indices 1 2 3 4 5 6 
#
# 1 109.1756 47.5790 31.9101 -0.0035 22.4081 -0.0030
# 2 47.5790 187.7173 31.9175 -0.0006 7.9588 0.0069
# 3 31.9101 31.9175 30.8807 -0.0033 8.2859 0.0041
# 4 -0.0035 -0.0006 -0.0033 40.8883 0.0015 18.9633
# 5 22.4081 7.9588 8.2859 0.0015 22.0338 -0.0020
# 6 -0.0030 0.0069 0.0041 18.9633 -0.0020 81.5126
#
#
#
# Elastic Compliance Matrix: (Units=1/GPa)
#
#
# Indices 1 2 3 4 5 6 
#
# 1 0.015369 -0.001492 -0.011445 0.000000 -0.010787 0.000001
# 2 -0.001492 0.006609 -0.005623 0.000000 0.001245 0.000000
# 3 -0.011445 -0.005623 0.051554 0.000005 -0.005717 -0.000004
# 4 0.000000 0.000000 0.000005 0.027415 -0.000005 -0.006378
# 5 -0.010787 0.001245 -0.005717 -0.000005 0.058056 0.000002
# 6 0.000001 0.000000 -0.000004 -0.006378 0.000002 0.013752
#
#
# Mechanical properties :
#
#
# Convention : Reuss Voigt Hill
#
# Bulk Modulus (GPa) = 27.46267 61.17629 44.31948
# Shear Modulus (GPa) = 22.52147 43.31141 32.91644
#
# Velocity S-wave (km/s) = 3.05350 4.23449 3.69153
# Velocity P-wave (km/s) = 4.87866 7.01675 6.04302
#
# Compressibility (1/GPa) = 0.03641307
#
# Stress axis : x y z
#
# Youngs Moduli (GPa) = 65.06612 151.31825 19.39709
#
# Poissons Ratio (x) = 0.22579 0.22199
# Poissons Ratio (y) = 0.09709 0.10906
# Poissons Ratio (z) = 0.74465 0.85080
#
# Static dielectric constant tensor:
#      x y z
#    x 1.929770 0.000000 -0.058980 
#    y 0.000000 1.989710 0.000000 
#    z -0.058980 0.000000 1.968600 
# 
# From -- ./inp_files/5263.got.cif
#   From: 2010.05.17/outbox.cif.g08.bks.cpg/sg9_3_cif.got.tgz:5263.got - 2010.06.03 20:04:27.
