data_PCOD9133629
_publ_section_title
;
Structure prediction by ZEFSAII (Michael W. Deem and Ramdas Pophale) SiO2 
 PCOD9133629
Probable space group: C M
;
_chemical_formula_sum "Si O2"
_cell_formula_units_Z 28
_cell_length_a 9.697827
_cell_length_b 24.023842
_cell_length_c 9.552161
_cell_angle_alpha 90.000000
_cell_angle_beta 147.449176
_cell_angle_gamma 90.000000
_cell_volume 1197.399759
_symmetry_space_group_name_H-M "C M"
_symmetry_group_IT_number 8
_symmetry_cell_setting 'monoclinic'
loop_
_space_group_symop_operation_xyz
x,y,z
x,-y,z
1/2+x,1/2+y,z
1/2+x,1/2-y,z
loop_
_atom_site_type_symbol
_atom_site_label
_atom_site_fract_x
_atom_site_fract_y
_atom_site_fract_z
Si Si1 0.930390 0.386878 0.990520
Si Si2 0.062994 0.823667 0.892835
Si Si3 0.478713 0.595458 0.066199
Si Si4 0.576513 0.000000 0.245578
Si Si5 0.916753 0.388200 0.671215
Si Si6 0.792397 0.268633 0.533680
Si Si7 0.775561 0.779690 0.217743
Si Si8 0.995841 0.000000 0.851624
O O1 0.721082 0.364338 0.924910
O O2 0.816581 0.402475 0.741029
O O3 0.095334 0.439712 0.185499
O O4 0.102923 0.332992 0.101069
O O5 0.002506 0.849344 0.990993
O O6 0.815118 0.794991 0.611514
O O7 0.205551 0.764786 0.037788
O O8 0.489544 0.551157 0.951435
O O9 0.202008 0.586934 0.899484
O O10 0.712772 0.593989 0.377167
O O11 0.767431 0.000000 0.542283
O O12 0.273153 0.000000 0.018835
O O13 0.976436 0.322205 0.701583
O O14 0.772039 0.256175 0.354395
O O15 0.558280 0.296395 0.416748
#
# Coordination Sequence:
#
# PCOD9133629 Si02
#       8
#     4   4   4   2   4   4   4   2
#     4  12  28  51  79 116 165 216 272 336 405 481
#     4  12  26  45  74 112 150 212 256 327 397 487
#     4  12  28  50  80 113 152 206 263 336 394 476
#     4  12  30  54  82 120 158 223 275 338 394 482
#     4  12  27  47  77 116 159 199 258 330 408 475
#     4  12  25  41  71 109 160 200 260 323 408 484
#     4  12  25  43  71 113 155 209 258 330 403 479
#     4  12  28  54  86 114 152 209 289 330 400 478
#
# _framework density 23.384001999999999
#
# number of rings (size 3 to 8) (size 9 to 14) (size 15 to 20)
#    0.000    0.000    5.714    3.429    4.000    3.429 
#    0.000    0.000    0.000    0.857    0.000    0.000 
#    0.000    0.000    0.000    0.000    0.000    0.000 
#
# Total GULP energy -78095.923963 kJ/mol
# GULP energy per Si atom -5578.280283 kJ/mol
# Density = 2.333078 g / cm^3
# Si number density = 23.384002 Si / 1000 Ang^3
#
#
#
# Elastic Constant Matrix: (Units=GPa)
#
#
# Indices 1 2 3 4 5 6 
#
# 1 122.5107 28.9240 59.6858 0.0000 -2.9961 0.0000
# 2 28.9240 125.5486 76.7531 0.0000 -20.6887 0.0000
# 3 59.6858 76.7531 137.6276 0.0000 -28.8397 0.0000
# 4 0.0000 0.0000 0.0000 33.7803 0.0000 -10.4461
# 5 -2.9961 -20.6887 -28.8397 0.0000 45.0297 0.0000
# 6 0.0000 0.0000 0.0000 -10.4461 0.0000 44.5532
#
#
#
# Elastic Compliance Matrix: (Units=1/GPa)
#
#
# Indices 1 2 3 4 5 6 
#
# 1 0.010618 0.000418 -0.005371 0.000000 -0.002541 0.000000
# 2 0.000418 0.012182 -0.006695 0.000000 0.001337 0.000000
# 3 -0.005371 -0.006695 0.014564 0.000000 0.005894 0.000000
# 4 0.000000 0.000000 0.000000 0.031917 0.000000 0.007483
# 5 -0.002541 0.001337 0.005894 0.000000 0.026428 0.000000
# 6 0.000000 0.000000 0.000000 0.007483 0.000000 0.024200
#
#
# Mechanical properties :
#
#
# Convention : Reuss Voigt Hill
#
# Bulk Modulus (GPa) = 71.07565 79.60141 75.33853
# Shear Modulus (GPa) = 33.80830 39.36093 36.58461
#
# Velocity S-wave (km/s) = 3.80648 4.10718 3.95969
# Velocity P-wave (km/s) = 7.05549 7.52375 7.29338
#
# Compressibility (1/GPa) = 0.01406952
#
# Stress axis : x y z
#
# Youngs Moduli (GPa) = 94.17852 82.08925 68.66292
#
# Poissons Ratio (x) = -0.03434 0.36876
# Poissons Ratio (y) = -0.03940 0.45969
# Poissons Ratio (z) = 0.50579 0.54958
#
# Static dielectric constant tensor:
#      x y z
#    x 1.868480 0.000000 0.064020 
#    y 0.000000 1.947090 0.000000 
#    z 0.064020 0.000000 2.520780 
# 
# From -- ./inp_files/9199.got.cif
#   From: 2010.05.17/outbox.cif.g08.bks.cpg/sg8_5_cif.got.tgz:9199.got - 2010.06.03 19:46:02.
