data_PCOD9133794
_publ_section_title
;
Structure prediction by ZEFSAII (Michael W. Deem and Ramdas Pophale) SiO2 
 PCOD9133794
Probable space group: C C
;
_chemical_formula_sum "Si O2"
_cell_formula_units_Z 28
_cell_length_a 17.206323
_cell_length_b 13.775585
_cell_length_c 7.992899
_cell_angle_alpha 90.000000
_cell_angle_beta 140.163687
_cell_angle_gamma 90.000000
_cell_volume 1213.631961
_symmetry_space_group_name_H-M "C C"
_symmetry_group_IT_number 9
_symmetry_cell_setting 'monoclinic'
loop_
_space_group_symop_operation_xyz
x,y,z
x,-y,1/2+z
1/2+x,1/2+y,z
1/2+x,1/2-y,1/2+z
loop_
_atom_site_type_symbol
_atom_site_label
_atom_site_fract_x
_atom_site_fract_y
_atom_site_fract_z
Si Si1 0.564890 0.092418 0.675710
Si Si2 0.212954 0.959934 0.752572
Si Si3 0.579732 0.788777 0.509703
Si Si4 0.075430 0.895825 0.214363
Si Si5 0.383677 0.073788 0.823925
Si Si6 0.331884 0.614997 0.505258
Si Si7 0.727433 0.063838 0.659312
O O1 0.643160 0.123738 0.645464
O O2 0.451723 0.030420 0.423090
O O3 0.536733 0.179473 0.754584
O O4 0.640362 0.011498 0.911175
O O5 0.178431 0.902295 0.528465
O O6 0.093767 0.000622 0.651000
O O7 0.294106 0.053808 0.830357
O O8 0.296329 0.905339 0.023152
O O9 0.578315 0.680279 0.569141
O O10 0.493180 0.849683 0.494284
O O11 0.719184 0.823667 0.748520
O O12 0.957520 0.865777 0.124847
O O13 0.311270 0.620395 0.669066
O O14 0.307247 0.503781 0.410302
#
# Coordination Sequence:
#
# PCOD9133794 Si02
#       7
#     4   4   4   4   4   4   4
#     4  10  16  33  63 111 134 169 217 299 353 406
#     4  10  24  42  71  92 144 197 231 269 364 439
#     4  11  23  37  69 106 138 177 237 307 342 407
#     4  11  25  45  66  96 144 196 234 283 357 432
#     4  11  18  39  72 101 137 176 237 284 351 421
#     4  10  20  37  64  94 139 173 227 291 345 416
#     4   9  16  31  61  96 134 166 219 271 366 411
#
# _framework density 23.071245999999999
#
# number of rings (size 3 to 8) (size 9 to 14) (size 15 to 20)
#    0.000    1.714    5.714    0.857    2.000    0.000 
#    0.000    2.857   12.571    0.000    0.000    0.000 
#    0.000    0.000    0.000    0.000    0.000    0.000 
#
# Total GULP energy -78052.631801 kJ/mol
# GULP energy per Si atom -5575.187986 kJ/mol
# Density = 2.301873 g / cm^3
# Si number density = 23.071246 Si / 1000 Ang^3
#
#
#
# Elastic Constant Matrix: (Units=GPa)
#
#
# Indices 1 2 3 4 5 6 
#
# 1 131.0979 10.7846 12.4411 0.0000 11.4882 0.0000
# 2 10.7846 34.9805 25.6976 0.0000 1.7009 0.0000
# 3 12.4411 25.6976 39.8229 0.0000 4.5135 0.0000
# 4 0.0000 0.0000 0.0000 9.2578 0.0000 -8.8819
# 5 11.4882 1.7009 4.5135 0.0000 41.5209 0.0000
# 6 0.0000 0.0000 0.0000 -8.8819 0.0000 25.5457
#
#
#
# Elastic Compliance Matrix: (Units=1/GPa)
#
#
# Indices 1 2 3 4 5 6 
#
# 1 0.008050 -0.001339 -0.001422 0.000000 -0.002018 0.000000
# 2 -0.001339 0.054683 -0.035089 0.000000 0.001945 0.000000
# 3 -0.001422 -0.035089 0.048589 0.000000 -0.003451 0.000000
# 4 0.000000 0.000000 0.000000 0.162084 0.000000 0.056355
# 5 -0.002018 0.001945 -0.003451 0.000000 0.024938 0.000000
# 6 0.000000 0.000000 0.000000 0.056355 0.000000 0.058740
#
#
# Mechanical properties :
#
#
# Convention : Reuss Voigt Hill
#
# Bulk Modulus (GPa) = 28.07240 33.74979 30.91109
# Shear Modulus (GPa) = 11.24463 25.73007 18.48735
#
# Velocity S-wave (km/s) = 2.21008 3.34315 2.83382
# Velocity P-wave (km/s) = 4.32513 5.43714 4.91270
#
# Compressibility (1/GPa) = 0.03562218
#
# Stress axis : x y z
#
# Youngs Moduli (GPa) = 124.22646 18.28736 20.58072
#
# Poissons Ratio (x) = 0.02449 0.02927
# Poissons Ratio (y) = 0.16633 0.72215
# Poissons Ratio (z) = 0.17667 0.64168
#
# Static dielectric constant tensor:
#      x y z
#    x 1.941300 0.000000 0.034600 
#    y 0.000000 1.870620 0.000000 
#    z 0.034600 0.000000 1.896090 
# 
# From -- ./inp_files/10904.got.cif
#   From: 2010.05.17/outbox.cif.g08.bks.cpg/sg9_6_cif.got.tgz:10904.got - 2010.06.03 20:04:27.
