data_PCOD9133095
_publ_section_title
;
Structure prediction by ZEFSAII (Michael W. Deem and Ramdas Pophale) SiO2 
 PCOD9133095
Probable space group: C M
;
_chemical_formula_sum "Si O2"
_cell_formula_units_Z 24
_cell_length_a 13.329889
_cell_length_b 13.991092
_cell_length_c 9.614052
_cell_angle_alpha 90.000000
_cell_angle_beta 34.501450
_cell_angle_gamma 90.000000
_cell_volume 1015.613886
_symmetry_space_group_name_H-M "C M"
_symmetry_group_IT_number 8
_symmetry_cell_setting 'monoclinic'
loop_
_space_group_symop_operation_xyz
x,y,z
x,-y,z
1/2+x,1/2+y,z
1/2+x,1/2-y,z
loop_
_atom_site_type_symbol
_atom_site_label
_atom_site_fract_x
_atom_site_fract_y
_atom_site_fract_z
Si Si1 0.636400 0.607645 0.199890
Si Si2 0.017403 0.606667 0.888379
Si Si3 0.514323 0.749102 0.112068
Si Si4 0.452376 0.391848 0.686349
Si Si5 0.138653 0.307226 0.478126
Si Si6 0.560034 0.890700 0.271122
O O1 0.648531 0.500000 0.131211
O O2 0.626867 0.680557 0.083228
O O3 0.472452 0.612823 0.494595
O O4 0.567674 0.839326 0.410205
O O5 0.044776 0.500000 0.914450
O O6 0.090511 0.617019 0.650827
O O7 0.095949 0.689434 0.894640
O O8 0.806945 0.623236 0.104145
O O9 0.350136 0.694477 0.234568
O O10 0.441664 0.830284 0.300707
O O11 0.521177 0.500000 0.642933
O O12 0.555286 0.295791 0.614119
O O13 0.256165 0.387456 0.975832
O O14 0.506249 0.000000 0.346894
#
# Coordination Sequence:
#
# PCOD9133095 Si02
#       6
#     4   4   4   4   4   4
#     4  10  22  43  67  96 132 176 217 267 328 389
#     4  11  25  45  68  94 134 176 217 266 329 392
#     4  12  23  40  65 102 127 168 218 270 321 386
#     4  10  21  42  67  92 130 175 215 262 324 387
#     4  12  24  42  67  99 132 170 219 272 328 383
#     4  11  25  44  66  95 133 173 218 269 324 387
#
# _framework density 23.631029000000002
#
# number of rings (size 3 to 8) (size 9 to 14) (size 15 to 20)
#    0.000    1.000    3.333    3.000    2.333    3.333 
#    0.000    0.833    0.000    0.000    0.000    0.000 
#    0.000    0.000    0.000    0.000    0.000    0.000 
#
# Total GULP energy -67080.304771 kJ/mol
# GULP energy per Si atom -5590.025398 kJ/mol
# Density = 2.357724 g / cm^3
# Si number density = 23.631029 Si / 1000 Ang^3
#
#
#
# Elastic Constant Matrix: (Units=GPa)
#
#
# Indices 1 2 3 4 5 6 
#
# 1 43.4392 28.1513 2.8457 0.0000 19.4839 0.0000
# 2 28.1513 140.9168 10.5634 0.0000 6.7295 0.0000
# 3 2.8457 10.5634 65.1546 -0.0001 14.1898 0.0000
# 4 0.0000 0.0000 -0.0001 32.5506 0.0000 11.8772
# 5 19.4839 6.7295 14.1898 0.0000 33.0985 0.0000
# 6 0.0000 0.0000 0.0000 11.8772 0.0000 32.0306
#
#
#
# Elastic Compliance Matrix: (Units=1/GPa)
#
#
# Indices 1 2 3 4 5 6 
#
# 1 0.037066 -0.006663 0.004322 0.000000 -0.022317 0.000000
# 2 -0.006663 0.008415 -0.001715 0.000000 0.002947 0.000000
# 3 0.004322 -0.001715 0.017555 0.000000 -0.009721 0.000000
# 4 0.000000 0.000000 0.000000 0.035529 0.000000 -0.013174
# 5 -0.022317 0.002947 -0.009721 0.000000 0.046919 0.000000
# 6 0.000000 0.000000 0.000000 -0.013174 0.000000 0.036105
#
#
# Mechanical properties :
#
#
# Convention : Reuss Voigt Hill
#
# Bulk Modulus (GPa) = 18.20724 36.95902 27.58313
# Shear Modulus (GPa) = 24.03750 33.39927 28.71838
#
# Velocity S-wave (km/s) = 3.19282 3.76355 3.48987
# Velocity P-wave (km/s) = 4.61667 5.87876 5.28552
#
# Compressibility (1/GPa) = 0.05492322
#
# Stress axis : x y z
#
# Youngs Moduli (GPa) = 26.97919 118.83117 56.96516
#
# Poissons Ratio (x) = 0.79176 -0.24619
# Poissons Ratio (y) = 0.17976 0.09770
# Poissons Ratio (z) = -0.11660 0.20380
#
# Static dielectric constant tensor:
#      x y z
#    x 1.868160 0.000000 -0.049100 
#    y 0.000000 1.923640 0.000000 
#    z -0.049100 0.000000 1.935310 
# 
# From -- ./inp_files/24003.got.cif
#   From: 2010.05.17/outbox.cif.g08.bks.cpg/sg8_13_cif.got.tgz:24003.got - 2010.06.03 19:46:02.
