data_PCOD9133422
_publ_section_title
;
Structure prediction by ZEFSAII (Michael W. Deem and Ramdas Pophale) SiO2 
 PCOD9133422
Probable space group: C M
;
_chemical_formula_sum "Si O2"
_cell_formula_units_Z 30
_cell_length_a 8.752789
_cell_length_b 20.348981
_cell_length_c 7.850511
_cell_angle_alpha 90.000000
_cell_angle_beta 114.561728
_cell_angle_gamma 90.000000
_cell_volume 1271.734421
_symmetry_space_group_name_H-M "C M"
_symmetry_group_IT_number 8
_symmetry_cell_setting 'monoclinic'
loop_
_space_group_symop_operation_xyz
x,y,z
x,-y,z
1/2+x,1/2+y,z
1/2+x,1/2-y,z
loop_
_atom_site_type_symbol
_atom_site_label
_atom_site_fract_x
_atom_site_fract_y
_atom_site_fract_z
Si Si1 0.861240 0.160964 0.013390
Si Si2 0.293847 0.223405 0.482050
Si Si3 0.130279 0.880878 0.635357
Si Si4 0.897005 0.500000 0.762680
Si Si5 0.543754 0.157793 0.344859
Si Si6 0.145329 0.572772 0.100864
Si Si7 0.797241 0.923480 0.648200
Si Si8 0.583438 0.727808 0.882363
O O1 0.819412 0.109300 0.141618
O O2 0.844618 0.117970 0.835123
O O3 0.714101 0.213948 0.957018
O O4 0.023460 0.203610 0.040584
O O5 0.168228 0.168730 0.498822
O O6 0.391790 0.193931 0.366472
O O7 0.190796 0.288817 0.397591
O O8 0.430110 0.244505 0.692215
O O9 0.159382 0.833773 0.813950
O O10 0.940853 0.906647 0.575950
O O11 0.254827 0.941942 0.679137
O O12 0.041289 0.556245 0.882137
O O13 0.528487 0.119059 0.161972
O O14 0.616980 0.101620 0.503465
O O15 0.169332 0.500000 0.192383
O O16 0.797971 0.000000 0.684847
#
# Coordination Sequence:
#
# PCOD9133422 Si02
#       8
#     4   4   4   2   4   4   4   4
#     4  11  21  37  64  93 125 166 219 269 326 379
#     4  12  20  38  68  99 130 162 218 282 336 375
#     4  11  20  39  65 101 128 162 219 292 324 379
#     4  10  24  42  64  88 142 174 214 268 334 390
#     4  12  23  42  65  94 137 171 217 270 331 402
#     4  10  26  44  60  89 137 187 215 251 321 416
#     4  11  21  36  66  98 121 169 222 280 332 373
#     4  11  19  35  65 102 122 151 212 285 334 361
#
# _framework density 23.589829999999999
#
# number of rings (size 3 to 8) (size 9 to 14) (size 15 to 20)
#    0.400    0.533    7.333    1.600    0.000    1.067 
#    1.200    0.000    2.933    0.000    0.000    0.000 
#    0.000    0.000    0.000    0.000    0.000    0.000 
#
# Total GULP energy -83620.840104 kJ/mol
# GULP energy per Si atom -5574.722674 kJ/mol
# Density = 2.353614 g / cm^3
# Si number density = 23.589830 Si / 1000 Ang^3
#
#
#
# Elastic Constant Matrix: (Units=GPa)
#
#
# Indices 1 2 3 4 5 6 
#
# 1 100.6953 46.2027 22.9389 0.0000 -21.6892 0.0000
# 2 46.2027 154.3062 12.4699 0.0000 -5.7085 0.0000
# 3 22.9389 12.4699 43.0003 0.0000 -11.4294 0.0000
# 4 0.0000 0.0000 0.0000 25.9496 0.0000 3.6387
# 5 -21.6892 -5.7085 -11.4294 0.0000 32.0796 0.0000
# 6 0.0000 0.0000 0.0000 3.6387 0.0000 45.8959
#
#
#
# Elastic Compliance Matrix: (Units=1/GPa)
#
#
# Indices 1 2 3 4 5 6 
#
# 1 0.014213 -0.003614 -0.004585 0.000000 0.007333 0.000000
# 2 -0.003614 0.007564 -0.000616 0.000000 -0.001317 0.000000
# 3 -0.004585 -0.000616 0.027645 0.000000 0.006640 0.000000
# 4 0.000000 0.000000 0.000000 0.038969 0.000000 -0.003090
# 5 0.007333 -0.001317 0.006640 0.000000 0.038262 0.000000
# 6 0.000000 0.000000 0.000000 -0.003090 0.000000 0.022033
#
#
# Mechanical properties :
#
#
# Convention : Reuss Voigt Hill
#
# Bulk Modulus (GPa) = 31.45365 51.24720 41.35043
# Shear Modulus (GPa) = 28.26250 35.21105 31.73677
#
# Velocity S-wave (km/s) = 3.46508 3.86766 3.67189
# Velocity P-wave (km/s) = 5.41956 6.45883 5.96188
#
# Compressibility (1/GPa) = 0.03179281
#
# Stress axis : x y z
#
# Youngs Moduli (GPa) = 70.35760 132.20968 36.17295
#
# Poissons Ratio (x) = 0.47779 0.16585
# Poissons Ratio (y) = 0.25427 0.02227
# Poissons Ratio (z) = 0.32259 0.08138
#
# Static dielectric constant tensor:
#      x y z
#    x 1.923180 0.000000 -0.002260 
#    y 0.000000 1.852890 0.000000 
#    z -0.002260 0.000000 1.980200 
# 
# From -- ./inp_files/8743.got.cif
#   From: 2010.05.17/outbox.cif.g08.bks.cpg/sg8_5_cif.got.tgz:8743.got - 2010.06.03 19:46:02.
