data_PCOD9133706
_publ_section_title
;
Structure prediction by ZEFSAII (Michael W. Deem and Ramdas Pophale) SiO2 
 PCOD9133706
Probable space group: C M
;
_chemical_formula_sum "Si O2"
_cell_formula_units_Z 16
_cell_length_a 30.000000
_cell_length_b 9.000000
_cell_length_c 12.000000
_cell_angle_alpha 90.000000
_cell_angle_beta 150.000000
_cell_angle_gamma 90.000000
_cell_volume 1620.000000
_symmetry_space_group_name_H-M "C M"
_symmetry_group_IT_number 8
_symmetry_cell_setting 'monoclinic'
loop_
_space_group_symop_operation_xyz
x,y,z
x,-y,z
1/2+x,1/2+y,z
1/2+x,1/2-y,z
loop_
_atom_site_type_symbol
_atom_site_label
_atom_site_fract_x
_atom_site_fract_y
_atom_site_fract_z
Si Si1 0.461490 0.177571 0.459960
Si Si2 0.552312 0.178132 0.031029
Si Si3 0.293233 0.175949 0.940225
Si Si4 0.332249 0.321302 0.798715
Si Si5 0.526801 0.176998 0.231060
Si Si6 0.242343 0.320179 0.369151
Si Si7 0.606107 0.676616 0.624404
Si Si8 0.400245 0.678598 0.559706
O O1 0.552513 0.244528 0.607425
O O2 0.430102 0.248184 0.508423
O O3 0.468907 0.000000 0.488520
O O4 0.385862 0.209173 0.202746
O O5 0.567707 0.202390 0.196448
O O6 0.639515 0.224632 0.150412
O O7 0.537257 0.000000 0.984685
O O8 0.469254 0.268653 0.804268
O O9 0.283301 0.269230 0.805542
O O10 0.212002 0.203649 0.849126
O O11 0.291982 0.000000 0.909378
O O12 0.342452 0.500000 0.821889
O O13 0.284728 0.277796 0.580335
O O14 0.426805 0.239097 0.007145
O O15 0.572098 0.260045 0.432170
O O16 0.527103 0.000000 0.253014
O O17 0.242800 0.500000 0.368849
O O18 0.303687 0.272396 0.398783
O O19 0.589928 0.500000 0.594509
O O20 0.401441 0.500000 0.551820
#
# Coordination Sequence:
#
# PCOD9133706 Si02
#       8
#     4   4   4   4   4   4   4   4
#     4  11  24  43  63  85 118 159 202 249 302 360
#     4  10  21  39  62  88 121 160 199 240 294 360
#     4  10  23  41  61  89 125 156 195 248 300 357
#     4  11  20  35  62  91 123 161 199 240 297 361
#     4  11  21  35  59  91 127 162 198 243 299 358
#     4   9  20  38  60  88 121 156 196 242 292 354
#     4  11  23  40  63  92 123 158 199 247 301 359
#     4  11  23  41  62  86 118 154 202 255 299 349
#
# _framework density 9.8765429999999999
#
# number of rings (size 3 to 8) (size 9 to 14) (size 15 to 20)
#    0.000    1.500    2.500    2.625    0.000    4.000 
#    0.000    5.000    0.000    0.000    0.000    0.000 
#    0.000    0.000    0.000    0.000    0.000    0.000 
#
# Total GULP energy -89405.389042 kJ/mol
# GULP energy per Si atom -5587.836815 kJ/mol
# Density = 0.985406 g / cm^3
# Si number density = 9.876543 Si / 1000 Ang^3
#
#
#
# Elastic Constant Matrix: (Units=GPa)
#
#
# Indices 1 2 3 4 5 6 
#
# 1 145.3222 41.6456 5.2792 0.0000 15.7590 0.0000
# 2 41.6456 59.1141 4.6238 0.0000 3.2658 0.0000
# 3 5.2792 4.6238 13.5501 0.0000 16.6172 0.0000
# 4 0.0000 0.0000 0.0000 24.6796 0.0000 -4.2837
# 5 15.7590 3.2658 16.6172 0.0000 37.2565 0.0000
# 6 0.0000 0.0000 0.0000 -4.2837 0.0000 36.6894
#
#
#
# Elastic Compliance Matrix: (Units=1/GPa)
#
#
# Indices 1 2 3 4 5 6 
#
# 1 0.009214 -0.006632 0.006048 0.000000 -0.006014 0.000000
# 2 -0.006632 0.022258 -0.013375 0.000000 0.006820 0.000000
# 3 0.006048 -0.013375 0.171532 0.000000 -0.077893 0.000000
# 4 0.000000 0.000000 0.000000 0.041357 0.000000 0.004829
# 5 -0.006014 0.006820 -0.077893 0.000000 0.063529 0.000000
# 6 0.000000 0.000000 0.000000 0.004829 0.000000 0.027820
#
#
# Mechanical properties :
#
#
# Convention : Reuss Voigt Hill
#
# Bulk Modulus (GPa) = 5.71146 35.67597 20.69371
# Shear Modulus (GPa) = 11.84863 30.82094 21.33479
#
# Velocity S-wave (km/s) = 2.45181 3.95436 3.29001
# Velocity P-wave (km/s) = 3.30347 6.24095 4.99311
#
# Compressibility (1/GPa) = 0.17508661
#
# Stress axis : x y z
#
# Youngs Moduli (GPa) = 108.52634 44.92707 5.82983
#
# Poissons Ratio (x) = 0.29797 -0.03526
# Poissons Ratio (y) = 0.71978 0.07797
# Poissons Ratio (z) = -0.65641 0.60090
#
# Static dielectric constant tensor:
#      x y z
#    x 1.710120 0.000000 0.030810 
#    y 0.000000 1.656480 0.000000 
#    z 0.030810 0.000000 1.696030 
# 
# From -- ./inp_files/21530.got.cif
#   From: 2010.05.17/outbox.ucp.g08.bks.cvg/sg8_11_cif.got.tgz:21530.got - 2010.06.11 13:00:03.
