data_PCOD9133702
_publ_section_title
;
Structure prediction by ZEFSAII (Michael W. Deem and Ramdas Pophale) SiO2 
 PCOD9133702
Probable space group: C M
;
_chemical_formula_sum "Si O2"
_cell_formula_units_Z 16
_cell_length_a 24.000000
_cell_length_b 9.000000
_cell_length_c 24.000000
_cell_angle_alpha 90.000000
_cell_angle_beta 160.000000
_cell_angle_gamma 90.000000
_cell_volume 1773.032423
_symmetry_space_group_name_H-M "C M"
_symmetry_group_IT_number 8
_symmetry_cell_setting 'monoclinic'
loop_
_space_group_symop_operation_xyz
x,y,z
x,-y,z
1/2+x,1/2+y,z
1/2+x,1/2-y,z
loop_
_atom_site_type_symbol
_atom_site_label
_atom_site_fract_x
_atom_site_fract_y
_atom_site_fract_z
Si Si1 0.019790 0.178851 0.373560
Si Si2 0.424066 0.678670 0.911026
Si Si3 0.544407 0.176481 0.517513
Si Si4 0.377172 0.680097 0.674575
Si Si5 0.818810 0.680048 0.413168
Si Si6 0.453651 0.180193 0.061632
Si Si7 0.573615 0.678091 0.741152
Si Si8 0.629265 0.180639 0.002619
O O1 0.024454 0.229690 0.442458
O O2 0.188135 0.253220 0.503673
O O3 0.036513 0.000000 0.383147
O O4 0.825181 0.215369 0.174978
O O5 0.453170 0.500000 0.942172
O O6 0.233323 0.698858 0.714163
O O7 0.439013 0.756857 0.985108
O O8 0.554008 0.750048 0.989432
O O9 0.407674 0.212214 0.436472
O O10 0.527207 0.000000 0.489091
O O11 0.364738 0.500000 0.671416
O O12 0.477400 0.703719 0.710061
O O13 0.500923 0.753392 0.836311
O O14 0.803044 0.500000 0.402642
O O15 0.955839 0.739419 0.585764
O O16 0.635493 0.752039 0.250102
O O17 0.272163 0.217139 0.920812
O O18 0.466510 0.000000 0.075811
O O19 0.568253 0.500000 0.726101
O O20 0.617881 0.000000 0.993673
#
# Coordination Sequence:
#
# PCOD9133702 Si02
#       8
#     4   4   4   4   4   4   4   4
#     4  11  24  40  62  92 125 159 199 248 304 362
#     4  11  21  37  62  93 126 160 200 245 301 362
#     4  10  21  37  60  91 125 161 198 241 299 362
#     4  11  24  43  65  88 117 160 208 254 302 355
#     4  11  23  40  64  93 125 160 201 248 302 360
#     4  11  23  40  63  92 126 162 201 247 302 360
#     4  10  24  44  64  87 119 160 207 254 301 356
#     4  11  24  41  62  92 125 160 200 247 305 363
#
# _framework density 9.0240880000000008
#
# number of rings (size 3 to 8) (size 9 to 14) (size 15 to 20)
#    0.000    1.250    2.500    3.000    0.000    8.000 
#    0.000    3.750    0.000    0.000    0.000    0.000 
#    0.000    0.000    0.000    0.000    0.000    0.000 
#
# Total GULP energy -89109.278855 kJ/mol
# GULP energy per Si atom -5569.329928 kJ/mol
# Density = 0.900355 g / cm^3
# Si number density = 9.024088 Si / 1000 Ang^3
#
#
#
# Elastic Constant Matrix: (Units=GPa)
#
#
# Indices 1 2 3 4 5 6 
#
# 1 125.2889 39.4775 47.8156 0.0003 31.8844 0.0002
# 2 39.4775 98.2559 49.7074 -0.0010 13.7750 -0.0005
# 3 47.8156 49.7074 157.0340 -0.0021 39.0095 -0.0009
# 4 0.0003 -0.0010 -0.0021 44.9137 -0.0008 6.6969
# 5 31.8844 13.7750 39.0095 -0.0008 44.0087 -0.0004
# 6 0.0002 -0.0005 -0.0009 6.6969 -0.0004 34.1519
#
#
#
# Elastic Compliance Matrix: (Units=1/GPa)
#
#
# Indices 1 2 3 4 5 6 
#
# 1 0.010827 -0.003087 -0.000784 0.000000 -0.006183 0.000000
# 2 -0.003087 0.013007 -0.003490 0.000000 0.001259 0.000000
# 3 -0.000784 -0.003490 0.009360 0.000000 -0.006637 0.000000
# 4 0.000000 0.000000 0.000000 0.022936 0.000000 -0.004497
# 5 -0.006183 0.001259 -0.006637 0.000000 0.032691 0.000000
# 6 0.000000 0.000000 0.000000 -0.004497 0.000000 0.030163
#
#
# Mechanical properties :
#
#
# Convention : Reuss Voigt Hill
#
# Bulk Modulus (GPa) = 54.13286 72.73109 63.43198
# Shear Modulus (GPa) = 35.74964 40.85340 38.30152
#
# Velocity S-wave (km/s) = 4.45543 4.76287 4.61171
# Velocity P-wave (km/s) = 7.51841 8.40430 7.97367
#
# Compressibility (1/GPa) = 0.01847307
#
# Stress axis : x y z
#
# Youngs Moduli (GPa) = 92.36367 76.88292 106.83785
#
# Poissons Ratio (x) = 0.23732 0.08372
# Poissons Ratio (y) = 0.28510 0.37286
# Poissons Ratio (z) = 0.07237 0.26832
#
# Static dielectric constant tensor:
#      x y z
#    x 1.643580 0.000000 -0.001350 
#    y 0.000000 1.614480 0.000000 
#    z -0.001350 0.000000 1.659880 
# 
# From -- ./inp_files/32446.got.cif
#   From: 2010.05.17/outbox.ucp.g08.bks.cvg/sg8_17_cif.got.tgz:32446.got - 2010.06.11 13:00:03.
