data_PCOD9133286
_publ_section_title
;
Structure prediction by ZEFSAII (Michael W. Deem and Ramdas Pophale) SiO2 
 PCOD9133286
Probable space group: C M
;
_chemical_formula_sum "Si O2"
_cell_formula_units_Z 28
_cell_length_a 17.867389
_cell_length_b 15.734132
_cell_length_c 5.389605
_cell_angle_alpha 90.000000
_cell_angle_beta 59.881534
_cell_angle_gamma 90.000000
_cell_volume 1310.604868
_symmetry_space_group_name_H-M "C M"
_symmetry_group_IT_number 8
_symmetry_cell_setting 'monoclinic'
loop_
_space_group_symop_operation_xyz
x,y,z
x,-y,z
1/2+x,1/2+y,z
1/2+x,1/2-y,z
loop_
_atom_site_type_symbol
_atom_site_label
_atom_site_fract_x
_atom_site_fract_y
_atom_site_fract_z
Si Si1 0.945540 0.833507 0.462990
Si Si2 0.237241 0.714679 0.445400
Si Si3 0.643203 0.904803 0.938418
Si Si4 0.812910 0.317807 0.700207
Si Si5 0.007002 0.500000 0.893563
Si Si6 0.369609 0.596844 0.068984
Si Si7 0.628146 0.260833 0.241617
Si Si8 0.895843 0.500000 0.583033
O O1 0.892339 0.746849 0.619671
O O2 0.915380 0.867536 0.243346
O O3 0.047186 0.815218 0.296106
O O4 0.924723 0.895359 0.727126
O O5 0.222792 0.644133 0.681620
O O6 0.293306 0.793125 0.446358
O O7 0.286883 0.657671 0.164064
O O8 0.147406 0.752219 0.501038
O O9 0.571340 0.921533 0.845407
O O10 0.662750 0.000000 0.001557
O O11 0.609808 0.835646 0.185014
O O12 0.840914 0.413756 0.696108
O O13 0.720094 0.296590 0.983249
O O14 0.964651 0.500000 0.695461
O O15 0.940822 0.500000 0.236542
O O16 0.343805 0.500000 0.154619
#
# Coordination Sequence:
#
# PCOD9133286 Si02
#       8
#     4   4   4   4   2   4   4   2
#     4  11  25  43  72  97 140 177 224 282 340 401
#     4  10  22  42  68  97 139 174 224 288 351 403
#     4   9  22  37  62 107 133 169 220 283 350 417
#     4  10  25  45  65 101 135 185 229 278 345 400
#     4  10  26  40  66 108 134 171 226 289 346 410
#     4  11  24  46  69 101 133 179 226 282 334 406
#     4  11  23  43  69  96 136 182 226 283 345 404
#     4  12  26  46  70  94 144 185 230 283 330 418
#
# _framework density 21.364183000000001
#
# number of rings (size 3 to 8) (size 9 to 14) (size 15 to 20)
#    0.429    1.143    1.429    1.714   10.000    1.143 
#    2.571    0.000    0.000    0.000    0.000    0.000 
#    0.000    0.000    0.000    0.000    0.000    0.000 
#
# Total GULP energy -78033.026783 kJ/mol
# GULP energy per Si atom -5573.787627 kJ/mol
# Density = 2.131556 g / cm^3
# Si number density = 21.364183 Si / 1000 Ang^3
#
#
#
# Elastic Constant Matrix: (Units=GPa)
#
#
# Indices 1 2 3 4 5 6 
#
# 1 104.7799 45.3454 10.2802 0.0000 -2.2576 0.0000
# 2 45.3454 110.6941 5.7593 0.0000 7.3167 0.0000
# 3 10.2802 5.7593 54.2108 0.0000 0.4329 0.0000
# 4 0.0000 0.0000 0.0000 18.5773 0.0000 1.4881
# 5 -2.2576 7.3167 0.4329 0.0000 30.8843 0.0000
# 6 0.0000 0.0000 0.0000 1.4881 0.0000 23.9371
#
#
#
# Elastic Compliance Matrix: (Units=1/GPa)
#
#
# Indices 1 2 3 4 5 6 
#
# 1 0.011886 -0.004914 -0.001748 0.000000 0.002058 0.000000
# 2 -0.004914 0.011259 -0.000240 0.000000 -0.003023 0.000000
# 3 -0.001748 -0.000240 0.018806 0.000000 -0.000334 0.000000
# 4 0.000000 0.000000 0.000000 0.054099 0.000000 -0.003363
# 5 0.002058 -0.003023 -0.000334 0.000000 0.033250 0.000000
# 6 0.000000 0.000000 0.000000 -0.003363 0.000000 0.041985
#
#
# Mechanical properties :
#
#
# Convention : Reuss Voigt Hill
#
# Bulk Modulus (GPa) = 35.52850 43.60605 39.56727
# Shear Modulus (GPa) = 25.71041 28.56642 27.13842
#
# Velocity S-wave (km/s) = 3.47282 3.66063 3.56796
# Velocity P-wave (km/s) = 5.72247 6.19048 5.96107
#
# Compressibility (1/GPa) = 0.02814642
#
# Stress axis : x y z
#
# Youngs Moduli (GPa) = 84.12961 88.81524 53.17380
#
# Poissons Ratio (x) = 0.43646 0.09297
# Poissons Ratio (y) = 0.41343 0.01277
# Poissons Ratio (z) = 0.14709 0.02133
#
# Static dielectric constant tensor:
#      x y z
#    x 1.802340 0.000000 0.044500 
#    y 0.000000 1.720820 0.000000 
#    z 0.044500 0.000000 1.910020 
# 
# From -- ./inp_files/4947.got.cif
#   From: 2010.05.17/outbox.cif.g08.bks.cpg/sg8_3_cif.got.tgz:4947.got - 2010.06.03 19:46:02.
