data_PCOD9133784
_publ_section_title
;
Structure prediction by ZEFSAII (Michael W. Deem and Ramdas Pophale) SiO2 
 PCOD9133784
Probable space group: C C
;
_chemical_formula_sum "Si O2"
_cell_formula_units_Z 28
_cell_length_a 7.497096
_cell_length_b 31.580247
_cell_length_c 7.825653
_cell_angle_alpha 90.000000
_cell_angle_beta 42.282317
_cell_angle_gamma 90.000000
_cell_volume 1246.536422
_symmetry_space_group_name_H-M "C C"
_symmetry_group_IT_number 9
_symmetry_cell_setting 'monoclinic'
loop_
_space_group_symop_operation_xyz
x,y,z
x,-y,1/2+z
1/2+x,1/2+y,z
1/2+x,1/2-y,1/2+z
loop_
_atom_site_type_symbol
_atom_site_label
_atom_site_fract_x
_atom_site_fract_y
_atom_site_fract_z
Si Si1 0.224110 0.730981 0.782300
Si Si2 0.938327 0.638707 0.386263
Si Si3 0.627061 0.486184 0.582125
Si Si4 0.009054 0.264949 0.929214
Si Si5 0.799753 0.863299 0.291997
Si Si6 0.341340 0.550181 0.571093
Si Si7 0.406801 0.948357 0.097415
O O1 0.435893 0.748507 0.498605
O O2 0.365193 0.742980 0.865248
O O3 0.201641 0.680751 0.782760
O O4 0.022446 0.684642 0.395923
O O5 0.618803 0.641808 0.587786
O O6 0.965917 0.598261 0.489094
O O7 0.121546 0.631027 0.089021
O O8 0.394927 0.518603 0.689115
O O9 0.651529 0.455677 0.400391
O O10 0.853034 0.520049 0.478704
O O11 0.599672 0.456460 0.767874
O O12 0.303077 0.246214 0.723569
O O13 0.776971 0.904161 0.189614
O O14 0.124206 0.539880 0.583283
#
# Coordination Sequence:
#
# PCOD9133784 Si02
#       7
#     4   4   4   4   4   4   4
#     4  10  16  32  57  93 126 169 220 258 315 393
#     4  12  23  38  65 102 133 170 222 274 327 389
#     4  10  24  48  66  94 126 178 222 272 334 404
#     4  10  16  32  57  93 126 169 220 258 315 393
#     4  12  23  38  65 102 133 170 222 274 327 389
#     4  11  25  42  68  95 132 171 223 274 333 397
#     4  11  25  42  68  95 132 171 223 274 333 397
#
# _framework density 22.462240999999999
#
# number of rings (size 3 to 8) (size 9 to 14) (size 15 to 20)
#    0.000    1.143    7.143    0.857    4.000    1.143 
#    0.000    0.000    0.000    1.714    0.000    0.000 
#    0.000    0.000    0.000    0.000    0.000    0.000 
#
# Total GULP energy -78052.418499 kJ/mol
# GULP energy per Si atom -5575.172750 kJ/mol
# Density = 2.241112 g / cm^3
# Si number density = 22.462241 Si / 1000 Ang^3
#
#
#
# Elastic Constant Matrix: (Units=GPa)
#
#
# Indices 1 2 3 4 5 6 
#
# 1 72.9228 43.7920 37.2912 0.0000 4.6915 0.0000
# 2 43.7920 195.4797 96.7100 0.0000 23.1156 0.0000
# 3 37.2912 96.7100 136.3604 0.0000 -2.6582 0.0000
# 4 0.0000 0.0000 0.0000 45.1906 0.0000 6.2439
# 5 4.6915 23.1156 -2.6582 0.0000 27.3677 0.0000
# 6 0.0000 0.0000 0.0000 6.2439 0.0000 -8.0546
#
#
#
# Elastic Compliance Matrix: (Units=1/GPa)
#
#
# Indices 1 2 3 4 5 6 
#
# 1 0.016618 -0.001979 -0.003170 0.000000 -0.001485 0.000000
# 2 -0.001979 0.009850 -0.006613 0.000000 -0.008623 0.000000
# 3 -0.003170 -0.006613 0.013035 0.000000 0.007395 0.000000
# 4 0.000000 0.000000 0.000000 0.019988 0.000000 0.015494
# 5 -0.001485 -0.008623 0.007395 0.000000 0.044796 0.000000
# 6 0.000000 0.000000 0.000000 0.015494 0.000000 -0.112141
#
#
# Mechanical properties :
#
#
# Convention : Reuss Voigt Hill
#
# Bulk Modulus (GPa) = 62.58141 84.48326 73.53234
# Shear Modulus (GPa) = 238.14294 28.03205 133.08749
#
# Velocity S-wave (km/s) = 10.30773 3.53648 7.70572
# Velocity P-wave (km/s) = 13.02256 7.37350 10.58196
#
# Compressibility (1/GPa) = 0.01597919
#
# Stress axis : x y z
#
# Youngs Moduli (GPa) = 60.17502 101.52059 76.71836
#
# Poissons Ratio (x) = 0.20089 0.24321
# Poissons Ratio (y) = 0.11908 0.50733
# Poissons Ratio (z) = 0.19077 0.67135
#
# Static dielectric constant tensor:
#      x y z
#    x 1.852160 0.000000 -0.082480 
#    y 0.000000 1.774670 0.000000 
#    z -0.082480 0.000000 2.255550 
# 
# From -- ./inp_files/1341.got.cif
#   From: 2010.05.17/outbox.cif.g08.bks.cpg/sg9_1_cif.got.tgz:1341.got - 2010.06.03 20:04:27.
