data_PCOD9133302
_publ_section_title
;
Structure prediction by ZEFSAII (Michael W. Deem and Ramdas Pophale) SiO2 
 PCOD9133302
Probable space group: C M
;
_chemical_formula_sum "Si O2"
_cell_formula_units_Z 22
_cell_length_a 21.966588
_cell_length_b 10.107208
_cell_length_c 14.185058
_cell_angle_alpha 90.000000
_cell_angle_beta 162.152712
_cell_angle_gamma 90.000000
_cell_volume 965.224890
_symmetry_space_group_name_H-M "C M"
_symmetry_group_IT_number 8
_symmetry_cell_setting 'monoclinic'
loop_
_space_group_symop_operation_xyz
x,y,z
x,-y,z
1/2+x,1/2+y,z
1/2+x,1/2-y,z
loop_
_atom_site_type_symbol
_atom_site_label
_atom_site_fract_x
_atom_site_fract_y
_atom_site_fract_z
Si Si1 0.630551 0.000000 0.015160
Si Si2 0.708019 0.156519 0.814975
Si Si3 0.061312 0.000000 0.893635
Si Si4 0.266126 0.761104 0.109761
Si Si5 0.689430 0.500000 0.282325
Si Si6 0.353738 0.714235 0.829166
Si Si7 0.663391 0.000000 0.433577
Si Si8 0.943093 0.500000 0.924209
O O1 0.726719 0.130005 0.112855
O O2 0.627715 0.000000 0.124118
O O3 0.397355 0.000000 0.641813
O O4 0.476951 0.178840 0.449981
O O5 0.821716 0.217183 0.893207
O O6 0.752017 0.000000 0.884245
O O7 0.758503 0.221943 0.989122
O O8 0.099420 0.130538 0.889473
O O9 0.855974 0.000000 0.648109
O O10 0.219320 0.000000 0.213785
O O11 0.556756 0.630475 0.110041
O O12 0.184939 0.624685 0.532806
O O13 0.345319 0.856921 0.767883
O O14 0.489774 0.000000 0.103934
#
# Coordination Sequence:
#
# PCOD9133302 Si02
#       8
#     2   4   2   4   2   4   2   2
#     4  12  26  43  69 115 147 178 248 291 365 431
#     4  12  26  51  72 105 149 195 243 295 361 436
#     4  10  22  43  67 101 137 182 236 285 348 425
#     4  12  27  44  77 103 146 199 233 296 358 433
#     4  10  22  46  77  96 147 197 227 303 371 419
#     4  10  25  47  74 101 138 190 236 295 363 415
#     4  10  24  46  69  95 143 184 224 291 364 409
#     4  12  28  40  72 111 132 179 235 304 344 422
#
# _framework density 22.792615999999999
#
# number of rings (size 3 to 8) (size 9 to 14) (size 15 to 20)
#    0.000    1.091    3.636    3.273   10.182    1.455 
#    0.000    0.000    0.000    0.000    0.000    0.000 
#    0.000    0.000    0.000    0.000    0.000    0.000 
#
# Total GULP energy -61556.142324 kJ/mol
# GULP energy per Si atom -5596.012939 kJ/mol
# Density = 2.274074 g / cm^3
# Si number density = 22.792616 Si / 1000 Ang^3
#
#
#
# Elastic Constant Matrix: (Units=GPa)
#
#
# Indices 1 2 3 4 5 6 
#
# 1 163.1342 59.4544 -9.2526 0.0000 -19.1312 0.0000
# 2 59.4544 161.9752 -15.3156 0.0000 8.5713 0.0000
# 3 -9.2526 -15.3156 34.7084 0.0000 -11.2131 0.0000
# 4 0.0000 0.0000 0.0000 17.9473 0.0000 -5.4481
# 5 -19.1312 8.5713 -11.2131 0.0000 35.7767 0.0000
# 6 0.0000 0.0000 0.0000 -5.4481 0.0000 26.6468
#
#
#
# Elastic Compliance Matrix: (Units=1/GPa)
#
#
# Indices 1 2 3 4 5 6 
#
# 1 0.008076 -0.003019 0.002726 0.000000 0.005896 0.000000
# 2 -0.003019 0.007588 0.001596 0.000000 -0.002932 0.000000
# 3 0.002726 0.001596 0.034036 0.000000 0.011743 0.000000
# 4 0.000000 0.000000 0.000000 0.059406 0.000000 0.012146
# 5 0.005896 -0.002932 0.011743 0.000000 0.035487 0.000000
# 6 0.000000 0.000000 0.000000 0.012146 0.000000 0.040011
#
#
# Mechanical properties :
#
#
# Convention : Reuss Voigt Hill
#
# Bulk Modulus (GPa) = 19.11785 47.73225 33.42505
# Shear Modulus (GPa) = 25.07111 37.73625 31.40368
#
# Velocity S-wave (km/s) = 3.32017 4.07336 3.71590
# Velocity P-wave (km/s) = 4.80666 6.56586 5.75389
#
# Compressibility (1/GPa) = 0.05230714
#
# Stress axis : x y z
#
# Youngs Moduli (GPa) = 123.82151 131.78857 29.38048
#
# Poissons Ratio (x) = 0.39783 -0.08008
# Poissons Ratio (y) = 0.37378 -0.04690
# Poissons Ratio (z) = -0.33750 -0.21039
#
# Static dielectric constant tensor:
#      x y z
#    x 1.824400 0.000000 -0.002180 
#    y 0.000000 1.844550 0.000000 
#    z -0.002180 0.000000 1.885310 
# 
# From -- ./inp_files/28173.got.cif
#   From: 2010.05.17/outbox.cif.g08.bks.cpg/sg8_15_cif.got.tgz:28173.got - 2010.06.03 19:46:02.
