data_PCOD9133645
_publ_section_title
;
Structure prediction by ZEFSAII (Michael W. Deem and Ramdas Pophale) SiO2 
 PCOD9133645
Probable space group: C M
;
_chemical_formula_sum "Si O2"
_cell_formula_units_Z 16
_cell_length_a 15.000000
_cell_length_b 24.000000
_cell_length_c 9.000000
_cell_angle_alpha 90.000000
_cell_angle_beta 30.000000
_cell_angle_gamma 90.000000
_cell_volume 1620.000000
_symmetry_space_group_name_H-M "C M"
_symmetry_group_IT_number 8
_symmetry_cell_setting 'monoclinic'
loop_
_space_group_symop_operation_xyz
x,y,z
x,-y,z
1/2+x,1/2+y,z
1/2+x,1/2-y,z
loop_
_atom_site_type_symbol
_atom_site_label
_atom_site_fract_x
_atom_site_fract_y
_atom_site_fract_z
Si Si1 0.022370 0.267555 0.323470
Si Si2 0.037028 0.933861 0.685494
Si Si3 0.206992 0.734307 0.548085
Si Si4 0.969322 0.168387 0.973447
Si Si5 0.165936 0.339641 0.868381
Si Si6 0.405858 0.937912 0.333616
Si Si7 0.774570 0.364197 0.772895
Si Si8 0.558064 0.643394 0.362438
O O1 0.079376 0.211849 0.329030
O O2 0.874446 0.251894 0.411191
O O3 0.922583 0.315301 0.560797
O O4 0.168732 0.297872 0.007595
O O5 0.230566 0.936919 0.483977
O O6 0.052976 0.896544 0.512974
O O7 0.930972 0.890604 0.948190
O O8 0.979087 0.000000 0.752350
O O9 0.105585 0.692645 0.807583
O O10 0.083045 0.788523 0.705494
O O11 0.295222 0.700807 0.285020
O O12 0.106277 0.157031 0.914063
O O13 0.364294 0.362476 0.565864
O O14 0.036274 0.390038 0.089758
O O15 0.348726 0.917498 0.579407
O O16 0.481628 0.000000 0.224204
O O17 0.707532 0.376601 0.032857
#
# Coordination Sequence:
#
# PCOD9133645 Si02
#       8
#     4   4   4   4   4   4   4   4
#     4   9  16  31  51  84 121 144 166 223 294 338
#     4  10  24  41  54  75 119 160 188 228 284 336
#     4  10  16  29  56  89 115 135 179 230 284 335
#     4  10  18  34  56  84 111 150 181 230 281 339
#     4  10  18  32  60  90 112 139 182 245 280 326
#     4   9  20  39  58  76 107 155 197 228 277 338
#     4   9  17  31  58  82 111 144 190 227 275 339
#     4  11  19  33  57  86 110 145 185 231 283 327
#
# _framework density 9.8765429999999999
#
# number of rings (size 3 to 8) (size 9 to 14) (size 15 to 20)
#    0.000    2.250    3.750    2.250    0.000    1.000 
#    4.500    0.625    2.750    0.000    0.000    0.000 
#    0.000    0.000    0.000    0.000    0.000    0.000 
#
# Total GULP energy -89188.460748 kJ/mol
# GULP energy per Si atom -5574.278797 kJ/mol
# Density = 0.985406 g / cm^3
# Si number density = 9.876543 Si / 1000 Ang^3
#
#
#
# Elastic Constant Matrix: (Units=GPa)
#
#
# Indices 1 2 3 4 5 6 
#
# 1 25.0176 26.3745 3.6371 0.0000 16.0939 -0.0001
# 2 26.3745 148.4885 34.3167 0.0000 13.5433 0.0000
# 3 3.6371 34.3167 73.0888 0.0001 19.2484 -0.0001
# 4 0.0000 0.0000 0.0001 18.3443 0.0000 0.7188
# 5 16.0939 13.5433 19.2484 0.0000 16.1034 0.0001
# 6 -0.0001 0.0000 -0.0001 0.7188 0.0001 26.8200
#
#
#
# Elastic Compliance Matrix: (Units=1/GPa)
#
#
# Indices 1 2 3 4 5 6 
#
# 1 0.686777 -0.097259 0.249133 -0.000002 -0.902360 0.000007
# 2 -0.097259 0.021434 -0.038054 0.000000 0.124661 -0.000001
# 3 0.249133 -0.038054 0.111346 -0.000001 -0.350072 0.000003
# 4 -0.000002 0.000000 -0.000001 0.054570 0.000002 -0.001462
# 5 -0.902360 0.124661 -0.350072 0.000002 1.277521 -0.000010
# 6 0.000007 -0.000001 0.000003 -0.001462 -0.000010 0.037325
#
#
# Mechanical properties :
#
#
# Convention : Reuss Voigt Hill
#
# Bulk Modulus (GPa) = 0.95493 41.69460 21.32477
# Shear Modulus (GPa) = 2.16413 24.40464 13.28438
#
# Velocity S-wave (km/s) = 1.04784 3.51876 2.59612
# Velocity P-wave (km/s) = 1.39587 6.13699 4.45034
#
# Compressibility (1/GPa) = 1.04719527
#
# Stress axis : x y z
#
# Youngs Moduli (GPa) = 1.45608 46.65422 8.98102
#
# Poissons Ratio (x) = 4.53756 -2.23747
# Poissons Ratio (y) = 0.14162 0.34177
# Poissons Ratio (z) = -0.36276 1.77540
#
# Static dielectric constant tensor:
#      x y z
#    x 1.710130 0.000000 0.019400 
#    y 0.000000 1.712630 0.000000 
#    z 0.019400 0.000000 1.754920 
# 
# From -- ./inp_files/13825.got.cif
#   From: 2010.05.17/outbox.ucp.g08.bks.cvg/sg8_7_cif.got.tgz:13825.got - 2010.06.11 13:00:03.
