data_PCOD9133512
_publ_section_title
;
Structure prediction by ZEFSAII (Michael W. Deem and Ramdas Pophale) SiO2 
 PCOD9133512
Probable space group: C M
;
_chemical_formula_sum "Si O2"
_cell_formula_units_Z 26
_cell_length_a 20.171069
_cell_length_b 7.293857
_cell_length_c 9.559739
_cell_angle_alpha 90.000000
_cell_angle_beta 41.307236
_cell_angle_gamma 90.000000
_cell_volume 928.409663
_symmetry_space_group_name_H-M "C M"
_symmetry_group_IT_number 8
_symmetry_cell_setting 'monoclinic'
loop_
_space_group_symop_operation_xyz
x,y,z
x,-y,z
1/2+x,1/2+y,z
1/2+x,1/2-y,z
loop_
_atom_site_type_symbol
_atom_site_label
_atom_site_fract_x
_atom_site_fract_y
_atom_site_fract_z
Si Si1 0.697150 0.220411 0.025540
Si Si2 0.607886 0.224282 0.892529
Si Si3 0.301968 0.719488 0.121452
Si Si4 0.090628 0.279193 0.605845
Si Si5 0.350102 0.500000 0.536089
Si Si6 0.477980 0.781469 0.519947
Si Si7 0.884563 0.294252 0.277125
O O1 0.782796 0.289232 0.994793
O O2 0.588646 0.242243 0.271811
O O3 0.713527 0.000000 0.983286
O O4 0.683969 0.291418 0.890221
O O5 0.602909 0.292240 0.742710
O O6 0.613333 0.000000 0.882402
O O7 0.497682 0.268663 0.128741
O O8 0.312503 0.500000 0.099666
O O9 0.195102 0.761853 0.364291
O O10 0.377271 0.790045 0.119575
O O11 0.081706 0.500000 0.626639
O O12 0.000440 0.221133 0.645681
O O13 0.399060 0.660264 0.560837
O O14 0.316956 0.655943 0.469491
O O15 0.458189 0.000000 0.545246
O O16 0.868637 0.500000 0.348171
#
# Coordination Sequence:
#
# PCOD9133512 Si02
#       7
#     4   4   4   4   2   4   4
#     4   8  14  28  53  78 107 141 182 221 264 322
#     4   9  16  31  57  85 110 145 182 226 279 323
#     4   9  17  33  54  77 110 149 186 224 274 326
#     4   8  16  32  58  83 113 144 180 228 278 326
#     4  12  20  32  56  82 112 142 188 230 268 326
#     4   9  17  32  53  82 107 140 183 230 270 319
#     4  11  22  35  55  83 114 147 183 228 277 326
#
# _framework density 28.00488
#
# number of rings (size 3 to 8) (size 9 to 14) (size 15 to 20)
#    0.000    2.769    2.308    2.308    0.000    0.000 
#    5.538    0.769    3.385    0.000    0.000    0.000 
#    0.000    0.000    0.000    0.000    0.000    0.000 
#
# Total GULP energy -72583.839405 kJ/mol
# GULP energy per Si atom -5583.372262 kJ/mol
# Density = 2.794114 g / cm^3
# Si number density = 28.004880 Si / 1000 Ang^3
#
#
#
# Elastic Constant Matrix: (Units=GPa)
#
#
# Indices 1 2 3 4 5 6 
#
# 1 233.3944 28.3893 56.2437 0.0000 48.9690 0.0000
# 2 28.3893 148.6504 22.0657 0.0000 12.1152 0.0000
# 3 56.2437 22.0657 97.6432 0.0000 26.0794 0.0000
# 4 0.0000 0.0000 0.0000 0.0697 0.0000 8.8449
# 5 48.9690 12.1152 26.0794 0.0000 62.8600 0.0000
# 6 0.0000 0.0000 0.0000 8.8449 0.0000 25.8893
#
#
#
# Elastic Compliance Matrix: (Units=1/GPa)
#
#
# Indices 1 2 3 4 5 6 
#
# 1 0.005574 -0.000464 -0.002216 0.000000 -0.003334 0.000000
# 2 -0.000464 0.007033 -0.001188 0.000000 -0.000501 0.000000
# 3 -0.002216 -0.001188 0.012668 0.000000 -0.003301 0.000000
# 4 0.000000 0.000000 0.000000 -0.338745 0.000000 0.115730
# 5 -0.003334 -0.000501 -0.003301 0.000000 0.019971 0.000000
# 6 0.000000 0.000000 0.000000 0.115730 0.000000 -0.000912
#
#
# Mechanical properties :
#
#
# Convention : Reuss Voigt Hill
#
# Bulk Modulus (GPa) = 57.01460 77.00950 67.01205
# Shear Modulus (GPa) = -17.80447 42.62975 12.41264
#
# Velocity S-wave (km/s) = -2.52417 3.90580 2.10759
# Velocity P-wave (km/s) = 3.45076 6.92089 5.46838
#
# Compressibility (1/GPa) = 0.01753937
#
# Stress axis : x y z
#
# Youngs Moduli (GPa) = 179.38950 142.18619 78.94111
#
# Poissons Ratio (x) = 0.06597 0.17491
# Poissons Ratio (y) = 0.08324 0.09380
# Poissons Ratio (z) = 0.39746 0.16895
#
# Static dielectric constant tensor:
#      x y z
#    x 2.181520 0.000000 -0.015010 
#    y 0.000000 2.075560 0.000000 
#    z -0.015010 0.000000 2.364320 
# 
# From -- ./inp_files/15950.got.cif
#   From: 2010.05.17/outbox.cif.g08.bks.cpg/sg8_8_cif.got.tgz:15950.got - 2010.06.03 19:46:02.
