data_PCOD9133196
_publ_section_title
;
Structure prediction by ZEFSAII (Michael W. Deem and Ramdas Pophale) SiO2 
 PCOD9133196
Probable space group: C M
;
_chemical_formula_sum "Si O2"
_cell_formula_units_Z 28
_cell_length_a 10.729192
_cell_length_b 18.497448
_cell_length_c 12.088306
_cell_angle_alpha 90.000000
_cell_angle_beta 28.069669
_cell_angle_gamma 90.000000
_cell_volume 1128.873534
_symmetry_space_group_name_H-M "C M"
_symmetry_group_IT_number 8
_symmetry_cell_setting 'monoclinic'
loop_
_space_group_symop_operation_xyz
x,y,z
x,-y,z
1/2+x,1/2+y,z
1/2+x,1/2-y,z
loop_
_atom_site_type_symbol
_atom_site_label
_atom_site_fract_x
_atom_site_fract_y
_atom_site_fract_z
Si Si1 0.545860 0.917865 0.059390
Si Si2 0.022674 0.584400 0.491581
Si Si3 0.537427 0.331161 0.390609
Si Si4 0.391061 0.585585 0.993378
Si Si5 0.591732 0.920580 0.776709
Si Si6 0.793973 0.723816 0.751480
Si Si7 0.795674 0.732290 0.003245
O O1 0.306884 0.865590 0.219995
O O2 0.452844 0.000000 0.157051
O O3 0.716469 0.889295 0.026789
O O4 0.688355 0.923311 0.828874
O O5 0.075546 0.500000 0.484769
O O6 0.704226 0.585089 0.713160
O O7 0.985276 0.653479 0.601999
O O8 0.244484 0.606263 0.225752
O O9 0.347764 0.397586 0.507740
O O10 0.433744 0.286309 0.574829
O O11 0.554037 0.274827 0.276737
O O12 0.337669 0.500000 0.041490
O O13 0.397323 0.852277 0.921418
O O14 0.482937 0.000000 0.833942
O O15 0.517150 0.719987 0.896302
O O16 0.740710 0.745794 0.918729
#
# Coordination Sequence:
#
# PCOD9133196 Si02
#       7
#     4   4   4   4   4   4   4
#     4   9  18  33  61  97 137 175 224 285 345 411
#     4  10  23  43  66  98 134 178 234 291 351 416
#     4  10  22  40  62  96 130 180 228 277 348 416
#     4   9  20  37  62  99 136 177 226 284 350 413
#     4   9  19  38  62  93 129 168 223 283 343 410
#     4  11  26  44  68  94 135 179 228 287 345 417
#     4  10  25  45  64  97 132 177 227 283 346 413
#
# _framework density 24.803485999999999
#
# number of rings (size 3 to 8) (size 9 to 14) (size 15 to 20)
#    0.000    2.286    0.000    0.429    6.000    5.714 
#    0.000    0.000    0.000    0.000    0.000    0.000 
#    0.000    0.000    0.000    0.000    0.000    0.000 
#
# Total GULP energy -77974.829410 kJ/mol
# GULP energy per Si atom -5569.630672 kJ/mol
# Density = 2.474703 g / cm^3
# Si number density = 24.803486 Si / 1000 Ang^3
#
#
#
# Elastic Constant Matrix: (Units=GPa)
#
#
# Indices 1 2 3 4 5 6 
#
# 1 107.1908 6.0601 37.6569 -0.0773 25.4133 0.0233
# 2 6.0601 90.7594 13.0349 -0.3202 6.5472 0.1539
# 3 37.6569 13.0349 74.2495 -0.4339 6.1630 0.2079
# 4 -0.0773 -0.3202 -0.4339 34.3844 -0.0522 11.8785
# 5 25.4133 6.5472 6.1630 -0.0522 29.5693 0.0481
# 6 0.0233 0.1539 0.2079 11.8785 0.0481 20.1421
#
#
#
# Elastic Compliance Matrix: (Units=1/GPa)
#
#
# Indices 1 2 3 4 5 6 
#
# 1 0.014137 0.000766 -0.006393 -0.000104 -0.010987 0.000131
# 2 0.000766 0.011478 -0.002175 0.000123 -0.002746 -0.000132
# 3 -0.006393 -0.002175 0.016891 0.000297 0.002457 -0.000331
# 4 -0.000104 0.000123 0.000297 0.036532 0.000100 -0.021548
# 5 -0.010987 -0.002746 0.002457 0.000100 0.043358 -0.000154
# 6 0.000131 -0.000132 -0.000331 -0.021548 -0.000154 0.062360
#
#
# Mechanical properties :
#
#
# Convention : Reuss Voigt Hill
#
# Bulk Modulus (GPa) = 37.17095 42.85594 40.01344
# Shear Modulus (GPa) = 23.88618 31.18234 27.53426
#
# Velocity S-wave (km/s) = 3.10662 3.54951 3.33543
# Velocity P-wave (km/s) = 5.28080 5.84076 5.56782
#
# Compressibility (1/GPa) = 0.02690273
#
# Stress axis : x y z
#
# Youngs Moduli (GPa) = 70.73844 87.12260 59.20311
#
# Poissons Ratio (x) = -0.06676 0.37849
# Poissons Ratio (y) = -0.05421 0.12874
# Poissons Ratio (z) = 0.45224 0.18946
#
# Static dielectric constant tensor:
#      x y z
#    x 1.978140 -0.000020 0.012980 
#    y -0.000020 2.231970 0.000320 
#    z 0.012980 0.000320 2.020540 
# 
# From -- ./inp_files/2854.got.cif
#   From: 2010.05.17/outbox.cif.g08.bks.cpg/sg8_2_cif.got.tgz:2854.got - 2010.06.03 19:46:02.
