data_PCOD9133433
_publ_section_title
;
Structure prediction by ZEFSAII (Michael W. Deem and Ramdas Pophale) SiO2 
 PCOD9133433
Probable space group: C M
;
_chemical_formula_sum "Si O2"
_cell_formula_units_Z 32
_cell_length_a 8.846029
_cell_length_b 26.823398
_cell_length_c 5.496758
_cell_angle_alpha 90.000000
_cell_angle_beta 81.085979
_cell_angle_gamma 90.000000
_cell_volume 1288.520748
_symmetry_space_group_name_H-M "C M"
_symmetry_group_IT_number 8
_symmetry_cell_setting 'monoclinic'
loop_
_space_group_symop_operation_xyz
x,y,z
x,-y,z
1/2+x,1/2+y,z
1/2+x,1/2-y,z
loop_
_atom_site_type_symbol
_atom_site_label
_atom_site_fract_x
_atom_site_fract_y
_atom_site_fract_z
Si Si1 0.926370 0.679051 0.108300
Si Si2 0.657427 0.697576 0.519979
Si Si3 0.879814 0.240678 0.768350
Si Si4 0.629137 0.053452 0.769541
Si Si5 0.794393 0.573372 0.013925
Si Si6 0.346938 0.555359 0.331651
Si Si7 0.629331 0.578487 0.562669
Si Si8 0.247292 0.356383 0.056074
O O1 0.788600 0.703982 0.288855
O O2 0.974067 0.718709 0.897137
O O3 0.842174 0.631353 0.014737
O O4 0.082129 0.661641 0.206743
O O5 0.735574 0.727178 0.720618
O O6 0.490464 0.720875 0.525866
O O7 0.639518 0.638591 0.563311
O O8 0.833438 0.191555 0.930598
O O9 0.454423 0.050928 0.889738
O O10 0.672272 0.055430 0.474448
O O11 0.693438 0.104359 0.863925
O O12 0.696620 0.000000 0.835024
O O13 0.680019 0.562349 0.819334
O O14 0.731497 0.561475 0.300875
O O15 0.379538 0.500000 0.222276
O O16 0.460852 0.561318 0.530844
O O17 0.356776 0.607135 0.184022
#
# Coordination Sequence:
#
# PCOD9133433 Si02
#       8
#     4   4   4   4   4   4   4   4
#     4  10  24  44  69 104 146 195 254 309 375 450
#     4  11  26  42  68 104 146 197 249 309 372 453
#     4  12  24  43  69 105 145 195 255 305 379 446
#     4  10  24  46  73 106 145 195 255 314 384 459
#     4  10  24  45  76 108 146 197 244 315 374 449
#     4  11  27  47  76 110 149 199 255 320 391 458
#     4  11  25  48  75 106 155 191 248 310 382 448
#     4  11  25  45  73 103 149 197 253 316 379 451
#
# _framework density 24.834682000000001
#
# number of rings (size 3 to 8) (size 9 to 14) (size 15 to 20)
#    0.000    1.250    2.500    1.125   10.500    3.000 
#    0.000    0.000    0.000    0.000    0.000    0.000 
#    0.000    0.000    0.000    0.000    0.000    0.000 
#
# Total GULP energy -89293.463790 kJ/mol
# GULP energy per Si atom -5580.841487 kJ/mol
# Density = 2.477816 g / cm^3
# Si number density = 24.834682 Si / 1000 Ang^3
#
#
#
# Elastic Constant Matrix: (Units=GPa)
#
#
# Indices 1 2 3 4 5 6 
#
# 1 89.8894 23.6287 26.1231 0.0000 -7.1415 0.0000
# 2 23.6287 138.6408 28.7540 0.0000 5.0718 0.0000
# 3 26.1231 28.7540 58.0040 0.0000 3.0439 0.0000
# 4 0.0000 0.0000 0.0000 9.6438 0.0000 10.1450
# 5 -7.1415 5.0718 3.0439 0.0000 46.0542 0.0000
# 6 0.0000 0.0000 0.0000 10.1450 0.0000 22.4852
#
#
#
# Elastic Compliance Matrix: (Units=1/GPa)
#
#
# Indices 1 2 3 4 5 6 
#
# 1 0.013243 -0.001210 -0.005498 0.000000 0.002550 0.000000
# 2 -0.001210 0.008168 -0.003459 0.000000 -0.000859 0.000000
# 3 -0.005498 -0.003459 0.021531 0.000000 -0.001895 0.000000
# 4 0.000000 0.000000 0.000000 0.197375 0.000000 -0.089053
# 5 0.002550 -0.000859 -0.001895 0.000000 0.022329 0.000000
# 6 0.000000 0.000000 0.000000 -0.089053 0.000000 0.084653
#
#
# Mechanical properties :
#
#
# Convention : Reuss Voigt Hill
#
# Bulk Modulus (GPa) = 44.23394 49.28286 46.75840
# Shear Modulus (GPa) = 13.32730 29.50520 21.41625
#
# Velocity S-wave (km/s) = 2.31906 3.45057 2.93977
# Velocity P-wave (km/s) = 5.00208 5.98019 5.51287
#
# Compressibility (1/GPa) = 0.02260708
#
# Stress axis : x y z
#
# Youngs Moduli (GPa) = 75.50947 122.43031 46.44541
#
# Poissons Ratio (x) = 0.14814 0.25537
# Poissons Ratio (y) = 0.09137 0.16066
# Poissons Ratio (z) = 0.41518 0.42349
#
# Static dielectric constant tensor:
#      x y z
#    x 1.984330 0.000000 -0.030680 
#    y 0.000000 1.931510 0.000000 
#    z -0.030680 0.000000 2.064250 
# 
# From -- ./inp_files/1985.got.cif
#   From: 2010.05.17/outbox.cif.g08.bks.cpg/sg8_1_cif.got.tgz:1985.got - 2010.06.03 19:46:02.
