data_PCOD9133868
_publ_section_title
;
Structure prediction by ZEFSAII (Michael W. Deem and Ramdas Pophale) SiO2 
 PCOD9133868
Probable space group: C C
;
_chemical_formula_sum "Si O2"
_cell_formula_units_Z 28
_cell_length_a 18.807641
_cell_length_b 7.889074
_cell_length_c 17.085896
_cell_angle_alpha 90.000000
_cell_angle_beta 150.788024
_cell_angle_gamma 90.000000
_cell_volume 1237.244148
_symmetry_space_group_name_H-M "C C"
_symmetry_group_IT_number 9
_symmetry_cell_setting 'monoclinic'
loop_
_space_group_symop_operation_xyz
x,y,z
x,-y,1/2+z
1/2+x,1/2+y,z
1/2+x,1/2-y,1/2+z
loop_
_atom_site_type_symbol
_atom_site_label
_atom_site_fract_x
_atom_site_fract_y
_atom_site_fract_z
Si Si1 0.174900 0.957709 0.426540
Si Si2 0.823739 0.392736 0.204077
Si Si3 0.415013 0.052698 0.953659
Si Si4 0.707754 0.272685 0.830491
Si Si5 0.952450 0.927340 0.511161
Si Si6 0.487730 0.452497 0.877738
Si Si7 0.153652 0.241280 0.756554
O O1 0.188686 0.801919 0.380478
O O2 0.312983 0.993923 0.615498
O O3 0.159882 0.138591 0.365471
O O4 0.034789 0.938050 0.347856
O O5 0.917694 0.476278 0.363689
O O6 0.889114 0.205532 0.257548
O O7 0.650478 0.385257 0.059616
O O8 0.303847 0.214784 0.854718
O O9 0.321040 0.909582 0.904509
O O10 0.560829 0.100458 0.138546
O O11 0.570261 0.277853 0.640874
O O12 0.808056 0.107134 0.923243
O O13 0.925260 0.949575 0.392735
O O14 0.044043 0.086785 0.629698
#
# Coordination Sequence:
#
# PCOD9133868 Si02
#       7
#     4   4   4   4   4   4   4
#     4   8  20  34  56  85 119 154 193 259 304 359
#     4  10  17  34  59  85 113 153 204 247 300 362
#     4  10  18  36  57  84 110 158 198 247 290 368
#     4  10  21  35  56  82 122 152 198 246 309 353
#     4  10  20  37  51  87 115 156 194 254 291 361
#     4  10  19  35  61  84 120 154 204 249 307 362
#     4  10  19  35  58  81 117 147 203 248 297 347
#
# _framework density 22.630944
#
# number of rings (size 3 to 8) (size 9 to 14) (size 15 to 20)
#    0.857    1.714    4.286    0.000    4.000    1.143 
#    2.571    5.714    6.286    0.000    0.000    0.000 
#    0.000    0.000    0.000    0.000    0.000    0.000 
#
# Total GULP energy -77943.787540 kJ/mol
# GULP energy per Si atom -5567.413396 kJ/mol
# Density = 2.257944 g / cm^3
# Si number density = 22.630944 Si / 1000 Ang^3
#
#
#
# Elastic Constant Matrix: (Units=GPa)
#
#
# Indices 1 2 3 4 5 6 
#
# 1 63.0016 0.3994 30.2634 0.0000 -28.5772 0.0000
# 2 0.3994 37.0867 32.5168 0.0000 -0.1638 0.0000
# 3 30.2634 32.5168 110.9917 0.0000 -4.2020 0.0000
# 4 0.0000 0.0000 0.0000 -47.7944 0.0000 -8.8021
# 5 -28.5772 -0.1638 -4.2020 0.0000 45.8231 0.0000
# 6 0.0000 0.0000 0.0000 -8.8021 0.0000 22.2820
#
#
#
# Elastic Compliance Matrix: (Units=1/GPa)
#
#
# Indices 1 2 3 4 5 6 
#
# 1 0.027742 0.007884 -0.009250 0.000000 0.016481 0.000000
# 2 0.007884 0.038558 -0.013301 0.000000 0.003835 0.000000
# 3 -0.009250 -0.013301 0.015261 0.000000 -0.004417 0.000000
# 4 0.000000 0.000000 0.000000 -0.019504 0.000000 -0.007705
# 5 0.016481 0.003835 -0.004417 0.000000 0.031710 0.000000
# 6 0.000000 0.000000 0.000000 -0.007705 0.000000 0.041836
#
#
# Mechanical properties :
#
#
# Convention : Reuss Voigt Hill
#
# Bulk Modulus (GPa) = 19.14697 37.49324 28.32011
# Shear Modulus (GPa) = 27.42076 13.92217 20.67147
#
# Velocity S-wave (km/s) = 3.48465 2.48298 3.02556
# Velocity P-wave (km/s) = 4.96682 4.98231 4.97457
#
# Compressibility (1/GPa) = 0.05222757
#
# Stress axis : x y z
#
# Youngs Moduli (GPa) = 36.04706 25.93526 65.52549
#
# Poissons Ratio (x) = -0.20448 0.60611
# Poissons Ratio (y) = -0.28420 0.87153
# Poissons Ratio (z) = 0.33343 0.34495
#
# Static dielectric constant tensor:
#      x y z
#    x 1.896330 0.000000 -0.046920 
#    y 0.000000 3.077180 0.000000 
#    z -0.046920 0.000000 1.881080 
# 
# From -- ./inp_files/20692.got.cif
#   From: 2010.05.17/outbox.cif.g08.bks.cpg/sg9_11_cif.got.tgz:20692.got - 2010.06.03 20:04:27.
