data_PCOD9133459
_publ_section_title
;
Structure prediction by ZEFSAII (Michael W. Deem and Ramdas Pophale) SiO2 
 PCOD9133459
Probable space group: C M
;
_chemical_formula_sum "Si O2"
_cell_formula_units_Z 32
_cell_length_a 8.933355
_cell_length_b 28.200921
_cell_length_c 5.495495
_cell_angle_alpha 90.000000
_cell_angle_beta 89.641440
_cell_angle_gamma 90.000000
_cell_volume 1384.446563
_symmetry_space_group_name_H-M "C M"
_symmetry_group_IT_number 8
_symmetry_cell_setting 'monoclinic'
loop_
_space_group_symop_operation_xyz
x,y,z
x,-y,z
1/2+x,1/2+y,z
1/2+x,1/2-y,z
loop_
_atom_site_type_symbol
_atom_site_label
_atom_site_fract_x
_atom_site_fract_y
_atom_site_fract_z
Si Si1 0.897670 0.181263 0.083170
Si Si2 0.738420 0.120475 0.396084
Si Si3 0.140294 0.943858 0.151319
Si Si4 0.112272 0.325620 0.801702
Si Si5 0.816043 0.276033 0.355438
Si Si6 0.544939 0.727184 0.683826
Si Si7 0.456186 0.444379 0.660825
Si Si8 0.928767 0.376722 0.150583
O O1 0.896618 0.144601 0.302568
O O2 0.855835 0.234648 0.164593
O O3 0.748898 0.158984 0.966898
O O4 0.018673 0.184694 0.869868
O O5 0.664672 0.165861 0.529931
O O6 0.585852 0.102573 0.260776
O O7 0.803258 0.082512 0.586174
O O8 0.034276 0.930070 0.918349
O O9 0.173747 0.000000 0.115208
O O10 0.063135 0.940173 0.419830
O O11 0.291308 0.912682 0.149338
O O12 0.104561 0.270199 0.844287
O O13 0.972729 0.356973 0.881507
O O14 0.646031 0.282283 0.447173
O O15 0.878626 0.327193 0.280629
O O16 0.896054 0.252871 0.588902
O O17 0.421864 0.500000 0.689221
#
# Coordination Sequence:
#
# PCOD9133459 Si02
#       8
#     4   4   4   4   4   4   4   4
#     4  11  23  40  61  91 134 189 238 296 347 417
#     4  11  24  45  70 103 140 189 246 298 362 432
#     4  10  25  51  78 110 149 185 236 308 378 446
#     4  11  22  42  61  91 139 178 237 301 347 417
#     4  12  24  41  59  92 135 188 245 289 357 417
#     4  12  22  40  62  85 135 194 236 297 353 413
#     4  10  25  51  78 108 148 188 237 304 377 452
#     4  11  25  42  72 104 140 187 244 303 361 432
#
# _framework density 23.113928999999999
#
# number of rings (size 3 to 8) (size 9 to 14) (size 15 to 20)
#    0.000    1.000    5.000    0.750    5.250    2.500 
#    2.250    0.625    0.000    0.000    0.000    0.000 
#    0.000    0.000    0.000    0.000    0.000    0.000 
#
# Total GULP energy -89111.126639 kJ/mol
# GULP energy per Si atom -5569.445415 kJ/mol
# Density = 2.306132 g / cm^3
# Si number density = 23.113929 Si / 1000 Ang^3
#
#
#
# Elastic Constant Matrix: (Units=GPa)
#
#
# Indices 1 2 3 4 5 6 
#
# 1 94.6271 45.9634 29.4333 0.0000 8.1159 0.0000
# 2 45.9634 103.3230 27.7259 0.0000 3.3160 0.0000
# 3 29.4333 27.7259 83.3802 0.0000 -5.5451 0.0000
# 4 0.0000 0.0000 0.0000 24.5398 0.0000 2.3804
# 5 8.1159 3.3160 -5.5451 0.0000 41.7589 0.0000
# 6 0.0000 0.0000 0.0000 2.3804 0.0000 39.9313
#
#
#
# Elastic Compliance Matrix: (Units=1/GPa)
#
#
# Indices 1 2 3 4 5 6 
#
# 1 0.014548 -0.005436 -0.003518 0.000000 -0.002863 0.000000
# 2 -0.005436 0.012731 -0.002332 0.000000 -0.000264 0.000000
# 3 -0.003518 -0.002332 0.014194 0.000000 0.002754 0.000000
# 4 0.000000 0.000000 0.000000 0.040987 0.000000 -0.002443
# 5 -0.002863 -0.000264 0.002754 0.000000 0.024890 0.000000
# 6 0.000000 0.000000 0.000000 -0.002443 0.000000 0.025189
#
#
# Mechanical properties :
#
#
# Convention : Reuss Voigt Hill
#
# Bulk Modulus (GPa) = 52.90900 54.17508 53.54204
# Shear Modulus (GPa) = 30.97686 33.12649 32.05168
#
# Velocity S-wave (km/s) = 3.66482 3.78985 3.72786
# Velocity P-wave (km/s) = 6.39125 6.52991 6.46095
#
# Compressibility (1/GPa) = 0.01890038
#
# Stress axis : x y z
#
# Youngs Moduli (GPa) = 68.73795 78.55014 70.45315
#
# Poissons Ratio (x) = 0.42697 0.24788
# Poissons Ratio (y) = 0.37364 0.16430
# Poissons Ratio (z) = 0.24185 0.18318
#
# Static dielectric constant tensor:
#      x y z
#    x 1.987590 0.000000 0.043620 
#    y 0.000000 1.838330 0.000000 
#    z 0.043620 0.000000 2.201500 
# 
# From -- ./inp_files/2004.got.cif
#   From: 2010.05.17/outbox.cif.g08.bks.cpg/sg8_2_cif.got.tgz:2004.got - 2010.06.03 19:46:02.
