data_PCOD9133124
_publ_section_title
;
Structure prediction by ZEFSAII (Michael W. Deem and Ramdas Pophale) SiO2 
 PCOD9133124
Probable space group: C M
;
_chemical_formula_sum "Si O2"
_cell_formula_units_Z 30
_cell_length_a 9.013264
_cell_length_b 21.574002
_cell_length_c 8.857853
_cell_angle_alpha 90.000000
_cell_angle_beta 91.599180
_cell_angle_gamma 90.000000
_cell_volume 1721.757926
_symmetry_space_group_name_H-M "C M"
_symmetry_group_IT_number 8
_symmetry_cell_setting 'monoclinic'
loop_
_space_group_symop_operation_xyz
x,y,z
x,-y,z
1/2+x,1/2+y,z
1/2+x,1/2-y,z
loop_
_atom_site_type_symbol
_atom_site_label
_atom_site_fract_x
_atom_site_fract_y
_atom_site_fract_z
Si Si1 0.713721 0.000000 0.495201
Si Si2 0.505837 0.567294 0.397579
Si Si3 0.705931 0.426189 0.694264
Si Si4 0.549350 0.685264 0.208733
Si Si5 0.555936 0.681553 0.852458
Si Si6 0.012956 0.616684 0.578196
Si Si7 0.748648 0.782855 0.685454
Si Si8 0.850444 0.716021 0.378914
O O1 0.592699 0.054794 0.525732
O O2 0.844884 0.052998 0.463928
O O3 0.558393 0.500000 0.339425
O O4 0.617676 0.586391 0.534562
O O5 0.498310 0.618798 0.270447
O O6 0.701246 0.500000 0.719817
O O7 0.620281 0.386267 0.816235
O O8 0.873421 0.402229 0.678891
O O9 0.717149 0.694592 0.269132
O O10 0.452858 0.736892 0.290466
O O11 0.536407 0.690044 0.029554
O O12 0.672500 0.730712 0.787128
O O13 0.400879 0.692980 0.762383
O O14 0.131217 0.661743 0.662025
O O15 0.944156 0.657761 0.441378
O O16 0.786250 0.751215 0.525313
#
# Coordination Sequence:
#
# PCOD9133124 Si02
#       8
#     2   4   4   4   4   4   4   4
#     4  10  22  36  62  94 116 152 204 272 300 346
#     4   9  21  39  63  87 121 161 215 255 295 361
#     4  11  21  40  64  91 119 163 217 254 300 364
#     4  12  24  39  61  94 129 162 202 252 324 366
#     4  12  24  40  61  92 132 165 195 258 323 376
#     4  12  21  36  68  92 118 150 212 267 296 348
#     4  12  22  41  63  92 123 163 208 253 308 367
#     4  12  22  38  65  91 120 161 211 256 298 368
#
# _framework density 17.424052
#
# number of rings (size 3 to 8) (size 9 to 14) (size 15 to 20)
#    0.400    0.267    6.000    3.200    0.000    0.533 
#    0.000    0.000    0.000    0.000    0.000    0.000 
#    0.000    0.000    0.000    0.000    0.000    0.000 
#
# Total GULP energy -83510.296400 kJ/mol
# GULP energy per Si atom -5567.353093 kJ/mol
# Density = 1.738439 g / cm^3
# Si number density = 17.424052 Si / 1000 Ang^3
#
#
#
# Elastic Constant Matrix: (Units=GPa)
#
#
# Indices 1 2 3 4 5 6 
#
# 1 104.5127 33.4364 22.1748 0.0000 4.9057 0.0000
# 2 33.4364 104.6824 33.7850 0.0000 -9.3891 0.0000
# 3 22.1748 33.7850 64.3185 0.0000 -2.6020 0.0000
# 4 0.0000 0.0000 0.0000 17.9032 0.0000 -6.2714
# 5 4.9057 -9.3891 -2.6020 0.0000 22.6704 0.0000
# 6 0.0000 0.0000 0.0000 -6.2714 0.0000 48.7705
#
#
#
# Elastic Compliance Matrix: (Units=1/GPa)
#
#
# Indices 1 2 3 4 5 6 
#
# 1 0.011285 -0.003201 -0.002373 0.000000 -0.004040 0.000000
# 2 -0.003201 0.012801 -0.005403 0.000000 0.005374 0.000000
# 3 -0.002373 -0.005403 0.019223 0.000000 0.000482 0.000000
# 4 0.000000 0.000000 0.000000 0.058491 0.000000 0.007521
# 5 -0.004040 0.005374 0.000482 0.000000 0.047266 0.000000
# 6 0.000000 0.000000 0.000000 0.007521 0.000000 0.021471
#
#
# Mechanical properties :
#
#
# Convention : Reuss Voigt Hill
#
# Bulk Modulus (GPa) = 46.82584 50.25622 48.54103
# Shear Modulus (GPa) = 25.04884 30.14330 27.59607
#
# Velocity S-wave (km/s) = 3.79568 4.16382 3.98401
# Velocity P-wave (km/s) = 6.79281 7.21264 7.00587
#
# Compressibility (1/GPa) = 0.02135573
#
# Stress axis : x y z
#
# Youngs Moduli (GPa) = 88.60960 78.11897 52.02044
#
# Poissons Ratio (x) = 0.25008 0.12343
# Poissons Ratio (y) = 0.28366 0.28106
# Poissons Ratio (z) = 0.21025 0.42207
#
# Static dielectric constant tensor:
#      x y z
#    x 1.598010 0.000000 0.004230 
#    y 0.000000 1.604440 0.000000 
#    z 0.004230 0.000000 1.562380 
# 
# From -- ./inp_files/8714.got.cif
#   From: 2010.05.17/outbox.cif.g08.bks.cpg/sg8_5_cif.got.tgz:8714.got - 2010.06.03 19:46:02.
