data_PCOD9133094
_publ_section_title
;
Structure prediction by ZEFSAII (Michael W. Deem and Ramdas Pophale) SiO2 
 PCOD9133094
Probable space group: C M
;
_chemical_formula_sum "Si O2"
_cell_formula_units_Z 20
_cell_length_a 8.018415
_cell_length_b 27.679940
_cell_length_c 4.939898
_cell_angle_alpha 90.000000
_cell_angle_beta 43.227616
_cell_angle_gamma 90.000000
_cell_volume 750.927132
_symmetry_space_group_name_H-M "C M"
_symmetry_group_IT_number 8
_symmetry_cell_setting 'monoclinic'
loop_
_space_group_symop_operation_xyz
x,y,z
x,-y,z
1/2+x,1/2+y,z
1/2+x,1/2-y,z
loop_
_atom_site_type_symbol
_atom_site_label
_atom_site_fract_x
_atom_site_fract_y
_atom_site_fract_z
Si Si1 0.852520 0.395685 0.804060
Si Si2 0.773326 0.500000 0.659618
Si Si3 0.796489 0.900860 0.693041
Si Si4 0.464539 0.500000 0.536335
Si Si5 0.386446 0.693276 0.883600
Si Si6 0.178476 0.203529 0.039934
O O1 0.873178 0.445998 0.612500
O O2 0.853083 0.338599 0.719577
O O3 0.065690 0.398844 0.771951
O O4 0.567210 0.397133 0.238625
O O5 0.712369 0.500000 0.414459
O O6 0.529448 0.500000 0.141864
O O7 0.816778 0.953458 0.794046
O O8 0.780687 0.858213 0.926894
O O9 0.257870 0.741217 0.925621
O O10 0.438439 0.697918 0.138708
O O11 0.634791 0.694604 0.409805
#
# Coordination Sequence:
#
# PCOD9133094 Si02
#       6
#     4   2   4   2   4   4
#     4  10  22  42  66  96 130 170 215 266 322 384
#     4  10  21  42  66  96 130 170 214 266 322 384
#     4  10  22  42  66  96 130 170 215 266 322 384
#     4  10  21  42  66  96 130 170 214 266 322 384
#     4  11  23  41  64  96 130 171 216 267 322 384
#     4  11  23  41  64  96 130 171 216 267 322 384
#
# _framework density 26.633742000000002
#
# number of rings (size 3 to 8) (size 9 to 14) (size 15 to 20)
#    0.000    1.600    0.000    4.200    0.000    3.200 
#    0.000   32.000    0.000    0.000    0.000    0.000 
#    0.000    0.000    0.000    0.000    0.000    0.000 
#
# Total GULP energy -55871.127442 kJ/mol
# GULP energy per Si atom -5587.112744 kJ/mol
# Density = 2.657312 g / cm^3
# Si number density = 26.633742 Si / 1000 Ang^3
#
#
#
# Elastic Constant Matrix: (Units=GPa)
#
#
# Indices 1 2 3 4 5 6 
#
# 1 164.9212 54.8071 -13.0289 0.0000 -4.0879 0.0000
# 2 54.8071 267.4406 -32.0216 0.0000 2.0829 0.0000
# 3 -13.0289 -32.0216 93.2557 0.0000 -4.6096 0.0000
# 4 0.0000 0.0000 0.0000 -3.4729 0.0000 -1.9908
# 5 -4.0879 2.0829 -4.6096 0.0000 32.7075 0.0000
# 6 0.0000 0.0000 0.0000 -1.9908 0.0000 60.1390
#
#
#
# Elastic Compliance Matrix: (Units=1/GPa)
#
#
# Indices 1 2 3 4 5 6 
#
# 1 0.006557 -0.001289 0.000522 0.000000 0.000975 0.000000
# 2 -0.001289 0.004153 0.001233 0.000000 -0.000252 0.000000
# 3 0.000522 0.001233 0.011298 0.000000 0.001579 0.000000
# 4 0.000000 0.000000 0.000000 -0.282585 0.000000 -0.009355
# 5 0.000975 -0.000252 0.001579 0.000000 0.030934 0.000000
# 6 0.000000 0.000000 0.000000 -0.009355 0.000000 0.016318
#
#
# Mechanical properties :
#
#
# Convention : Reuss Voigt Hill
#
# Bulk Modulus (GPa) = 43.59102 60.57008 52.08055
# Shear Modulus (GPa) = -24.20017 52.26546 14.03264
#
# Velocity S-wave (km/s) = -3.01762 4.43468 2.29787
# Velocity P-wave (km/s) = 2.06423 7.00093 5.16111
#
# Compressibility (1/GPa) = 0.02294051
#
# Stress axis : x y z
#
# Youngs Moduli (GPa) = 152.50351 240.79340 88.51368
#
# Poissons Ratio (x) = 0.31036 -0.04618
# Poissons Ratio (y) = 0.19656 -0.10918
# Poissons Ratio (z) = -0.07957 -0.29702
#
# Static dielectric constant tensor:
#      x y z
#    x 2.000360 0.000000 -0.066050 
#    y 0.000000 2.155500 0.000000 
#    z -0.066050 0.000000 2.276360 
# 
# From -- ./inp_files/1670.got.cif
#   From: 2010.05.17/outbox.cif.g08.bks.cpg/sg8_1_cif.got.tgz:1670.got - 2010.06.03 19:46:02.
