data_PCOD9133716
_publ_section_title
;
Structure prediction by ZEFSAII (Michael W. Deem and Ramdas Pophale) SiO2 
 PCOD9133716
Probable space group: C M
;
_chemical_formula_sum "Si O2"
_cell_formula_units_Z 16
_cell_length_a 18.000000
_cell_length_b 9.000000
_cell_length_c 30.000000
_cell_angle_alpha 90.000000
_cell_angle_beta 160.000000
_cell_angle_gamma 90.000000
_cell_volume 1662.217897
_symmetry_space_group_name_H-M "C M"
_symmetry_group_IT_number 8
_symmetry_cell_setting 'monoclinic'
loop_
_space_group_symop_operation_xyz
x,y,z
x,-y,z
1/2+x,1/2+y,z
1/2+x,1/2-y,z
loop_
_atom_site_type_symbol
_atom_site_label
_atom_site_fract_x
_atom_site_fract_y
_atom_site_fract_z
Si Si1 0.152410 0.176571 0.779630
Si Si2 0.189434 0.678472 0.640281
Si Si3 0.140750 0.322858 0.869368
Si Si4 0.490792 0.329629 0.279233
Si Si5 0.285876 0.829468 0.355565
Si Si6 0.412117 0.823414 0.095629
Si Si7 0.630326 0.820672 0.014876
Si Si8 0.385540 0.180065 0.554415
O O1 0.152297 0.261665 0.825993
O O2 0.963159 0.239810 0.642165
O O3 0.133269 0.000000 0.776233
O O4 0.378035 0.204635 0.880586
O O5 0.226194 0.500000 0.659564
O O6 0.414522 0.763750 0.762902
O O7 0.024839 0.716228 0.506770
O O8 0.057406 0.710731 0.611322
O O9 0.147110 0.500000 0.874800
O O10 0.337698 0.252493 0.008217
O O11 0.449050 0.500000 0.269018
O O12 0.641323 0.331674 0.319559
O O13 0.263629 0.267950 0.133934
O O14 0.648262 0.264166 0.405077
O O15 0.150994 0.727804 0.246060
O O16 0.293167 0.000000 0.343622
O O17 0.240439 0.761662 0.035586
O O18 0.398406 0.000000 0.085284
O O19 0.665212 0.000000 0.029260
O O20 0.380098 0.000000 0.556095
#
# Coordination Sequence:
#
# PCOD9133716 Si02
#       8
#     4   4   4   4   4   4   4   4
#     4  11  23  37  53  75 105 140 179 225 271 317
#     4   9  18  35  60  86 111 139 175 221 268 317
#     4  12  25  39  54  73 105 147 187 227 271 320
#     4   7  12  27  52  79 104 131 166 206 252 308
#     4   8  15  31  55  82 111 140 171 214 268 318
#     4  11  21  34  56  84 112 141 178 222 264 316
#     4   9  18  35  58  81 105 137 177 220 267 316
#     4   9  17  32  56  82 107 137 169 207 261 322
#
# _framework density 9.6256939999999993
#
# number of rings (size 3 to 8) (size 9 to 14) (size 15 to 20)
#    0.000    2.500    0.000    5.625    0.000    4.000 
#    0.000    6.250    0.000    4.500    0.000    0.000 
#    0.000    0.000    0.000    0.000    0.000    0.000 
#
# Total GULP energy -89248.782081 kJ/mol
# GULP energy per Si atom -5578.048880 kJ/mol
# Density = 0.960378 g / cm^3
# Si number density = 9.625694 Si / 1000 Ang^3
#
#
#
# Elastic Constant Matrix: (Units=GPa)
#
#
# Indices 1 2 3 4 5 6 
#
# 1 34.3039 25.2889 17.5723 0.0017 -33.0260 -0.0003
# 2 25.2889 75.8326 33.4001 0.0015 -22.8821 0.0006
# 3 17.5723 33.4001 91.5621 -0.0017 -45.1703 0.0141
# 4 0.0017 0.0015 -0.0017 -3.7193 0.0035 26.8123
# 5 -33.0260 -22.8821 -45.1703 0.0035 31.4021 -0.0051
# 6 -0.0003 0.0006 0.0141 26.8123 -0.0051 -2.7484
#
#
#
# Elastic Compliance Matrix: (Units=1/GPa)
#
#
# Indices 1 2 3 4 5 6 
#
# 1 -0.029253 0.000875 -0.032951 0.000003 -0.077526 0.000010
# 2 0.000875 0.016880 0.000677 0.000002 0.014195 -0.000003
# 3 -0.032951 0.000677 0.000501 -0.000006 -0.033441 0.000005
# 4 0.000003 0.000002 -0.000006 0.003878 0.000001 0.037834
# 5 -0.077526 0.014195 -0.033441 0.000001 -0.087450 0.000013
# 6 0.000010 -0.000003 0.000005 0.037834 0.000013 0.005248
#
#
# Mechanical properties :
#
#
# Convention : Reuss Voigt Hill
#
# Bulk Modulus (GPa) = -13.39249 39.35791 12.98271
# Shear Modulus (GPa) = -95.62498 13.34936 -41.13781
#
# Velocity S-wave (km/s) = -7.05546 2.63615 -4.62765
# Velocity P-wave (km/s) = 8.56414 5.45475 4.66852
#
# Compressibility (1/GPa) = -0.07466869
#
# Stress axis : x y z
#
# Youngs Moduli (GPa) = -34.18497 59.24174 1996.47497
#
# Poissons Ratio (x) = -0.05186 65.78616
# Poissons Ratio (y) = 0.02992 -1.35234
# Poissons Ratio (z) = -1.12643 -0.04013
#
# Static dielectric constant tensor:
#      x y z
#    x 1.666170 0.000000 -0.028000 
#    y 0.000000 1.638270 0.000000 
#    z -0.028000 0.000000 1.708800 
# 
# From -- ./inp_files/33423.got.cif
#   From: 2010.05.17/outbox.ucp.g08.bks.cvg/sg8_17_cif.got.tgz:33423.got - 2010.06.11 13:00:03.
