data_PCOD9133151
_publ_section_title
;
Structure prediction by ZEFSAII (Michael W. Deem and Ramdas Pophale) SiO2 
 PCOD9133151
Probable space group: C M
;
_chemical_formula_sum "Si O2"
_cell_formula_units_Z 26
_cell_length_a 8.843694
_cell_length_b 19.410776
_cell_length_c 9.044958
_cell_angle_alpha 90.000000
_cell_angle_beta 49.175730
_cell_angle_gamma 90.000000
_cell_volume 1174.944470
_symmetry_space_group_name_H-M "C M"
_symmetry_group_IT_number 8
_symmetry_cell_setting 'monoclinic'
loop_
_space_group_symop_operation_xyz
x,y,z
x,-y,z
1/2+x,1/2+y,z
1/2+x,1/2-y,z
loop_
_atom_site_type_symbol
_atom_site_label
_atom_site_fract_x
_atom_site_fract_y
_atom_site_fract_z
Si Si1 0.757730 0.000000 0.387360
Si Si2 0.974803 0.381799 0.149292
Si Si3 0.814103 0.152139 0.712507
Si Si4 0.908559 0.218871 0.196631
Si Si5 0.121715 0.209723 0.748842
Si Si6 0.023416 0.625474 0.450858
Si Si7 0.059431 0.894094 0.291934
O O1 0.591642 0.937835 0.507782
O O2 0.936600 0.941139 0.259367
O O3 0.919496 0.300720 0.207432
O O4 0.018586 0.406140 0.287006
O O5 0.782534 0.413591 0.192684
O O6 0.163511 0.385133 0.920529
O O7 0.694193 0.211144 0.700659
O O8 0.929692 0.103872 0.525235
O O9 0.976622 0.191718 0.707607
O O10 0.690358 0.185548 0.347984
O O11 0.047421 0.182263 0.230720
O O12 0.000259 0.201738 0.978314
O O13 0.311812 0.159519 0.622872
#
# Coordination Sequence:
#
# PCOD9133151 Si02
#       7
#     2   4   4   4   4   4   4
#     4  10  28  46  62  86 122 178 232 264 300 374
#     4  11  21  38  69  98 127 161 201 266 326 385
#     4  11  24  38  65 105 131 160 205 254 328 397
#     4  10  22  38  64 104 131 157 203 255 327 400
#     4  11  23  38  65 102 134 162 200 257 327 392
#     4  11  22  43  64  88 131 172 212 257 316 364
#     4  11  24  43  64  89 133 165 215 265 315 362
#
# _framework density 22.128703999999999
#
# number of rings (size 3 to 8) (size 9 to 14) (size 15 to 20)
#    0.000    1.231    3.077    2.769   10.769    0.615 
#    0.000    7.692    0.000    0.000    0.000    0.000 
#    0.000    0.000    0.000    0.000    0.000    0.000 
#
# Total GULP energy -72481.913046 kJ/mol
# GULP energy per Si atom -5575.531773 kJ/mol
# Density = 2.207834 g / cm^3
# Si number density = 22.128704 Si / 1000 Ang^3
#
#
#
# Elastic Constant Matrix: (Units=GPa)
#
#
# Indices 1 2 3 4 5 6 
#
# 1 71.1397 -20.7604 12.0170 0.0000 -12.6306 0.0000
# 2 -20.7604 42.0559 17.8876 0.0000 -5.6501 0.0000
# 3 12.0170 17.8876 78.6339 0.0000 -18.3908 0.0000
# 4 0.0000 0.0000 0.0000 2.7963 0.0000 16.4582
# 5 -12.6306 -5.6501 -18.3908 0.0000 31.7047 0.0000
# 6 0.0000 0.0000 0.0000 16.4582 0.0000 679.1603
#
#
#
# Elastic Compliance Matrix: (Units=1/GPa)
#
#
# Indices 1 2 3 4 5 6 
#
# 1 0.019777 0.012531 -0.004058 0.000000 0.007758 0.000000
# 2 0.012531 0.034319 -0.008242 0.000000 0.006327 0.000000
# 3 -0.004058 -0.008242 0.016765 0.000000 0.006639 0.000000
# 4 0.000000 0.000000 0.000000 0.417109 0.000000 -0.010108
# 5 0.007758 0.006327 0.006639 0.000000 0.039610 0.000000
# 6 0.000000 0.000000 0.000000 -0.010108 0.000000 0.001717
#
#
# Mechanical properties :
#
#
# Convention : Reuss Voigt Hill
#
# Bulk Modulus (GPa) = 14.02101 23.34641 18.68371
# Shear Modulus (GPa) = 9.04796 154.91128 81.97962
#
# Velocity S-wave (km/s) = 2.02427 8.37596 6.09321
# Velocity P-wave (km/s) = 3.43707 10.20370 7.61344
#
# Compressibility (1/GPa) = 0.07132153
#
# Stress axis : x y z
#
# Youngs Moduli (GPa) = 50.56482 29.13812 59.64779
#
# Poissons Ratio (x) = -0.36513 0.24208
# Poissons Ratio (y) = -0.63362 0.49163
# Poissons Ratio (z) = 0.20522 0.24016
#
# Static dielectric constant tensor:
#      x y z
#    x 1.867330 0.000000 0.033640 
#    y 0.000000 -0.350660 0.000000 
#    z 0.033640 0.000000 1.804680 
# 
# From -- ./inp_files/8580.got.cif
#   From: 2010.05.17/outbox.cif.g08.bks.cpg/sg8_5_cif.got.tgz:8580.got - 2010.06.03 19:46:02.
