data_PCOD9133782
_publ_section_title
;
Structure prediction by ZEFSAII (Michael W. Deem and Ramdas Pophale) SiO2 
 PCOD9133782
Probable space group: C C
;
_chemical_formula_sum "Si O2"
_cell_formula_units_Z 32
_cell_length_a 21.672000
_cell_length_b 8.794671
_cell_length_c 9.155962
_cell_angle_alpha 90.000000
_cell_angle_beta 63.135024
_cell_angle_gamma 90.000000
_cell_volume 1556.766288
_symmetry_space_group_name_H-M "C C"
_symmetry_group_IT_number 9
_symmetry_cell_setting 'monoclinic'
loop_
_space_group_symop_operation_xyz
x,y,z
x,-y,1/2+z
1/2+x,1/2+y,z
1/2+x,1/2-y,1/2+z
loop_
_atom_site_type_symbol
_atom_site_label
_atom_site_fract_x
_atom_site_fract_y
_atom_site_fract_z
Si Si1 0.444350 0.179025 0.345870
Si Si2 0.057907 0.709109 0.988036
Si Si3 0.357876 0.640025 0.707746
Si Si4 0.439528 0.151247 0.899648
Si Si5 0.577822 0.560544 0.045103
Si Si6 0.435509 0.329331 0.646072
Si Si7 0.673779 0.543117 0.694958
Si Si8 0.211478 0.224936 0.371239
O O1 0.386672 0.263345 0.313080
O O2 0.461781 0.293230 0.456968
O O3 0.418761 0.023293 0.444583
O O4 0.509983 0.146480 0.171238
O O5 0.139882 0.683536 0.917342
O O6 0.017405 0.660072 0.885363
O O7 0.057287 0.891552 0.011739
O O8 0.397946 0.719473 0.531245
O O9 0.381437 0.465920 0.699757
O O10 0.277081 0.668977 0.779734
O O11 0.416672 0.180806 0.756798
O O12 0.504422 0.628157 0.160327
O O13 0.624594 0.550769 0.137579
O O14 0.623832 0.628919 0.864488
O O15 0.710115 0.654522 0.538375
O O16 0.713080 0.419665 0.755790
#
# Coordination Sequence:
#
# PCOD9133782 Si02
#       8
#     4   4   4   4   4   4   4   4
#     4  11  23  40  61  91 121 163 202 255 305 357
#     4   9  19  39  63  88 124 151 204 260 302 346
#     4  11  25  37  59  89 126 165 200 249 303 362
#     4  11  23  40  61  91 121 163 202 255 305 357
#     4  10  16  31  62  96 113 151 202 253 297 350
#     4  12  20  37  66  89 123 151 210 246 304 367
#     4   8  18  32  58  86 120 158 200 254 298 344
#     4  10  20  38  56  88 124 160 202 246 302 369
#
# _framework density 20.555430000000001
#
# number of rings (size 3 to 8) (size 9 to 14) (size 15 to 20)
#    0.000    2.000    2.500    5.250    1.750    0.000 
#    0.000    2.500    0.000    0.000    0.000    0.000 
#    0.000    0.000    0.000    0.000    0.000    0.000 
#
# Total GULP energy -89089.880885 kJ/mol
# GULP energy per Si atom -5568.117555 kJ/mol
# Density = 2.050864 g / cm^3
# Si number density = 20.555430 Si / 1000 Ang^3
#
#
#
# Elastic Constant Matrix: (Units=GPa)
#
#
# Indices 1 2 3 4 5 6 
#
# 1 95.8384 20.7516 41.2782 0.0000 -15.8710 0.0000
# 2 20.7516 54.6876 14.9858 0.0000 0.5044 0.0000
# 3 41.2782 14.9858 85.8206 0.0000 15.2485 0.0000
# 4 0.0000 0.0000 0.0000 17.7927 0.0000 3.2085
# 5 -15.8710 0.5044 15.2485 0.0000 25.7320 0.0000
# 6 0.0000 0.0000 0.0000 3.2085 0.0000 19.0372
#
#
#
# Elastic Compliance Matrix: (Units=1/GPa)
#
#
# Indices 1 2 3 4 5 6 
#
# 1 0.019959 -0.004374 -0.012337 0.000000 0.019707 0.000000
# 2 -0.004374 0.020238 -0.000984 0.000000 -0.002512 0.000000
# 3 -0.012337 -0.000984 0.021355 0.000000 -0.020245 0.000000
# 4 0.000000 0.000000 0.000000 0.057965 0.000000 -0.009769
# 5 0.019707 -0.002512 -0.020245 0.000000 0.063063 0.000000
# 6 0.000000 0.000000 0.000000 -0.009769 0.000000 0.054175
#
#
# Mechanical properties :
#
#
# Convention : Reuss Voigt Hill
#
# Bulk Modulus (GPa) = 38.22456 43.37531 40.79993
# Shear Modulus (GPa) = 17.80202 23.13443 20.46823
#
# Velocity S-wave (km/s) = 2.94606 3.35844 3.15899
# Velocity P-wave (km/s) = 5.49624 6.01550 5.76172
#
# Compressibility (1/GPa) = 0.02616119
#
# Stress axis : x y z
#
# Youngs Moduli (GPa) = 50.10330 49.41121 46.82697
#
# Poissons Ratio (x) = 0.21615 0.57773
# Poissons Ratio (y) = 0.21918 0.04606
# Poissons Ratio (z) = 0.61815 0.04860
#
# Static dielectric constant tensor:
#      x y z
#    x 1.785030 0.000000 -0.021280 
#    y 0.000000 1.761770 0.000000 
#    z -0.021280 0.000000 1.837800 
# 
# From -- ./inp_files/11999.got.cif
#   From: 2010.05.17/outbox.cif.g08.bks.cpg/sg9_6_cif.got.tgz:11999.got - 2010.06.03 20:04:27.
