data_PCOD9133485
_publ_section_title
;
Structure prediction by ZEFSAII (Michael W. Deem and Ramdas Pophale) SiO2 
 PCOD9133485
Probable space group: C M
;
_chemical_formula_sum "Si O2"
_cell_formula_units_Z 22
_cell_length_a 8.901407
_cell_length_b 15.064009
_cell_length_c 8.840848
_cell_angle_alpha 90.000000
_cell_angle_beta 79.034773
_cell_angle_gamma 90.000000
_cell_volume 1163.833560
_symmetry_space_group_name_H-M "C M"
_symmetry_group_IT_number 8
_symmetry_cell_setting 'monoclinic'
loop_
_space_group_symop_operation_xyz
x,y,z
x,-y,z
1/2+x,1/2+y,z
1/2+x,1/2-y,z
loop_
_atom_site_type_symbol
_atom_site_label
_atom_site_fract_x
_atom_site_fract_y
_atom_site_fract_z
Si Si1 0.704991 0.500000 0.039900
Si Si2 0.150016 0.000000 0.689650
Si Si3 0.550751 0.000000 0.942033
Si Si4 0.222712 0.500000 0.201685
Si Si5 0.471350 0.670613 0.606276
Si Si6 0.108294 0.353144 0.684641
Si Si7 0.984917 0.500000 0.488584
Si Si8 0.990174 0.096311 0.290037
O O1 0.617821 0.583687 0.135759
O O2 0.689056 0.500000 0.861693
O O3 0.882322 0.500000 0.045097
O O4 0.055849 0.088145 0.668310
O O5 0.305759 0.000000 0.559943
O O6 0.561177 0.911963 0.837484
O O7 0.690933 0.000000 0.031324
O O8 0.326269 0.583586 0.238427
O O9 0.056751 0.500000 0.309660
O O10 0.289748 0.659573 0.652160
O O11 0.526461 0.759693 0.676585
O O12 0.506763 0.667920 0.417713
O O13 0.057763 0.414575 0.555092
O O14 0.000995 0.000000 0.373277
#
# Coordination Sequence:
#
# PCOD9133485 Si02
#       8
#     2   2   2   2   4   4   2   4
#     4   9  21  36  64  95 126 166 213 255 330 380
#     4  12  21  37  71  89 130 173 219 273 319 380
#     4  11  23  41  65  97 132 174 203 276 323 389
#     4   9  19  37  67  89 123 167 211 258 328 375
#     4  12  23  42  64  97 128 173 222 271 314 388
#     4  11  24  40  65  93 133 166 227 264 320 381
#     4  11  20  41  65  94 119 176 224 268 314 382
#     4   8  19  39  62  93 117 169 209 258 320 381
#
# _framework density 18.903046
#
# number of rings (size 3 to 8) (size 9 to 14) (size 15 to 20)
#    1.091    0.364    4.545    2.182    7.636    0.000 
#    0.000    1.818    0.000    0.000    0.000    0.000 
#    0.000    0.000    0.000    0.000    0.000    0.000 
#
# Total GULP energy -61254.227107 kJ/mol
# GULP energy per Si atom -5568.566101 kJ/mol
# Density = 1.886002 g / cm^3
# Si number density = 18.903046 Si / 1000 Ang^3
#
#
#
# Elastic Constant Matrix: (Units=GPa)
#
#
# Indices 1 2 3 4 5 6 
#
# 1 122.5390 50.8668 23.8066 0.0000 -8.9792 0.0000
# 2 50.8668 117.9004 21.9839 0.0000 8.5310 0.0000
# 3 23.8066 21.9839 75.3090 0.0000 6.2663 0.0000
# 4 0.0000 0.0000 0.0000 -7.2864 0.0000 2.3353
# 5 -8.9792 8.5310 6.2663 0.0000 41.7741 0.0000
# 6 0.0000 0.0000 0.0000 2.3353 0.0000 28.1620
#
#
#
# Elastic Compliance Matrix: (Units=1/GPa)
#
#
# Indices 1 2 3 4 5 6 
#
# 1 0.010731 -0.004442 -0.002393 0.000000 0.003573 0.000000
# 2 -0.004442 0.010897 -0.001531 0.000000 -0.002951 0.000000
# 3 -0.002393 -0.001531 0.014682 0.000000 -0.002404 0.000000
# 4 0.000000 0.000000 0.000000 -0.133690 0.000000 0.011086
# 5 0.003573 -0.002951 -0.002404 0.000000 0.025669 0.000000
# 6 0.000000 0.000000 0.000000 0.011086 0.000000 0.034590
#
#
# Mechanical properties :
#
#
# Convention : Reuss Voigt Hill
#
# Bulk Modulus (GPa) = 51.07811 56.56254 53.82032
# Shear Modulus (GPa) = -360.72691 27.13603 -166.79544
#
# Velocity S-wave (km/s) = -13.82911 3.79296 -9.40366
# Velocity P-wave (km/s) = 15.09678 7.01209 9.45366
#
# Compressibility (1/GPa) = 0.01957786
#
# Stress axis : x y z
#
# Youngs Moduli (GPa) = 93.18480 91.76567 68.11007
#
# Poissons Ratio (x) = 0.40765 0.16298
# Poissons Ratio (y) = 0.41395 0.10430
# Poissons Ratio (z) = 0.22298 0.14052
#
# Static dielectric constant tensor:
#      x y z
#    x 1.659690 0.000000 -0.015270 
#    y 0.000000 1.630920 0.000000 
#    z -0.015270 0.000000 1.690420 
# 
# From -- ./inp_files/7867.got.cif
#   From: 2010.05.17/outbox.cif.g08.bks.cpg/sg8_4_cif.got.tgz:7867.got - 2010.06.03 19:46:02.
