data_PCOD9133936
_publ_section_title
;
Structure prediction by ZEFSAII (Michael W. Deem and Ramdas Pophale) SiO2 
 PCOD9133936
Probable space group: C C
;
_chemical_formula_sum "Si O2"
_cell_formula_units_Z 32
_cell_length_a 19.478795
_cell_length_b 14.167804
_cell_length_c 8.147161
_cell_angle_alpha 90.000000
_cell_angle_beta 38.271548
_cell_angle_gamma 90.000000
_cell_volume 1392.626290
_symmetry_space_group_name_H-M "C C"
_symmetry_group_IT_number 9
_symmetry_cell_setting 'monoclinic'
loop_
_space_group_symop_operation_xyz
x,y,z
x,-y,1/2+z
1/2+x,1/2+y,z
1/2+x,1/2-y,1/2+z
loop_
_atom_site_type_symbol
_atom_site_label
_atom_site_fract_x
_atom_site_fract_y
_atom_site_fract_z
Si Si1 0.412430 0.957516 0.203760
Si Si2 0.493857 0.201740 0.345407
Si Si3 0.041263 0.200475 0.442674
Si Si4 0.176157 0.941183 0.487164
Si Si5 0.811609 0.360565 0.970069
Si Si6 0.862318 0.292285 0.545117
Si Si7 0.400682 0.643688 0.231874
Si Si8 0.958225 0.039436 0.823347
O O1 0.296881 0.967490 0.323331
O O2 0.389979 0.889187 0.399679
O O3 0.416658 0.066173 0.248761
O O4 0.499070 0.899058 0.929384
O O5 0.367980 0.205320 0.503095
O O6 0.492843 0.283435 0.485704
O O7 0.565500 0.232736 0.053865
O O8 0.968585 0.115613 0.659420
O O9 0.971967 0.252778 0.431634
O O10 0.138791 0.144962 0.171252
O O11 0.082243 0.020735 0.661479
O O12 0.204476 0.908108 0.250175
O O13 0.786409 0.311823 0.845271
O O14 0.826274 0.216695 0.475590
O O15 0.430386 0.563198 0.306651
O O16 0.377065 0.581112 0.114125
#
# Coordination Sequence:
#
# PCOD9133936 Si02
#       8
#     4   4   4   4   4   4   4   4
#     4  10  20  34  52  76 114 148 176 214 277 330
#     4   8  19  33  48  71 108 148 182 215 247 331
#     4  10  19  33  52  75 118 140 181 218 262 336
#     4  11  20  32  49  83 117 146 162 214 285 349
#     4  10  20  33  52  76 115 146 172 214 278 331
#     4  10  19  35  49  73 111 149 189 216 248 336
#     4  10  18  31  50  72 113 139 177 216 258 330
#     4  11  19  31  50  84 112 140 169 215 287 327
#
# _framework density 22.978168
#
# number of rings (size 3 to 8) (size 9 to 14) (size 15 to 20)
#    0.000    2.000    2.500    2.250    0.000    0.000 
#    2.250    0.000    0.000    0.000    0.000    0.000 
#  420.000    0.000    0.000    0.000    0.000    0.000 
#
# Total GULP energy -89115.439631 kJ/mol
# GULP energy per Si atom -5569.714977 kJ/mol
# Density = 2.292587 g / cm^3
# Si number density = 22.978168 Si / 1000 Ang^3
#
#
#
# Elastic Constant Matrix: (Units=GPa)
#
#
# Indices 1 2 3 4 5 6 
#
# 1 60.2189 25.4398 15.2491 0.0000 26.7521 0.0000
# 2 25.4398 125.9125 36.2760 0.0000 13.6216 0.0000
# 3 15.2491 36.2760 84.0882 0.0000 43.6604 0.0000
# 4 0.0000 0.0000 0.0000 40.0551 0.0000 22.1677
# 5 26.7521 13.6216 43.6604 0.0000 38.0314 0.0000
# 6 0.0000 0.0000 0.0000 22.1677 0.0000 45.4921
#
#
#
# Elastic Compliance Matrix: (Units=1/GPa)
#
#
# Indices 1 2 3 4 5 6 
#
# 1 0.035108 -0.008172 0.020948 0.000000 -0.045817 0.000000
# 2 -0.008172 0.011119 -0.010476 0.000000 0.013793 0.000000
# 3 0.020948 -0.010476 0.045343 0.000000 -0.063037 0.000000
# 4 0.000000 0.000000 0.000000 0.034184 0.000000 -0.016658
# 5 -0.045817 0.013793 -0.063037 0.000000 0.125950 0.000000
# 6 0.000000 0.000000 0.000000 -0.016658 0.000000 0.030099
#
#
# Mechanical properties :
#
#
# Convention : Reuss Voigt Hill
#
# Bulk Modulus (GPa) = 10.39832 47.12772 28.76302
# Shear Modulus (GPa) = 16.16758 37.59937 26.88348
#
# Velocity S-wave (km/s) = 2.65544 4.04952 3.42417
# Velocity P-wave (km/s) = 3.73322 6.51300 5.30830
#
# Compressibility (1/GPa) = 0.09616941
#
# Stress axis : x y z
#
# Youngs Moduli (GPa) = 28.48370 89.93399 22.05396
#
# Poissons Ratio (x) = 0.73493 -0.46198
# Poissons Ratio (y) = 0.23276 0.23105
# Poissons Ratio (z) = -0.59667 0.94219
#
# Static dielectric constant tensor:
#      x y z
#    x 1.936080 0.000000 0.078800 
#    y 0.000000 2.005600 0.000000 
#    z 0.078800 0.000000 1.871970 
# 
# From -- ./inp_files/9277.got.cif
#   From: 2010.05.17/outbox.cif.g08.bks.cpg/sg9_5_cif.got.tgz:9277.got - 2010.06.03 20:04:27.
