data_PCOD9133037
_publ_section_title
;
Structure prediction by ZEFSAII (Michael W. Deem and Ramdas Pophale) SiO2 
 PCOD9133037
Probable space group: C M
;
_chemical_formula_sum "Si O2"
_cell_formula_units_Z 32
_cell_length_a 21.870770
_cell_length_b 8.432922
_cell_length_c 22.853517
_cell_angle_alpha 90.000000
_cell_angle_beta 21.804215
_cell_angle_gamma 90.000000
_cell_volume 1565.594755
_symmetry_space_group_name_H-M "C M"
_symmetry_group_IT_number 8
_symmetry_cell_setting 'monoclinic'
loop_
_space_group_symop_operation_xyz
x,y,z
x,-y,z
1/2+x,1/2+y,z
1/2+x,1/2-y,z
loop_
_atom_site_type_symbol
_atom_site_label
_atom_site_fract_x
_atom_site_fract_y
_atom_site_fract_z
Si Si1 0.935290 0.690483 0.714820
Si Si2 0.788945 0.177676 0.612173
Si Si3 0.099031 0.175849 0.874550
Si Si4 0.198132 0.812689 0.385932
Si Si5 0.049398 0.810975 0.050143
Si Si6 0.786994 0.823189 0.068245
Si Si7 0.513330 0.691682 0.772063
Si Si8 0.119412 0.317910 0.327792
O O1 0.933279 0.500000 0.718281
O O2 0.741049 0.742450 0.886908
O O3 0.056325 0.739739 0.553966
O O4 0.009896 0.760488 0.708038
O O5 0.715527 0.194355 0.742843
O O6 0.656711 0.219653 0.680037
O O7 0.926020 0.311192 0.490109
O O8 0.852297 0.000000 0.547590
O O9 0.022559 0.217752 0.004529
O O10 0.177540 0.000000 0.811898
O O11 0.958955 0.160806 0.950231
O O12 0.158266 0.764417 0.354382
O O13 0.189790 0.000000 0.400125
O O14 0.390139 0.759917 0.224793
O O15 0.045454 0.000000 0.064056
O O16 0.683728 0.738950 0.210362
O O17 0.715368 0.000000 0.122293
O O18 0.842097 0.758008 0.956797
O O19 0.527340 0.500000 0.765840
O O20 0.181163 0.500000 0.276243
#
# Coordination Sequence:
#
# PCOD9133037 Si02
#       8
#     4   4   4   4   4   4   4   4
#     4  11  24  43  67  93 124 171 220 264 314 374
#     4  11  22  35  55  89 124 159 202 254 312 373
#     4   9  16  33  58  84 113 155 200 242 300 369
#     4  12  25  40  63  98 134 167 206 263 322 378
#     4  10  21  40  65  91 124 168 213 257 315 381
#     4   8  16  32  59  85 110 149 196 242 295 358
#     4  10  21  42  64  85 116 161 210 258 309 369
#     4  11  20  37  61  89 123 162 203 250 309 376
#
# _framework density 20.439516999999999
#
# number of rings (size 3 to 8) (size 9 to 14) (size 15 to 20)
#    0.000    1.750    1.250    4.875    0.000    2.500 
#    2.250    1.875    0.000    0.000    0.000    0.000 
#    0.000    0.000    0.000    0.000    0.000    0.000 
#
# Total GULP energy -89088.769837 kJ/mol
# GULP energy per Si atom -5568.048115 kJ/mol
# Density = 2.039300 g / cm^3
# Si number density = 20.439517 Si / 1000 Ang^3
#
#
#
# Elastic Constant Matrix: (Units=GPa)
#
#
# Indices 1 2 3 4 5 6 
#
# 1 57.6891 12.4147 36.7632 0.0001 13.5083 0.0000
# 2 12.4147 62.9614 23.5460 0.0007 2.1536 -0.0004
# 3 36.7632 23.5460 112.8107 0.0003 11.0478 -0.0001
# 4 0.0001 0.0007 0.0003 15.0296 -0.0002 4.6498
# 5 13.5083 2.1536 11.0478 -0.0002 28.5769 0.0002
# 6 0.0000 -0.0004 -0.0001 4.6498 0.0002 22.2851
#
#
#
# Elastic Compliance Matrix: (Units=1/GPa)
#
#
# Indices 1 2 3 4 5 6 
#
# 1 0.023957 -0.001980 -0.006547 0.000000 -0.008644 0.000000
# 2 -0.001980 0.017391 -0.003064 -0.000001 0.000810 0.000001
# 3 -0.006547 -0.003064 0.011757 0.000000 -0.001219 0.000000
# 4 0.000000 -0.000001 0.000000 0.071127 0.000001 -0.014841
# 5 -0.008644 0.000810 -0.001219 0.000001 0.039490 0.000000
# 6 0.000000 0.000001 0.000000 -0.014841 0.000000 0.047969
#
#
# Mechanical properties :
#
#
# Convention : Reuss Voigt Hill
#
# Bulk Modulus (GPa) = 33.41918 42.10101 37.76010
# Shear Modulus (GPa) = 20.42087 23.89414 22.15751
#
# Velocity S-wave (km/s) = 3.16426 3.42280 3.29607
# Velocity P-wave (km/s) = 5.45306 6.02190 5.74453
#
# Compressibility (1/GPa) = 0.02992293
#
# Stress axis : x y z
#
# Youngs Moduli (GPa) = 41.74172 57.50006 85.05515
#
# Poissons Ratio (x) = 0.11383 0.55689
# Poissons Ratio (y) = 0.08263 0.26062
# Poissons Ratio (z) = 0.27330 0.17619
#
# Static dielectric constant tensor:
#      x y z
#    x 1.730810 0.000000 0.012600 
#    y 0.000000 1.718970 0.000000 
#    z 0.012600 0.000000 1.825710 
# 
# From -- ./inp_files/32381.got.cif
#   From: 2010.05.17/outbox.cif.g08.bks.cpg/sg8_17_cif.got.tgz:32381.got - 2010.06.03 19:46:02.
