data_PCOD9133689
_publ_section_title
;
Structure prediction by ZEFSAII (Michael W. Deem and Ramdas Pophale) SiO2 
 PCOD9133689
Probable space group: C M
;
_chemical_formula_sum "Si O2"
_cell_formula_units_Z 16
_cell_length_a 21.000000
_cell_length_b 9.000000
_cell_length_c 27.000000
_cell_angle_alpha 90.000000
_cell_angle_beta 160.000000
_cell_angle_gamma 90.000000
_cell_volume 1745.328791
_symmetry_space_group_name_H-M "C M"
_symmetry_group_IT_number 8
_symmetry_cell_setting 'monoclinic'
loop_
_space_group_symop_operation_xyz
x,y,z
x,-y,z
1/2+x,1/2+y,z
1/2+x,1/2-y,z
loop_
_atom_site_type_symbol
_atom_site_label
_atom_site_fract_x
_atom_site_fract_y
_atom_site_fract_z
Si Si1 0.732930 0.677625 0.110850
Si Si2 0.832487 0.676989 0.797637
Si Si3 0.570093 0.679032 0.789742
Si Si4 0.567335 0.180941 0.279809
Si Si5 0.237701 0.822867 0.612869
Si Si6 0.332513 0.178207 0.297703
Si Si7 0.976805 0.820541 0.107678
Si Si8 0.988470 0.821273 0.615015
O O1 0.712497 0.500000 0.090480
O O2 0.784907 0.709091 0.205672
O O3 0.904900 0.721894 0.200541
O O4 0.533334 0.750414 0.953986
O O5 0.850140 0.500000 0.819516
O O6 0.782661 0.699175 0.703739
O O7 0.660408 0.733391 0.706338
O O8 0.578270 0.500000 0.803540
O O9 0.402781 0.746170 0.701204
O O10 0.524009 0.709060 0.698573
O O11 0.774478 0.750049 0.947664
O O12 0.524521 0.258092 0.196625
O O13 0.777933 0.227067 0.448388
O O14 0.563993 0.000000 0.272908
O O15 0.030059 0.756931 0.452999
O O16 0.237300 0.000000 0.602258
O O17 0.151570 0.220146 0.199061
O O18 0.358146 0.000000 0.322421
O O19 0.961495 0.000000 0.095884
O O20 0.987633 0.000000 0.608020
#
# Coordination Sequence:
#
# PCOD9133689 Si02
#       8
#     4   4   4   4   4   4   4   4
#     4  10  21  37  58  83 110 145 188 231 276 329
#     4  10  21  37  57  82 112 145 183 230 280 330
#     4  11  22  38  61  85 113 151 191 231 280 338
#     4  10  20  37  60  82 108 146 190 232 277 333
#     4  11  23  38  59  87 117 148 186 234 284 336
#     4  10  22  40  60  83 114 151 190 233 281 334
#     4  11  23  38  57  85 119 150 186 234 282 332
#     4   9  19  37  60  83 107 142 190 235 274 326
#
# _framework density 9.1673270000000002
#
# number of rings (size 3 to 8) (size 9 to 14) (size 15 to 20)
#    0.000    1.750    0.000    4.125    0.000    8.000 
#    0.000    3.750    0.000    0.000    0.000    0.000 
#    0.000    0.000    0.000    0.000    0.000    0.000 
#
# Total GULP energy -89317.626200 kJ/mol
# GULP energy per Si atom -5582.351637 kJ/mol
# Density = 0.914646 g / cm^3
# Si number density = 9.167327 Si / 1000 Ang^3
#
#
#
# Elastic Constant Matrix: (Units=GPa)
#
#
# Indices 1 2 3 4 5 6 
#
# 1 189.5704 64.3237 108.7310 -0.0019 34.5894 -0.0006
# 2 64.3237 63.4261 72.9897 -0.0003 4.2849 0.0014
# 3 108.7310 72.9897 226.6927 0.0024 21.0687 0.0022
# 4 -0.0019 -0.0003 0.0024 37.4719 0.0009 8.8888
# 5 34.5894 4.2849 21.0687 0.0009 40.6256 -0.0001
# 6 -0.0006 0.0014 0.0022 8.8888 -0.0001 28.6079
#
#
#
# Elastic Compliance Matrix: (Units=1/GPa)
#
#
# Indices 1 2 3 4 5 6 
#
# 1 0.010214 -0.007936 -0.001695 0.000001 -0.006980 0.000001
# 2 -0.007936 0.031315 -0.006931 0.000000 0.007049 -0.000001
# 3 -0.001695 -0.006931 0.007621 -0.000001 -0.001778 0.000000
# 4 0.000001 0.000000 -0.000001 0.028810 -0.000001 -0.008952
# 5 -0.006980 0.007049 -0.001778 -0.000001 0.030737 0.000000
# 6 0.000001 -0.000001 0.000000 -0.008952 0.000000 0.037737
#
#
# Mechanical properties :
#
#
# Convention : Reuss Voigt Hill
#
# Bulk Modulus (GPa) = 62.40186 107.97533 85.18860
# Shear Modulus (GPa) = 27.04160 36.91738 31.97949
#
# Velocity S-wave (km/s) = 3.84460 4.49211 4.18090
# Velocity P-wave (km/s) = 7.33599 9.26955 8.35887
#
# Compressibility (1/GPa) = 0.01602516
#
# Stress axis : x y z
#
# Youngs Moduli (GPa) = 97.90791 31.93343 131.21312
#
# Poissons Ratio (x) = 0.25343 0.22239
# Poissons Ratio (y) = 0.77702 0.90948
# Poissons Ratio (z) = 0.16594 0.22134
#
# Static dielectric constant tensor:
#      x y z
#    x 1.621410 0.000000 -0.006580 
#    y 0.000000 1.627720 0.000000 
#    z -0.006580 0.000000 1.625180 
# 
# From -- ./inp_files/29752.got.cif
#   From: 2010.05.17/outbox.ucp.g08.bks.cvg/sg8_15_cif.got.tgz:29752.got - 2010.06.11 13:00:03.
