data_PCOD9133835
_publ_section_title
;
Structure prediction by ZEFSAII (Michael W. Deem and Ramdas Pophale) SiO2 
 PCOD9133835
Probable space group: C C
;
_chemical_formula_sum "Si O2"
_cell_formula_units_Z 28
_cell_length_a 16.161313
_cell_length_b 15.090306
_cell_length_c 5.421918
_cell_angle_alpha 90.000000
_cell_angle_beta 108.467926
_cell_angle_gamma 90.000000
_cell_volume 1254.196218
_symmetry_space_group_name_H-M "C C"
_symmetry_group_IT_number 9
_symmetry_cell_setting 'monoclinic'
loop_
_space_group_symop_operation_xyz
x,y,z
x,-y,1/2+z
1/2+x,1/2+y,z
1/2+x,1/2-y,1/2+z
loop_
_atom_site_type_symbol
_atom_site_label
_atom_site_fract_x
_atom_site_fract_y
_atom_site_fract_z
Si Si1 0.346960 0.192628 0.441780
Si Si2 0.701706 0.850679 0.317156
Si Si3 0.410640 0.542074 0.646699
Si Si4 0.084322 0.123408 0.728861
Si Si5 0.759136 0.145812 0.369355
Si Si6 0.275156 0.854273 0.372105
Si Si7 0.540683 0.730977 0.186476
O O1 0.272389 0.269400 0.364513
O O2 0.325248 0.134253 0.662621
O O3 0.440817 0.238346 0.563592
O O4 0.334013 0.141065 0.172099
O O5 0.732366 0.899519 0.590622
O O6 0.606034 0.813276 0.274992
O O7 0.708172 0.891919 0.054356
O O8 0.385119 0.474519 0.404751
O O9 0.513648 0.548294 0.714136
O O10 0.361572 0.630991 0.515240
O O11 0.184471 0.093694 0.806026
O O12 0.056484 0.170881 0.445132
O O13 0.071184 0.184326 0.960412
O O14 0.742384 0.250660 0.332040
#
# Coordination Sequence:
#
# PCOD9133835 Si02
#       7
#     4   4   4   4   4   4   4
#     4  10  18  28  43  72 113 133 177 214 286 375
#     4  10  17  31  48  80 106 144 187 223 307 351
#     4  12  26  40  55  83 120 173 209 222 282 360
#     4  12  20  36  55  77 114 151 197 251 275 355
#     4  10  18  35  52  72 114 142 193 242 268 352
#     4  10  18  33  50  78 102 147 181 239 309 323
#     4  12  19  31  55  82 111 154 180 241 311 352
#
# _framework density 22.325054999999999
#
# number of rings (size 3 to 8) (size 9 to 14) (size 15 to 20)
#    0.000    1.143    5.714    6.000    0.000    0.000 
#    0.000    0.000    0.000    0.000    0.000    0.000 
#    0.000   22.857    0.000    0.000    0.000    0.000 
#
# Total GULP energy -78139.680552 kJ/mol
# GULP energy per Si atom -5581.405754 kJ/mol
# Density = 2.227424 g / cm^3
# Si number density = 22.325055 Si / 1000 Ang^3
#
#
#
# Elastic Constant Matrix: (Units=GPa)
#
#
# Indices 1 2 3 4 5 6 
#
# 1 83.4298 -6.6703 42.0210 0.0000 -6.5255 0.0000
# 2 -6.6703 8.4518 -1.7352 0.0000 0.3603 0.0000
# 3 42.0210 -1.7352 197.6498 0.0000 -37.9401 0.0000
# 4 0.0000 0.0000 0.0000 16.1003 0.0000 0.9859
# 5 -6.5255 0.3603 -37.9401 0.0000 53.9849 0.0000
# 6 0.0000 0.0000 0.0000 0.9859 0.0000 9.8085
#
#
#
# Elastic Compliance Matrix: (Units=1/GPa)
#
#
# Indices 1 2 3 4 5 6 
#
# 1 0.014340 0.010712 -0.003047 0.000000 -0.000479 0.000000
# 2 0.010712 0.126534 -0.001248 0.000000 -0.000427 0.000000
# 3 -0.003047 -0.001248 0.006505 0.000000 0.004211 0.000000
# 4 0.000000 0.000000 0.000000 0.062495 0.000000 -0.006282
# 5 -0.000479 -0.000427 0.004211 0.000000 0.021428 0.000000
# 6 0.000000 0.000000 0.000000 -0.006282 0.000000 0.102583
#
#
# Mechanical properties :
#
#
# Convention : Reuss Voigt Hill
#
# Bulk Modulus (GPa) = 6.24173 39.64026 22.94100
# Shear Modulus (GPa) = 13.35273 33.03981 23.19627
#
# Velocity S-wave (km/s) = 2.44827 3.85118 3.22689
# Velocity P-wave (km/s) = 3.28542 6.12943 4.91751
#
# Compressibility (1/GPa) = 0.16021194
#
# Stress axis : x y z
#
# Youngs Moduli (GPa) = 69.73724 7.90301 153.73681
#
# Poissons Ratio (x) = -0.08466 0.46837
# Poissons Ratio (y) = -0.74702 0.19194
# Poissons Ratio (z) = 0.21246 0.00987
#
# Static dielectric constant tensor:
#      x y z
#    x 1.828770 0.000000 -0.041560 
#    y 0.000000 1.854160 0.000000 
#    z -0.041560 0.000000 1.926630 
# 
# From -- ./inp_files/2481.got.cif
#   From: 2010.05.17/outbox.cif.g08.bks.cpg/sg9_2_cif.got.tgz:2481.got - 2010.06.03 20:04:27.
