data_PCOD9133910
_publ_section_title
;
Structure prediction by ZEFSAII (Michael W. Deem and Ramdas Pophale) SiO2 
 PCOD9133910
Probable space group: C C
;
_chemical_formula_sum "Si O2"
_cell_formula_units_Z 28
_cell_length_a 8.895938
_cell_length_b 15.322175
_cell_length_c 15.077138
_cell_angle_alpha 90.000000
_cell_angle_beta 40.727158
_cell_angle_gamma 90.000000
_cell_volume 1340.859970
_symmetry_space_group_name_H-M "C C"
_symmetry_group_IT_number 9
_symmetry_cell_setting 'monoclinic'
loop_
_space_group_symop_operation_xyz
x,y,z
x,-y,1/2+z
1/2+x,1/2+y,z
1/2+x,1/2-y,1/2+z
loop_
_atom_site_type_symbol
_atom_site_label
_atom_site_fract_x
_atom_site_fract_y
_atom_site_fract_z
Si Si1 0.444920 0.150067 0.119670
Si Si2 0.446732 0.388679 0.094306
Si Si3 0.468430 0.166422 0.378808
Si Si4 0.580255 0.267604 0.488815
Si Si5 0.263803 0.430536 0.612945
Si Si6 0.586017 0.257149 0.694324
Si Si7 0.862249 0.196661 0.803496
O O1 0.572453 0.075119 0.119742
O O2 0.199120 0.152253 0.180075
O O3 0.395003 0.224300 0.217205
O O4 0.626437 0.177392 0.961665
O O5 0.389872 0.479196 0.073062
O O6 0.272671 0.318802 0.128750
O O7 0.408917 0.384870 0.218239
O O8 0.711422 0.360675 0.966030
O O9 0.485553 0.185525 0.474802
O O10 0.635881 0.096197 0.261437
O O11 0.519626 0.260887 0.309892
O O12 0.447137 0.353512 0.514581
O O13 0.543549 0.263018 0.609577
O O14 0.852871 0.267492 0.348630
#
# Coordination Sequence:
#
# PCOD9133910 Si02
#       7
#     4   4   4   4   4   4   4
#     4  10  20  40  70  95 130 179 225 266 333 404
#     4  11  25  42  68  99 135 177 222 285 345 390
#     4  11  21  45  70  91 133 186 226 266 334 411
#     4  12  23  42  68 102 131 174 237 271 319 417
#     4  11  25  43  65 102 134 175 222 288 339 394
#     4  11  23  39  68 101 131 174 231 274 323 410
#     4  10  17  39  73  92 118 179 231 254 327 408
#
# _framework density 20.882121000000001
#
# number of rings (size 3 to 8) (size 9 to 14) (size 15 to 20)
#    0.000    1.143    5.714    2.571    4.000    0.000 
#    2.571    0.000    0.000    0.000    0.000    0.000 
#    0.000    0.000    0.000    0.000    0.000    0.000 
#
# Total GULP energy -77961.767809 kJ/mol
# GULP energy per Si atom -5568.697701 kJ/mol
# Density = 2.083459 g / cm^3
# Si number density = 20.882121 Si / 1000 Ang^3
#
#
#
# Elastic Constant Matrix: (Units=GPa)
#
#
# Indices 1 2 3 4 5 6 
#
# 1 111.4535 36.1334 30.9796 0.0003 -8.6044 0.0000
# 2 36.1334 61.3863 16.1296 0.0033 -10.1099 -0.0009
# 3 30.9796 16.1296 102.3597 0.0034 2.2498 0.0002
# 4 0.0003 0.0033 0.0034 14.8670 -0.0015 -2.1715
# 5 -8.6044 -10.1099 2.2498 -0.0015 46.1970 0.0008
# 6 0.0000 -0.0009 0.0002 -2.1715 0.0008 27.0122
#
#
#
# Elastic Compliance Matrix: (Units=1/GPa)
#
#
# Indices 1 2 3 4 5 6 
#
# 1 0.011742 -0.006060 -0.002620 0.000002 0.000988 0.000000
# 2 -0.006060 0.020836 -0.001526 -0.000004 0.003505 0.000000
# 3 -0.002620 -0.001526 0.010833 -0.000002 -0.001350 0.000000
# 4 0.000002 -0.000004 -0.000002 0.068062 0.000002 0.005472
# 5 0.000988 0.003505 -0.001350 0.000002 0.022663 0.000000
# 6 0.000000 0.000000 0.000000 0.005472 0.000000 0.037460
#
#
# Mechanical properties :
#
#
# Convention : Reuss Voigt Hill
#
# Bulk Modulus (GPa) = 43.48459 49.07606 46.28033
# Shear Modulus (GPa) = 25.04070 30.41237 27.72653
#
# Velocity S-wave (km/s) = 3.46662 3.82040 3.64780
# Velocity P-wave (km/s) = 6.07391 6.55844 6.32082
#
# Compressibility (1/GPa) = 0.02299665
#
# Stress axis : x y z
#
# Youngs Moduli (GPa) = 85.16618 47.99445 92.31291
#
# Poissons Ratio (x) = 0.29085 0.24190
# Poissons Ratio (y) = 0.51612 0.14088
# Poissons Ratio (z) = 0.22318 0.07325
#
# Static dielectric constant tensor:
#      x y z
#    x 1.847180 0.000000 0.003860 
#    y 0.000000 1.767020 0.000000 
#    z 0.003860 0.000000 1.768980 
# 
# From -- ./inp_files/23323.got.cif
#   From: 2010.05.17/outbox.cif.g08.bks.cpg/sg9_12_cif.got.tgz:23323.got - 2010.06.03 20:04:27.
