data_PCOD9133338
_publ_section_title
;
Structure prediction by ZEFSAII (Michael W. Deem and Ramdas Pophale) SiO2 
 PCOD9133338
Probable space group: C M
;
_chemical_formula_sum "Si O2"
_cell_formula_units_Z 30
_cell_length_a 10.198050
_cell_length_b 25.790623
_cell_length_c 7.104852
_cell_angle_alpha 90.000000
_cell_angle_beta 43.058279
_cell_angle_gamma 90.000000
_cell_volume 1275.823417
_symmetry_space_group_name_H-M "C M"
_symmetry_group_IT_number 8
_symmetry_cell_setting 'monoclinic'
loop_
_space_group_symop_operation_xyz
x,y,z
x,-y,z
1/2+x,1/2+y,z
1/2+x,1/2-y,z
loop_
_atom_site_type_symbol
_atom_site_label
_atom_site_fract_x
_atom_site_fract_y
_atom_site_fract_z
Si Si1 0.584700 0.169642 0.151150
Si Si2 0.371267 0.904848 0.110822
Si Si3 0.190852 0.778661 0.913593
Si Si4 0.014254 0.593392 0.535504
Si Si5 0.963541 0.500000 0.289597
Si Si6 0.984577 0.853049 0.581165
Si Si7 0.867933 0.851502 0.283068
Si Si8 0.113176 0.255567 0.574379
O O1 0.484297 0.144745 0.074145
O O2 0.582708 0.231602 0.138560
O O3 0.476796 0.142902 0.438303
O O4 0.809259 0.150572 0.912868
O O5 0.450156 0.954412 0.139500
O O6 0.406649 0.908302 0.849196
O O7 0.147797 0.896773 0.405851
O O8 0.084641 0.833941 0.014370
O O9 0.183824 0.757360 0.709132
O O10 0.398113 0.778146 0.791890
O O11 0.974724 0.545060 0.443708
O O12 0.242838 0.600462 0.342834
O O13 0.875916 0.856411 0.498518
O O14 0.095928 0.798653 0.483751
O O15 0.752294 0.799376 0.349347
#
# Coordination Sequence:
#
# PCOD9133338 Si02
#       8
#     4   4   4   4   2   4   4   4
#     4  10  22  46  67 108 145 196 245 293 358 441
#     4  11  23  48  76 101 145 182 240 320 384 444
#     4  11  24  38  63 101 154 200 254 293 346 437
#     4  11  24  47  79 104 141 190 246 311 391 451
#     4  10  26  50  82 104 136 188 250 320 402 462
#     4  11  24  42  69 104 149 197 247 300 361 443
#     4  12  24  38  66 104 145 196 243 298 359 435
#     4  11  23  41  63 100 150 207 248 294 354 428
#
# _framework density 23.514229
#
# number of rings (size 3 to 8) (size 9 to 14) (size 15 to 20)
#    0.000    1.067    4.000    2.800    7.467    2.133 
#    4.800    3.333    0.000    0.000    0.000    0.000 
#    0.000    0.000    0.000    0.000    0.000    0.000 
#
# Total GULP energy -83604.689105 kJ/mol
# GULP energy per Si atom -5573.645940 kJ/mol
# Density = 2.346071 g / cm^3
# Si number density = 23.514229 Si / 1000 Ang^3
#
#
#
# Elastic Constant Matrix: (Units=GPa)
#
#
# Indices 1 2 3 4 5 6 
#
# 1 119.2081 31.8975 52.0563 0.0000 16.4908 0.0000
# 2 31.8975 85.6024 35.1689 0.0000 12.6815 0.0000
# 3 52.0563 35.1689 141.8287 0.0000 1.2602 0.0000
# 4 0.0000 0.0000 0.0000 9.8178 0.0000 23.0743
# 5 16.4908 12.6815 1.2602 0.0000 52.8651 0.0000
# 6 0.0000 0.0000 0.0000 23.0743 0.0000 32.2594
#
#
#
# Elastic Compliance Matrix: (Units=1/GPa)
#
#
# Indices 1 2 3 4 5 6 
#
# 1 0.010857 -0.002236 -0.003406 0.000000 -0.002769 0.000000
# 2 -0.002236 0.013976 -0.002622 0.000000 -0.002593 0.000000
# 3 -0.003406 -0.002622 0.008938 0.000000 0.001478 0.000000
# 4 0.000000 0.000000 0.000000 -0.149551 0.000000 0.106970
# 5 -0.002769 -0.002593 0.001478 0.000000 0.020367 0.000000
# 6 0.000000 0.000000 0.000000 0.106970 0.000000 -0.045514
#
#
# Mechanical properties :
#
#
# Convention : Reuss Voigt Hill
#
# Bulk Modulus (GPa) = 57.99230 64.98716 61.48973
# Shear Modulus (GPa) = -42.14074 34.15621 -3.99227
#
# Velocity S-wave (km/s) = -4.23796 3.81540 -1.30441
# Velocity P-wave (km/s) = 0.87701 6.86346 4.89266
#
# Compressibility (1/GPa) = 0.01724367
#
# Stress axis : x y z
#
# Youngs Moduli (GPa) = 92.10242 71.54895 111.88319
#
# Poissons Ratio (x) = 0.16000 0.38107
# Poissons Ratio (y) = 0.20596 0.29335
# Poissons Ratio (z) = 0.31370 0.18759
#
# Static dielectric constant tensor:
#      x y z
#    x 1.942810 0.000000 -0.008720 
#    y 0.000000 1.864740 0.000000 
#    z -0.008720 0.000000 2.031070 
# 
# From -- ./inp_files/9159.got.cif
#   From: 2010.05.17/outbox.cif.g08.bks.cpg/sg8_5_cif.got.tgz:9159.got - 2010.06.03 19:46:02.
