data_PCOD9133820
_publ_section_title
;
Structure prediction by ZEFSAII (Michael W. Deem and Ramdas Pophale) SiO2 
 PCOD9133820
Probable space group: C C
;
_chemical_formula_sum "Si O2"
_cell_formula_units_Z 32
_cell_length_a 6.907843
_cell_length_b 19.199021
_cell_length_c 9.829938
_cell_angle_alpha 90.000000
_cell_angle_beta 119.261854
_cell_angle_gamma 90.000000
_cell_volume 1137.327230
_symmetry_space_group_name_H-M "C C"
_symmetry_group_IT_number 9
_symmetry_cell_setting 'monoclinic'
loop_
_space_group_symop_operation_xyz
x,y,z
x,-y,1/2+z
1/2+x,1/2+y,z
1/2+x,1/2-y,1/2+z
loop_
_atom_site_type_symbol
_atom_site_label
_atom_site_fract_x
_atom_site_fract_y
_atom_site_fract_z
Si Si1 0.119630 0.023378 0.360950
Si Si2 0.804126 0.113017 0.089089
Si Si3 0.806502 0.350790 0.042135
Si Si4 0.202471 0.523378 0.429012
Si Si5 0.111789 0.277280 0.352646
Si Si6 0.515600 0.149210 0.247827
Si Si7 0.017975 0.113017 0.700872
Si Si8 0.710314 0.722720 0.937316
O O1 0.312348 0.069145 0.495623
O O2 0.021193 0.070479 0.204991
O O3 0.911051 0.016858 0.394981
O O4 0.166996 0.946754 0.323441
O O5 0.697454 0.143077 0.189533
O O6 0.804506 0.176316 0.986186
O O7 0.655104 0.053246 0.966520
O O8 0.624648 0.356923 0.100429
O O9 0.012116 0.312631 0.184155
O O10 0.700355 0.301369 0.889786
O O11 0.009753 0.569145 0.294339
O O12 0.300908 0.570479 0.584971
O O13 0.911052 0.280480 0.394981
O O14 0.621748 0.198631 0.400176
O O15 0.309987 0.187369 0.105807
O O16 0.017596 0.176317 0.803775
#
# Coordination Sequence:
#
# PCOD9133820 Si02
#       8
#     4   4   4   4   4   4   4   4
#     4   9  17  30  45  65  93 125 154 180 220 273
#     4   9  17  28  44  67  93 123 150 183 228 265
#     4  10  18  29  47  72  95 115 148 190 229 269
#     4   9  17  30  45  65  93 125 154 180 220 273
#     4  10  17  27  45  70  93 113 145 190 230 265
#     4  10  18  29  47  72  95 115 148 190 229 269
#     4   9  17  28  44  67  93 123 150 183 228 265
#     4  10  17  27  45  70  93 113 145 190 230 265
#
# _framework density 28.136140000000001
#
# number of rings (size 3 to 8) (size 9 to 14) (size 15 to 20)
#    0.000    2.500    0.000    6.750    0.000    1.000 
#    0.000    0.000    0.000    0.000    0.000   68.250 
#    0.000    0.000    0.000    0.000    0.000    0.000 
#
# Total GULP energy -89635.924871 kJ/mol
# GULP energy per Si atom -5602.245304 kJ/mol
# Density = 2.807210 g / cm^3
# Si number density = 28.136140 Si / 1000 Ang^3
#
#
#
# Elastic Constant Matrix: (Units=GPa)
#
#
# Indices 1 2 3 4 5 6 
#
# 1 136.8610 -1.1846 30.9472 0.0000 3.5381 0.0000
# 2 -1.1846 185.8313 46.0854 0.0000 1.4572 0.0000
# 3 30.9472 46.0854 101.5204 0.0000 -9.8619 0.0000
# 4 0.0000 0.0000 0.0000 81.3617 0.0000 -6.4456
# 5 3.5381 1.4572 -9.8619 0.0000 37.1681 0.0000
# 6 0.0000 0.0000 0.0000 -6.4456 0.0000 -1.7927
#
#
#
# Elastic Compliance Matrix: (Units=1/GPa)
#
#
# Indices 1 2 3 4 5 6 
#
# 1 0.008024 0.000798 -0.002962 0.000000 -0.001581 0.000000
# 2 0.000798 0.006179 -0.003161 0.000000 -0.001157 0.000000
# 3 -0.002962 -0.003161 0.012551 0.000000 0.003736 0.000000
# 4 0.000000 0.000000 0.000000 0.009566 0.000000 -0.034394
# 5 -0.001581 -0.001157 0.003736 0.000000 0.028092 0.000000
# 6 0.000000 0.000000 0.000000 -0.034394 0.000000 -0.434156
#
#
# Mechanical properties :
#
#
# Convention : Reuss Voigt Hill
#
# Bulk Modulus (GPa) = 62.09195 63.98985 63.04090
# Shear Modulus (GPa) = -14.13524 46.57174 16.21825
#
# Velocity S-wave (km/s) = -2.24383 4.07286 2.40348
# Velocity P-wave (km/s) = 3.92470 6.70149 5.49150
#
# Compressibility (1/GPa) = 0.01610515
#
# Stress axis : x y z
#
# Youngs Moduli (GPa) = 124.62256 161.83225 79.67552
#
# Poissons Ratio (x) = -0.12916 0.23600
# Poissons Ratio (y) = -0.09946 0.25183
# Poissons Ratio (z) = 0.36913 0.51151
#
# Static dielectric constant tensor:
#      x y z
#    x 2.238830 0.000000 -0.006150 
#    y 0.000000 2.090260 0.000000 
#    z -0.006150 0.000000 2.184260 
# 
# From -- ./inp_files/17002.got.cif
#   From: 2010.05.17/outbox.cif.g08.bks.cpg/sg9_9_cif.got.tgz:17002.got - 2010.06.03 20:04:27.
