data_PCOD9133853
_publ_section_title
;
Structure prediction by ZEFSAII (Michael W. Deem and Ramdas Pophale) SiO2 
 PCOD9133853
Probable space group: C C
;
_chemical_formula_sum "Si O2"
_cell_formula_units_Z 32
_cell_length_a 20.064939
_cell_length_b 17.705676
_cell_length_c 10.284000
_cell_angle_alpha 90.000000
_cell_angle_beta 18.775139
_cell_angle_gamma 90.000000
_cell_volume 1175.905875
_symmetry_space_group_name_H-M "C C"
_symmetry_group_IT_number 9
_symmetry_cell_setting 'monoclinic'
loop_
_space_group_symop_operation_xyz
x,y,z
x,-y,1/2+z
1/2+x,1/2+y,z
1/2+x,1/2-y,1/2+z
loop_
_atom_site_type_symbol
_atom_site_label
_atom_site_fract_x
_atom_site_fract_y
_atom_site_fract_z
Si Si1 0.711690 0.824165 0.343690
Si Si2 0.710522 0.431100 0.755749
Si Si3 0.758907 0.672242 0.390219
Si Si4 0.212853 0.449935 0.539214
Si Si5 0.231185 0.624042 0.530386
Si Si6 0.213966 0.064904 0.949875
Si Si7 0.663523 0.137119 0.375234
Si Si8 0.710446 0.306611 0.260799
O O1 0.794182 0.760086 0.289413
O O2 0.756286 0.906107 0.324845
O O3 0.790700 0.830214 0.049480
O O4 0.464425 0.806411 0.793478
O O5 0.659816 0.360128 0.941765
O O6 0.657864 0.501814 0.946051
O O7 0.639023 0.439880 0.737978
O O8 0.961071 0.415320 0.274879
O O9 0.658650 0.656906 0.716090
O O10 0.980592 0.632300 0.996275
O O11 0.277279 0.535476 0.442967
O O12 0.277099 0.402224 0.546460
O O13 0.961727 0.445437 0.002400
O O14 0.280356 0.649915 0.294458
O O15 0.167079 0.145444 0.970440
O O16 0.617258 0.223005 0.423640
#
# Coordination Sequence:
#
# PCOD9133853 Si02
#       8
#     4   4   4   4   4   4   4   4
#     4  10  21  33  55  81 114 149 183 224 291 336
#     4  10  20  33  58  85 111 138 190 235 279 320
#     4  10  19  36  51  83 115 149 181 239 274 330
#     4  10  17  33  53  83 104 138 184 235 270 318
#     4  10  20  32  57  81 111 136 193 235 279 321
#     4  10  19  31  54  83 109 135 184 232 274 320
#     4  10  19  32  51  83 115 137 177 238 280 320
#     4  10  21  34  51  81 117 150 180 226 287 335
#
# _framework density 27.213062000000001
#
# number of rings (size 3 to 8) (size 9 to 14) (size 15 to 20)
#    0.000    2.000    3.750    1.500    8.750    0.000 
#    0.000    0.000    0.000    0.000   19.500    0.000 
#    0.000    0.000    0.000    0.000    0.000    0.000 
#
# Total GULP energy -89523.650313 kJ/mol
# GULP energy per Si atom -5595.228145 kJ/mol
# Density = 2.715112 g / cm^3
# Si number density = 27.213062 Si / 1000 Ang^3
#
#
#
# Elastic Constant Matrix: (Units=GPa)
#
#
# Indices 1 2 3 4 5 6 
#
# 1 160.9520 29.7128 43.6291 0.0131 44.9067 -0.1568
# 2 29.7128 108.1714 6.5946 -0.0277 30.5137 -0.1234
# 3 43.6291 6.5946 98.0801 -0.0035 41.7009 -0.1746
# 4 0.0131 -0.0277 -0.0035 46.8341 -0.0063 -24.8933
# 5 44.9067 30.5137 41.7009 -0.0063 82.8806 0.1592
# 6 -0.1568 -0.1234 -0.1746 -24.8933 0.1592 173.8438
#
#
#
# Elastic Compliance Matrix: (Units=1/GPa)
#
#
# Indices 1 2 3 4 5 6 
#
# 1 0.007791 -0.001264 -0.002269 0.000000 -0.002614 0.000006
# 2 -0.001264 0.010628 0.001552 0.000013 -0.004009 0.000014
# 3 -0.002269 0.001552 0.013766 0.000013 -0.006268 0.000020
# 4 0.000000 0.000013 0.000013 0.023111 -0.000016 0.003309
# 5 -0.002614 -0.004009 -0.006268 -0.000016 0.018112 -0.000030
# 6 0.000006 0.000014 0.000020 0.003309 -0.000030 0.006226
#
#
# Mechanical properties :
#
#
# Convention : Reuss Voigt Hill
#
# Bulk Modulus (GPa) = 35.43252 58.56404 46.99828
# Shear Modulus (GPa) = 53.76129 79.86283 66.81206
#
# Velocity S-wave (km/s) = 4.44956 5.42319 4.96032
# Velocity P-wave (km/s) = 6.28067 7.79627 7.07915
#
# Compressibility (1/GPa) = 0.02822266
#
# Stress axis : x y z
#
# Youngs Moduli (GPa) = 128.35506 94.09010 72.64323
#
# Poissons Ratio (x) = 0.11895 0.16484
# Poissons Ratio (y) = 0.16227 -0.11276
# Poissons Ratio (z) = 0.29126 -0.14606
#
# Static dielectric constant tensor:
#      x y z
#    x 2.129090 -0.000100 -0.116010 
#    y -0.000100 2.018700 0.000160 
#    z -0.116010 0.000160 2.285340 
# 
# From -- ./inp_files/20984.got.cif
#   From: 2010.05.17/outbox.cif.g08.bks.cpg/sg9_11_cif.got.tgz:20984.got - 2010.06.03 20:04:27.
