data_PCOD9133756
_publ_section_title
;
Structure prediction by ZEFSAII (Michael W. Deem and Ramdas Pophale) SiO2 
 PCOD9133756
Probable space group: C C
;
_chemical_formula_sum "Si O2"
_cell_formula_units_Z 32
_cell_length_a 7.327026
_cell_length_b 18.889348
_cell_length_c 10.757212
_cell_angle_alpha 90.000000
_cell_angle_beta 110.081668
_cell_angle_gamma 90.000000
_cell_volume 1398.313129
_symmetry_space_group_name_H-M "C C"
_symmetry_group_IT_number 9
_symmetry_cell_setting 'monoclinic'
loop_
_space_group_symop_operation_xyz
x,y,z
x,-y,1/2+z
1/2+x,1/2+y,z
1/2+x,1/2-y,1/2+z
loop_
_atom_site_type_symbol
_atom_site_label
_atom_site_fract_x
_atom_site_fract_y
_atom_site_fract_z
Si Si1 0.794020 0.045747 0.827940
Si Si2 0.722865 0.536650 0.175087
Si Si3 0.326083 0.703491 0.893791
Si Si4 0.766228 0.548361 0.912813
Si Si5 0.824066 0.049590 0.559208
Si Si6 0.215326 0.201541 0.811713
Si Si7 0.625337 0.700334 0.163489
Si Si8 0.409350 0.713362 0.549325
O O1 0.741434 0.124595 0.860478
O O2 0.731124 0.033255 0.671573
O O3 0.030670 0.045547 0.875062
O O4 0.740223 0.988804 0.918824
O O5 0.820926 0.510401 0.324809
O O6 0.544158 0.481475 0.117654
O O7 0.644687 0.616028 0.176639
O O8 0.836376 0.539145 0.070730
O O9 0.516488 0.704159 0.847963
O O10 0.180721 0.760480 0.803001
O O11 0.419320 0.715823 0.050278
O O12 0.805602 0.625006 0.862541
O O13 0.829688 0.133971 0.547550
O O14 0.127884 0.210895 0.653827
O O15 0.357865 0.260464 0.899748
O O16 0.787280 0.731467 0.105751
#
# Coordination Sequence:
#
# PCOD9133756 Si02
#       8
#     4   4   4   4   4   4   4   4
#     4   9  15  26  43  70  95 117 156 204 233 272
#     4  10  16  27  46  73  96 120 161 205 234 275
#     4   9  15  26  43  70  95 117 156 204 233 272
#     4   9  15  26  43  70  95 117 156 204 233 272
#     4  10  16  27  46  73  96 120 161 205 234 275
#     4   9  15  26  43  70  95 117 156 204 233 272
#     4  10  16  27  46  73  96 120 161 205 234 275
#     4  10  16  27  46  73  96 120 161 205 234 275
#
# _framework density 22.884716000000001
#
# number of rings (size 3 to 8) (size 9 to 14) (size 15 to 20)
#    0.000    2.500   10.000    0.000    0.000    0.000 
#    0.000    0.000    0.000    3.000    0.000    0.000 
#    0.000    0.000    0.000    0.000    0.000    0.000 
#
# Total GULP energy -89242.881079 kJ/mol
# GULP energy per Si atom -5577.680067 kJ/mol
# Density = 2.283263 g / cm^3
# Si number density = 22.884716 Si / 1000 Ang^3
#
#
#
# Elastic Constant Matrix: (Units=GPa)
#
#
# Indices 1 2 3 4 5 6 
#
# 1 63.5802 9.6166 29.1212 0.0000 1.3834 0.0000
# 2 9.6166 82.6758 63.7574 0.0000 -4.3604 0.0000
# 3 29.1212 63.7574 175.1787 0.0000 -11.3715 0.0000
# 4 0.0000 0.0000 0.0000 43.2506 0.0000 -2.8825
# 5 1.3834 -4.3604 -11.3715 0.0000 2.9335 0.0000
# 6 0.0000 0.0000 0.0000 -2.8825 0.0000 0.3624
#
#
#
# Elastic Compliance Matrix: (Units=1/GPa)
#
#
# Indices 1 2 3 4 5 6 
#
# 1 0.018570 0.000204 -0.004957 0.000000 -0.027671 0.000000
# 2 0.000204 0.016823 -0.006066 0.000000 0.001395 0.000000
# 3 -0.004957 -0.006066 0.011100 0.000000 0.036349 0.000000
# 4 0.000000 0.000000 0.000000 0.049211 0.000000 0.391466
# 5 -0.027671 0.001395 0.036349 0.000000 0.496913 0.000000
# 6 0.000000 0.000000 0.000000 0.391466 0.000000 5.873764
#
#
# Mechanical properties :
#
#
# Convention : Reuss Voigt Hill
#
# Bulk Modulus (GPa) = 40.23616 58.49170 49.36393
# Shear Modulus (GPa) = 0.76967 23.90527 12.33747
#
# Velocity S-wave (km/s) = 0.58056 3.23553 2.32440
# Velocity P-wave (km/s) = 4.25085 6.29070 5.36855
#
# Compressibility (1/GPa) = 0.02485327
#
# Stress axis : x y z
#
# Youngs Moduli (GPa) = 53.85015 59.44068 90.09020
#
# Poissons Ratio (x) = -0.01210 0.44661
# Poissons Ratio (y) = -0.01096 0.54652
# Poissons Ratio (z) = 0.26696 0.36059
#
# Static dielectric constant tensor:
#      x y z
#    x 1.901070 0.000000 -0.007780 
#    y 0.000000 1.789500 0.000000 
#    z -0.007780 0.000000 1.993790 
# 
# From -- ./inp_files/15191.got.cif
#   From: 2010.05.17/outbox.cif.g08.bks.cpg/sg9_8_cif.got.tgz:15191.got - 2010.06.03 20:04:27.
