data_PCOD9133876
_publ_section_title
;
Structure prediction by ZEFSAII (Michael W. Deem and Ramdas Pophale) SiO2 
 PCOD9133876
Probable space group: C C
;
_chemical_formula_sum "Si O2"
_cell_formula_units_Z 32
_cell_length_a 17.951123
_cell_length_b 5.268812
_cell_length_c 21.299552
_cell_angle_alpha 90.000000
_cell_angle_beta 43.796009
_cell_angle_gamma 90.000000
_cell_volume 1394.245291
_symmetry_space_group_name_H-M "C C"
_symmetry_group_IT_number 9
_symmetry_cell_setting 'monoclinic'
loop_
_space_group_symop_operation_xyz
x,y,z
x,-y,1/2+z
1/2+x,1/2+y,z
1/2+x,1/2-y,1/2+z
loop_
_atom_site_type_symbol
_atom_site_label
_atom_site_fract_x
_atom_site_fract_y
_atom_site_fract_z
Si Si1 0.428170 0.116276 0.261280
Si Si2 0.974649 0.603993 0.867038
Si Si3 0.901960 0.882423 0.475110
Si Si4 0.671909 0.871641 0.548655
Si Si5 0.778731 0.086699 0.159890
Si Si6 0.116987 0.119181 0.063753
Si Si7 0.370617 0.377681 0.733753
Si Si8 0.168277 0.097251 0.183316
O O1 0.555198 0.111898 0.158146
O O2 0.382968 0.398019 0.277394
O O3 0.424611 0.014684 0.333930
O O4 0.360949 0.907344 0.264241
O O5 0.979611 0.343007 0.903789
O O6 0.072960 0.765134 0.778650
O O7 0.922942 0.830635 0.939253
O O8 0.780327 0.834246 0.522207
O O9 0.889050 0.843527 0.557243
O O10 0.661748 0.636619 0.508905
O O11 0.677028 0.130684 0.507910
O O12 0.788792 0.064465 0.228032
O O13 0.697225 0.317179 0.191134
O O14 0.757488 0.808872 0.143488
O O15 0.141364 0.096945 0.125130
O O16 0.990850 0.125942 0.131233
#
# Coordination Sequence:
#
# PCOD9133876 Si02
#       8
#     4   4   4   4   4   4   4   4
#     4  10  20  39  63  88 118 160 214 247 312 355
#     4  12  24  36  62  93 127 162 200 271 314 367
#     4  12  23  35  57  96 132 153 203 258 329 362
#     4  10  18  34  59  85 115 151 203 257 277 358
#     4  12  24  40  64  94 125 162 211 258 309 375
#     4  10  17  34  63  85 113 145 211 253 291 338
#     4  10  21  36  64  93 117 155 208 267 291 363
#     4  12  21  40  64  90 119 164 218 255 303 364
#
# _framework density 22.951483
#
# number of rings (size 3 to 8) (size 9 to 14) (size 15 to 20)
#    0.000    1.000    5.000    3.750    3.500    0.000 
#    0.000    0.000    0.000   30.000    0.000    0.000 
#    0.000    0.000    0.000    0.000    0.000    0.000 
#
# Total GULP energy -89142.935181 kJ/mol
# GULP energy per Si atom -5571.433449 kJ/mol
# Density = 2.289924 g / cm^3
# Si number density = 22.951483 Si / 1000 Ang^3
#
#
#
# Elastic Constant Matrix: (Units=GPa)
#
#
# Indices 1 2 3 4 5 6 
#
# 1 40.2147 10.0147 1.8863 0.0014 6.5926 0.0306
# 2 10.0147 168.2612 15.6570 0.0127 -2.5178 0.0879
# 3 1.8863 15.6570 59.9794 -0.0011 3.5731 0.0042
# 4 0.0014 0.0127 -0.0011 35.6873 -0.0027 -4.4054
# 5 6.5926 -2.5178 3.5731 -0.0027 13.3303 0.0027
# 6 0.0306 0.0879 0.0042 -4.4054 0.0027 16.0194
#
#
#
# Elastic Compliance Matrix: (Units=1/GPa)
#
#
# Indices 1 2 3 4 5 6 
#
# 1 0.027638 -0.001900 0.000470 -0.000007 -0.014154 -0.000042
# 2 -0.001900 0.006256 -0.001727 -0.000006 0.002584 -0.000032
# 3 0.000470 -0.001727 0.017420 0.000001 -0.005228 0.000005
# 4 -0.000007 -0.000006 0.000001 0.029006 0.000006 0.007977
# 5 -0.014154 0.002584 -0.005228 0.000006 0.083906 0.000002
# 6 -0.000042 -0.000032 0.000005 0.007977 0.000002 0.064618
#
#
# Mechanical properties :
#
#
# Convention : Reuss Voigt Hill
#
# Bulk Modulus (GPa) = 22.22298 35.95238 29.08768
# Shear Modulus (GPa) = 19.98731 29.06721 24.52726
#
# Velocity S-wave (km/s) = 2.95422 3.56260 3.27258
# Velocity P-wave (km/s) = 4.61954 5.71151 5.19430
#
# Compressibility (1/GPa) = 0.04499847
#
# Stress axis : x y z
#
# Youngs Moduli (GPa) = 36.18195 159.85521 57.40563
#
# Poissons Ratio (x) = 0.30380 -0.02698
# Poissons Ratio (y) = 0.06876 0.09915
# Poissons Ratio (z) = -0.01701 0.27610
#
# Static dielectric constant tensor:
#      x y z
#    x 1.890140 -0.000010 -0.049110 
#    y -0.000010 1.965510 0.000000 
#    z -0.049110 0.000000 2.015490 
# 
# From -- ./inp_files/33919.got.cif
#   From: 2010.05.17/outbox.cif.g08.bks.cpg/sg9_17_cif.got.tgz:33919.got - 2010.06.03 20:04:27.
