data_PCOD9133464
_publ_section_title
;
Structure prediction by ZEFSAII (Michael W. Deem and Ramdas Pophale) SiO2 
 PCOD9133464
Probable space group: C M
;
_chemical_formula_sum "Si O2"
_cell_formula_units_Z 20
_cell_length_a 4.728925
_cell_length_b 29.976573
_cell_length_c 5.437327
_cell_angle_alpha 90.000000
_cell_angle_beta 95.688406
_cell_angle_gamma 90.000000
_cell_volume 766.983388
_symmetry_space_group_name_H-M "C M"
_symmetry_group_IT_number 8
_symmetry_cell_setting 'monoclinic'
loop_
_space_group_symop_operation_xyz
x,y,z
x,-y,z
1/2+x,1/2+y,z
1/2+x,1/2-y,z
loop_
_atom_site_type_symbol
_atom_site_label
_atom_site_fract_x
_atom_site_fract_y
_atom_site_fract_z
Si Si1 0.366190 0.000000 0.191500
Si Si2 0.690271 0.780494 0.968379
Si Si3 0.713196 0.071677 0.911917
Si Si4 0.601238 0.849862 0.570504
Si Si5 0.386307 0.500000 0.552237
Si Si6 0.548756 0.640339 0.250542
O O1 0.558812 0.000000 0.449868
O O2 0.061794 0.000000 0.308778
O O3 0.488829 0.958495 0.043227
O O4 0.382516 0.763331 0.018338
O O5 0.619065 0.801312 0.693852
O O6 0.876675 0.819147 0.109843
O O7 0.541623 0.110870 0.758050
O O8 0.897106 0.042416 0.733974
O O9 0.381825 0.146116 0.325552
O O10 0.919244 0.859839 0.511627
O O11 0.935858 0.903763 0.109865
#
# Coordination Sequence:
#
# PCOD9133464 Si02
#       6
#     2   4   4   4   2   4
#     4  11  26  47  73 104 141 187 238 297 361 422
#     4  11  24  43  68 103 142 181 234 291 346 419
#     4  10  26  47  72 104 144 186 242 299 352 428
#     4  11  25  44  70 102 140 188 235 288 355 421
#     4  11  26  47  73 104 141 187 238 297 361 422
#     4  11  25  44  70 102 140 188 235 288 355 421
#
# _framework density 26.076184000000001
#
# number of rings (size 3 to 8) (size 9 to 14) (size 15 to 20)
#    0.000    1.200    0.000    3.600    0.000   22.400 
#    0.000    3.000    0.000    0.000    0.000    0.000 
#    0.000    0.000    0.000    0.000    0.000    0.000 
#
# Total GULP energy -55897.382604 kJ/mol
# GULP energy per Si atom -5589.738260 kJ/mol
# Density = 2.601683 g / cm^3
# Si number density = 26.076184 Si / 1000 Ang^3
#
#
#
# Elastic Constant Matrix: (Units=GPa)
#
#
# Indices 1 2 3 4 5 6 
#
# 1 142.4541 31.5144 12.6900 0.0000 2.8936 0.0000
# 2 31.5144 122.5089 33.4542 0.0000 -0.0911 0.0000
# 3 12.6900 33.4542 65.4738 0.0000 -4.9493 0.0000
# 4 0.0000 0.0000 0.0000 43.8740 0.0000 4.7087
# 5 2.8936 -0.0911 -4.9493 0.0000 49.5374 0.0000
# 6 0.0000 0.0000 0.0000 4.7087 0.0000 22.4894
#
#
#
# Elastic Compliance Matrix: (Units=1/GPa)
#
#
# Indices 1 2 3 4 5 6 
#
# 1 0.007472 -0.001763 -0.000585 0.000000 -0.000498 0.000000
# 2 -0.001763 0.009913 -0.004750 0.000000 -0.000353 0.000000
# 3 -0.000585 -0.004750 0.017951 0.000000 0.001819 0.000000
# 4 0.000000 0.000000 0.000000 0.023316 0.000000 -0.004882
# 5 -0.000498 -0.000353 0.001819 0.000000 0.020397 0.000000
# 6 0.000000 0.000000 0.000000 -0.004882 0.000000 0.045487
#
#
# Mechanical properties :
#
#
# Convention : Reuss Voigt Hill
#
# Bulk Modulus (GPa) = 47.30322 53.97266 50.63794
# Shear Modulus (GPa) = 34.29824 40.03206 37.16515
#
# Velocity S-wave (km/s) = 3.63065 3.92241 3.77935
# Velocity P-wave (km/s) = 5.97957 6.42314 6.20532
#
# Compressibility (1/GPa) = 0.02114021
#
# Stress axis : x y z
#
# Youngs Moduli (GPa) = 133.83294 100.87766 55.70615
#
# Poissons Ratio (x) = 0.17781 0.03260
# Poissons Ratio (y) = 0.23590 0.26461
# Poissons Ratio (z) = 0.07832 0.47919
#
# Static dielectric constant tensor:
#      x y z
#    x 1.919590 0.000000 -0.007030 
#    y 0.000000 2.076340 0.000000 
#    z -0.007030 0.000000 2.077480 
# 
# From -- ./inp_files/583.got.cif
#   From: 2010.05.17/outbox.cif.g08.bks.cpg/sg8_1_cif.got.tgz:583.got - 2010.06.03 19:46:02.
