data_PCOD9133601
_publ_section_title
;
Structure prediction by ZEFSAII (Michael W. Deem and Ramdas Pophale) SiO2 
 PCOD9133601
Probable space group: C M
;
_chemical_formula_sum "Si O2"
_cell_formula_units_Z 20
_cell_length_a 7.160683
_cell_length_b 21.415602
_cell_length_c 4.986991
_cell_angle_alpha 90.000000
_cell_angle_beta 113.082380
_cell_angle_gamma 90.000000
_cell_volume 703.531938
_symmetry_space_group_name_H-M "C M"
_symmetry_group_IT_number 8
_symmetry_cell_setting 'monoclinic'
loop_
_space_group_symop_operation_xyz
x,y,z
x,-y,z
1/2+x,1/2+y,z
1/2+x,1/2-y,z
loop_
_atom_site_type_symbol
_atom_site_label
_atom_site_fract_x
_atom_site_fract_y
_atom_site_fract_z
Si Si1 0.670331 0.000000 0.848390
Si Si2 0.214099 0.105437 0.469689
Si Si3 0.862381 0.895513 0.643641
Si Si4 0.034396 0.654982 0.046220
Si Si5 0.620702 0.705643 0.057932
Si Si6 0.372121 0.000000 0.194479
O O1 0.807765 0.061653 0.871591
O O2 0.554808 0.000000 0.504324
O O3 0.495622 0.000000 0.981845
O O4 0.428030 0.119533 0.737448
O O5 0.116422 0.173218 0.347188
O O6 0.249242 0.060725 0.232748
O O7 0.051313 0.075554 0.582312
O O8 0.681180 0.882184 0.330196
O O9 0.442687 0.670732 0.799033
O O10 0.130900 0.721098 0.023620
O O11 0.837184 0.679243 0.090740
#
# Coordination Sequence:
#
# PCOD9133601 Si02
#       6
#     2   4   4   4   4   2
#     4  12  31  51  86 123 163 223 280 353 422 498
#     4  11  27  50  84 119 171 218 281 342 417 501
#     4  11  27  50  86 118 170 219 283 337 423 498
#     4  11  25  48  80 126 167 220 273 346 416 500
#     4  11  25  46  80 122 170 219 276 341 414 506
#     4  12  31  51  86 121 167 219 282 353 422 496
#
# _framework density 28.427989
#
# number of rings (size 3 to 8) (size 9 to 14) (size 15 to 20)
#    0.000    0.800    0.000    4.200   11.200    8.800 
#    0.000    1.000    0.000    0.000    0.000    0.000 
#    0.000    0.000    0.000    0.000    0.000    0.000 
#
# Total GULP energy -55986.223567 kJ/mol
# GULP energy per Si atom -5598.622357 kJ/mol
# Density = 2.836329 g / cm^3
# Si number density = 28.427989 Si / 1000 Ang^3
#
#
#
# Elastic Constant Matrix: (Units=GPa)
#
#
# Indices 1 2 3 4 5 6 
#
# 1 162.9324 93.3643 79.1522 0.0000 -3.5355 0.0000
# 2 93.3643 188.9136 90.0484 0.0000 -18.1978 0.0000
# 3 79.1522 90.0484 187.7512 0.0000 -2.6764 0.0000
# 4 0.0000 0.0000 0.0000 34.2084 0.0000 -9.9243
# 5 -3.5355 -18.1978 -2.6764 0.0000 82.4833 0.0000
# 6 0.0000 0.0000 0.0000 -9.9243 0.0000 21.1004
#
#
#
# Elastic Compliance Matrix: (Units=1/GPa)
#
#
# Indices 1 2 3 4 5 6 
#
# 1 0.009234 -0.003564 -0.002190 0.000000 -0.000462 0.000000
# 2 -0.003564 0.008405 -0.002506 0.000000 0.001620 0.000000
# 3 -0.002190 -0.002506 0.007445 0.000000 -0.000405 0.000000
# 4 0.000000 0.000000 0.000000 0.033852 0.000000 0.015922
# 5 -0.000462 0.001620 -0.000405 0.000000 0.012448 0.000000
# 6 0.000000 0.000000 0.000000 0.015922 0.000000 0.054881
#
#
# Mechanical properties :
#
#
# Convention : Reuss Voigt Hill
#
# Bulk Modulus (GPa) = 116.75350 118.30301 117.52826
# Shear Modulus (GPa) = 34.33131 46.02723 40.17927
#
# Velocity S-wave (km/s) = 3.47891 4.02815 3.76356
# Velocity P-wave (km/s) = 7.56942 7.95864 7.76647
#
# Compressibility (1/GPa) = 0.00856505
#
# Stress axis : x y z
#
# Youngs Moduli (GPa) = 108.29963 118.97281 134.31059
#
# Poissons Ratio (x) = 0.42402 0.29413
# Poissons Ratio (y) = 0.38598 0.33654
# Poissons Ratio (z) = 0.23717 0.29811
#
# Static dielectric constant tensor:
#      x y z
#    x 2.367620 0.000000 -0.097010 
#    y 0.000000 2.632460 0.000000 
#    z -0.097010 0.000000 2.246650 
# 
# From -- ./inp_files/531.got.cif
#   From: 2010.05.17/outbox.cif.g08.bks.cpg/sg8_1_cif.got.tgz:531.got - 2010.06.03 19:46:02.
