data_PCOD9133977
_publ_section_title
;
Structure prediction by ZEFSAII (Michael W. Deem and Ramdas Pophale) SiO2 
 PCOD9133977
Probable space group: C C
;
_chemical_formula_sum "Si O2"
_cell_formula_units_Z 28
_cell_length_a 15.298005
_cell_length_b 20.345326
_cell_length_c 5.261849
_cell_angle_alpha 90.000000
_cell_angle_beta 123.966414
_cell_angle_gamma 90.000000
_cell_volume 1358.262318
_symmetry_space_group_name_H-M "C C"
_symmetry_group_IT_number 9
_symmetry_cell_setting 'monoclinic'
loop_
_space_group_symop_operation_xyz
x,y,z
x,-y,1/2+z
1/2+x,1/2+y,z
1/2+x,1/2-y,1/2+z
loop_
_atom_site_type_symbol
_atom_site_label
_atom_site_fract_x
_atom_site_fract_y
_atom_site_fract_z
Si Si1 0.171390 0.173338 0.958370
Si Si2 0.360981 0.278035 0.280310
Si Si3 0.596748 0.922127 0.346141
Si Si4 0.276745 0.336531 0.642733
Si Si5 0.589624 0.729189 0.326799
Si Si6 0.263569 0.960599 0.396977
Si Si7 0.007953 0.569263 0.204594
O O1 0.091646 0.202185 0.617284
O O2 0.204609 0.103043 0.904460
O O3 0.275122 0.219801 0.130381
O O4 0.127796 0.176833 0.174037
O O5 0.330484 0.328034 0.457913
O O6 0.474871 0.251003 0.541984
O O7 0.350871 0.314768 0.994463
O O8 0.717876 0.905571 0.593819
O O9 0.524175 0.897074 0.459566
O O10 0.566875 0.998928 0.268291
O O11 0.565408 0.892965 0.022836
O O12 0.177566 0.285986 0.475407
O O13 0.388908 0.944676 0.592511
O O14 0.241576 0.016194 0.573979
#
# Coordination Sequence:
#
# PCOD9133977 Si02
#       7
#     4   4   4   4   4   4   4
#     4  10  23  38  58  91 117 149 197 240 290 348
#     4  10  21  39  58  86 117 152 196 234 290 349
#     4  10  18  33  50  80 117 143 180 228 275 358
#     4  10  21  35  57  89 111 153 198 226 292 357
#     4  10  21  40  57  83 120 154 191 244 286 337
#     4  12  21  37  56  88 119 148 194 232 295 363
#     4  10  19  32  50  83 117 145 178 220 304 342
#
# _framework density 20.614576
#
# number of rings (size 3 to 8) (size 9 to 14) (size 15 to 20)
#    0.000    1.714    2.857    2.571    2.000    0.000 
#    5.143    0.000    0.000    0.000   74.286    0.000 
#    0.000    0.000    0.000    0.000    0.000    0.000 
#
# Total GULP energy -78083.926942 kJ/mol
# GULP energy per Si atom -5577.423353 kJ/mol
# Density = 2.056766 g / cm^3
# Si number density = 20.614576 Si / 1000 Ang^3
#
#
#
# Elastic Constant Matrix: (Units=GPa)
#
#
# Indices 1 2 3 4 5 6 
#
# 1 62.5568 0.9985 26.5304 0.0000 -17.6792 0.0000
# 2 0.9985 22.8109 5.4607 0.0000 3.4469 0.0000
# 3 26.5304 5.4607 120.6486 0.0000 -6.0167 0.0000
# 4 0.0000 0.0000 0.0000 17.9651 0.0000 1.3264
# 5 -17.6792 3.4469 -6.0167 0.0000 40.2289 0.0000
# 6 0.0000 0.0000 0.0000 1.3264 0.0000 19.8394
#
#
#
# Elastic Compliance Matrix: (Units=1/GPa)
#
#
# Indices 1 2 3 4 5 6 
#
# 1 0.020022 -0.001191 -0.003934 0.000000 0.008313 0.000000
# 2 -0.001191 0.045081 -0.002012 0.000000 -0.004687 0.000000
# 3 -0.003934 -0.002012 0.009236 0.000000 -0.000175 0.000000
# 4 0.000000 0.000000 0.000000 0.055940 0.000000 -0.003740
# 5 0.008313 -0.004687 -0.000175 0.000000 0.028886 0.000000
# 6 0.000000 0.000000 0.000000 -0.003740 0.000000 0.050655
#
#
# Mechanical properties :
#
#
# Convention : Reuss Voigt Hill
#
# Bulk Modulus (GPa) = 16.64881 30.22173 23.43527
# Shear Modulus (GPa) = 20.48205 27.14178 23.81191
#
# Velocity S-wave (km/s) = 3.15552 3.63248 3.40236
# Velocity P-wave (km/s) = 4.62279 5.68202 5.17955
#
# Compressibility (1/GPa) = 0.06006435
#
# Stress axis : x y z
#
# Youngs Moduli (GPa) = 49.94420 22.18238 108.27138
#
# Poissons Ratio (x) = 0.02641 0.42599
# Poissons Ratio (y) = 0.05947 0.21788
# Poissons Ratio (z) = 0.19650 0.04464
#
# Static dielectric constant tensor:
#      x y z
#    x 1.763050 0.000000 -0.034700 
#    y 0.000000 1.826130 0.000000 
#    z -0.034700 0.000000 1.773890 
# 
# From -- ./inp_files/2680.got.cif
#   From: 2010.05.17/outbox.cif.g08.bks.cpg/sg9_2_cif.got.tgz:2680.got - 2010.06.03 20:04:27.
