data_PCOD9133271
_publ_section_title
;
Structure prediction by ZEFSAII (Michael W. Deem and Ramdas Pophale) SiO2 
 PCOD9133271
Probable space group: C M
;
_chemical_formula_sum "Si O2"
_cell_formula_units_Z 20
_cell_length_a 10.260773
_cell_length_b 19.324608
_cell_length_c 7.747350
_cell_angle_alpha 90.000000
_cell_angle_beta 139.419981
_cell_angle_gamma 90.000000
_cell_volume 999.303760
_symmetry_space_group_name_H-M "C M"
_symmetry_group_IT_number 8
_symmetry_cell_setting 'monoclinic'
loop_
_space_group_symop_operation_xyz
x,y,z
x,-y,z
1/2+x,1/2+y,z
1/2+x,1/2-y,z
loop_
_atom_site_type_symbol
_atom_site_label
_atom_site_fract_x
_atom_site_fract_y
_atom_site_fract_z
Si Si1 0.127410 0.285130 0.583610
Si Si2 0.096802 0.421758 0.972716
Si Si3 0.431263 0.324324 0.152798
Si Si4 0.304317 0.119070 0.375589
Si Si5 0.559536 0.077361 0.333943
O O1 0.079702 0.220424 0.418496
O O2 0.917213 0.306879 0.462810
O O3 0.177571 0.355850 0.527305
O O4 0.300282 0.275266 0.896761
O O5 0.175640 0.500000 0.038503
O O6 0.271545 0.368423 0.099836
O O7 0.024121 0.411931 0.095733
O O8 0.921502 0.413584 0.655406
O O9 0.573193 0.373042 0.181852
O O10 0.362529 0.080703 0.257082
O O11 0.648242 0.000000 0.446275
#
# Coordination Sequence:
#
# PCOD9133271 Si02
#       5
#     4   4   4   4   4
#     4   9  24  38  64  91 127 165 208 260 312 369
#     4  10  22  42  65  93 128 164 207 264 314 371
#     4  11  23  41  66  93 126 169 210 260 314 373
#     4   9  22  39  64  89 122 168 207 260 304 374
#     4   9  20  42  63  88 128 164 202 258 313 367
#
# _framework density 20.013935
#
# number of rings (size 3 to 8) (size 9 to 14) (size 15 to 20)
#    1.200    1.200    0.000    0.600    5.600    3.200 
#    3.600    0.000    0.000    0.000    0.000    0.000 
#    0.000    0.000    0.000    0.000    0.000    0.000 
#
# Total GULP energy -55672.494648 kJ/mol
# GULP energy per Si atom -5567.249465 kJ/mol
# Density = 1.996838 g / cm^3
# Si number density = 20.013935 Si / 1000 Ang^3
#
#
#
# Elastic Constant Matrix: (Units=GPa)
#
#
# Indices 1 2 3 4 5 6 
#
# 1 107.2004 24.5215 65.1391 0.0000 -18.2266 0.0000
# 2 24.5215 68.3865 32.4674 0.0000 -6.6915 0.0000
# 3 65.1391 32.4674 75.5311 0.0000 -14.4397 0.0000
# 4 0.0000 0.0000 0.0000 19.8521 0.0000 -14.4484
# 5 -18.2266 -6.6915 -14.4397 0.0000 24.0691 0.0000
# 6 0.0000 0.0000 0.0000 -14.4484 0.0000 17.0425
#
#
#
# Elastic Compliance Matrix: (Units=1/GPa)
#
#
# Indices 1 2 3 4 5 6 
#
# 1 0.020317 0.001348 -0.017043 0.000000 0.005536 0.000000
# 2 0.001348 0.018465 -0.008950 0.000000 0.000785 0.000000
# 3 -0.017043 -0.008950 0.032578 0.000000 0.004150 0.000000
# 4 0.000000 0.000000 0.000000 0.131527 0.000000 0.111507
# 5 0.005536 0.000785 0.004150 0.000000 0.048447 0.000000
# 6 0.000000 0.000000 0.000000 0.111507 0.000000 0.153211
#
#
# Mechanical properties :
#
#
# Convention : Reuss Voigt Hill
#
# Bulk Modulus (GPa) = 45.30818 55.04155 50.17486
# Shear Modulus (GPa) = 10.84147 20.79208 15.81678
#
# Velocity S-wave (km/s) = 2.32996 3.22666 2.81426
# Velocity P-wave (km/s) = 5.47044 6.43763 5.97365
#
# Compressibility (1/GPa) = 0.02207107
#
# Stress axis : x y z
#
# Youngs Moduli (GPa) = 49.21964 54.15574 30.69548
#
# Poissons Ratio (x) = -0.07299 0.52314
# Poissons Ratio (y) = -0.06634 0.27471
# Poissons Ratio (z) = 0.83884 0.48468
#
# Static dielectric constant tensor:
#      x y z
#    x 1.715150 0.000000 -0.033020 
#    y 0.000000 1.734410 0.000000 
#    z -0.033020 0.000000 1.671680 
# 
# From -- ./inp_files/11103.got.cif
#   From: 2010.05.17/outbox.cif.g08.bks.cpg/sg8_6_cif.got.tgz:11103.got - 2010.06.03 19:46:02.
