data_PCOD9133104
_publ_section_title
;
Structure prediction by ZEFSAII (Michael W. Deem and Ramdas Pophale) SiO2 
 PCOD9133104
Probable space group: C M
;
_chemical_formula_sum "Si O2"
_cell_formula_units_Z 26
_cell_length_a 8.674606
_cell_length_b 13.896726
_cell_length_c 12.636332
_cell_angle_alpha 90.000000
_cell_angle_beta 132.808022
_cell_angle_gamma 90.000000
_cell_volume 1117.540220
_symmetry_space_group_name_H-M "C M"
_symmetry_group_IT_number 8
_symmetry_cell_setting 'monoclinic'
loop_
_space_group_symop_operation_xyz
x,y,z
x,-y,z
1/2+x,1/2+y,z
1/2+x,1/2-y,z
loop_
_atom_site_type_symbol
_atom_site_label
_atom_site_fract_x
_atom_site_fract_y
_atom_site_fract_z
Si Si1 0.188200 0.400395 0.875000
Si Si2 0.846313 0.307647 0.994649
Si Si3 0.126942 0.361955 0.613738
Si Si4 0.709800 0.355560 0.702768
Si Si5 0.850690 0.000000 0.553787
Si Si6 0.291723 0.762515 0.194955
Si Si7 0.667318 0.385398 0.342136
O O1 0.266003 0.500000 0.959077
O O2 0.232179 0.399454 0.770576
O O3 0.938924 0.392501 0.777402
O O4 0.291948 0.305467 0.967048
O O5 0.804118 0.330859 0.096605
O O6 0.093511 0.309439 0.089988
O O7 0.720789 0.353309 0.838289
O O8 0.180816 0.249883 0.642074
O O9 0.213365 0.416537 0.552344
O O10 0.878791 0.379193 0.510031
O O11 0.510956 0.418013 0.580359
O O12 0.489375 0.690239 0.297921
O O13 0.247256 0.834392 0.270707
O O14 0.611358 0.500000 0.308604
#
# Coordination Sequence:
#
# PCOD9133104 Si02
#       7
#     4   4   4   4   2   4   4
#     4  11  21  39  66 100 133 178 209 275 348 401
#     4  10  21  43  63  96 136 168 225 277 330 398
#     4  11  24  42  69  97 137 171 223 278 341 395
#     4  11  24  40  68  99 139 170 215 281 340 400
#     4  12  24  42  66 108 128 174 228 264 340 414
#     4  10  24  43  68  95 130 182 226 277 326 386
#     4  11  25  48  70  95 134 179 231 279 328 398
#
# _framework density 23.265381000000001
#
# number of rings (size 3 to 8) (size 9 to 14) (size 15 to 20)
#    0.000    1.231    3.846    1.846    6.462    2.462 
#    2.769    2.308    0.000    0.000    0.000    0.000 
#    0.000    0.000    0.000    0.000    0.000    0.000 
#
# Total GULP energy -72368.303534 kJ/mol
# GULP energy per Si atom -5566.792580 kJ/mol
# Density = 2.321243 g / cm^3
# Si number density = 23.265381 Si / 1000 Ang^3
#
#
#
# Elastic Constant Matrix: (Units=GPa)
#
#
# Indices 1 2 3 4 5 6 
#
# 1 61.4130 7.5257 3.5514 0.0000 10.9256 0.0000
# 2 7.5257 130.8707 -4.5086 0.0000 6.8686 0.0000
# 3 3.5514 -4.5086 46.7652 0.0000 1.8448 0.0000
# 4 0.0000 0.0000 0.0000 5.4720 0.0000 28.0459
# 5 10.9256 6.8686 1.8448 0.0000 38.2109 0.0000
# 6 0.0000 0.0000 0.0000 28.0459 0.0000 35.9639
#
#
#
# Elastic Compliance Matrix: (Units=1/GPa)
#
#
# Indices 1 2 3 4 5 6 
#
# 1 0.017293 -0.000787 -0.001202 0.000000 -0.004745 0.000000
# 2 -0.000787 0.007780 0.000858 0.000000 -0.001215 0.000000
# 3 -0.001202 0.000858 0.021591 0.000000 -0.000853 0.000000
# 4 0.000000 0.000000 0.000000 -0.060979 0.000000 0.047553
# 5 -0.004745 -0.001215 -0.000853 0.000000 0.027787 0.000000
# 6 0.000000 0.000000 0.000000 0.047553 0.000000 -0.009278
#
#
# Mechanical properties :
#
#
# Convention : Reuss Voigt Hill
#
# Bulk Modulus (GPa) = 22.52156 28.02067 25.27111
# Shear Modulus (GPa) = 235.21836 31.42804 133.32320
#
# Velocity S-wave (km/s) = 10.06587 3.67938 7.57825
# Velocity P-wave (km/s) = 12.03316 5.48822 9.35194
#
# Compressibility (1/GPa) = 0.04440190
#
# Stress axis : x y z
#
# Youngs Moduli (GPa) = 57.82587 128.53985 46.31553
#
# Poissons Ratio (x) = 0.10114 0.05567
# Poissons Ratio (y) = 0.04550 -0.03973
# Poissons Ratio (z) = 0.06950 -0.11025
#
# Static dielectric constant tensor:
#      x y z
#    x 1.930690 0.000000 -0.059930 
#    y 0.000000 1.919480 0.000000 
#    z -0.059930 0.000000 1.960680 
# 
# From -- ./inp_files/18709.got.cif
#   From: 2010.05.17/outbox.cif.g08.bks.cpg/sg8_10_cif.got.tgz:18709.got - 2010.06.03 19:46:02.
