data_PCOD9133746
_publ_section_title
;
Structure prediction by ZEFSAII (Michael W. Deem and Ramdas Pophale) SiO2 
 PCOD9133746
Probable space group: C C
;
_chemical_formula_sum "Si O2"
_cell_formula_units_Z 24
_cell_length_a 21.295333
_cell_length_b 9.252246
_cell_length_c 7.924209
_cell_angle_alpha 90.000000
_cell_angle_beta 140.867427
_cell_angle_gamma 90.000000
_cell_volume 985.365456
_symmetry_space_group_name_H-M "C C"
_symmetry_group_IT_number 9
_symmetry_cell_setting 'monoclinic'
loop_
_space_group_symop_operation_xyz
x,y,z
x,-y,1/2+z
1/2+x,1/2+y,z
1/2+x,1/2-y,1/2+z
loop_
_atom_site_type_symbol
_atom_site_label
_atom_site_fract_x
_atom_site_fract_y
_atom_site_fract_z
Si Si1 0.511940 0.210226 0.102120
Si Si2 0.603452 0.513083 0.298204
Si Si3 0.125288 0.711945 0.658368
Si Si4 0.337000 0.848193 0.007511
Si Si5 0.303181 0.145489 0.084671
Si Si6 0.149023 0.705557 0.080463
O O1 0.529080 0.382138 0.153839
O O2 0.556802 0.147327 0.369197
O O3 0.578121 0.154748 0.081642
O O4 0.401946 0.191078 0.805715
O O5 0.577784 0.631876 0.104411
O O6 0.710054 0.436710 0.483871
O O7 0.619262 0.625098 0.484725
O O8 0.234150 0.758570 0.816776
O O9 0.139963 0.641202 0.873970
O O10 0.337931 0.022401 0.029821
O O11 0.372392 0.816040 0.888927
O O12 0.258864 0.280236 0.889659
#
# Coordination Sequence:
#
# PCOD9133746 Si02
#       6
#     4   4   4   4   4   4
#     4  11  18  29  48  85 102 123 170 218 245 296
#     4   8  15  29  54  69  98 130 158 199 262 292
#     4   9  18  33  50  73 105 137 156 208 263 295
#     4  11  19  29  53  79 102 134 171 216 249 299
#     4  10  15  31  48  73  99 133 165 204 259 294
#     4   9  17  31  55  71 102 133 162 207 262 296
#
# _framework density 24.356445999999998
#
# number of rings (size 3 to 8) (size 9 to 14) (size 15 to 20)
#    1.000    1.333    5.000    2.000    0.000    0.000 
#    6.000    0.000    0.000    0.000    8.667    0.000 
#    0.000    0.000    0.000    0.000    0.000    0.000 
#
# Total GULP energy -66816.801065 kJ/mol
# GULP energy per Si atom -5568.066755 kJ/mol
# Density = 2.430101 g / cm^3
# Si number density = 24.356446 Si / 1000 Ang^3
#
#
#
# Elastic Constant Matrix: (Units=GPa)
#
#
# Indices 1 2 3 4 5 6 
#
# 1 55.6111 6.0683 52.1965 0.0000 -40.9893 0.0000
# 2 6.0683 50.4378 13.7150 0.0000 -6.1943 0.0000
# 3 52.1965 13.7150 184.6202 0.0000 -50.9160 0.0000
# 4 0.0000 0.0000 0.0000 17.8865 0.0000 -15.5364
# 5 -40.9893 -6.1943 -50.9160 0.0000 49.6705 0.0000
# 6 0.0000 0.0000 0.0000 -15.5364 0.0000 13.4009
#
#
#
# Elastic Compliance Matrix: (Units=1/GPa)
#
#
# Indices 1 2 3 4 5 6 
#
# 1 0.047618 -0.000377 -0.003639 0.000000 0.035518 0.000000
# 2 -0.000377 0.020305 -0.001100 0.000000 0.001093 0.000000
# 3 -0.003639 -0.001100 0.007892 0.000000 0.004950 0.000000
# 4 0.000000 0.000000 0.000000 -7.952764 0.000000 -9.220074
# 5 0.035518 0.001093 0.004950 0.000000 0.054653 0.000000
# 6 0.000000 0.000000 0.000000 -9.220074 0.000000-10.614714
#
#
# Mechanical properties :
#
#
# Convention : Reuss Voigt Hill
#
# Bulk Modulus (GPa) = 15.24815 48.29208 31.77012
# Shear Modulus (GPa) = -0.27167 30.77085 15.24959
#
# Velocity S-wave (km/s) = -0.33434 3.55823 2.50492
# Velocity P-wave (km/s) = 2.47487 6.06231 4.63015
#
# Compressibility (1/GPa) = 0.06558171
#
# Stress axis : x y z
#
# Youngs Moduli (GPa) = 21.00024 49.24840 126.70666
#
# Poissons Ratio (x) = 0.01859 0.46113
# Poissons Ratio (y) = 0.00793 0.13942
# Poissons Ratio (z) = 0.07643 0.05419
#
# Static dielectric constant tensor:
#      x y z
#    x 2.044240 0.000000 -0.027690 
#    y 0.000000 1.921360 0.000000 
#    z -0.027690 0.000000 2.100350 
# 
# From -- ./inp_files/7121.got.cif
#   From: 2010.05.17/outbox.cif.g08.bks.cpg/sg9_4_cif.got.tgz:7121.got - 2010.06.03 20:04:27.
