data_PCOD9133319
_publ_section_title
;
Structure prediction by ZEFSAII (Michael W. Deem and Ramdas Pophale) SiO2 
 PCOD9133319
Probable space group: C M
;
_chemical_formula_sum "Si O2"
_cell_formula_units_Z 20
_cell_length_a 11.513815
_cell_length_b 9.858840
_cell_length_c 17.844096
_cell_angle_alpha 90.000000
_cell_angle_beta 153.562027
_cell_angle_gamma 90.000000
_cell_volume 901.826070
_symmetry_space_group_name_H-M "C M"
_symmetry_group_IT_number 8
_symmetry_cell_setting 'monoclinic'
loop_
_space_group_symop_operation_xyz
x,y,z
x,-y,z
1/2+x,1/2+y,z
1/2+x,1/2-y,z
loop_
_atom_site_type_symbol
_atom_site_label
_atom_site_fract_x
_atom_site_fract_y
_atom_site_fract_z
Si Si1 0.659920 0.000000 0.965770
Si Si2 0.835764 0.500000 0.976451
Si Si3 0.385692 0.000000 0.175049
Si Si4 0.219378 0.000000 0.365889
Si Si5 0.336114 0.500000 0.901430
Si Si6 0.360491 0.300297 0.443069
Si Si7 0.256099 0.201592 0.801964
Si Si8 0.452154 0.500000 0.367560
O O1 0.678071 0.000000 0.887220
O O2 0.506489 0.869059 0.908212
O O3 0.947985 0.000000 0.164955
O O4 0.759462 0.500000 0.018963
O O5 0.154242 0.500000 0.163767
O O6 0.740519 0.629332 0.874017
O O7 0.574820 0.130987 0.287914
O O8 0.149700 0.000000 0.096527
O O9 0.357963 0.859379 0.428962
O O10 0.148796 0.000000 0.413255
O O11 0.277359 0.361505 0.824370
O O12 0.520735 0.332011 0.610378
O O13 0.478631 0.372905 0.438366
#
# Coordination Sequence:
#
# PCOD9133319 Si02
#       8
#     2   2   2   2   2   4   4   2
#     4  11  26  44  72  94 138 185 225 269 339 398
#     4   9  20  41  72  91 132 183 220 269 335 394
#     4  10  23  44  68  99 136 176 226 276 331 402
#     4  12  23  41  71 100 133 176 227 273 333 399
#     4  12  28  40  72 104 135 171 237 276 323 407
#     4  10  24  41  70 100 135 173 224 273 343 393
#     4  11  23  45  68 102 135 179 220 278 340 394
#     4  10  22  44  67  94 136 179 215 275 329 402
#
# _framework density 22.177226000000001
#
# number of rings (size 3 to 8) (size 9 to 14) (size 15 to 20)
#    0.000    1.600    2.000    4.200    8.400    3.200 
#    0.000    1.000    4.400    0.000    0.000    0.000 
#    0.000    0.000    0.000    0.000    0.000    0.000 
#
# Total GULP energy -55959.302880 kJ/mol
# GULP energy per Si atom -5595.930288 kJ/mol
# Density = 2.212675 g / cm^3
# Si number density = 22.177226 Si / 1000 Ang^3
#
#
#
# Elastic Constant Matrix: (Units=GPa)
#
#
# Indices 1 2 3 4 5 6 
#
# 1 86.7880 45.3084 16.5893 0.0014 -19.4998 0.0010
# 2 45.3084 195.4463 41.1570 0.0023 -25.3313 0.0015
# 3 16.5893 41.1570 111.3437 0.0133 -40.0378 0.0069
# 4 0.0014 0.0023 0.0133 3.8518 0.0035 -30.8944
# 5 -19.4998 -25.3313 -40.0378 0.0035 23.1904 0.0018
# 6 0.0010 0.0015 0.0069 -30.8944 0.0018 -7.5750
#
#
#
# Elastic Compliance Matrix: (Units=1/GPa)
#
#
# Indices 1 2 3 4 5 6 
#
# 1 0.016573 -0.002271 0.006565 0.000002 0.022790 0.000006
# 2 -0.002271 0.006277 -0.000535 0.000000 0.004023 0.000001
# 3 0.006565 -0.000535 0.026309 0.000005 0.050357 0.000018
# 4 0.000002 0.000000 0.000005 0.007701 0.000011 -0.031408
# 5 0.022790 0.004023 0.050357 0.000011 0.153619 0.000042
# 6 0.000006 0.000001 0.000018 -0.031408 0.000042 -0.003916
#
#
# Mechanical properties :
#
#
# Convention : Reuss Voigt Hill
#
# Bulk Modulus (GPa) = 17.64388 66.63193 42.13790
# Shear Modulus (GPa) = 22.94236 23.26167 23.10202
#
# Velocity S-wave (km/s) = 3.21985 3.24218 3.23104
# Velocity P-wave (km/s) = 4.66866 6.64275 5.74119
#
# Compressibility (1/GPa) = 0.05667689
#
# Stress axis : x y z
#
# Youngs Moduli (GPa) = 60.33761 159.31102 38.01024
#
# Poissons Ratio (x) = 0.36176 -0.24954
# Poissons Ratio (y) = 0.13701 0.02035
# Poissons Ratio (z) = -0.39612 0.08529
#
# Static dielectric constant tensor:
#      x y z
#    x 1.792320 0.000000 0.007270 
#    y 0.000000 1.800620 0.000000 
#    z 0.007270 0.000000 1.810790 
# 
# From -- ./inp_files/28725.got.cif
#   From: 2010.05.17/outbox.cif.g08.bks.cpg/sg8_15_cif.got.tgz:28725.got - 2010.06.03 19:46:02.
