data_PCOD9133553
_publ_section_title
;
Structure prediction by ZEFSAII (Michael W. Deem and Ramdas Pophale) SiO2 
 PCOD9133553
Probable space group: C M
;
_chemical_formula_sum "Si O2"
_cell_formula_units_Z 20
_cell_length_a 4.971895
_cell_length_b 24.731861
_cell_length_c 7.605426
_cell_angle_alpha 90.000000
_cell_angle_beta 118.133690
_cell_angle_gamma 90.000000
_cell_volume 824.701701
_symmetry_space_group_name_H-M "C M"
_symmetry_group_IT_number 8
_symmetry_cell_setting 'monoclinic'
loop_
_space_group_symop_operation_xyz
x,y,z
x,-y,z
1/2+x,1/2+y,z
1/2+x,1/2-y,z
loop_
_atom_site_type_symbol
_atom_site_label
_atom_site_fract_x
_atom_site_fract_y
_atom_site_fract_z
Si Si1 0.830640 0.103957 0.443350
Si Si2 0.299034 0.381816 0.826734
Si Si3 0.213860 0.154528 0.272607
Si Si4 0.345275 0.216824 0.629775
Si Si5 0.734278 0.000000 0.965413
Si Si6 0.438808 0.000000 0.236165
O O1 0.939846 0.110717 0.676046
O O2 0.569129 0.149089 0.335534
O O3 0.627535 0.050695 0.363693
O O4 0.081360 0.109584 0.370077
O O5 0.027210 0.338064 0.728571
O O6 0.525420 0.356222 0.039631
O O7 0.207223 0.442802 0.856073
O O8 0.193364 0.206710 0.391212
O O9 0.090495 0.235455 0.686190
O O10 0.077261 0.000000 0.154365
O O11 0.481873 0.000000 0.039070
#
# Coordination Sequence:
#
# PCOD9133553 Si02
#       6
#     4   4   4   4   2   2
#     4  11  23  41  66 100 143 184 234 285 346 420
#     4  11  25  46  75 107 144 193 235 293 359 434
#     4  11  24  44  70  99 140 183 235 300 349 412
#     4  11  26  47  72 106 140 187 247 298 352 419
#     4  12  25  42  71 110 148 190 233 282 365 434
#     4  12  21  42  65 100 150 192 227 286 345 424
#
# _framework density 24.251192
#
# number of rings (size 3 to 8) (size 9 to 14) (size 15 to 20)
#    0.000    0.800    4.000    3.000    0.000   11.200 
#    0.000    3.000    0.000    0.000    0.000    0.000 
#    0.000    0.000    0.000    0.000    0.000    0.000 
#
# Total GULP energy -55911.843829 kJ/mol
# GULP energy per Si atom -5591.184383 kJ/mol
# Density = 2.419600 g / cm^3
# Si number density = 24.251192 Si / 1000 Ang^3
#
#
#
# Elastic Constant Matrix: (Units=GPa)
#
#
# Indices 1 2 3 4 5 6 
#
# 1 85.1147 21.1812 18.5579 0.0000 0.8448 0.0000
# 2 21.1812 123.7042 26.7156 0.0000 11.8395 0.0000
# 3 18.5579 26.7156 148.1396 0.0000 -20.9490 0.0000
# 4 0.0000 0.0000 0.0000 47.9891 0.0000 4.5442
# 5 0.8448 11.8395 -20.9490 0.0000 19.8322 0.0000
# 6 0.0000 0.0000 0.0000 4.5442 0.0000 32.2806
#
#
#
# Elastic Compliance Matrix: (Units=1/GPa)
#
#
# Indices 1 2 3 4 5 6 
#
# 1 0.012495 -0.001750 -0.001384 0.000000 -0.000950 0.000000
# 2 -0.001750 0.009821 -0.002787 0.000000 -0.008732 0.000000
# 3 -0.001384 -0.002787 0.009017 0.000000 0.011247 0.000000
# 4 0.000000 0.000000 0.000000 0.021120 0.000000 -0.002973
# 5 -0.000950 -0.008732 0.011247 0.000000 0.067557 0.000000
# 6 0.000000 0.000000 0.000000 -0.002973 0.000000 0.031397
#
#
# Mechanical properties :
#
#
# Convention : Reuss Voigt Hill
#
# Bulk Modulus (GPa) = 51.30276 54.42975 52.86626
# Shear Modulus (GPa) = 29.45588 39.38730 34.42159
#
# Velocity S-wave (km/s) = 3.48891 4.03443 3.77155
# Velocity P-wave (km/s) = 6.11806 6.64794 6.38850
#
# Compressibility (1/GPa) = 0.01949213
#
# Stress axis : x y z
#
# Youngs Moduli (GPa) = 80.02889 101.82301 110.90328
#
# Poissons Ratio (x) = 0.17816 0.15350
# Poissons Ratio (y) = 0.14003 0.30906
# Poissons Ratio (z) = 0.11077 0.28376
#
# Static dielectric constant tensor:
#      x y z
#    x 1.863970 0.000000 0.015640 
#    y 0.000000 2.003970 0.000000 
#    z 0.015640 0.000000 1.936030 
# 
# From -- ./inp_files/6815.got.cif
#   From: 2010.05.17/outbox.cif.g08.bks.cpg/sg8_4_cif.got.tgz:6815.got - 2010.06.03 19:46:02.
