data_PCOD9133668
_publ_section_title
;
Structure prediction by ZEFSAII (Michael W. Deem and Ramdas Pophale) SiO2 
 PCOD9133668
Probable space group: C M
;
_chemical_formula_sum "Si O2"
_cell_formula_units_Z 16
_cell_length_a 15.000000
_cell_length_b 9.000000
_cell_length_c 24.000000
_cell_angle_alpha 90.000000
_cell_angle_beta 150.000000
_cell_angle_gamma 90.000000
_cell_volume 1620.000000
_symmetry_space_group_name_H-M "C M"
_symmetry_group_IT_number 8
_symmetry_cell_setting 'monoclinic'
loop_
_space_group_symop_operation_xyz
x,y,z
x,-y,z
1/2+x,1/2+y,z
1/2+x,1/2-y,z
loop_
_atom_site_type_symbol
_atom_site_label
_atom_site_fract_x
_atom_site_fract_y
_atom_site_fract_z
Si Si1 0.743340 0.827312 0.133870
Si Si2 0.873476 0.821172 0.524470
Si Si3 0.233827 0.677837 0.680548
Si Si4 0.462909 0.176178 0.893385
Si Si5 0.031250 0.821936 0.118307
Si Si6 0.634965 0.324447 0.300710
Si Si7 0.746445 0.824855 0.875035
Si Si8 0.829250 0.675859 0.619677
O O1 0.668665 0.733236 0.145013
O O2 0.951710 0.815756 0.236280
O O3 0.695868 0.000000 0.119046
O O4 0.651624 0.789404 0.024766
O O5 0.772264 0.766274 0.413600
O O6 0.803658 0.749865 0.544994
O O7 0.071838 0.755724 0.625302
O O8 0.872376 0.000000 0.527421
O O9 0.220609 0.500000 0.675069
O O10 0.407521 0.733139 0.808801
O O11 0.228410 0.738441 0.614559
O O12 0.333079 0.223803 0.873914
O O13 0.452403 0.000000 0.875589
O O14 0.089714 0.771883 0.212470
O O15 0.032648 0.000000 0.123053
O O16 0.838790 0.784584 0.984651
O O17 0.688526 0.500000 0.326989
O O18 0.535506 0.812611 0.751885
O O19 0.791821 0.000000 0.889680
O O20 0.784460 0.500000 0.593184
#
# Coordination Sequence:
#
# PCOD9133668 Si02
#       8
#     4   4   4   4   4   4   4   4
#     4   9  20  37  60  89 123 161 201 249 304 364
#     4  12  26  45  65  89 124 164 212 263 311 366
#     4  12  25  41  62  91 125 165 210 256 311 370
#     4  10  19  34  60  91 127 163 202 251 307 365
#     4   9  19  36  60  89 122 159 201 248 302 363
#     4  10  22  41  64  87 119 166 209 249 304 367
#     4   9  18  34  60  90 125 162 199 247 309 369
#     4  11  23  40  65  94 125 162 206 255 312 372
#
# _framework density 9.8765429999999999
#
# number of rings (size 3 to 8) (size 9 to 14) (size 15 to 20)
#    0.000    1.750    1.250    3.000    1.750    3.000 
#    0.000    2.500    0.000    0.000    0.000    0.000 
#    0.000    0.000    0.000    0.000    0.000    0.000 
#
# Total GULP energy -89290.069668 kJ/mol
# GULP energy per Si atom -5580.629354 kJ/mol
# Density = 0.985406 g / cm^3
# Si number density = 9.876543 Si / 1000 Ang^3
#
#
#
# Elastic Constant Matrix: (Units=GPa)
#
#
# Indices 1 2 3 4 5 6 
#
# 1 75.5337 27.1341 23.6078 0.0000 -35.8213 0.0000
# 2 27.1341 100.1679 36.8697 0.0000 -17.0686 0.0000
# 3 23.6078 36.8697 88.4858 0.0002 -31.5299 0.0000
# 4 0.0000 0.0000 0.0002 29.3216 0.0000 -9.3205
# 5 -35.8213 -17.0686 -31.5299 0.0000 41.8473 0.0000
# 6 0.0000 0.0000 0.0000 -9.3205 0.0000 32.3427
#
#
#
# Elastic Compliance Matrix: (Units=1/GPa)
#
#
# Indices 1 2 3 4 5 6 
#
# 1 0.023562 -0.003851 0.002659 0.000000 0.020602 0.000000
# 2 -0.003851 0.012492 -0.004835 0.000000 -0.001844 0.000000
# 3 0.002659 -0.004835 0.017381 0.000000 0.013400 0.000000
# 4 0.000000 0.000000 0.000000 0.037544 0.000000 0.010819
# 5 0.020602 -0.001844 0.013400 0.000000 0.050876 0.000000
# 6 0.000000 0.000000 0.000000 0.010819 0.000000 0.034037
#
#
# Mechanical properties :
#
#
# Convention : Reuss Voigt Hill
#
# Bulk Modulus (GPa) = 24.16503 48.82341 36.49422
# Shear Modulus (GPa) = 24.78478 32.47405 28.62941
#
# Velocity S-wave (km/s) = 3.54606 4.05902 3.81118
# Velocity P-wave (km/s) = 5.38759 6.83653 6.15484
#
# Compressibility (1/GPa) = 0.04138211
#
# Stress axis : x y z
#
# Youngs Moduli (GPa) = 42.44209 80.05328 57.53390
#
# Poissons Ratio (x) = 0.30827 -0.15300
# Poissons Ratio (y) = 0.16344 0.27815
# Poissons Ratio (z) = -0.11287 0.38702
#
# Static dielectric constant tensor:
#      x y z
#    x 1.701470 0.000000 0.023810 
#    y 0.000000 1.664670 0.000000 
#    z 0.023810 0.000000 1.735560 
# 
# From -- ./inp_files/21498.got.cif
#   From: 2010.05.17/outbox.ucp.g08.bks.cvg/sg8_11_cif.got.tgz:21498.got - 2010.06.11 13:00:03.
