data_PCOD9133923
_publ_section_title
;
Structure prediction by ZEFSAII (Michael W. Deem and Ramdas Pophale) SiO2 
 PCOD9133923
Probable space group: C C
;
_chemical_formula_sum "Si O2"
_cell_formula_units_Z 28
_cell_length_a 16.300320
_cell_length_b 15.870775
_cell_length_c 13.441495
_cell_angle_alpha 90.000000
_cell_angle_beta 160.547735
_cell_angle_gamma 90.000000
_cell_volume 1158.014452
_symmetry_space_group_name_H-M "C C"
_symmetry_group_IT_number 9
_symmetry_cell_setting 'monoclinic'
loop_
_space_group_symop_operation_xyz
x,y,z
x,-y,1/2+z
1/2+x,1/2+y,z
1/2+x,1/2-y,1/2+z
loop_
_atom_site_type_symbol
_atom_site_label
_atom_site_fract_x
_atom_site_fract_y
_atom_site_fract_z
Si Si1 0.461490 0.387347 0.940410
Si Si2 0.919196 0.649674 0.863147
Si Si3 0.855247 0.452724 0.740287
Si Si4 0.477311 0.503002 0.140373
Si Si5 0.263624 0.158353 0.473584
Si Si6 0.763861 0.288789 0.759344
Si Si7 0.666826 0.987483 0.447120
O O1 0.215330 0.341122 0.699946
O O2 0.377310 0.430768 0.740328
O O3 0.514788 0.461323 0.078641
O O4 0.711051 0.335399 0.208621
O O5 0.897128 0.546849 0.828860
O O6 0.810934 0.693139 0.638055
O O7 0.645863 0.458394 0.416791
O O8 0.792162 0.383335 0.748778
O O9 0.097818 0.440941 0.948138
O O10 0.512164 0.604116 0.175765
O O11 0.217595 0.483313 0.894246
O O12 0.330123 0.212133 0.453336
O O13 0.449324 0.079031 0.685252
O O14 0.976154 0.240359 0.937789
#
# Coordination Sequence:
#
# PCOD9133923 Si02
#       7
#     4   4   4   4   4   4   4
#     4  10  18  29  48  86 119 136 186 219 326 377
#     4   9  19  34  56  85 113 154 180 264 311 347
#     4   9  21  37  52  83 121 155 211 244 301 364
#     4  10  19  31  61  86 117 162 185 267 321 358
#     4   9  21  36  55  82 120 155 210 245 305 363
#     4  12  29  42  61  89 127 186 209 239 297 375
#     4   9  19  33  57  89 115 160 187 268 323 352
#
# _framework density 24.179319
#
# number of rings (size 3 to 8) (size 9 to 14) (size 15 to 20)
#    0.000    2.857    2.857    0.857   12.000    0.000 
#    0.000    0.000    0.000    0.000    0.000   14.000 
#    0.000    0.000    0.000    0.000    0.000    0.000 
#
# Total GULP energy -77955.017884 kJ/mol
# GULP energy per Si atom -5568.215563 kJ/mol
# Density = 2.412429 g / cm^3
# Si number density = 24.179319 Si / 1000 Ang^3
#
#
#
# Elastic Constant Matrix: (Units=GPa)
#
#
# Indices 1 2 3 4 5 6 
#
# 1 114.8085 41.8224 32.2700 -0.0009 38.8051 -0.0008
# 2 41.8224 93.8720 14.1240 -0.0025 5.0004 -0.0022
# 3 32.2700 14.1240 68.6564 -0.0055 30.1302 -0.0049
# 4 -0.0009 -0.0025 -0.0055 -119.6081 -0.0029 -111.4640
# 5 38.8051 5.0004 30.1302 -0.0029 51.2508 -0.0027
# 6 -0.0008 -0.0022 -0.0049 -111.4640 -0.0027 -64.9857
#
#
#
# Elastic Compliance Matrix: (Units=1/GPa)
#
#
# Indices 1 2 3 4 5 6 
#
# 1 0.014399 -0.005694 -0.001423 0.000000 -0.009510 0.000000
# 2 -0.005694 0.013250 -0.001852 0.000000 0.004108 0.000000
# 3 -0.001423 -0.001852 0.020300 -0.000001 -0.010677 0.000000
# 4 0.000000 0.000000 -0.000001 0.013971 0.000000 -0.023964
# 5 -0.009510 0.004108 -0.010677 0.000000 0.032589 0.000000
# 6 0.000000 0.000000 0.000000 -0.023964 0.000000 0.025714
#
#
# Mechanical properties :
#
#
# Convention : Reuss Voigt Hill
#
# Bulk Modulus (GPa) = 33.32107 50.41887 41.86997
# Shear Modulus (GPa) = 33.74618 -14.06057 9.84281
#
# Velocity S-wave (km/s) = 3.73991 -2.41407 2.01980
# Velocity P-wave (km/s) = 5.69737 3.62312 4.77425
#
# Compressibility (1/GPa) = 0.03001104
#
# Stress axis : x y z
#
# Youngs Moduli (GPa) = 69.44995 75.47371 49.26004
#
# Poissons Ratio (x) = 0.42978 0.07008
# Poissons Ratio (y) = 0.39548 0.09122
# Poissons Ratio (z) = 0.09881 0.13976
#
# Static dielectric constant tensor:
#      x y z
#    x 2.026910 0.000000 0.189110 
#    y 0.000000 2.033130 0.000000 
#    z 0.189110 0.000000 2.225080 
# 
# From -- ./inp_files/26917.got.cif
#   From: 2010.05.17/outbox.cif.g08.bks.cpg/sg9_14_cif.got.tgz:26917.got - 2010.06.03 20:04:27.
