data_PCOD9133631
_publ_section_title
;
Structure prediction by ZEFSAII (Michael W. Deem and Ramdas Pophale) SiO2 
 PCOD9133631
Probable space group: C M
;
_chemical_formula_sum "Si O2"
_cell_formula_units_Z 20
_cell_length_a 8.777173
_cell_length_b 22.777752
_cell_length_c 7.844530
_cell_angle_alpha 90.000000
_cell_angle_beta 146.987885
_cell_angle_gamma 90.000000
_cell_volume 854.441994
_symmetry_space_group_name_H-M "C M"
_symmetry_group_IT_number 8
_symmetry_cell_setting 'monoclinic'
loop_
_space_group_symop_operation_xyz
x,y,z
x,-y,z
1/2+x,1/2+y,z
1/2+x,1/2-y,z
loop_
_atom_site_type_symbol
_atom_site_label
_atom_site_fract_x
_atom_site_fract_y
_atom_site_fract_z
Si Si1 0.014750 0.787518 0.942940
Si Si2 0.209976 0.400119 0.811063
Si Si3 0.789567 0.500000 0.885084
Si Si4 0.139882 0.901585 0.475282
Si Si5 0.509793 0.714056 0.538318
Si Si6 0.747789 0.000000 0.578302
O O1 0.885872 0.843274 0.917653
O O2 0.831770 0.732084 0.826600
O O3 0.963184 0.795769 0.694073
O O4 0.325176 0.767304 0.287704
O O5 0.166017 0.442979 0.610561
O O6 0.916672 0.386043 0.626167
O O7 0.414382 0.430925 0.139059
O O8 0.733850 0.443568 0.716033
O O9 0.575446 0.500000 0.842859
O O10 0.094046 0.500000 0.252910
O O11 0.983673 0.844754 0.405042
#
# Coordination Sequence:
#
# PCOD9133631 Si02
#       6
#     4   4   2   4   4   2
#     4  12  25  43  67  98 135 179 229 282 339 404
#     4  12  25  45  70 101 140 185 230 285 346 412
#     4  12  26  46  72 106 140 182 232 286 346 414
#     4  12  25  45  70 101 140 185 230 285 346 412
#     4  12  25  43  67  98 135 179 229 282 339 404
#     4  12  26  46  72 106 140 182 232 286 346 414
#
# _framework density 23.407091000000001
#
# number of rings (size 3 to 8) (size 9 to 14) (size 15 to 20)
#    0.000    0.000    0.000   12.000    0.000    3.200 
#    0.000    0.000    0.000    0.000    0.000    0.000 
#    0.000    0.000    0.000    0.000    0.000    0.000 
#
# Total GULP energy -56032.092660 kJ/mol
# GULP energy per Si atom -5603.209266 kJ/mol
# Density = 2.335382 g / cm^3
# Si number density = 23.407091 Si / 1000 Ang^3
#
#
#
# Elastic Constant Matrix: (Units=GPa)
#
#
# Indices 1 2 3 4 5 6 
#
# 1 140.3343 39.0273 17.0466 0.0000 -4.4430 0.0000
# 2 39.0273 103.0783 9.2623 0.0000 -11.2773 0.0000
# 3 17.0466 9.2623 107.6621 0.0000 -10.9427 0.0000
# 4 0.0000 0.0000 0.0000 30.7498 0.0000 -10.0954
# 5 -4.4430 -11.2773 -10.9427 0.0000 47.1926 0.0000
# 6 0.0000 0.0000 0.0000 -10.0954 0.0000 20.2700
#
#
#
# Elastic Compliance Matrix: (Units=1/GPa)
#
#
# Indices 1 2 3 4 5 6 
#
# 1 0.008077 -0.002986 -0.001042 0.000000 -0.000195 0.000000
# 2 -0.002986 0.011107 -0.000247 0.000000 0.002316 0.000000
# 3 -0.001042 -0.000247 0.009687 0.000000 0.002089 0.000000
# 4 0.000000 0.000000 0.000000 0.038878 0.000000 0.019363
# 5 -0.000195 0.002316 0.002089 0.000000 0.022209 0.000000
# 6 0.000000 0.000000 0.000000 0.019363 0.000000 0.058978
#
#
# Mechanical properties :
#
#
# Convention : Reuss Voigt Hill
#
# Bulk Modulus (GPa) = 49.20980 53.52743 51.36862
# Shear Modulus (GPa) = 30.43984 38.69169 34.56577
#
# Velocity S-wave (km/s) = 3.61009 4.07011 3.84698
# Velocity P-wave (km/s) = 6.20049 6.70861 6.45955
#
# Compressibility (1/GPa) = 0.02032116
#
# Stress axis : x y z
#
# Youngs Moduli (GPa) = 123.81572 90.03041 103.23252
#
# Poissons Ratio (x) = 0.26879 0.10754
# Poissons Ratio (y) = 0.36966 0.02555
# Poissons Ratio (z) = 0.12898 0.02228
#
# Static dielectric constant tensor:
#      x y z
#    x 1.873880 0.000000 -0.040090 
#    y 0.000000 1.857270 0.000000 
#    z -0.040090 0.000000 1.840790 
# 
# From -- ./inp_files/9056.got.cif
#   From: 2010.05.17/outbox.cif.g08.bks.cpg/sg8_5_cif.got.tgz:9056.got - 2010.06.03 19:46:02.
