data_PCOD9133341
_publ_section_title
;
Structure prediction by ZEFSAII (Michael W. Deem and Ramdas Pophale) SiO2 
 PCOD9133341
Probable space group: C M
;
_chemical_formula_sum "Si O2"
_cell_formula_units_Z 22
_cell_length_a 9.132185
_cell_length_b 16.896762
_cell_length_c 7.801275
_cell_angle_alpha 90.000000
_cell_angle_beta 52.258685
_cell_angle_gamma 90.000000
_cell_volume 951.920657
_symmetry_space_group_name_H-M "C M"
_symmetry_group_IT_number 8
_symmetry_cell_setting 'monoclinic'
loop_
_space_group_symop_operation_xyz
x,y,z
x,-y,z
1/2+x,1/2+y,z
1/2+x,1/2-y,z
loop_
_atom_site_type_symbol
_atom_site_label
_atom_site_fract_x
_atom_site_fract_y
_atom_site_fract_z
Si Si1 0.222240 0.758027 0.540750
Si Si2 0.162974 0.084795 0.385443
Si Si3 0.985245 0.142983 0.171990
Si Si4 0.015495 0.500000 0.643328
Si Si5 0.872258 0.673839 0.761187
Si Si6 0.521329 0.000000 0.029495
Si Si7 0.312167 0.500000 0.123848
O O1 0.154833 0.840931 0.513183
O O2 0.321977 0.703910 0.328065
O O3 0.365341 0.779795 0.586788
O O4 0.048007 0.708343 0.734134
O O5 0.032868 0.097228 0.314515
O O6 0.118320 0.000000 0.501702
O O7 0.375705 0.072302 0.166488
O O8 0.930938 0.079293 0.066983
O O9 0.175538 0.186061 0.989352
O O10 0.087659 0.500000 0.787031
O O11 0.170760 0.500000 0.387404
O O12 0.899314 0.580537 0.709879
O O13 0.686543 0.000000 0.045381
#
# Coordination Sequence:
#
# PCOD9133341 Si02
#       7
#     4   4   4   2   4   2   2
#     4  12  27  45  72 109 146 197 243 302 368 438
#     4  10  22  46  72  98 146 190 234 305 366 422
#     4  12  25  48  72 103 153 189 243 306 368 429
#     4  12  23  48  77 107 149 189 248 301 360 448
#     4  12  27  47  73 108 148 193 247 301 367 441
#     4  10  23  44  81 107 139 196 253 297 367 442
#     4  12  24  48  78 110 144 199 243 314 371 424
#
# _framework density 23.111170999999999
#
# number of rings (size 3 to 8) (size 9 to 14) (size 15 to 20)
#    0.545    0.000    6.364    1.636    3.818    0.000 
#    6.545    0.000    0.000    0.000    0.000    0.000 
#    0.000    0.000    0.000    0.000    0.000    0.000 
#
# Total GULP energy -61549.178246 kJ/mol
# GULP energy per Si atom -5595.379841 kJ/mol
# Density = 2.305857 g / cm^3
# Si number density = 23.111171 Si / 1000 Ang^3
#
#
#
# Elastic Constant Matrix: (Units=GPa)
#
#
# Indices 1 2 3 4 5 6 
#
# 1 103.8703 37.3729 5.7804 0.0000 -7.8561 0.0000
# 2 37.3729 130.7439 17.8475 0.0000 -9.8075 0.0000
# 3 5.7804 17.8475 76.7078 0.0000 -20.0124 0.0000
# 4 0.0000 0.0000 0.0000 13.9568 0.0000 -11.4787
# 5 -7.8561 -9.8075 -20.0124 0.0000 29.2000 0.0000
# 6 0.0000 0.0000 0.0000 -11.4787 0.0000 11.1746
#
#
#
# Elastic Compliance Matrix: (Units=1/GPa)
#
#
# Indices 1 2 3 4 5 6 
#
# 1 0.010849 -0.002997 0.000461 0.000000 0.002228 0.000000
# 2 -0.002997 0.008797 -0.001535 0.000000 0.001096 0.000000
# 3 0.000461 -0.001535 0.016143 0.000000 0.010672 0.000000
# 4 0.000000 0.000000 0.000000 0.461699 0.000000 0.474260
# 5 0.002228 0.001096 0.010672 0.000000 0.042529 0.000000
# 6 0.000000 0.000000 0.000000 0.474260 0.000000 0.576651
#
#
# Mechanical properties :
#
#
# Convention : Reuss Voigt Hill
#
# Bulk Modulus (GPa) = 36.16980 48.14708 42.15844
# Shear Modulus (GPa) = 4.40908 27.55437 15.98172
#
# Velocity S-wave (km/s) = 1.38272 3.45665 2.63252
# Velocity P-wave (km/s) = 4.27008 6.06706 5.24608
#
# Compressibility (1/GPa) = 0.02764737
#
# Stress axis : x y z
#
# Youngs Moduli (GPa) = 92.17842 113.67568 61.94560
#
# Poissons Ratio (x) = 0.34067 -0.02856
# Poissons Ratio (y) = 0.27624 0.09508
# Poissons Ratio (z) = -0.04250 0.17448
#
# Static dielectric constant tensor:
#      x y z
#    x 1.850200 0.000000 0.001510 
#    y 0.000000 1.852640 0.000000 
#    z 0.001510 0.000000 1.855530 
# 
# From -- ./inp_files/8284.got.cif
#   From: 2010.05.17/outbox.cif.g08.bks.cpg/sg8_5_cif.got.tgz:8284.got - 2010.06.03 19:46:02.
