data_PCOD9133727
_publ_section_title
;
Structure prediction by ZEFSAII (Michael W. Deem and Ramdas Pophale) SiO2 
 PCOD9133727
Probable space group: C C
;
_chemical_formula_sum "Si O2"
_cell_formula_units_Z 20
_cell_length_a 24.489445
_cell_length_b 6.876773
_cell_length_c 5.226669
_cell_angle_alpha 90.000000
_cell_angle_beta 89.712875
_cell_angle_gamma 90.000000
_cell_volume 880.203672
_symmetry_space_group_name_H-M "C C"
_symmetry_group_IT_number 9
_symmetry_cell_setting 'monoclinic'
loop_
_space_group_symop_operation_xyz
x,y,z
x,-y,1/2+z
1/2+x,1/2+y,z
1/2+x,1/2-y,1/2+z
loop_
_atom_site_type_symbol
_atom_site_label
_atom_site_fract_x
_atom_site_fract_y
_atom_site_fract_z
Si Si1 0.317910 0.728260 0.604990
Si Si2 0.434251 0.629286 0.774035
Si Si3 0.050528 0.126557 0.662325
Si Si4 0.774651 0.780935 0.606301
Si Si5 0.155972 0.379122 0.781647
O O1 0.378577 0.739893 0.714496
O O2 0.297851 0.502271 0.566294
O O3 0.313760 0.808056 0.320021
O O4 0.277071 0.803669 0.822748
O O5 0.433278 0.454895 0.561491
O O6 0.492311 0.730280 0.718496
O O7 0.103535 0.252033 0.717466
O O8 0.051066 0.046872 0.373081
O O9 0.713925 0.780772 0.718103
O O10 0.154804 0.555693 0.576423
#
# Coordination Sequence:
#
# PCOD9133727 Si02
#       5
#     4   4   4   4   4
#     4  10  14  25  43  74 105 119 158 230 275 279
#     4  10  16  27  47  68 102 126 169 212 268 295
#     4  10  23  38  52  78 112 149 178 215 269 322
#     4  10  16  25  44  77 104 120 161 227 274 284
#     4  12  21  35  56  81 111 140 184 222 262 320
#
# _framework density 22.722014999999999
#
# number of rings (size 3 to 8) (size 9 to 14) (size 15 to 20)
#    0.000    1.600    8.000    1.200    0.000    0.000 
#    0.000    0.000    0.000    0.000    0.000    8.400 
#    0.000    0.000    0.000    0.000    0.000    0.000 
#
# Total GULP energy -55793.120008 kJ/mol
# GULP energy per Si atom -5579.312001 kJ/mol
# Density = 2.267030 g / cm^3
# Si number density = 22.722015 Si / 1000 Ang^3
#
#
#
# Elastic Constant Matrix: (Units=GPa)
#
#
# Indices 1 2 3 4 5 6 
#
# 1 151.2860 -3.6940 -17.6052 0.0000 -6.5899 0.0000
# 2 -3.6940 31.4152 -13.4818 0.0000 -6.6739 0.0000
# 3 -17.6052 -13.4818 114.7067 0.0000 13.7844 0.0000
# 4 0.0000 0.0000 0.0000 -12.0664 0.0000 1.0589
# 5 -6.5899 -6.6739 13.7844 0.0000 38.0681 0.0000
# 6 0.0000 0.0000 0.0000 1.0589 0.0000 24.9018
#
#
#
# Elastic Compliance Matrix: (Units=1/GPa)
#
#
# Indices 1 2 3 4 5 6 
#
# 1 0.006820 0.001495 0.001097 0.000000 0.001045 0.000000
# 2 0.001495 0.034657 0.003703 0.000000 0.004994 0.000000
# 3 0.001097 0.003703 0.009640 0.000000 -0.002652 0.000000
# 4 0.000000 0.000000 0.000000 -0.082566 0.000000 0.003511
# 5 0.001045 0.004994 -0.002652 0.000000 0.028285 0.000000
# 6 0.000000 0.000000 0.000000 0.003511 0.000000 0.040008
#
#
# Mechanical properties :
#
#
# Convention : Reuss Voigt Hill
#
# Bulk Modulus (GPa) = 15.69732 25.31621 20.50677
# Shear Modulus (GPa) = 109.91040 32.32661 71.11850
#
# Velocity S-wave (km/s) = 6.96253 3.77596 5.60065
# Velocity P-wave (km/s) = 8.45926 5.49331 7.13216
#
# Compressibility (1/GPa) = 0.06370513
#
# Stress axis : x y z
#
# Youngs Moduli (GPa) = 146.63495 28.85387 103.73396
#
# Poissons Ratio (x) = -0.04313 -0.11377
# Poissons Ratio (y) = -0.21917 -0.38409
# Poissons Ratio (z) = -0.16082 -0.10684
#
# Static dielectric constant tensor:
#      x y z
#    x 1.851860 0.000000 0.005160 
#    y 0.000000 2.050880 0.000000 
#    z 0.005160 0.000000 1.890020 
# 
# From -- ./inp_files/3096.got.cif
#   From: 2010.05.17/outbox.cif.g08.bks.cpg/sg9_2_cif.got.tgz:3096.got - 2010.06.03 20:04:27.
