data_PCOD9133080
_publ_section_title
;
Structure prediction by ZEFSAII (Michael W. Deem and Ramdas Pophale) SiO2 
 PCOD9133080
Probable space group: C M
;
_chemical_formula_sum "Si O2"
_cell_formula_units_Z 18
_cell_length_a 20.297358
_cell_length_b 7.367440
_cell_length_c 5.265297
_cell_angle_alpha 90.000000
_cell_angle_beta 104.658193
_cell_angle_gamma 90.000000
_cell_volume 761.743424
_symmetry_space_group_name_H-M "C M"
_symmetry_group_IT_number 8
_symmetry_cell_setting 'monoclinic'
loop_
_space_group_symop_operation_xyz
x,y,z
x,-y,z
1/2+x,1/2+y,z
1/2+x,1/2-y,z
loop_
_atom_site_type_symbol
_atom_site_label
_atom_site_fract_x
_atom_site_fract_y
_atom_site_fract_z
Si Si1 0.927630 0.000000 0.873661
Si Si2 0.366430 0.205715 0.126484
Si Si3 0.137887 0.279616 0.535325
Si Si4 0.992896 0.283046 0.611667
Si Si5 0.216749 0.280397 0.115670
O O1 0.982299 0.160878 0.847211
O O2 0.871803 0.157385 0.900284
O O3 0.427092 0.264067 0.375509
O O4 0.294603 0.218783 0.196932
O O5 0.378995 0.000000 0.059046
O O6 0.138282 0.500000 0.527973
O O7 0.170791 0.217125 0.305234
O O8 0.060401 0.230604 0.523721
O O9 0.183842 0.222672 0.817839
O O10 0.994437 0.500000 0.663093
O O11 0.217174 0.500000 0.121019
#
# Coordination Sequence:
#
# PCOD9133080 Si02
#       5
#     2   4   4   4   4
#     4  12  24  42  72 100 140 174 238 284 350 410
#     4  11  25  43  68 102 137 180 231 289 346 411
#     4   9  21  41  68  97 136 182 228 283 346 412
#     4  10  24  45  69 100 136 182 231 284 347 416
#     4  10  21  41  68  97 138 184 228 281 349 414
#
# _framework density 23.630005000000001
#
# number of rings (size 3 to 8) (size 9 to 14) (size 15 to 20)
#    0.000    1.778    1.111    1.333    6.222    0.000 
#    4.000    0.000    0.000    0.000    0.000    0.000 
#    0.000    0.000    0.000    0.000    0.000    0.000 
#
# Total GULP energy -50116.611800 kJ/mol
# GULP energy per Si atom -5568.512422 kJ/mol
# Density = 2.357622 g / cm^3
# Si number density = 23.630005 Si / 1000 Ang^3
#
#
#
# Elastic Constant Matrix: (Units=GPa)
#
#
# Indices 1 2 3 4 5 6 
#
# 1 -3.1213 10.7653 -87.2358 0.0000 -22.2552 0.0000
# 2 10.7653 102.3186 6.0337 0.0000 -5.9965 0.0000
# 3 -87.2358 6.0337 -13.4140 0.0000 -12.9801 0.0000
# 4 0.0000 0.0000 0.0000 -361.6976 0.0000 168.7486
# 5 -22.2552 -5.9965 -12.9801 0.0000 46.4557 0.0000
# 6 0.0000 0.0000 0.0000 168.7486 0.0000 -52.2465
#
#
#
# Elastic Compliance Matrix: (Units=1/GPa)
#
#
# Indices 1 2 3 4 5 6 
#
# 1 0.002015 0.000314 -0.010971 0.000000 -0.002059 0.000000
# 2 0.000314 0.009790 0.000780 0.000000 0.001632 0.000000
# 3 -0.010971 0.000780 0.001684 0.000000 -0.004685 0.000000
# 4 0.000000 0.000000 0.000000 0.005454 0.000000 0.017617
# 5 -0.002059 0.001632 -0.004685 0.000000 0.019441 0.000000
# 6 0.000000 0.000000 0.000000 0.017617 0.000000 0.037761
#
#
# Mechanical properties :
#
#
# Convention : Reuss Voigt Hill
#
# Bulk Modulus (GPa) = -159.64999 -6.12115 -82.88557
# Shear Modulus (GPa) = 53.29912 -63.08299 -4.89193
#
# Velocity S-wave (km/s) = 4.75444 -5.17244 -1.44039
# Velocity P-wave (km/s) = 6.12940 6.18613 6.15783
#
# Compressibility (1/GPa) = -0.00626370
#
# Stress axis : x y z
#
# Youngs Moduli (GPa) = 496.23728 102.14534 593.83396
#
# Poissons Ratio (x) = -0.03210 6.51501
# Poissons Ratio (y) = -0.15594 -0.46346
# Poissons Ratio (z) = 5.44427 -0.07972
#
# Static dielectric constant tensor:
#      x y z
#    x 1.900410 0.000000 0.039440 
#    y 0.000000 1.936940 0.000000 
#    z 0.039440 0.000000 2.025690 
# 
# From -- ./inp_files/4413.got.cif
#   From: 2010.05.17/outbox.cif.g08.bks.cpg/sg8_3_cif.got.tgz:4413.got - 2010.06.03 19:46:02.
