data_PCOD9133566
_publ_section_title
;
Structure prediction by ZEFSAII (Michael W. Deem and Ramdas Pophale) SiO2 
 PCOD9133566
Probable space group: C M
;
_chemical_formula_sum "Si O2"
_cell_formula_units_Z 22
_cell_length_a 11.686467
_cell_length_b 13.448314
_cell_length_c 10.914019
_cell_angle_alpha 90.000000
_cell_angle_beta 145.553937
_cell_angle_gamma 90.000000
_cell_volume 970.215817
_symmetry_space_group_name_H-M "C M"
_symmetry_group_IT_number 8
_symmetry_cell_setting 'monoclinic'
loop_
_space_group_symop_operation_xyz
x,y,z
x,-y,z
1/2+x,1/2+y,z
1/2+x,1/2-y,z
loop_
_atom_site_type_symbol
_atom_site_label
_atom_site_fract_x
_atom_site_fract_y
_atom_site_fract_z
Si Si1 0.040170 0.885546 0.489530
Si Si2 0.444728 0.190083 0.766106
Si Si3 0.244079 0.346608 0.447355
Si Si4 0.510112 0.000000 0.684131
Si Si5 0.744094 0.500000 0.238606
Si Si6 0.311312 0.500000 0.724485
Si Si7 0.343252 0.802870 0.181324
O O1 0.271847 0.845282 0.709357
O O2 0.890780 0.888662 0.474114
O O3 0.939624 0.797948 0.320762
O O4 0.051847 0.000000 0.454573
O O5 0.324043 0.236904 0.545468
O O6 0.548758 0.093472 0.803661
O O7 0.615832 0.269136 0.951883
O O8 0.280354 0.407631 0.604936
O O9 0.001624 0.339340 0.215744
O O10 0.288328 0.000000 0.422856
O O11 0.649823 0.000000 0.689299
O O12 0.834402 0.396875 0.264495
O O13 0.521297 0.500000 0.982845
#
# Coordination Sequence:
#
# PCOD9133566 Si02
#       7
#     4   4   4   2   2   2   4
#     4  11  25  45  72 105 153 191 239 310 381 435
#     4  11  26  45  70 104 146 190 243 299 375 439
#     4  11  23  45  71 102 141 186 246 308 359 434
#     4  12  26  45  69 100 149 189 243 306 355 442
#     4  12  24  46  73 104 145 196 256 295 363 437
#     4  12  24  43  74 100 138 197 245 299 360 429
#     4  11  25  45  73 109 144 195 252 301 370 448
#
# _framework density 22.675367999999999
#
# number of rings (size 3 to 8) (size 9 to 14) (size 15 to 20)
#    0.000    0.727    5.455    1.091    3.818    5.818 
#    0.000    0.000    0.000    0.000    0.000    0.000 
#    0.000    0.000    0.000    0.000    0.000    0.000 
#
# Total GULP energy -61318.241979 kJ/mol
# GULP energy per Si atom -5574.385634 kJ/mol
# Density = 2.262376 g / cm^3
# Si number density = 22.675368 Si / 1000 Ang^3
#
#
#
# Elastic Constant Matrix: (Units=GPa)
#
#
# Indices 1 2 3 4 5 6 
#
# 1 145.3754 27.8565 44.1151 0.0000 40.9467 0.0000
# 2 27.8565 137.4622 29.6384 0.0000 15.3159 0.0000
# 3 44.1151 29.6384 106.1477 0.0000 32.2178 0.0000
# 4 0.0000 0.0000 0.0000 -3.8891 0.0000 -6.9794
# 5 40.9467 15.3159 32.2178 0.0000 29.5569 0.0000
# 6 0.0000 0.0000 0.0000 -6.9794 0.0000 29.5750
#
#
#
# Elastic Compliance Matrix: (Units=1/GPa)
#
#
# Indices 1 2 3 4 5 6 
#
# 1 0.011326 -0.000600 0.000192 0.000000 -0.015589 0.000000
# 2 -0.000600 0.007895 -0.001443 0.000000 -0.001687 0.000000
# 3 0.000192 -0.001443 0.014343 0.000000 -0.015152 0.000000
# 4 0.000000 0.000000 0.000000 -0.180630 0.000000 -0.042627
# 5 -0.015589 -0.001687 -0.015152 0.000000 0.072820 0.000000
# 6 0.000000 0.000000 0.000000 -0.042627 0.000000 0.023753
#
#
# Mechanical properties :
#
#
# Convention : Reuss Voigt Hill
#
# Bulk Modulus (GPa) = 33.48638 65.80057 49.64347
# Shear Modulus (GPa) = -135.73618 30.20693 -52.76463
#
# Velocity S-wave (km/s) = -7.74536 3.65382 -4.82909
# Velocity P-wave (km/s) = 8.07389 6.84705 3.02536
#
# Compressibility (1/GPa) = 0.02986289
#
# Stress axis : x y z
#
# Youngs Moduli (GPa) = 88.28966 126.65559 69.72022
#
# Poissons Ratio (x) = 0.07595 -0.01338
# Poissons Ratio (y) = 0.05295 0.10062
# Poissons Ratio (z) = -0.01694 0.18278
#
# Static dielectric constant tensor:
#      x y z
#    x 1.860550 0.000000 0.063200 
#    y 0.000000 1.901730 0.000000 
#    z 0.063200 0.000000 1.916070 
# 
# From -- ./inp_files/20512.got.cif
#   From: 2010.05.17/outbox.cif.g08.bks.cpg/sg8_11_cif.got.tgz:20512.got - 2010.06.03 19:46:02.
