data_PCOD9133795
_publ_section_title
;
Structure prediction by ZEFSAII (Michael W. Deem and Ramdas Pophale) SiO2 
 PCOD9133795
Probable space group: C C
;
_chemical_formula_sum "Si O2"
_cell_formula_units_Z 32
_cell_length_a 9.358105
_cell_length_b 13.128189
_cell_length_c 12.284590
_cell_angle_alpha 90.000000
_cell_angle_beta 72.980330
_cell_angle_gamma 90.000000
_cell_volume 1443.125514
_symmetry_space_group_name_H-M "C C"
_symmetry_group_IT_number 9
_symmetry_cell_setting 'monoclinic'
loop_
_space_group_symop_operation_xyz
x,y,z
x,-y,1/2+z
1/2+x,1/2+y,z
1/2+x,1/2-y,1/2+z
loop_
_atom_site_type_symbol
_atom_site_label
_atom_site_fract_x
_atom_site_fract_y
_atom_site_fract_z
Si Si1 0.183820 0.637268 0.455320
Si Si2 0.422734 0.264793 0.773600
Si Si3 0.472831 0.115741 0.305568
Si Si4 0.801368 0.427898 0.415473
Si Si5 0.738977 0.161670 0.672603
Si Si6 0.000891 0.849685 0.534658
Si Si7 0.490845 0.827829 0.560661
Si Si8 0.804298 0.172799 0.886338
O O1 0.351631 0.661887 0.379354
O O2 0.191931 0.596352 0.577321
O O3 0.091344 0.743285 0.493677
O O4 0.096086 0.592442 0.371334
O O5 0.330069 0.160424 0.817526
O O6 0.595667 0.231616 0.737582
O O7 0.406989 0.322415 0.662454
O O8 0.522200 0.119563 0.169470
O O9 0.400372 0.226232 0.341523
O O10 0.345643 0.032387 0.350801
O O11 0.637903 0.427576 0.505289
O O12 0.911871 0.400322 0.490015
O O13 0.873541 0.236118 0.606555
O O14 0.784714 0.113109 0.777269
O O15 0.896092 0.882440 0.459543
O O16 0.646259 0.796110 0.472503
#
# Coordination Sequence:
#
# PCOD9133795 Si02
#       8
#     4   4   4   4   4   4   4   4
#     4   9  17  33  54  92 113 153 208 240 294 369
#     4  10  16  33  63  83 111 162 201 241 291 373
#     4  10  24  36  60  96 122 154 203 266 309 354
#     4  11  21  39  61  91 127 156 197 256 325 352
#     4  10  17  32  61  89 112 161 213 244 288 358
#     4   9  19  34  62  88 114 162 208 241 293 375
#     4  11  20  38  62  86 121 162 206 249 301 376
#     4  10  20  37  61  87 120 158 216 249 287 367
#
# _framework density 22.174094
#
# number of rings (size 3 to 8) (size 9 to 14) (size 15 to 20)
#    0.000    2.000    5.000    0.750    0.000    4.000 
#    0.000    0.000   13.750    0.000    0.000    0.000 
#    0.000    0.000    0.000    0.000    0.000    0.000 
#
# Total GULP energy -89175.695070 kJ/mol
# GULP energy per Si atom -5573.480942 kJ/mol
# Density = 2.212362 g / cm^3
# Si number density = 22.174094 Si / 1000 Ang^3
#
#
#
# Elastic Constant Matrix: (Units=GPa)
#
#
# Indices 1 2 3 4 5 6 
#
# 1 91.5678 -4.1985 51.8648 0.0000 16.8076 0.0000
# 2 -4.1985 30.6385 17.9671 0.0000 4.0040 0.0000
# 3 51.8648 17.9671 178.0663 0.0000 30.3343 0.0000
# 4 0.0000 0.0000 0.0000 13.1742 0.0000 -13.4546
# 5 16.8076 4.0040 30.3343 0.0000 41.8950 0.0000
# 6 0.0000 0.0000 0.0000 -13.4546 0.0000 5.7701
#
#
#
# Elastic Compliance Matrix: (Units=1/GPa)
#
#
# Indices 1 2 3 4 5 6 
#
# 1 0.013985 0.004679 -0.004008 0.000000 -0.003156 0.000000
# 2 0.004679 0.036286 -0.004692 0.000000 -0.001947 0.000000
# 3 -0.004008 -0.004692 0.007878 0.000000 -0.003648 0.000000
# 4 0.000000 0.000000 0.000000 -0.054948 0.000000 -0.128127
# 5 -0.003156 -0.001947 -0.003648 0.000000 0.027963 0.000000
# 6 0.000000 0.000000 0.000000 -0.128127 0.000000 -0.125457
#
#
# Mechanical properties :
#
#
# Convention : Reuss Voigt Hill
#
# Bulk Modulus (GPa) = 19.95748 47.94884 33.95316
# Shear Modulus (GPa) = -71.89143 27.81048 -22.04047
#
# Velocity S-wave (km/s) = -5.70015 3.54529 -3.15616
# Velocity P-wave (km/s) = 5.85683 6.19916 1.43651
#
# Compressibility (1/GPa) = 0.05010653
#
# Stress axis : x y z
#
# Youngs Moduli (GPa) = 71.50663 27.55881 126.93363
#
# Poissons Ratio (x) = -0.12895 0.50873
# Poissons Ratio (y) = -0.33458 0.59562
# Poissons Ratio (z) = 0.28659 0.12932
#
# Static dielectric constant tensor:
#      x y z
#    x 1.840970 0.000000 0.048960 
#    y 0.000000 1.819390 0.000000 
#    z 0.048960 0.000000 1.847480 
# 
# From -- ./inp_files/14582.got.cif
#   From: 2010.05.17/outbox.cif.g08.bks.cpg/sg9_8_cif.got.tgz:14582.got - 2010.06.03 20:04:27.
