data_PCOD9133624
_publ_section_title
;
Structure prediction by ZEFSAII (Michael W. Deem and Ramdas Pophale) SiO2 
 PCOD9133624
Probable space group: C M
;
_chemical_formula_sum "Si O2"
_cell_formula_units_Z 20
_cell_length_a 5.857698
_cell_length_b 30.123254
_cell_length_c 5.037273
_cell_angle_alpha 90.000000
_cell_angle_beta 98.756083
_cell_angle_gamma 90.000000
_cell_volume 878.482420
_symmetry_space_group_name_H-M "C M"
_symmetry_group_IT_number 8
_symmetry_cell_setting 'monoclinic'
loop_
_space_group_symop_operation_xyz
x,y,z
x,-y,z
1/2+x,1/2+y,z
1/2+x,1/2-y,z
loop_
_atom_site_type_symbol
_atom_site_label
_atom_site_fract_x
_atom_site_fract_y
_atom_site_fract_z
Si Si1 0.748111 0.500000 0.094561
Si Si2 0.234707 0.405374 0.619593
Si Si3 0.833626 0.663734 0.499720
Si Si4 0.505347 0.592777 0.158563
Si Si5 0.315039 0.774794 0.993364
Si Si6 0.530492 0.000000 0.639719
O O1 0.619919 0.544671 0.156163
O O2 0.973683 0.500000 0.318384
O O3 0.808146 0.500000 0.794005
O O4 0.289456 0.410339 0.319172
O O5 0.050891 0.366663 0.613236
O O6 0.157315 0.453665 0.713372
O O7 0.444858 0.393246 0.850127
O O8 0.660771 0.628732 0.334045
O O9 0.768051 0.690227 0.750576
O O10 0.868689 0.700342 0.278475
O O11 0.564737 0.750661 0.974963
#
# Coordination Sequence:
#
# PCOD9133624 Si02
#       6
#     2   4   4   4   4   2
#     4  12  24  44  68 103 155 200 244 301 366 431
#     4  12  26  45  74 106 150 198 251 301 367 444
#     4  12  28  49  80 110 148 190 250 319 372 462
#     4  12  26  45  74 106 150 198 251 301 367 444
#     4  12  30  54  82 113 154 197 250 322 404 470
#     4  12  24  44  68 103 155 200 244 301 366 431
#
# _framework density 22.766532000000002
#
# number of rings (size 3 to 8) (size 9 to 14) (size 15 to 20)
#    0.000    0.000    2.000    7.200   11.200    0.000 
#    0.000    0.000    0.000    0.000    0.000    0.000 
#    0.000    0.000    0.000    0.000    0.000    0.000 
#
# Total GULP energy -55907.016267 kJ/mol
# GULP energy per Si atom -5590.701627 kJ/mol
# Density = 2.271471 g / cm^3
# Si number density = 22.766532 Si / 1000 Ang^3
#
#
#
# Elastic Constant Matrix: (Units=GPa)
#
#
# Indices 1 2 3 4 5 6 
#
# 1 75.2295 62.2118 -3.3980 0.0000 3.7904 0.0000
# 2 62.2118 119.4779 19.1293 0.0000 5.2351 0.0000
# 3 -3.3980 19.1293 96.5033 0.0000 11.9362 0.0000
# 4 0.0000 0.0000 0.0000 35.2264 0.0000 -0.8098
# 5 3.7904 5.2351 11.9362 0.0000 46.6454 0.0000
# 6 0.0000 0.0000 0.0000 -0.8098 0.0000 45.4164
#
#
#
# Elastic Compliance Matrix: (Units=1/GPa)
#
#
# Indices 1 2 3 4 5 6 
#
# 1 0.024528 -0.013297 0.003678 0.000000 -0.001442 0.000000
# 2 -0.013297 0.015866 -0.003642 0.000000 0.000232 0.000000
# 3 0.003678 -0.003642 0.011566 0.000000 -0.002850 0.000000
# 4 0.000000 0.000000 0.000000 0.028399 0.000000 0.000506
# 5 -0.001442 0.000232 -0.002850 0.000000 0.022259 0.000000
# 6 0.000000 0.000000 0.000000 0.000506 0.000000 0.022027
#
#
# Mechanical properties :
#
#
# Convention : Reuss Voigt Hill
#
# Bulk Modulus (GPa) = 39.31171 49.67743 44.49457
# Shear Modulus (GPa) = 31.31891 39.67548 35.49720
#
# Velocity S-wave (km/s) = 3.71301 4.17911 3.95293
# Velocity P-wave (km/s) = 5.97384 6.71970 6.35771
#
# Compressibility (1/GPa) = 0.02543771
#
# Stress axis : x y z
#
# Youngs Moduli (GPa) = 40.77038 63.02594 86.45839
#
# Poissons Ratio (x) = 0.83806 -0.31798
# Poissons Ratio (y) = 0.54213 0.31488
# Poissons Ratio (z) = -0.14995 0.22954
#
# Static dielectric constant tensor:
#      x y z
#    x 1.902830 0.000000 0.008290 
#    y 0.000000 1.852000 0.000000 
#    z 0.008290 0.000000 1.766270 
# 
# From -- ./inp_files/533.got.cif
#   From: 2010.05.17/outbox.cif.g08.bks.cpg/sg8_1_cif.got.tgz:533.got - 2010.06.03 19:46:02.
