data_PCOD9133526
_publ_section_title
;
Structure prediction by ZEFSAII (Michael W. Deem and Ramdas Pophale) SiO2 
 PCOD9133526
Probable space group: C M
;
_chemical_formula_sum "Si O2"
_cell_formula_units_Z 32
_cell_length_a 16.954111
_cell_length_b 14.856571
_cell_length_c 11.358407
_cell_angle_alpha 90.000000
_cell_angle_beta 148.022030
_cell_angle_gamma 90.000000
_cell_volume 1515.142198
_symmetry_space_group_name_H-M "C M"
_symmetry_group_IT_number 8
_symmetry_cell_setting 'monoclinic'
loop_
_space_group_symop_operation_xyz
x,y,z
x,-y,z
1/2+x,1/2+y,z
1/2+x,1/2-y,z
loop_
_atom_site_type_symbol
_atom_site_label
_atom_site_fract_x
_atom_site_fract_y
_atom_site_fract_z
Si Si1 0.118930 0.768108 0.778010
Si Si2 0.620401 0.786819 0.535858
Si Si3 0.417669 0.601906 0.676292
Si Si4 0.552467 0.597390 0.363110
Si Si5 0.958481 0.848016 0.987456
Si Si6 0.231772 0.601503 0.073721
Si Si7 0.897885 0.397369 0.089847
Si Si8 0.119445 0.342993 0.189279
O O1 0.042764 0.734008 0.562400
O O2 0.165771 0.680786 0.910644
O O3 0.018507 0.832258 0.728723
O O4 0.259555 0.829572 0.918848
O O5 0.637994 0.690167 0.494504
O O6 0.783279 0.824101 0.771762
O O7 0.517165 0.853908 0.331380
O O8 0.418981 0.500000 0.632401
O O9 0.470558 0.602458 0.878114
O O10 0.251946 0.641070 0.450484
O O11 0.626689 0.500000 0.478003
O O12 0.499898 0.602606 0.160703
O O13 0.407565 0.601167 0.264797
O O14 0.061640 0.759225 0.109536
O O15 0.178695 0.500000 0.977666
O O16 0.184621 0.623000 0.147953
O O17 0.859103 0.500000 0.071331
O O18 0.978077 0.394756 0.064492
#
# Coordination Sequence:
#
# PCOD9133526 Si02
#       8
#     4   4   4   4   4   4   4   4
#     4  12  25  44  67  96 138 173 219 279 331 388
#     4  12  22  42  66  98 126 177 215 269 333 387
#     4  12  26  42  69 101 131 177 224 268 332 399
#     4  11  23  42  66  97 132 170 218 269 327 394
#     4  12  22  43  70  94 135 173 219 273 330 390
#     4  11  22  40  66  95 130 174 215 267 327 388
#     4  12  25  43  68  99 132 172 222 275 328 392
#     4  12  23  44  68  96 132 174 222 274 324 392
#
# _framework density 21.120131000000001
#
# number of rings (size 3 to 8) (size 9 to 14) (size 15 to 20)
#    0.000    0.250    7.500    2.625    0.000    3.000 
#    0.000    0.000    0.000    0.750    0.000    0.000 
#    0.000    0.000    0.000    0.000    0.000    0.000 
#
# Total GULP energy -89431.849446 kJ/mol
# GULP energy per Si atom -5589.490590 kJ/mol
# Density = 2.107206 g / cm^3
# Si number density = 21.120131 Si / 1000 Ang^3
#
#
#
# Elastic Constant Matrix: (Units=GPa)
#
#
# Indices 1 2 3 4 5 6 
#
# 1 117.2961 19.0204 2.6461 0.0000 -9.7932 0.0000
# 2 19.0204 135.6520 16.0136 0.0000 -2.9284 0.0000
# 3 2.6461 16.0136 21.6525 0.0000 -7.8752 0.0000
# 4 0.0000 0.0000 0.0000 81.9534 0.0000 88.3013
# 5 -9.7932 -2.9284 -7.8752 0.0000 34.5601 0.0000
# 6 0.0000 0.0000 0.0000 88.3013 0.0000 138.9581
#
#
#
# Elastic Compliance Matrix: (Units=1/GPa)
#
#
# Indices 1 2 3 4 5 6 
#
# 1 0.008934 -0.001292 0.000812 0.000000 0.002607 0.000000
# 2 -0.001292 0.008281 -0.006373 0.000000 -0.001117 0.000000
# 3 0.000812 -0.006373 0.055266 0.000000 0.012283 0.000000
# 4 0.000000 0.000000 0.000000 0.038697 0.000000 -0.024590
# 5 0.002607 -0.001117 0.012283 0.000000 0.032378 0.000000
# 6 0.000000 0.000000 0.000000 -0.024590 0.000000 0.022822
#
#
# Mechanical properties :
#
#
# Convention : Reuss Voigt Hill
#
# Bulk Modulus (GPa) = 17.01395 38.88453 27.94924
# Shear Modulus (GPa) = 25.04061 66.88901 45.96481
#
# Velocity S-wave (km/s) = 3.44703 5.63378 4.67020
# Velocity P-wave (km/s) = 4.89040 7.79554 6.50716
#
# Compressibility (1/GPa) = 0.05877530
#
# Stress axis : x y z
#
# Youngs Moduli (GPa) = 111.92756 120.75537 18.09446
#
# Poissons Ratio (x) = 0.15606 -0.01470
# Poissons Ratio (y) = 0.14465 0.11531
# Poissons Ratio (z) = -0.09091 0.76955
#
# Static dielectric constant tensor:
#      x y z
#    x 1.790340 0.000000 -0.018310 
#    y 0.000000 1.660360 0.000000 
#    z -0.018310 0.000000 1.757680 
# 
# From -- ./inp_files/23326.got.cif
#   From: 2010.05.17/outbox.cif.g08.bks.cpg/sg8_12_cif.got.tgz:23326.got - 2010.06.03 19:46:02.
