data_PCOD9133232
_publ_section_title
;
Structure prediction by ZEFSAII (Michael W. Deem and Ramdas Pophale) SiO2 
 PCOD9133232
Probable space group: C M
;
_chemical_formula_sum "Si O2"
_cell_formula_units_Z 32
_cell_length_a 33.133919
_cell_length_b 8.616507
_cell_length_c 12.700809
_cell_angle_alpha 90.000000
_cell_angle_beta 153.184172
_cell_angle_gamma 90.000000
_cell_volume 1635.804754
_symmetry_space_group_name_H-M "C M"
_symmetry_group_IT_number 8
_symmetry_cell_setting 'monoclinic'
loop_
_space_group_symop_operation_xyz
x,y,z
x,-y,z
1/2+x,1/2+y,z
1/2+x,1/2-y,z
loop_
_atom_site_type_symbol
_atom_site_label
_atom_site_fract_x
_atom_site_fract_y
_atom_site_fract_z
Si Si1 0.059240 0.180649 0.928160
Si Si2 0.362842 0.816721 0.806569
Si Si3 0.550333 0.686448 0.302615
Si Si4 0.166004 0.189641 0.374770
Si Si5 0.863383 0.819899 0.578605
Si Si6 0.294563 0.313374 0.196036
Si Si7 0.611096 0.686255 0.673116
Si Si8 0.980035 0.683330 0.538561
O O1 0.965302 0.182874 0.773020
O O2 0.043073 0.277251 0.785593
O O3 0.077011 0.000000 0.941362
O O4 0.132394 0.239810 0.181224
O O5 0.267819 0.765431 0.631908
O O6 0.357849 0.779144 0.670725
O O7 0.372362 0.000000 0.843794
O O8 0.447669 0.734158 0.054023
O O9 0.555519 0.500000 0.312764
O O10 0.601939 0.744402 0.318945
O O11 0.594366 0.738710 0.514165
O O12 0.161589 0.000000 0.361416
O O13 0.804412 0.765654 0.342000
O O14 0.842204 0.000000 0.553969
O O15 0.299096 0.500000 0.205140
O O16 0.381985 0.249613 0.338745
O O17 0.202530 0.255463 0.932409
O O18 0.617294 0.500000 0.689865
O O19 0.527444 0.739182 0.549225
O O20 0.973981 0.500000 0.509673
#
# Coordination Sequence:
#
# PCOD9133232 Si02
#       8
#     4   4   4   4   4   4   4   4
#     4   9  17  35  61  84 117 161 200 245 301 363
#     4  11  22  34  57  92 121 152 196 249 300 354
#     4  10  22  44  64  81 116 163 205 244 298 363
#     4   9  19  37  59  84 115 156 196 240 299 358
#     4   9  18  35  59  84 118 160 195 238 299 363
#     4  10  22  41  63  90 124 162 204 255 310 364
#     4  11  24  41  65  91 118 163 215 258 305 366
#     4  11  23  39  60  90 127 163 203 253 306 367
#
# _framework density 19.562237
#
# number of rings (size 3 to 8) (size 9 to 14) (size 15 to 20)
#    0.000    2.000    1.250    3.000    1.750    4.500 
#    0.000    3.125    0.000    0.000    0.000    0.000 
#    0.000    0.000    0.000    0.000    0.000    0.000 
#
# Total GULP energy -89371.671161 kJ/mol
# GULP energy per Si atom -5585.729448 kJ/mol
# Density = 1.951771 g / cm^3
# Si number density = 19.562237 Si / 1000 Ang^3
#
#
#
# Elastic Constant Matrix: (Units=GPa)
#
#
# Indices 1 2 3 4 5 6 
#
# 1 25.1197 3.2796 12.8062 0.0000 -7.3248 0.0000
# 2 3.2796 27.9910 7.3732 0.0000 -3.9544 0.0000
# 3 12.8062 7.3732 107.1204 0.0000 -9.5927 0.0000
# 4 0.0000 0.0000 0.0000 29.4926 0.0000 4.3411
# 5 -7.3248 -3.9544 -9.5927 0.0000 22.7528 0.0000
# 6 0.0000 0.0000 0.0000 4.3411 0.0000 17.3888
#
#
#
# Elastic Compliance Matrix: (Units=1/GPa)
#
#
# Indices 1 2 3 4 5 6 
#
# 1 0.045944 -0.002500 -0.004193 0.000000 0.012588 0.000000
# 2 -0.002500 0.037190 -0.001823 0.000000 0.004890 0.000000
# 3 -0.004193 -0.001823 0.010198 0.000000 0.002633 0.000000
# 4 0.000000 0.000000 0.000000 0.035200 0.000000 -0.008788
# 5 0.012588 0.004890 0.002633 0.000000 0.049963 0.000000
# 6 0.000000 0.000000 0.000000 -0.008788 0.000000 0.059702
#
#
# Mechanical properties :
#
#
# Convention : Reuss Voigt Hill
#
# Bulk Modulus (GPa) = 13.10630 23.01655 18.06142
# Shear Modulus (GPa) = 17.81495 23.04499 20.42997
#
# Velocity S-wave (km/s) = 3.02102 3.43597 3.23516
# Velocity P-wave (km/s) = 4.34547 5.24715 4.81745
#
# Compressibility (1/GPa) = 0.07629920
#
# Stress axis : x y z
#
# Youngs Moduli (GPa) = 21.76546 26.88910 98.06009
#
# Poissons Ratio (x) = 0.06723 0.41119
# Poissons Ratio (y) = 0.05442 0.17876
# Poissons Ratio (z) = 0.09127 0.04902
#
# Static dielectric constant tensor:
#      x y z
#    x 1.678390 0.000000 0.000330 
#    y 0.000000 1.663320 0.000000 
#    z 0.000330 0.000000 1.679730 
# 
# From -- ./inp_files/24792.got.cif
#   From: 2010.05.17/outbox.cif.g08.bks.cpg/sg8_13_cif.got.tgz:24792.got - 2010.06.03 19:46:02.
