data_PCOD9133397
_publ_section_title
;
Structure prediction by ZEFSAII (Michael W. Deem and Ramdas Pophale) SiO2 
 PCOD9133397
Probable space group: C M
;
_chemical_formula_sum "Si O2"
_cell_formula_units_Z 28
_cell_length_a 15.163275
_cell_length_b 17.771915
_cell_length_c 5.027038
_cell_angle_alpha 90.000000
_cell_angle_beta 119.243385
_cell_angle_gamma 90.000000
_cell_volume 1182.036620
_symmetry_space_group_name_H-M "C M"
_symmetry_group_IT_number 8
_symmetry_cell_setting 'monoclinic'
loop_
_space_group_symop_operation_xyz
x,y,z
x,-y,z
1/2+x,1/2+y,z
1/2+x,1/2-y,z
loop_
_atom_site_type_symbol
_atom_site_label
_atom_site_fract_x
_atom_site_fract_y
_atom_site_fract_z
Si Si1 0.306230 0.582373 0.269030
Si Si2 0.244407 0.739670 0.314527
Si Si3 0.061034 0.712144 0.413945
Si Si4 0.940644 0.659599 0.717832
Si Si5 0.830839 0.500000 0.487720
Si Si6 0.444664 0.582373 0.974618
Si Si7 0.091305 0.152930 0.800181
Si Si8 0.691822 0.500000 0.775877
O O1 0.256520 0.500000 0.150845
O O2 0.251007 0.661404 0.165592
O O3 0.349589 0.582644 0.632116
O O4 0.398796 0.586705 0.198893
O O5 0.174628 0.719492 0.466429
O O6 0.351391 0.778731 0.537715
O O7 0.185801 0.800802 0.052484
O O8 0.040411 0.794543 0.505569
O O9 0.025543 0.662453 0.612281
O O10 0.993496 0.683035 0.070395
O O11 0.891937 0.576562 0.638734
O O12 0.735828 0.500000 0.546237
O O13 0.785594 0.500000 0.123054
O O14 0.494199 0.500000 0.024830
O O15 0.519851 0.639754 0.947066
O O16 0.127604 0.074680 0.733690
#
# Coordination Sequence:
#
# PCOD9133397 Si02
#       8
#     4   4   4   4   2   4   4   2
#     4  10  25  46  71 100 143 198 249 305 373 442
#     4  12  28  47  79 111 154 202 256 324 384 461
#     4  12  29  49  73 118 149 210 256 311 395 462
#     4  12  28  51  80 110 160 202 259 324 383 472
#     4  12  26  52  76 114 150 211 261 312 398 456
#     4  10  23  44  70 104 142 187 243 312 383 452
#     4  12  26  47  75 117 154 195 256 324 397 465
#     4  12  26  46  80 116 156 197 257 330 402 468
#
# _framework density 23.687927999999999
#
# number of rings (size 3 to 8) (size 9 to 14) (size 15 to 20)
#    0.000    0.571    3.571    2.571    8.000    0.000 
#    2.571    0.000    3.143    0.000    0.000    0.000 
#    0.000    0.000    0.000    0.000    0.000    0.000 
#
# Total GULP energy -78363.458734 kJ/mol
# GULP energy per Si atom -5597.389910 kJ/mol
# Density = 2.363401 g / cm^3
# Si number density = 23.687928 Si / 1000 Ang^3
#
#
#
# Elastic Constant Matrix: (Units=GPa)
#
#
# Indices 1 2 3 4 5 6 
#
# 1 100.5499 59.1844 8.8998 0.0000 -5.7187 0.0000
# 2 59.1844 173.3438 12.6377 0.0000 1.2121 0.0000
# 3 8.8998 12.6377 84.6815 0.0000 -4.1300 0.0000
# 4 0.0000 0.0000 0.0000 24.4605 0.0000 6.5728
# 5 -5.7187 1.2121 -4.1300 0.0000 29.1175 0.0000
# 6 0.0000 0.0000 0.0000 6.5728 0.0000 48.7180
#
#
#
# Elastic Compliance Matrix: (Units=1/GPa)
#
#
# Indices 1 2 3 4 5 6 
#
# 1 0.012676 -0.004305 -0.000564 0.000000 0.002589 0.000000
# 2 -0.004305 0.007298 -0.000698 0.000000 -0.001248 0.000000
# 3 -0.000564 -0.000698 0.012052 0.000000 0.001628 0.000000
# 4 0.000000 0.000000 0.000000 0.042420 0.000000 -0.005723
# 5 0.002589 -0.001248 0.001628 0.000000 0.035135 0.000000
# 6 0.000000 0.000000 0.000000 -0.005723 0.000000 0.021298
#
#
# Mechanical properties :
#
#
# Convention : Reuss Voigt Hill
#
# Bulk Modulus (GPa) = 47.86062 57.77988 52.82025
# Shear Modulus (GPa) = 33.56220 38.98275 36.27247
#
# Velocity S-wave (km/s) = 3.76819 4.06110 3.91738
# Velocity P-wave (km/s) = 6.25946 6.81433 6.54278
#
# Compressibility (1/GPa) = 0.02089401
#
# Stress axis : x y z
#
# Youngs Moduli (GPa) = 78.88643 137.01711 82.97603
#
# Poissons Ratio (x) = 0.58987 0.04676
# Poissons Ratio (y) = 0.33962 0.05789
# Poissons Ratio (z) = 0.04445 0.09559
#
# Static dielectric constant tensor:
#      x y z
#    x 1.856840 0.000000 0.020130 
#    y 0.000000 1.935370 0.000000 
#    z 0.020130 0.000000 1.939780 
# 
# From -- ./inp_files/4160.got.cif
#   From: 2010.05.17/outbox.cif.g08.bks.cpg/sg8_3_cif.got.tgz:4160.got - 2010.06.03 19:46:02.
