data_PCOD9133348
_publ_section_title
;
Structure prediction by ZEFSAII (Michael W. Deem and Ramdas Pophale) SiO2 
 PCOD9133348
Probable space group: C M
;
_chemical_formula_sum "Si O2"
_cell_formula_units_Z 32
_cell_length_a 9.180615
_cell_length_b 18.932165
_cell_length_c 15.533142
_cell_angle_alpha 90.000000
_cell_angle_beta 37.284418
_cell_angle_gamma 90.000000
_cell_volume 1635.462516
_symmetry_space_group_name_H-M "C M"
_symmetry_group_IT_number 8
_symmetry_cell_setting 'monoclinic'
loop_
_space_group_symop_operation_xyz
x,y,z
x,-y,z
1/2+x,1/2+y,z
1/2+x,1/2-y,z
loop_
_atom_site_type_symbol
_atom_site_label
_atom_site_fract_x
_atom_site_fract_y
_atom_site_fract_z
Si Si1 0.126580 0.347223 0.389790
Si Si2 0.390164 0.163602 0.030601
Si Si3 0.166629 0.850604 0.871800
Si Si4 0.616736 0.803943 0.110317
Si Si5 0.702873 0.419093 0.678935
Si Si6 0.561152 0.419345 0.097009
Si Si7 0.375913 0.695291 0.735764
Si Si8 0.288885 0.223099 0.417755
O O1 0.314211 0.381159 0.236918
O O2 0.255238 0.303776 0.404885
O O3 0.946398 0.405268 0.511595
O O4 0.970112 0.289178 0.411603
O O5 0.497983 0.183532 0.073055
O O6 0.204543 0.223936 0.087037
O O7 0.239738 0.092435 0.093707
O O8 0.612886 0.161983 0.860310
O O9 0.248942 0.901746 0.756886
O O10 0.311251 0.776043 0.795517
O O11 0.184892 0.883781 0.956695
O O12 0.875707 0.841768 0.995916
O O13 0.415618 0.817151 0.278243
O O14 0.617531 0.500000 0.707507
O O15 0.527903 0.355660 0.727976
O O16 0.515281 0.500000 0.100337
O O17 0.530240 0.698225 0.575720
#
# Coordination Sequence:
#
# PCOD9133348 Si02
#       8
#     4   4   4   4   4   4   4   4
#     4  11  23  40  62  97 128 165 217 262 321 390
#     4  11  22  38  61  91 126 160 204 265 315 379
#     4  11  22  42  65  97 124 164 220 268 316 388
#     4  11  20  37  64  95 121 155 206 263 315 367
#     4  11  23  42  67  95 131 172 211 269 329 388
#     4  12  26  42  61  88 131 175 214 268 330 386
#     4  10  23  38  65  96 128 158 217 263 321 383
#     4  11  21  37  65  97 121 163 203 268 317 373
#
# _framework density 19.566330000000001
#
# number of rings (size 3 to 8) (size 9 to 14) (size 15 to 20)
#    0.000    1.000    5.000    3.000    1.750    0.500 
#    0.000    0.000    0.000    0.000    0.000    0.000 
#    0.000    0.000    0.000    0.000    0.000    0.000 
#
# Total GULP energy -89202.406604 kJ/mol
# GULP energy per Si atom -5575.150413 kJ/mol
# Density = 1.952180 g / cm^3
# Si number density = 19.566330 Si / 1000 Ang^3
#
#
#
# Elastic Constant Matrix: (Units=GPa)
#
#
# Indices 1 2 3 4 5 6 
#
# 1 87.2411 43.3542 40.5011 -0.0002 4.5969 0.0002
# 2 43.3542 74.1125 21.9873 0.0018 1.9480 -0.0002
# 3 40.5011 21.9873 144.7280 0.0042 3.5603 -0.0003
# 4 -0.0002 0.0018 0.0042 12.7163 0.0005 -0.7918
# 5 4.5969 1.9480 3.5603 0.0005 26.5119 -0.0006
# 6 0.0002 -0.0002 -0.0003 -0.7918 -0.0006 13.8575
#
#
#
# Elastic Compliance Matrix: (Units=1/GPa)
#
#
# Indices 1 2 3 4 5 6 
#
# 1 0.017844 -0.009341 -0.003527 0.000003 -0.001934 0.000000
# 2 -0.009341 0.019035 -0.000284 -0.000003 0.000259 0.000000
# 3 -0.003527 -0.000284 0.007950 -0.000003 -0.000435 0.000000
# 4 0.000003 -0.000003 -0.000003 0.078920 -0.000001 0.004510
# 5 -0.001934 0.000259 -0.000435 -0.000001 0.038094 0.000001
# 6 0.000000 0.000000 0.000000 0.004510 0.000001 0.072421
#
#
# Mechanical properties :
#
#
# Convention : Reuss Voigt Hill
#
# Bulk Modulus (GPa) = 53.98130 57.52964 55.75547
# Shear Modulus (GPa) = 18.74470 23.96640 21.35555
#
# Velocity S-wave (km/s) = 3.09853 3.50363 3.30728
# Velocity P-wave (km/s) = 6.36003 6.77004 6.56823
#
# Compressibility (1/GPa) = 0.01852493
#
# Stress axis : x y z
#
# Youngs Moduli (GPa) = 56.04240 52.53547 125.78111
#
# Poissons Ratio (x) = 0.49073 0.44360
# Poissons Ratio (y) = 0.52349 0.03574
# Poissons Ratio (z) = 0.19765 0.01493
#
# Static dielectric constant tensor:
#      x y z
#    x 1.724910 0.000000 -0.007920 
#    y 0.000000 1.682970 0.000000 
#    z -0.007920 0.000000 1.715680 
# 
# From -- ./inp_files/25593.got.cif
#   From: 2010.05.17/outbox.cif.g08.bks.cpg/sg8_13_cif.got.tgz:25593.got - 2010.06.03 19:46:02.
