data_PCOD9133896
_publ_section_title
;
Structure prediction by ZEFSAII (Michael W. Deem and Ramdas Pophale) SiO2 
 PCOD9133896
Probable space group: C C
;
_chemical_formula_sum "Si O2"
_cell_formula_units_Z 28
_cell_length_a 5.199130
_cell_length_b 13.905749
_cell_length_c 13.938771
_cell_angle_alpha 90.000000
_cell_angle_beta 90.496827
_cell_angle_gamma 90.000000
_cell_volume 1007.704547
_symmetry_space_group_name_H-M "C C"
_symmetry_group_IT_number 9
_symmetry_cell_setting 'monoclinic'
loop_
_space_group_symop_operation_xyz
x,y,z
x,-y,1/2+z
1/2+x,1/2+y,z
1/2+x,1/2-y,1/2+z
loop_
_atom_site_type_symbol
_atom_site_label
_atom_site_fract_x
_atom_site_fract_y
_atom_site_fract_z
Si Si1 0.373850 0.292296 0.931530
Si Si2 0.229361 0.823698 0.776086
Si Si3 0.563940 0.640821 0.627260
Si Si4 0.027156 0.450093 0.911805
Si Si5 0.546603 0.024922 0.629684
Si Si6 0.359329 0.335481 0.621009
Si Si7 0.247494 0.356461 0.403206
O O1 0.449903 0.327200 0.826458
O O2 0.109588 0.343045 0.947484
O O3 0.457196 0.182712 0.926899
O O4 0.551061 0.346418 0.010491
O O5 0.358547 0.917728 0.821605
O O6 0.331856 0.721453 0.821968
O O7 0.144861 0.826449 0.666127
O O8 0.273997 0.604538 0.646029
O O9 0.685434 0.744536 0.651368
O O10 0.777225 0.566609 0.666821
O O11 0.226244 0.532334 0.875968
O O12 0.967404 0.491317 0.016925
O O13 0.699054 0.928028 0.653851
O O14 0.386996 0.344944 0.505690
#
# Coordination Sequence:
#
# PCOD9133896 Si02
#       7
#     4   4   4   4   4   4   4
#     4   8  18  37  56  85 115 153 200 244 295 362
#     4  10  20  39  58  87 120 153 207 250 301 362
#     4  10  20  41  64  88 126 161 203 254 310 364
#     4  10  17  37  61  79 120 156 196 253 304 357
#     4  10  21  39  65  90 117 168 205 250 313 366
#     4  10  21  39  60  93 123 159 211 257 302 374
#     4   8  19  38  56  82 117 154 200 242 313 361
#
# _framework density 27.785924000000001
#
# number of rings (size 3 to 8) (size 9 to 14) (size 15 to 20)
#    0.857    1.714    1.429    0.000    0.000    2.286 
#   10.286    4.286    0.000    0.000    0.000    0.000 
#    0.000    0.000    0.000    0.000    0.000    0.000 
#
# Total GULP energy -77980.678508 kJ/mol
# GULP energy per Si atom -5570.048465 kJ/mol
# Density = 2.772268 g / cm^3
# Si number density = 27.785924 Si / 1000 Ang^3
#
#
#
# Elastic Constant Matrix: (Units=GPa)
#
#
# Indices 1 2 3 4 5 6 
#
# 1 82.2586 18.0994 28.7390 0.0000 25.2380 0.0000
# 2 18.0994 169.3092 73.4666 0.0000 35.4432 0.0000
# 3 28.7390 73.4666 164.5339 0.0000 41.7177 0.0000
# 4 0.0000 0.0000 0.0000 40.9495 0.0000 11.4029
# 5 25.2380 35.4432 41.7177 0.0000 41.0889 0.0000
# 6 0.0000 0.0000 0.0000 11.4029 0.0000 33.6871
#
#
#
# Elastic Compliance Matrix: (Units=1/GPa)
#
#
# Indices 1 2 3 4 5 6 
#
# 1 0.015036 0.000547 -0.000551 0.000000 -0.009147 0.000000
# 2 0.000547 0.007879 -0.002431 0.000000 -0.004664 0.000000
# 3 -0.000551 -0.002431 0.008945 0.000000 -0.006646 0.000000
# 4 0.000000 0.000000 0.000000 0.026962 0.000000 -0.009126
# 5 -0.009147 -0.004664 -0.006646 0.000000 0.040727 0.000000
# 6 0.000000 0.000000 0.000000 -0.009126 0.000000 0.032774
#
#
# Mechanical properties :
#
#
# Convention : Reuss Voigt Hill
#
# Bulk Modulus (GPa) = 37.05276 72.96798 55.01037
# Shear Modulus (GPa) = 34.20227 42.86489 38.53358
#
# Velocity S-wave (km/s) = 3.51225 3.93196 3.72802
# Velocity P-wave (km/s) = 5.46003 6.85066 6.19449
#
# Compressibility (1/GPa) = 0.02698854
#
# Stress axis : x y z
#
# Youngs Moduli (GPa) = 66.50906 126.91677 111.79905
#
# Poissons Ratio (x) = -0.06938 0.06160
# Poissons Ratio (y) = -0.03636 0.27179
# Poissons Ratio (z) = 0.03665 0.30854
#
# Static dielectric constant tensor:
#      x y z
#    x 2.311120 0.000000 -0.066000 
#    y 0.000000 2.203690 0.000000 
#    z -0.066000 0.000000 2.263790 
# 
# From -- ./inp_files/28542.got.cif
#   From: 2010.05.17/outbox.cif.g08.bks.cpg/sg9_15_cif.got.tgz:28542.got - 2010.06.03 20:04:27.
