data_PCOD9133445
_publ_section_title
;
Structure prediction by ZEFSAII (Michael W. Deem and Ramdas Pophale) SiO2 
 PCOD9133445
Probable space group: C M
;
_chemical_formula_sum "Si O2"
_cell_formula_units_Z 26
_cell_length_a 9.858626
_cell_length_b 8.084347
_cell_length_c 14.506201
_cell_angle_alpha 90.000000
_cell_angle_beta 110.745074
_cell_angle_gamma 90.000000
_cell_volume 1081.193889
_symmetry_space_group_name_H-M "C M"
_symmetry_group_IT_number 8
_symmetry_cell_setting 'monoclinic'
loop_
_space_group_symop_operation_xyz
x,y,z
x,-y,z
1/2+x,1/2+y,z
1/2+x,1/2-y,z
loop_
_atom_site_type_symbol
_atom_site_label
_atom_site_fract_x
_atom_site_fract_y
_atom_site_fract_z
Si Si1 0.607660 0.183800 0.490710
Si Si2 0.345305 0.807009 0.689313
Si Si3 0.915518 0.814610 0.103720
Si Si4 0.175460 0.000000 0.255336
Si Si5 0.660661 0.195977 0.801393
Si Si6 0.123489 0.806367 0.999945
Si Si7 0.314403 0.318924 0.363773
O O1 0.725909 0.224206 0.596670
O O2 0.472889 0.305840 0.448925
O O3 0.695622 0.186479 0.416330
O O4 0.550469 0.000000 0.496103
O O5 0.508981 0.742768 0.720552
O O6 0.292966 0.782074 0.781780
O O7 0.348113 0.000000 0.667629
O O8 0.774789 0.709321 0.092182
O O9 0.995387 0.739459 0.033162
O O10 0.857722 0.000000 0.066752
O O11 0.045339 0.856778 0.204791
O O12 0.291411 0.850043 0.302813
O O13 0.647848 0.229577 0.906501
O O14 0.674122 0.000000 0.789782
O O15 0.092134 0.000000 0.980870
O O16 0.303492 0.500000 0.313382
#
# Coordination Sequence:
#
# PCOD9133445 Si02
#       7
#     4   4   4   2   4   4   4
#     4  11  24  43  67  97 138 177 220 271 334 396
#     4  11  24  40  63  99 131 172 222 266 321 391
#     4   9  23  43  62  93 127 165 210 275 327 391
#     4  10  24  48  68 100 134 170 228 282 334 408
#     4  11  24  40  63  94 132 174 217 267 323 393
#     4  11  22  41  66  92 129 169 217 269 333 393
#     4  11  25  44  69 100 133 181 220 277 337 396
#
# _framework density 24.04749
#
# number of rings (size 3 to 8) (size 9 to 14) (size 15 to 20)
#    0.462    0.923    0.769    3.692    2.154   10.462 
#    0.000    0.000    0.000    0.000    0.000    0.000 
#    0.000    0.000    0.000    0.000    0.000    0.000 
#
# Total GULP energy -72428.500571 kJ/mol
# GULP energy per Si atom -5571.423121 kJ/mol
# Density = 2.399276 g / cm^3
# Si number density = 24.047490 Si / 1000 Ang^3
#
#
#
# Elastic Constant Matrix: (Units=GPa)
#
#
# Indices 1 2 3 4 5 6 
#
# 1 69.7302 -1.1377 -5.6790 0.0000 4.4662 0.0000
# 2 -1.1377 93.8118 13.2180 0.0000 6.8378 0.0000
# 3 -5.6790 13.2180 70.3306 0.0000 8.5545 0.0000
# 4 0.0000 0.0000 0.0000 55.1454 0.0000 -29.7800
# 5 4.4662 6.8378 8.5545 0.0000 41.8053 0.0000
# 6 0.0000 0.0000 0.0000 -29.7800 0.0000 123.6833
#
#
#
# Elastic Compliance Matrix: (Units=1/GPa)
#
#
# Indices 1 2 3 4 5 6 
#
# 1 0.014574 0.000118 0.001381 0.000000 -0.001859 0.000000
# 2 0.000118 0.011032 -0.001890 0.000000 -0.001430 0.000000
# 3 0.001381 -0.001890 0.015040 0.000000 -0.002916 0.000000
# 4 0.000000 0.000000 0.000000 0.020844 0.000000 0.005019
# 5 -0.001859 -0.001430 -0.002916 0.000000 0.024950 0.000000
# 6 0.000000 0.000000 0.000000 0.005019 0.000000 0.009294
#
#
# Mechanical properties :
#
#
# Convention : Reuss Voigt Hill
#
# Bulk Modulus (GPa) = 25.08573 27.40835 26.24704
# Shear Modulus (GPa) = 45.53581 59.29155 52.41368
#
# Velocity S-wave (km/s) = 4.35625 4.97087 4.67367
# Velocity P-wave (km/s) = 5.97971 6.66096 6.32951
#
# Compressibility (1/GPa) = 0.03986331
#
# Stress axis : x y z
#
# Youngs Moduli (GPa) = 68.61333 90.64874 66.48976
#
# Poissons Ratio (x) = -0.01067 -0.09181
# Poissons Ratio (y) = -0.00807 0.12565
# Poissons Ratio (z) = -0.09474 0.17131
#
# Static dielectric constant tensor:
#      x y z
#    x 1.898470 0.000000 -0.017530 
#    y 0.000000 1.726180 0.000000 
#    z -0.017530 0.000000 2.000840 
# 
# From -- ./inp_files/28495.got.cif
#   From: 2010.05.17/outbox.cif.g08.bks.cpg/sg8_15_cif.got.tgz:28495.got - 2010.06.03 19:46:02.
