data_PCOD9133941
_publ_section_title
;
Structure prediction by ZEFSAII (Michael W. Deem and Ramdas Pophale) SiO2 
 PCOD9133941
Probable space group: C C
;
_chemical_formula_sum "Si O2"
_cell_formula_units_Z 32
_cell_length_a 8.223598
_cell_length_b 12.511768
_cell_length_c 17.810914
_cell_angle_alpha 90.000000
_cell_angle_beta 45.533372
_cell_angle_gamma 90.000000
_cell_volume 1307.847930
_symmetry_space_group_name_H-M "C C"
_symmetry_group_IT_number 9
_symmetry_cell_setting 'monoclinic'
loop_
_space_group_symop_operation_xyz
x,y,z
x,-y,1/2+z
1/2+x,1/2+y,z
1/2+x,1/2-y,1/2+z
loop_
_atom_site_type_symbol
_atom_site_label
_atom_site_fract_x
_atom_site_fract_y
_atom_site_fract_z
Si Si1 0.945290 0.452111 0.092950
Si Si2 0.388045 0.135858 0.399401
Si Si3 0.405724 0.923776 0.743274
Si Si4 0.513842 0.910666 0.430841
Si Si5 0.806517 0.064357 0.696312
Si Si6 0.785287 0.800420 0.067638
Si Si7 0.257779 0.254232 0.582077
Si Si8 0.409652 0.343981 0.680222
O O1 0.814537 0.508386 0.204003
O O2 0.779674 0.363067 0.111348
O O3 0.166132 0.387736 0.052981
O O4 0.049061 0.537846 0.001680
O O5 0.262709 0.120082 0.359847
O O6 0.328229 0.231757 0.474558
O O7 0.650583 0.164742 0.292057
O O8 0.390673 0.016464 0.434004
O O9 0.530982 0.822436 0.665552
O O10 0.595791 0.003492 0.720399
O O11 0.708763 0.889907 0.305459
O O12 0.402137 0.796518 0.485278
O O13 0.902125 0.141658 0.600954
O O14 0.970813 0.967338 0.666393
O O15 0.567467 0.736766 0.173363
O O16 0.421942 0.318015 0.587024
#
# Coordination Sequence:
#
# PCOD9133941 Si02
#       8
#     4   4   4   4   4   4   4   4
#     4   9  17  31  49  70 101 131 159 202 247 285
#     4   8  15  30  49  72 103 130 163 207 245 291
#     4   8  15  29  49  73  99 129 162 200 247 291
#     4   9  18  31  50  76 100 128 168 206 241 295
#     4   8  17  32  49  74 104 128 163 209 246 290
#     4  10  18  31  55  74  96 136 167 197 248 295
#     4   8  14  27  50  71  93 129 167 195 236 294
#     4   8  16  29  49  76 100 131 165 202 248 291
#
# _framework density 24.467676000000001
#
# number of rings (size 3 to 8) (size 9 to 14) (size 15 to 20)
#    0.000    4.000    0.000    0.000    0.000    4.000 
#    0.000    8.750    0.000   45.000    0.000    0.000 
#    0.000    0.000    0.000    0.000    0.000    0.000 
#
# Total GULP energy -89103.554463 kJ/mol
# GULP energy per Si atom -5568.972154 kJ/mol
# Density = 2.441199 g / cm^3
# Si number density = 24.467676 Si / 1000 Ang^3
#
#
#
# Elastic Constant Matrix: (Units=GPa)
#
#
# Indices 1 2 3 4 5 6 
#
# 1 34.7730 32.6538 15.6237 0.0005 10.8474 -0.0001
# 2 32.6538 115.4695 63.7895 0.0003 21.7562 -0.0002
# 3 15.6237 63.7895 139.7766 0.0004 39.9618 -0.0001
# 4 0.0005 0.0003 0.0004 55.5920 -0.0003 4.0593
# 5 10.8474 21.7562 39.9618 -0.0003 33.3593 0.0001
# 6 -0.0001 -0.0002 -0.0001 4.0593 0.0001 35.7685
#
#
#
# Elastic Compliance Matrix: (Units=1/GPa)
#
#
# Indices 1 2 3 4 5 6 
#
# 1 0.041367 -0.011813 0.003666 0.000000 -0.010138 0.000000
# 2 -0.011813 0.015029 -0.005832 0.000000 0.001025 0.000000
# 3 0.003666 -0.005832 0.013170 0.000000 -0.013165 0.000000
# 4 0.000000 0.000000 0.000000 0.018139 0.000000 -0.002059
# 5 -0.010138 0.001025 -0.013165 0.000000 0.048375 0.000000
# 6 0.000000 0.000000 0.000000 -0.002059 0.000000 0.028191
#
#
# Mechanical properties :
#
#
# Convention : Reuss Voigt Hill
#
# Bulk Modulus (GPa) = 24.03381 57.12812 40.58097
# Shear Modulus (GPa) = 24.26031 36.80744 30.53388
#
# Velocity S-wave (km/s) = 3.15227 3.88278 3.53643
# Velocity P-wave (km/s) = 4.80552 6.59548 5.77033
#
# Compressibility (1/GPa) = 0.04160804
#
# Stress axis : x y z
#
# Youngs Moduli (GPa) = 24.17402 66.53645 75.93171
#
# Poissons Ratio (x) = 0.78600 -0.27835
# Poissons Ratio (y) = 0.28557 0.44280
# Poissons Ratio (z) = -0.08862 0.38801
#
# Static dielectric constant tensor:
#      x y z
#    x 2.041380 0.000000 -0.029530 
#    y 0.000000 1.972270 0.000000 
#    z -0.029530 0.000000 2.016280 
# 
# From -- ./inp_files/33304.got.cif
#   From: 2010.05.17/outbox.cif.g08.bks.cpg/sg9_17_cif.got.tgz:33304.got - 2010.06.03 20:04:27.
