data_PCOD9133132
_publ_section_title
;
Structure prediction by ZEFSAII (Michael W. Deem and Ramdas Pophale) SiO2 
 PCOD9133132
Probable space group: C M
;
_chemical_formula_sum "Si O2"
_cell_formula_units_Z 28
_cell_length_a 14.628650
_cell_length_b 9.376438
_cell_length_c 9.678793
_cell_angle_alpha 90.000000
_cell_angle_beta 89.397048
_cell_angle_gamma 90.000000
_cell_volume 1327.514548
_symmetry_space_group_name_H-M "C M"
_symmetry_group_IT_number 8
_symmetry_cell_setting 'monoclinic'
loop_
_space_group_symop_operation_xyz
x,y,z
x,-y,z
1/2+x,1/2+y,z
1/2+x,1/2-y,z
loop_
_atom_site_type_symbol
_atom_site_label
_atom_site_fract_x
_atom_site_fract_y
_atom_site_fract_z
Si Si1 0.651010 0.329921 0.377260
Si Si2 0.545791 0.664331 0.912678
Si Si3 0.482266 0.328418 0.217285
Si Si4 0.277149 0.659852 0.583040
Si Si5 0.751268 0.747089 0.876723
Si Si6 0.275151 0.663218 0.180636
Si Si7 0.920894 0.340282 0.714934
O O1 0.654965 0.500000 0.400630
O O2 0.548266 0.282497 0.340507
O O3 0.702495 0.245925 0.497127
O O4 0.706930 0.280707 0.240948
O O5 0.514303 0.500000 0.900111
O O6 0.655107 0.670354 0.900615
O O7 0.500738 0.755406 0.790837
O O8 0.515189 0.721415 0.064380
O O9 0.492769 0.500000 0.211445
O O10 0.375608 0.300490 0.235570
O O11 0.291990 0.500000 0.531191
O O12 0.242094 0.655444 0.741434
O O13 0.371831 0.748417 0.595278
O O14 0.838060 0.653609 0.829069
O O15 0.776769 0.827501 0.015660
O O16 0.250217 0.500000 0.218820
O O17 0.946292 0.500000 0.673058
#
# Coordination Sequence:
#
# PCOD9133132 Si02
#       7
#     4   4   4   4   4   4   4
#     4  11  23  41  63  89 123 163 204 254 308 365
#     4  11  20  37  63  91 123 163 203 247 309 371
#     4   9  19  37  59  87 121 160 202 243 296 365
#     4  10  22  43  65  87 122 167 207 252 306 367
#     4  10  22  37  66  91 121 159 205 256 300 365
#     4  11  21  39  65  91 119 158 206 255 305 365
#     4  10  22  38  59  90 123 154 199 257 306 356
#
# _framework density 21.092047999999998
#
# number of rings (size 3 to 8) (size 9 to 14) (size 15 to 20)
#    0.857    0.857    2.857    2.143    0.000    1.714 
#    2.571    1.429    0.000    0.000    0.000    0.000 
#    0.000    0.000    0.000    0.000    0.000    0.000 
#
# Total GULP energy -78064.842049 kJ/mol
# GULP energy per Si atom -5576.060146 kJ/mol
# Density = 2.104404 g / cm^3
# Si number density = 21.092048 Si / 1000 Ang^3
#
#
#
# Elastic Constant Matrix: (Units=GPa)
#
#
# Indices 1 2 3 4 5 6 
#
# 1 63.9094 12.1208 9.4734 0.0000 33.3673 0.0000
# 2 12.1208 111.4373 38.2293 0.0000 27.2338 0.0000
# 3 9.4734 38.2293 110.9520 0.0000 37.8537 0.0000
# 4 0.0000 0.0000 0.0000 13.6762 0.0000 4.1512
# 5 33.3673 27.2338 37.8537 0.0000 45.4833 0.0000
# 6 0.0000 0.0000 0.0000 4.1512 0.0000 14.2868
#
#
#
# Elastic Compliance Matrix: (Units=1/GPa)
#
#
# Indices 1 2 3 4 5 6 
#
# 1 0.028556 0.001325 0.006317 0.000000 -0.027000 0.000000
# 2 0.001325 0.010921 -0.001834 0.000000 -0.005985 0.000000
# 3 0.006317 -0.001834 0.014401 0.000000 -0.015521 0.000000
# 4 0.000000 0.000000 0.000000 0.080192 0.000000 -0.023301
# 5 -0.027000 -0.005985 -0.015521 0.000000 0.058295 0.000000
# 6 0.000000 0.000000 0.000000 -0.023301 0.000000 0.076765
#
#
# Mechanical properties :
#
#
# Convention : Reuss Voigt Hill
#
# Bulk Modulus (GPa) = 15.26842 45.10509 30.18675
# Shear Modulus (GPa) = 17.89890 29.78761 23.84325
#
# Velocity S-wave (km/s) = 2.91625 3.76209 3.36585
# Velocity P-wave (km/s) = 4.31208 6.34842 5.42662
#
# Compressibility (1/GPa) = 0.06549467
#
# Stress axis : x y z
#
# Youngs Moduli (GPa) = 35.01849 91.56301 69.44014
#
# Poissons Ratio (x) = -0.12136 -0.43864
# Poissons Ratio (y) = -0.04642 0.12737
# Poissons Ratio (z) = -0.22120 0.16795
#
# Static dielectric constant tensor:
#      x y z
#    x 1.786930 0.000000 -0.015700 
#    y 0.000000 1.744750 0.000000 
#    z -0.015700 0.000000 1.786560 
# 
# From -- ./inp_files/21400.got.cif
#   From: 2010.05.17/outbox.cif.g08.bks.cpg/sg8_11_cif.got.tgz:21400.got - 2010.06.03 19:46:02.
