data_PCOD9133773
_publ_section_title
;
Structure prediction by ZEFSAII (Michael W. Deem and Ramdas Pophale) SiO2 
 PCOD9133773
Probable space group: C C
;
_chemical_formula_sum "Si O2"
_cell_formula_units_Z 32
_cell_length_a 7.484297
_cell_length_b 18.797767
_cell_length_c 9.570103
_cell_angle_alpha 90.000000
_cell_angle_beta 109.205122
_cell_angle_gamma 90.000000
_cell_volume 1271.468126
_symmetry_space_group_name_H-M "C C"
_symmetry_group_IT_number 9
_symmetry_cell_setting 'monoclinic'
loop_
_space_group_symop_operation_xyz
x,y,z
x,-y,1/2+z
1/2+x,1/2+y,z
1/2+x,1/2-y,1/2+z
loop_
_atom_site_type_symbol
_atom_site_label
_atom_site_fract_x
_atom_site_fract_y
_atom_site_fract_z
Si Si1 0.992410 0.042216 0.310040
Si Si2 0.236981 0.484085 0.485751
Si Si3 0.026562 0.170948 0.478325
Si Si4 0.084863 0.371594 0.883507
Si Si5 0.638578 0.396192 0.285944
Si Si6 0.269844 0.339905 0.366226
Si Si7 0.412755 0.181997 0.057724
Si Si8 0.045084 0.744094 0.590119
O O1 0.067284 0.122559 0.350921
O O2 0.914629 0.013125 0.438667
O O3 0.817160 0.035491 0.157881
O O4 0.132084 0.981364 0.291615
O O5 0.088804 0.548039 0.440112
O O6 0.177700 0.412190 0.395796
O O7 0.145083 0.135074 0.632892
O O8 0.803674 0.153325 0.438868
O O9 0.029915 0.255014 0.512472
O O10 0.015711 0.359470 0.708583
O O11 0.987641 0.318384 0.967230
O O12 0.439367 0.363964 0.300703
O O13 0.809005 0.367844 0.421487
O O14 0.112314 0.292148 0.249969
O O15 0.385382 0.302732 0.521952
O O16 0.238621 0.220775 0.088749
#
# Coordination Sequence:
#
# PCOD9133773 Si02
#       8
#     4   4   4   4   4   4   4   4
#     4  10  18  34  56  80 104 148 188 225 266 341
#     4  10  20  33  58  82 109 147 190 226 273 333
#     4  10  17  30  55  79 107 136 190 229 271 320
#     4  10  16  30  52  83 108 139 190 235 263 322
#     4  10  17  31  51  83 107 140 184 229 275 325
#     4  10  18  30  56  79 111 140 189 230 277 324
#     4  10  18  28  53  86 107 137 185 241 270 313
#     4  10  16  30  53  86 105 139 186 237 269 324
#
# _framework density 25.167757000000002
#
# number of rings (size 3 to 8) (size 9 to 14) (size 15 to 20)
#    0.000    2.000    6.250    2.250    0.000    0.000 
#    0.000    0.000   19.250    0.000    0.000    0.000 
#    0.000    0.000    0.000    0.000    0.000    0.000 
#
# Total GULP energy -89455.360655 kJ/mol
# GULP energy per Si atom -5590.960041 kJ/mol
# Density = 2.511047 g / cm^3
# Si number density = 25.167757 Si / 1000 Ang^3
#
#
#
# Elastic Constant Matrix: (Units=GPa)
#
#
# Indices 1 2 3 4 5 6 
#
# 1 47.0000 8.6887 8.8951 0.0000 -3.6351 0.0000
# 2 8.6887 136.8934 58.0050 0.0000 4.8667 0.0000
# 3 8.8951 58.0050 190.8569 0.0000 5.3935 0.0000
# 4 0.0000 0.0000 0.0000 45.8451 0.0000 7.6980
# 5 -3.6351 4.8667 5.3935 0.0000 19.1201 0.0000
# 6 0.0000 0.0000 0.0000 7.6980 0.0000 -7.3525
#
#
#
# Elastic Compliance Matrix: (Units=1/GPa)
#
#
# Indices 1 2 3 4 5 6 
#
# 1 0.022018 -0.001233 -0.000785 0.000000 0.004721 0.000000
# 2 -0.001233 0.008493 -0.002476 0.000000 -0.001698 0.000000
# 3 -0.000785 -0.002476 0.006063 0.000000 -0.001229 0.000000
# 4 0.000000 0.000000 0.000000 0.018551 0.000000 0.019423
# 5 0.004721 -0.001698 -0.001229 0.000000 0.053978 0.000000
# 6 0.000000 0.000000 0.000000 0.019423 0.000000 -0.115672
#
#
# Mechanical properties :
#
#
# Convention : Reuss Voigt Hill
#
# Bulk Modulus (GPa) = 36.24851 58.43643 47.34247
# Shear Modulus (GPa) = 430.56140 31.46664 231.01402
#
# Velocity S-wave (km/s) = 13.09381 3.53976 9.59109
# Velocity P-wave (km/s) = 15.58946 6.32263 11.89553
#
# Compressibility (1/GPa) = 0.02758734
#
# Stress axis : x y z
#
# Youngs Moduli (GPa) = 45.41696 117.75062 164.92838
#
# Poissons Ratio (x) = 0.14516 0.12946
# Poissons Ratio (y) = 0.05599 0.40830
# Poissons Ratio (z) = 0.03565 0.29150
#
# Static dielectric constant tensor:
#      x y z
#    x 2.025730 0.000000 -0.049810 
#    y 0.000000 2.083540 0.000000 
#    z -0.049810 0.000000 1.944680 
# 
# From -- ./inp_files/8048.got.cif
#   From: 2010.05.17/outbox.cif.g08.bks.cpg/sg9_5_cif.got.tgz:8048.got - 2010.06.03 20:04:27.
