data_PCOD9133747
_publ_section_title
;
Structure prediction by ZEFSAII (Michael W. Deem and Ramdas Pophale) SiO2 
 PCOD9133747
Probable space group: C C
;
_chemical_formula_sum "Si O2"
_cell_formula_units_Z 32
_cell_length_a 10.028497
_cell_length_b 12.287795
_cell_length_c 18.006928
_cell_angle_alpha 90.000000
_cell_angle_beta 37.604242
_cell_angle_gamma 90.000000
_cell_volume 1354.017748
_symmetry_space_group_name_H-M "C C"
_symmetry_group_IT_number 9
_symmetry_cell_setting 'monoclinic'
loop_
_space_group_symop_operation_xyz
x,y,z
x,-y,1/2+z
1/2+x,1/2+y,z
1/2+x,1/2-y,1/2+z
loop_
_atom_site_type_symbol
_atom_site_label
_atom_site_fract_x
_atom_site_fract_y
_atom_site_fract_z
Si Si1 0.634960 0.160130 0.676800
Si Si2 0.428025 0.958534 0.818496
Si Si3 0.301901 0.320803 0.257722
Si Si4 0.729530 0.176528 0.084655
Si Si5 0.185890 0.092346 0.174015
Si Si6 0.690644 0.064170 0.955056
Si Si7 0.520452 0.376324 0.904458
Si Si8 0.416886 0.905141 0.997797
O O1 0.783067 0.131537 0.684200
O O2 0.594083 0.290323 0.688002
O O3 0.779036 0.122129 0.543677
O O4 0.433012 0.081493 0.783797
O O5 0.643005 0.900105 0.688515
O O6 0.203961 0.909275 0.884156
O O7 0.443427 0.937533 0.899658
O O8 0.509918 0.244671 0.165802
O O9 0.081151 0.248793 0.359984
O O10 0.299937 0.387087 0.333998
O O11 0.796713 0.103263 0.984711
O O12 0.892092 0.277208 0.022783
O O13 0.444630 0.115661 0.070984
O O14 0.076007 0.065617 0.301723
O O15 0.212227 0.983624 0.112740
O O16 0.617298 0.944868 0.960581
#
# Coordination Sequence:
#
# PCOD9133747 Si02
#       8
#     4   4   4   4   4   4   4   4
#     4  11  18  32  60  88 117 153 207 243 312 375
#     4  11  21  33  58  93 115 155 211 248 302 390
#     4  10  15  31  55  82 111 145 197 247 303 353
#     4  11  20  35  59  91 113 162 207 251 311 375
#     4   9  19  35  57  84 116 157 191 256 319 348
#     4  10  17  34  57  82 119 152 187 260 310 344
#     4  10  18  34  54  81 119 155 191 253 300 358
#     4  10  20  36  58  89 124 149 205 264 299 371
#
# _framework density 23.633368999999998
#
# number of rings (size 3 to 8) (size 9 to 14) (size 15 to 20)
#    0.750    1.000    6.250    2.250    1.750    0.000 
#    4.500    0.000    0.000    7.500    0.000    0.000 
#    0.000    0.000    0.000    0.000    0.000    0.000 
#
# Total GULP energy -89137.774012 kJ/mol
# GULP energy per Si atom -5571.110876 kJ/mol
# Density = 2.357958 g / cm^3
# Si number density = 23.633369 Si / 1000 Ang^3
#
#
#
# Elastic Constant Matrix: (Units=GPa)
#
#
# Indices 1 2 3 4 5 6 
#
# 1 52.4057 28.5958 43.4533 0.0001 29.8335 0.0001
# 2 28.5958 135.4425 44.8729 0.0000 18.9358 0.0001
# 3 43.4533 44.8729 139.6480 0.0008 41.3846 0.0001
# 4 0.0001 0.0000 0.0008 11.9957 -0.0003 8.3175
# 5 29.8335 18.9358 41.3846 -0.0003 37.3432 -0.0001
# 6 0.0001 0.0001 0.0001 8.3175 -0.0001 26.8632
#
#
#
# Elastic Compliance Matrix: (Units=1/GPa)
#
#
# Indices 1 2 3 4 5 6 
#
# 1 0.037818 -0.003417 -0.003320 -0.000001 -0.024801 0.000000
# 2 -0.003417 0.008659 -0.001827 0.000000 0.000364 0.000000
# 3 -0.003320 -0.001827 0.011496 -0.000001 -0.009162 0.000000
# 4 -0.000001 0.000000 -0.000001 0.106153 0.000003 -0.032868
# 5 -0.024801 0.000364 -0.009162 0.000003 0.056560 -0.000001
# 6 0.000000 0.000000 0.000000 -0.032868 -0.000001 0.047402
#
#
# Mechanical properties :
#
#
# Convention : Reuss Voigt Hill
#
# Bulk Modulus (GPa) = 24.48285 62.37115 43.42700
# Shear Modulus (GPa) = 16.73188 29.27871 23.00529
#
# Velocity S-wave (km/s) = 2.66367 3.52358 3.12336
# Velocity P-wave (km/s) = 4.45445 6.55763 5.60556
#
# Compressibility (1/GPa) = 0.04084491
#
# Stress axis : x y z
#
# Youngs Moduli (GPa) = 26.44263 115.48560 86.98758
#
# Poissons Ratio (x) = 0.39464 0.28877
# Poissons Ratio (y) = 0.09036 0.15892
# Poissons Ratio (z) = 0.08778 0.21098
#
# Static dielectric constant tensor:
#      x y z
#    x 1.945280 0.000000 -0.030330 
#    y 0.000000 2.325800 0.000000 
#    z -0.030330 0.000000 1.926790 
# 
# From -- ./inp_files/30116.got.cif
#   From: 2010.05.17/outbox.cif.g08.bks.cpg/sg9_16_cif.got.tgz:30116.got - 2010.06.03 20:04:27.
