data_PCOD9133519
_publ_section_title
;
Structure prediction by ZEFSAII (Michael W. Deem and Ramdas Pophale) SiO2 
 PCOD9133519
Probable space group: C M
;
_chemical_formula_sum "Si O2"
_cell_formula_units_Z 30
_cell_length_a 14.578086
_cell_length_b 9.381171
_cell_length_c 11.868275
_cell_angle_alpha 90.000000
_cell_angle_beta 59.552925
_cell_angle_gamma 90.000000
_cell_volume 1399.270261
_symmetry_space_group_name_H-M "C M"
_symmetry_group_IT_number 8
_symmetry_cell_setting 'monoclinic'
loop_
_space_group_symop_operation_xyz
x,y,z
x,-y,z
1/2+x,1/2+y,z
1/2+x,1/2-y,z
loop_
_atom_site_type_symbol
_atom_site_label
_atom_site_fract_x
_atom_site_fract_y
_atom_site_fract_z
Si Si1 0.143690 0.339044 0.626110
Si Si2 0.741760 0.331154 0.173326
Si Si3 0.726231 0.341743 0.769632
Si Si4 0.388912 0.295802 0.410465
Si Si5 0.449023 0.663287 0.117855
Si Si6 0.569661 0.655799 0.476296
Si Si7 0.164257 0.670996 0.001573
Si Si8 0.871437 0.500000 0.511202
O O1 0.113364 0.500000 0.674731
O O2 0.146383 0.233634 0.731006
O O3 0.266145 0.339304 0.505155
O O4 0.073069 0.275682 0.569395
O O5 0.749963 0.500000 0.140469
O O6 0.852810 0.255472 0.128563
O O7 0.668093 0.320177 0.330113
O O8 0.689454 0.240669 0.105891
O O9 0.690814 0.500000 0.831128
O O10 0.828178 0.378433 0.628797
O O11 0.746774 0.233381 0.857886
O O12 0.430435 0.345957 0.263931
O O13 0.467049 0.347136 0.460779
O O14 0.397753 0.125449 0.405468
O O15 0.451100 0.500000 0.073574
O O16 0.555356 0.753196 0.030769
O O17 0.585438 0.500000 0.521333
O O18 0.160576 0.500000 0.005976
#
# Coordination Sequence:
#
# PCOD9133519 Si02
#       8
#     4   4   4   4   4   4   4   2
#     4  11  22  38  63  94 127 168 215 269 320 385
#     4  11  24  40  62  96 136 178 218 270 331 393
#     4   9  20  43  67  90 122 173 217 264 326 385
#     4  11  22  38  64  95 135 168 216 260 333 385
#     4  12  24  40  64  99 141 176 217 270 333 397
#     4  11  23  37  60  95 136 172 210 263 333 393
#     4  12  25  43  69  97 129 176 227 273 328 396
#     4   8  22  38  68  94 122 172 214 268 318 382
#
# _framework density 21.439747000000001
#
# number of rings (size 3 to 8) (size 9 to 14) (size 15 to 20)
#    0.400    0.800    2.667    4.000    3.733    0.533 
#    0.000    2.667    2.933    0.000    0.000    0.000 
#    0.000    0.000    0.000    0.000    0.000    0.000 
#
# Total GULP energy -83503.615915 kJ/mol
# GULP energy per Si atom -5566.907728 kJ/mol
# Density = 2.139095 g / cm^3
# Si number density = 21.439747 Si / 1000 Ang^3
#
#
#
# Elastic Constant Matrix: (Units=GPa)
#
#
# Indices 1 2 3 4 5 6 
#
# 1 78.2112 22.5219 -7.5054 0.0000 3.7958 0.0000
# 2 22.5219 220.2722 24.9178 0.0000 8.3792 0.0000
# 3 -7.5054 24.9178 30.7869 0.0000 2.3794 0.0000
# 4 0.0000 0.0000 0.0000 31.8184 0.0000 9.6687
# 5 3.7958 8.3792 2.3794 0.0000 15.5451 0.0000
# 6 0.0000 0.0000 0.0000 9.6687 0.0000 18.8883
#
#
#
# Elastic Compliance Matrix: (Units=1/GPa)
#
#
# Indices 1 2 3 4 5 6 
#
# 1 0.013985 -0.001896 0.005190 0.000000 -0.003187 0.000000
# 2 -0.001896 0.005323 -0.004639 0.000000 -0.001696 0.000000
# 3 0.005190 -0.004639 0.037854 0.000000 -0.004561 0.000000
# 4 0.000000 0.000000 0.000000 0.037217 0.000000 -0.019051
# 5 -0.003187 -0.001696 -0.004561 0.000000 0.066719 0.000000
# 6 0.000000 0.000000 0.000000 -0.019051 0.000000 0.062695
#
#
# Mechanical properties :
#
#
# Convention : Reuss Voigt Hill
#
# Bulk Modulus (GPa) = 18.35834 45.45989 31.90912
# Shear Modulus (GPa) = 20.43817 32.53943 26.48880
#
# Velocity S-wave (km/s) = 3.09088 3.90001 3.51878
# Velocity P-wave (km/s) = 4.61729 6.44436 5.60576
#
# Compressibility (1/GPa) = 0.05447114
#
# Stress axis : x y z
#
# Youngs Moduli (GPa) = 71.50770 187.86396 26.41733
#
# Poissons Ratio (x) = 0.35613 -0.13710
# Poissons Ratio (y) = 0.13556 0.12256
# Poissons Ratio (z) = -0.37111 0.87156
#
# Static dielectric constant tensor:
#      x y z
#    x 1.803170 0.000000 -0.016020 
#    y 0.000000 1.786960 0.000000 
#    z -0.016020 0.000000 1.786160 
# 
# From -- ./inp_files/21523.got.cif
#   From: 2010.05.17/outbox.cif.g08.bks.cpg/sg8_11_cif.got.tgz:21523.got - 2010.06.03 19:46:02.
