data_PCOD9133822
_publ_section_title
;
Structure prediction by ZEFSAII (Michael W. Deem and Ramdas Pophale) SiO2 
 PCOD9133822
Probable space group: C C
;
_chemical_formula_sum "Si O2"
_cell_formula_units_Z 32
_cell_length_a 6.749093
_cell_length_b 21.252517
_cell_length_c 9.451572
_cell_angle_alpha 90.000000
_cell_angle_beta 127.082222
_cell_angle_gamma 90.000000
_cell_volume 1081.528847
_symmetry_space_group_name_H-M "C C"
_symmetry_group_IT_number 9
_symmetry_cell_setting 'monoclinic'
loop_
_space_group_symop_operation_xyz
x,y,z
x,-y,1/2+z
1/2+x,1/2+y,z
1/2+x,1/2-y,1/2+z
loop_
_atom_site_type_symbol
_atom_site_label
_atom_site_fract_x
_atom_site_fract_y
_atom_site_fract_z
Si Si1 0.045190 0.728845 0.261270
Si Si2 0.121811 0.978103 0.626087
Si Si3 0.488436 0.114343 0.040847
Si Si4 0.680019 0.388254 0.109159
Si Si5 0.466065 0.772051 0.229813
Si Si6 0.924484 0.153402 0.049443
Si Si7 0.588585 0.981515 0.041364
Si Si8 0.237542 0.348782 0.080796
O O1 0.307114 0.745917 0.294022
O O2 0.053795 0.695283 0.415506
O O3 0.925736 0.675899 0.106174
O O4 0.925721 0.797491 0.223026
O O5 0.061909 0.907380 0.543504
O O6 0.182464 0.040157 0.557134
O O7 0.357528 0.972034 0.833370
O O8 0.855657 0.998244 0.585067
O O9 0.773356 0.126440 0.118214
O O10 0.511693 0.042199 0.102951
O O11 0.320091 0.109598 0.824781
O O12 0.786207 0.325402 0.082217
O O13 0.393741 0.376120 0.016164
O O14 0.696743 0.814735 0.369720
O O15 0.548637 0.715538 0.165741
O O16 0.646249 0.910921 0.123077
#
# Coordination Sequence:
#
# PCOD9133822 Si02
#       8
#     4   4   4   4   4   4   4   4
#     4  10  17  28  49  79 107 137 181 224 264 318
#     4   9  17  31  52  74  97 136 179 214 259 319
#     4   8  15  29  51  74  98 133 181 227 263 311
#     4   8  14  27  48  69  93 129 174 214 253 304
#     4   9  15  26  45  73 100 129 169 216 258 307
#     4   9  16  26  45  71  99 130 169 214 261 311
#     4   9  18  33  54  75 102 142 182 218 269 325
#     4  10  18  28  48  77 106 138 177 223 267 315
#
# _framework density 29.587747
#
# number of rings (size 3 to 8) (size 9 to 14) (size 15 to 20)
#    0.000    3.000    0.000    4.500    0.000    0.000 
#    0.000    1.250    0.000   51.000    0.000    0.000 
#    0.000    0.000    0.000    0.000    0.000    0.000 
#
# Total GULP energy -89359.467194 kJ/mol
# GULP energy per Si atom -5584.966700 kJ/mol
# Density = 2.952040 g / cm^3
# Si number density = 29.587747 Si / 1000 Ang^3
#
#
#
# Elastic Constant Matrix: (Units=GPa)
#
#
# Indices 1 2 3 4 5 6 
#
# 1 95.8323 81.1066 39.2542 0.0000 -0.0213 0.0000
# 2 81.1066 339.8345 56.9493 0.0000 15.2250 0.0000
# 3 39.2542 56.9493 115.5233 0.0000 35.2230 0.0000
# 4 0.0000 0.0000 0.0000 31.2736 0.0000 19.4432
# 5 -0.0213 15.2250 35.2230 0.0000 40.0963 0.0000
# 6 0.0000 0.0000 0.0000 19.4432 0.0000 97.7066
#
#
#
# Elastic Compliance Matrix: (Units=1/GPa)
#
#
# Indices 1 2 3 4 5 6 
#
# 1 0.015220 -0.002974 -0.005535 0.000000 0.006000 0.000000
# 2 -0.002974 0.003790 -0.000572 0.000000 -0.000938 0.000000
# 3 -0.005535 -0.000572 0.014688 0.000000 -0.012688 0.000000
# 4 0.000000 0.000000 0.000000 0.036490 0.000000 -0.007261
# 5 0.006000 -0.000938 -0.012688 0.000000 0.036446 0.000000
# 6 0.000000 0.000000 0.000000 -0.007261 0.000000 0.011680
#
#
# Mechanical properties :
#
#
# Convention : Reuss Voigt Hill
#
# Bulk Modulus (GPa) = 64.36373 100.64559 82.50466
# Shear Modulus (GPa) = 35.29723 58.74063 47.01893
#
# Velocity S-wave (km/s) = 3.45768 4.46051 3.99072
# Velocity P-wave (km/s) = 6.14341 7.78576 7.01283
#
# Compressibility (1/GPa) = 0.01553670
#
# Stress axis : x y z
#
# Youngs Moduli (GPa) = 65.70178 263.83696 68.08453
#
# Poissons Ratio (x) = 0.78459 0.37685
# Poissons Ratio (y) = 0.19538 0.03894
# Poissons Ratio (z) = 0.36366 0.15088
#
# Static dielectric constant tensor:
#      x y z
#    x 2.447080 0.000000 -0.014850 
#    y 0.000000 2.270110 0.000000 
#    z -0.014850 0.000000 2.472640 
# 
# From -- ./inp_files/17131.got.cif
#   From: 2010.05.17/outbox.cif.g08.bks.cpg/sg9_9_cif.got.tgz:17131.got - 2010.06.03 20:04:27.
