data_PCOD9133434
_publ_section_title
;
Structure prediction by ZEFSAII (Michael W. Deem and Ramdas Pophale) SiO2 
 PCOD9133434
Probable space group: C M
;
_chemical_formula_sum "Si O2"
_cell_formula_units_Z 28
_cell_length_a 8.970806
_cell_length_b 28.832970
_cell_length_c 5.415870
_cell_angle_alpha 90.000000
_cell_angle_beta 66.216599
_cell_angle_gamma 90.000000
_cell_volume 1281.877419
_symmetry_space_group_name_H-M "C M"
_symmetry_group_IT_number 8
_symmetry_cell_setting 'monoclinic'
loop_
_space_group_symop_operation_xyz
x,y,z
x,-y,z
1/2+x,1/2+y,z
1/2+x,1/2-y,z
loop_
_atom_site_type_symbol
_atom_site_label
_atom_site_fract_x
_atom_site_fract_y
_atom_site_fract_z
Si Si1 0.578150 0.323098 0.388120
Si Si2 0.490563 0.406229 0.764827
Si Si3 0.051705 0.716833 0.351158
Si Si4 0.914393 0.321154 0.956161
Si Si5 0.796015 0.857307 0.281215
Si Si6 0.198882 0.000000 0.611954
Si Si7 0.913060 0.500000 0.968018
Si Si8 0.628817 0.909209 0.772245
O O1 0.591805 0.363364 0.582101
O O2 0.592301 0.268249 0.417525
O O3 0.723833 0.332237 0.099708
O O4 0.391440 0.330122 0.430586
O O5 0.588795 0.453640 0.686023
O O6 0.311501 0.412583 0.758781
O O7 0.435928 0.388006 0.066871
O O8 0.209193 0.684271 0.196395
O O9 0.957027 0.714322 0.152889
O O10 0.959575 0.695322 0.650719
O O11 0.021019 0.366752 0.944376
O O12 0.662216 0.893385 0.468020
O O13 0.301227 0.000000 0.797698
O O14 0.309252 0.000000 0.290683
O O15 0.028732 0.455329 0.877148
#
# Coordination Sequence:
#
# PCOD9133434 Si02
#       8
#     4   4   4   4   4   2   2   4
#     4  11  26  40  71 101 143 186 238 300 350 419
#     4  11  25  47  71 103 142 194 230 296 361 429
#     4  11  25  44  66 102 143 188 239 290 354 427
#     4  11  25  43  68 101 138 186 237 293 351 418
#     4  10  24  44  70 101 142 189 239 284 361 425
#     4  12  31  47  76 106 148 177 244 301 363 421
#     4  12  29  49  76 112 136 183 244 299 363 423
#     4  10  24  46  72  99 142 185 235 292 357 431
#
# _framework density 21.842962
#
# number of rings (size 3 to 8) (size 9 to 14) (size 15 to 20)
#    0.000    1.143    1.429    2.143   14.000    1.714 
#    0.000    0.000    0.000    0.000    0.000    0.000 
#    0.000    0.000    0.000    0.000    0.000    0.000 
#
# Total GULP energy -78075.902774 kJ/mol
# GULP energy per Si atom -5576.850198 kJ/mol
# Density = 2.179325 g / cm^3
# Si number density = 21.842962 Si / 1000 Ang^3
#
#
#
# Elastic Constant Matrix: (Units=GPa)
#
#
# Indices 1 2 3 4 5 6 
#
# 1 64.3602 19.0700 16.1638 0.0000 -13.5970 0.0000
# 2 19.0700 160.8299 55.4196 0.0000 -30.0254 0.0000
# 3 16.1638 55.4196 94.5379 0.0000 -20.6721 0.0000
# 4 0.0000 0.0000 0.0000 23.2907 0.0000 -30.5296
# 5 -13.5970 -30.0254 -20.6721 0.0000 33.9915 0.0000
# 6 0.0000 0.0000 0.0000 -30.5296 0.0000 -10.2683
#
#
#
# Elastic Compliance Matrix: (Units=1/GPa)
#
#
# Indices 1 2 3 4 5 6 
#
# 1 0.017224 -0.000510 -0.001428 0.000000 0.005571 0.000000
# 2 -0.000510 0.008529 -0.003817 0.000000 0.005008 0.000000
# 3 -0.001428 -0.003817 0.014068 0.000000 0.004613 0.000000
# 4 0.000000 0.000000 0.000000 0.008767 0.000000 -0.026067
# 5 0.005571 0.005008 0.004613 0.000000 0.038876 0.000000
# 6 0.000000 0.000000 0.000000 -0.026067 0.000000 -0.019886
#
#
# Mechanical properties :
#
#
# Convention : Reuss Voigt Hill
#
# Bulk Modulus (GPa) = 35.32253 55.67055 45.49654
# Shear Modulus (GPa) = 56.48058 24.67441 40.57749
#
# Velocity S-wave (km/s) = 5.09055 3.36464 4.31477
# Velocity P-wave (km/s) = 7.12445 6.37467 6.75997
#
# Compressibility (1/GPa) = 0.02831054
#
# Stress axis : x y z
#
# Youngs Moduli (GPa) = 58.05775 117.25322 71.08202
#
# Poissons Ratio (x) = 0.05984 0.10148
# Poissons Ratio (y) = 0.02963 0.27134
# Poissons Ratio (z) = 0.08288 0.44759
#
# Static dielectric constant tensor:
#      x y z
#    x 1.849050 0.000000 0.041970 
#    y 0.000000 1.803970 0.000000 
#    z 0.041970 0.000000 1.866650 
# 
# From -- ./inp_files/1958.got.cif
#   From: 2010.05.17/outbox.cif.g08.bks.cpg/sg8_1_cif.got.tgz:1958.got - 2010.06.03 19:46:02.
