data_PCOD9133206
_publ_section_title
;
Structure prediction by ZEFSAII (Michael W. Deem and Ramdas Pophale) SiO2 
 PCOD9133206
Probable space group: C M
;
_chemical_formula_sum "Si O2"
_cell_formula_units_Z 28
_cell_length_a 9.565782
_cell_length_b 8.731858
_cell_length_c 24.319093
_cell_angle_alpha 90.000000
_cell_angle_beta 37.311800
_cell_angle_gamma 90.000000
_cell_volume 1231.278265
_symmetry_space_group_name_H-M "C M"
_symmetry_group_IT_number 8
_symmetry_cell_setting 'monoclinic'
loop_
_space_group_symop_operation_xyz
x,y,z
x,-y,z
1/2+x,1/2+y,z
1/2+x,1/2-y,z
loop_
_atom_site_type_symbol
_atom_site_label
_atom_site_fract_x
_atom_site_fract_y
_atom_site_fract_z
Si Si1 0.162390 0.323393 0.725560
Si Si2 0.468772 0.189548 0.538020
Si Si3 0.712013 0.823260 0.836200
Si Si4 0.980699 0.162593 0.288771
Si Si5 0.960547 0.254532 0.419267
Si Si6 0.779362 0.826396 0.111740
Si Si7 0.723958 0.824236 0.007536
O O1 0.193285 0.500000 0.699378
O O2 0.285660 0.214648 0.643197
O O3 0.260362 0.304554 0.756021
O O4 0.892411 0.282009 0.811502
O O5 0.395440 0.270432 0.503980
O O6 0.697539 0.287228 0.482510
O O7 0.507942 0.000000 0.519747
O O8 0.747905 0.000000 0.840104
O O9 0.448612 0.776550 0.927646
O O10 0.017869 0.170312 0.343046
O O11 0.114780 0.292590 0.214449
O O12 0.710524 0.169808 0.355277
O O13 0.074862 0.000000 0.239409
O O14 0.650157 0.805852 0.094509
O O15 0.003619 0.721351 0.041635
O O16 0.862894 0.000000 0.088665
O O17 0.788572 0.000000 0.977966
#
# Coordination Sequence:
#
# PCOD9133206 Si02
#       7
#     4   4   4   4   4   4   4
#     4  11  25  42  63  93 127 164 208 257 310 370
#     4  11  24  42  64  93 126 163 210 258 310 372
#     4  11  24  42  65  94 127 164 208 256 309 370
#     4  11  24  42  64  93 126 163 210 258 310 372
#     4  10  22  40  64  90 122 160 204 256 306 362
#     4  11  25  42  63  93 127 164 208 257 310 370
#     4  11  24  42  65  94 127 164 208 256 309 370
#
# _framework density 22.740594000000002
#
# number of rings (size 3 to 8) (size 9 to 14) (size 15 to 20)
#    0.000    1.143    0.000    6.000    0.000   17.143 
#    0.000    7.143    0.000    0.000    0.000    0.000 
#    0.000    0.000    0.000    0.000    0.000    0.000 
#
# Total GULP energy -77947.549158 kJ/mol
# GULP energy per Si atom -5567.682083 kJ/mol
# Density = 2.268884 g / cm^3
# Si number density = 22.740594 Si / 1000 Ang^3
#
#
#
# Elastic Constant Matrix: (Units=GPa)
#
#
# Indices 1 2 3 4 5 6 
#
# 1 121.4401 32.6758 -5.2631 0.0000 3.2991 0.0000
# 2 32.6758 65.1511 9.3992 0.0000 8.1705 0.0000
# 3 -5.2631 9.3992 64.8566 0.0002 10.7752 0.0000
# 4 0.0000 0.0000 0.0002 6.5422 0.0000 -1.9930
# 5 3.2991 8.1705 10.7752 0.0000 35.2066 0.0000
# 6 0.0000 0.0000 0.0000 -1.9930 0.0000 10.0239
#
#
#
# Elastic Compliance Matrix: (Units=1/GPa)
#
#
# Indices 1 2 3 4 5 6 
#
# 1 0.009665 -0.005045 0.001550 0.000000 -0.000209 0.000000
# 2 -0.005045 0.018638 -0.002603 0.000000 -0.003056 0.000000
# 3 0.001550 -0.002603 0.016694 -0.000001 -0.004651 0.000000
# 4 0.000000 0.000000 -0.000001 0.162710 0.000000 0.032351
# 5 -0.000209 -0.003056 -0.004651 0.000000 0.030556 0.000000
# 6 0.000000 0.000000 0.000000 0.032351 0.000000 0.106194
#
#
# Mechanical properties :
#
#
# Convention : Reuss Voigt Hill
#
# Bulk Modulus (GPa) = 30.48554 36.11908 33.30231
# Shear Modulus (GPa) = 13.60230 24.66359 19.13295
#
# Velocity S-wave (km/s) = 2.44837 3.29684 2.90376
# Velocity P-wave (km/s) = 4.62899 5.51451 5.09104
#
# Compressibility (1/GPa) = 0.03280244
#
# Stress axis : x y z
#
# Youngs Moduli (GPa) = 103.46904 53.65458 59.90083
#
# Poissons Ratio (x) = 0.27067 -0.09286
# Poissons Ratio (y) = 0.52196 0.15590
# Poissons Ratio (z) = -0.16039 0.13965
#
# Static dielectric constant tensor:
#      x y z
#    x 1.822900 0.000000 0.035950 
#    y 0.000000 1.803380 0.000000 
#    z 0.035950 0.000000 1.856400 
# 
# From -- ./inp_files/32749.got.cif
#   From: 2010.05.17/outbox.cif.g08.bks.cpg/sg8_17_cif.got.tgz:32749.got - 2010.06.03 19:46:02.
