data_PCOD9133912
_publ_section_title
;
Structure prediction by ZEFSAII (Michael W. Deem and Ramdas Pophale) SiO2 
 PCOD9133912
Probable space group: C C
;
_chemical_formula_sum "Si O2"
_cell_formula_units_Z 32
_cell_length_a 14.745017
_cell_length_b 5.723998
_cell_length_c 17.794987
_cell_angle_alpha 90.000000
_cell_angle_beta 67.602300
_cell_angle_gamma 90.000000
_cell_volume 1388.603166
_symmetry_space_group_name_H-M "C C"
_symmetry_group_IT_number 9
_symmetry_cell_setting 'monoclinic'
loop_
_space_group_symop_operation_xyz
x,y,z
x,-y,1/2+z
1/2+x,1/2+y,z
1/2+x,1/2-y,1/2+z
loop_
_atom_site_type_symbol
_atom_site_label
_atom_site_fract_x
_atom_site_fract_y
_atom_site_fract_z
Si Si1 0.232930 0.557749 0.247840
Si Si2 0.036405 0.953318 0.205804
Si Si3 0.554122 0.219086 0.827046
Si Si4 0.440444 0.916906 0.501450
Si Si5 0.192890 0.050861 0.882224
Si Si6 0.520728 0.587091 0.041835
Si Si7 0.363059 0.838693 0.759624
Si Si8 0.271451 0.929553 0.138461
O O1 0.135255 0.422955 0.255391
O O2 0.313969 0.413668 0.266302
O O3 0.192778 0.736484 0.323399
O O4 0.282981 0.658084 0.156904
O O5 0.001559 0.104575 0.287704
O O6 0.014112 0.069478 0.133160
O O7 0.154184 0.946481 0.175436
O O8 0.977940 0.707625 0.227231
O O9 0.480523 0.084146 0.904230
O O10 0.626459 0.357852 0.860977
O O11 0.473256 0.661454 0.525742
O O12 0.324895 0.956845 0.551379
O O13 0.480867 0.159793 0.526262
O O14 0.305121 0.964445 0.845097
O O15 0.133958 0.090222 0.976896
O O16 0.324845 0.956848 0.694526
#
# Coordination Sequence:
#
# PCOD9133912 Si02
#       8
#     4   4   4   4   4   4   4   4
#     4  10  17  40  70  89 129 189 231 285 366 432
#     4  12  23  43  68 108 137 187 250 301 358 444
#     4  10  21  41  68  99 135 188 237 294 365 440
#     4  11  24  46  69  99 144 195 232 294 376 433
#     4   9  19  41  66  93 136 188 227 289 371 431
#     4  11  24  43  71 104 139 189 237 298 367 432
#     4  10  21  41  66  99 137 183 238 295 368 428
#     4  11  23  41  66  97 141 185 234 304 361 430
#
# _framework density 23.044737999999999
#
# number of rings (size 3 to 8) (size 9 to 14) (size 15 to 20)
#    0.000    1.500    6.250    0.750    0.000    1.000 
#    6.750    2.500    0.000    0.000    0.000    0.000 
#    0.000    0.000    0.000    0.000    0.000    0.000 
#
# Total GULP energy -89177.044898 kJ/mol
# GULP energy per Si atom -5573.565306 kJ/mol
# Density = 2.299229 g / cm^3
# Si number density = 23.044738 Si / 1000 Ang^3
#
#
#
# Elastic Constant Matrix: (Units=GPa)
#
#
# Indices 1 2 3 4 5 6 
#
# 1 123.4463 44.9192 39.9540 0.0000 -12.6708 0.0000
# 2 44.9192 70.1121 -1.5662 -0.0001 -7.3073 0.0000
# 3 39.9540 -1.5662 74.5586 0.0000 -20.0063 0.0000
# 4 0.0000 -0.0001 0.0000 21.0300 0.0001 -11.2813
# 5 -12.6708 -7.3073 -20.0063 0.0001 30.9449 0.0001
# 6 0.0000 0.0000 0.0000 -11.2813 0.0001 29.4709
#
#
#
# Elastic Compliance Matrix: (Units=1/GPa)
#
#
# Indices 1 2 3 4 5 6 
#
# 1 0.013933 -0.009290 -0.008130 0.000000 -0.001745 0.000000
# 2 -0.009290 0.020956 0.006927 0.000000 0.005623 0.000000
# 3 -0.008130 0.006927 0.021125 0.000000 0.011964 0.000000
# 4 0.000000 0.000000 0.000000 0.059839 0.000000 0.022906
# 5 -0.001745 0.005623 0.011964 0.000000 0.040664 0.000000
# 6 0.000000 0.000000 0.000000 0.022906 0.000000 0.042700
#
#
# Mechanical properties :
#
#
# Convention : Reuss Voigt Hill
#
# Bulk Modulus (GPa) = 28.54805 48.30346 38.42575
# Shear Modulus (GPa) = 21.56307 28.60982 25.08644
#
# Velocity S-wave (km/s) = 3.06225 3.52730 3.30297
# Velocity P-wave (km/s) = 4.99181 6.13151 5.59077
#
# Compressibility (1/GPa) = 0.03502867
#
# Stress axis : x y z
#
# Youngs Moduli (GPa) = 71.77026 47.71978 47.33777
#
# Poissons Ratio (x) = 0.44333 0.38485
# Poissons Ratio (y) = 0.66676 -0.32793
# Poissons Ratio (z) = 0.58348 -0.33058
#
# Static dielectric constant tensor:
#      x y z
#    x 1.926280 0.000000 -0.036280 
#    y 0.000000 1.992730 0.000000 
#    z -0.036280 0.000000 1.859640 
# 
# From -- ./inp_files/30350.got.cif
#   From: 2010.05.17/outbox.cif.g08.bks.cpg/sg9_16_cif.got.tgz:30350.got - 2010.06.03 20:04:27.
