data_PCOD9133466
_publ_section_title
;
Structure prediction by ZEFSAII (Michael W. Deem and Ramdas Pophale) SiO2 
 PCOD9133466
Probable space group: C M
;
_chemical_formula_sum "Si O2"
_cell_formula_units_Z 26
_cell_length_a 8.170498
_cell_length_b 20.474342
_cell_length_c 8.169872
_cell_angle_alpha 90.000000
_cell_angle_beta 119.460561
_cell_angle_gamma 90.000000
_cell_volume 1189.979575
_symmetry_space_group_name_H-M "C M"
_symmetry_group_IT_number 8
_symmetry_cell_setting 'monoclinic'
loop_
_space_group_symop_operation_xyz
x,y,z
x,-y,z
1/2+x,1/2+y,z
1/2+x,1/2-y,z
loop_
_atom_site_type_symbol
_atom_site_label
_atom_site_fract_x
_atom_site_fract_y
_atom_site_fract_z
Si Si1 0.195400 0.349433 0.431860
Si Si2 0.028872 0.778885 0.022116
Si Si3 0.549348 0.716034 0.424703
Si Si4 0.823595 0.614509 0.079551
Si Si5 0.055586 0.000000 0.047849
Si Si6 0.262094 0.392516 0.794743
Si Si7 0.894807 0.648528 0.774941
O O1 0.364398 0.314408 0.417310
O O2 0.085953 0.292353 0.479153
O O3 0.270383 0.399981 0.602717
O O4 0.039486 0.380358 0.238858
O O5 0.034662 0.783316 0.221166
O O6 0.216680 0.816513 0.056788
O O7 0.857559 0.822822 0.876772
O O8 0.998834 0.708831 0.922091
O O9 0.728885 0.676979 0.581442
O O10 0.716656 0.557990 0.122208
O O11 0.809784 0.604481 0.878215
O O12 0.891084 0.943762 0.950028
O O13 0.049973 0.390857 0.752004
#
# Coordination Sequence:
#
# PCOD9133466 Si02
#       7
#     4   4   4   4   2   4   4
#     4  12  24  40  65 101 134 179 213 268 330 403
#     4  11  22  39  65 102 138 172 210 270 335 403
#     4  12  24  39  64 104 147 167 209 262 345 409
#     4  11  24  43  68  96 134 176 228 270 327 388
#     4  10  26  48  66  90 132 182 230 280 318 382
#     4  11  24  43  68  97 136 175 224 271 327 388
#     4  12  23  39  69 103 135 173 215 273 337 399
#
# _framework density 21.849114
#
# number of rings (size 3 to 8) (size 9 to 14) (size 15 to 20)
#    0.000    0.615    3.077    6.462    0.000    1.231 
#    0.000    0.000    0.000   16.615    0.000    0.000 
#    0.000    0.000    0.000    0.000    0.000    0.000 
#
# Total GULP energy -72450.412352 kJ/mol
# GULP energy per Si atom -5573.108642 kJ/mol
# Density = 2.179938 g / cm^3
# Si number density = 21.849114 Si / 1000 Ang^3
#
#
#
# Elastic Constant Matrix: (Units=GPa)
#
#
# Indices 1 2 3 4 5 6 
#
# 1 122.8230 11.1243 35.1747 0.0000 15.8388 0.0000
# 2 11.1243 44.0636 0.5796 0.0000 12.6843 0.0000
# 3 35.1747 0.5796 117.9994 0.0000 12.8466 0.0000
# 4 0.0000 0.0000 0.0000 14.5219 0.0000 18.0283
# 5 15.8388 12.6843 12.8466 0.0000 37.2422 0.0000
# 6 0.0000 0.0000 0.0000 18.0283 0.0000 12.7299
#
#
#
# Elastic Compliance Matrix: (Units=1/GPa)
#
#
# Indices 1 2 3 4 5 6 
#
# 1 0.009331 -0.001583 -0.002494 0.000000 -0.002569 0.000000
# 2 -0.001583 0.025511 0.001267 0.000000 -0.008452 0.000000
# 3 -0.002494 0.001267 0.009500 0.000000 -0.002648 0.000000
# 4 0.000000 0.000000 0.000000 -0.090826 0.000000 0.128629
# 5 -0.002569 -0.008452 -0.002648 0.000000 0.031736 0.000000
# 6 0.000000 0.000000 0.000000 0.128629 0.000000 -0.103611
#
#
# Mechanical properties :
#
#
# Convention : Reuss Voigt Hill
#
# Bulk Modulus (GPa) = 25.82612 42.07145 33.94878
# Shear Modulus (GPa) = -50.08427 28.76597 -10.65915
#
# Velocity S-wave (km/s) = -4.79297 3.63240 -2.21114
# Velocity P-wave (km/s) = 4.33407 6.07369 3.00878
#
# Compressibility (1/GPa) = 0.03872050
#
# Stress axis : x y z
#
# Youngs Moduli (GPa) = 107.17324 39.19933 105.26195
#
# Poissons Ratio (x) = 0.06207 0.26252
# Poissons Ratio (y) = 0.16970 -0.13336
# Poissons Ratio (z) = 0.26729 -0.04966
#
# Static dielectric constant tensor:
#      x y z
#    x 1.845580 0.000000 -0.034390 
#    y 0.000000 1.795180 0.000000 
#    z -0.034390 0.000000 1.845900 
# 
# From -- ./inp_files/8816.got.cif
#   From: 2010.05.17/outbox.cif.g08.bks.cpg/sg8_5_cif.got.tgz:8816.got - 2010.06.03 19:46:02.
