data_PCOD9133697
_publ_section_title
;
Structure prediction by ZEFSAII (Michael W. Deem and Ramdas Pophale) SiO2 
 PCOD9133697
Probable space group: C M
;
_chemical_formula_sum "Si O2"
_cell_formula_units_Z 16
_cell_length_a 24.000000
_cell_length_b 9.000000
_cell_length_c 24.000000
_cell_angle_alpha 90.000000
_cell_angle_beta 160.000000
_cell_angle_gamma 90.000000
_cell_volume 1773.032423
_symmetry_space_group_name_H-M "C M"
_symmetry_group_IT_number 8
_symmetry_cell_setting 'monoclinic'
loop_
_space_group_symop_operation_xyz
x,y,z
x,-y,z
1/2+x,1/2+y,z
1/2+x,1/2-y,z
loop_
_atom_site_type_symbol
_atom_site_label
_atom_site_fract_x
_atom_site_fract_y
_atom_site_fract_z
Si Si1 0.642280 0.819786 0.214120
Si Si2 0.020172 0.823300 0.596964
Si Si3 0.556425 0.680160 0.763224
Si Si4 0.194803 0.820318 0.458703
Si Si5 0.621960 0.319939 0.071806
Si Si6 0.490155 0.820706 0.370919
Si Si7 0.739275 0.822165 0.707354
Si Si8 0.421680 0.320340 0.104445
O O1 0.627098 0.755513 0.137457
O O2 0.505213 0.749943 0.126882
O O3 0.830221 0.780965 0.407426
O O4 0.626147 0.000000 0.200004
O O5 0.155593 0.747643 0.684250
O O6 0.048241 0.795671 0.688821
O O7 0.032156 0.000000 0.598282
O O8 0.557676 0.500000 0.775581
O O9 0.380465 0.748079 0.622789
O O10 0.740323 0.749929 0.949665
O O11 0.089608 0.755425 0.412719
O O12 0.066084 0.794742 0.286413
O O13 0.216525 0.000000 0.484777
O O14 0.628192 0.500000 0.081647
O O15 0.795804 0.279798 0.202124
O O16 0.431443 0.282351 0.873932
O O17 0.607864 0.788223 0.534775
O O18 0.489555 0.000000 0.361500
O O19 0.740439 0.000000 0.715708
O O20 0.401238 0.500000 0.079323
#
# Coordination Sequence:
#
# PCOD9133697 Si02
#       8
#     4   4   4   4   4   4   4   4
#     4  11  21  36  60  90 123 158 199 244 298 358
#     4  10  21  36  58  89 122 155 194 241 297 356
#     4  11  23  41  65  92 123 160 202 247 301 360
#     4  11  25  43  63  88 121 159 204 254 304 357
#     4  10  21  38  60  88 119 155 197 242 297 358
#     4  10  22  40  60  84 117 156 203 251 297 349
#     4  10  21  37  60  88 118 154 196 240 293 355
#     4  11  24  41  62  91 125 161 201 247 303 361
#
# _framework density 9.0240880000000008
#
# number of rings (size 3 to 8) (size 9 to 14) (size 15 to 20)
#    0.000    1.500    2.500    2.250    0.000    7.500 
#    0.000    1.250    0.000    0.000    0.000    0.000 
#    0.000    0.000    0.000    0.000    0.000    0.000 
#
# Total GULP energy -89081.076302 kJ/mol
# GULP energy per Si atom -5567.567269 kJ/mol
# Density = 0.900355 g / cm^3
# Si number density = 9.024088 Si / 1000 Ang^3
#
#
#
# Elastic Constant Matrix: (Units=GPa)
#
#
# Indices 1 2 3 4 5 6 
#
# 1 133.7500 43.4140 46.9759 -0.0001 37.3158 0.0000
# 2 43.4140 76.2517 39.4891 -0.0009 16.4418 -0.0003
# 3 46.9759 39.4891 152.9967 -0.0018 41.4255 -0.0006
# 4 -0.0001 -0.0009 -0.0018 36.6474 -0.0007 11.8582
# 5 37.3158 16.4418 41.4255 -0.0007 45.3930 -0.0002
# 6 0.0000 -0.0003 -0.0006 11.8582 -0.0002 39.6644
#
#
#
# Elastic Compliance Matrix: (Units=1/GPa)
#
#
# Indices 1 2 3 4 5 6 
#
# 1 0.011074 -0.004619 -0.000260 0.000000 -0.007193 0.000000
# 2 -0.004619 0.017290 -0.003157 0.000000 0.000416 0.000000
# 3 -0.000260 -0.003157 0.009381 0.000000 -0.007204 0.000000
# 4 0.000000 0.000000 0.000000 0.030209 0.000000 -0.009032
# 5 -0.007193 0.000416 -0.007204 0.000000 0.034367 0.000000
# 6 0.000000 0.000000 0.000000 -0.009032 0.000000 0.027912
#
#
# Mechanical properties :
#
#
# Convention : Reuss Voigt Hill
#
# Bulk Modulus (GPa) = 46.14189 69.19515 57.66852
# Shear Modulus (GPa) = 32.56690 39.88224 36.22457
#
# Velocity S-wave (km/s) = 4.25248 4.70591 4.48493
# Velocity P-wave (km/s) = 7.05216 8.24317 7.67081
#
# Compressibility (1/GPa) = 0.02167228
#
# Stress axis : x y z
#
# Youngs Moduli (GPa) = 90.29931 57.83806 106.59434
#
# Poissons Ratio (x) = 0.26717 0.02776
# Poissons Ratio (y) = 0.41712 0.33650
# Poissons Ratio (z) = 0.02351 0.18258
#
# Static dielectric constant tensor:
#      x y z
#    x 1.626440 0.000000 -0.014960 
#    y 0.000000 1.622970 0.000000 
#    z -0.014960 0.000000 1.672710 
# 
# From -- ./inp_files/32436.got.cif
#   From: 2010.05.17/outbox.ucp.g08.bks.cvg/sg8_17_cif.got.tgz:32436.got - 2010.06.11 13:00:03.
