data_PCOD9133299
_publ_section_title
;
Structure prediction by ZEFSAII (Michael W. Deem and Ramdas Pophale) SiO2 
 PCOD9133299
Probable space group: C M
;
_chemical_formula_sum "Si O2"
_cell_formula_units_Z 18
_cell_length_a 14.495044
_cell_length_b 7.427775
_cell_length_c 18.996772
_cell_angle_alpha 90.000000
_cell_angle_beta 160.930589
_cell_angle_gamma 90.000000
_cell_volume 668.228490
_symmetry_space_group_name_H-M "C M"
_symmetry_group_IT_number 8
_symmetry_cell_setting 'monoclinic'
loop_
_space_group_symop_operation_xyz
x,y,z
x,-y,z
1/2+x,1/2+y,z
1/2+x,1/2-y,z
loop_
_atom_site_type_symbol
_atom_site_label
_atom_site_fract_x
_atom_site_fract_y
_atom_site_fract_z
Si Si1 0.198020 0.215441 0.358270
Si Si2 0.658804 0.787449 0.594433
Si Si3 0.066080 0.705155 0.761825
Si Si4 0.545577 0.000000 0.086302
Si Si5 0.672054 0.701536 0.067570
O O1 0.363538 0.294804 0.409999
O O2 0.394668 0.252674 0.567567
O O3 0.894637 0.279121 0.164461
O O4 0.182922 0.000000 0.338247
O O5 0.834705 0.711292 0.656902
O O6 0.622420 0.000000 0.554704
O O7 0.868536 0.770733 0.812603
O O8 0.170227 0.500000 0.831733
O O9 0.321093 0.842782 0.953284
O O10 0.707942 0.844773 0.154202
O O11 0.697787 0.500000 0.113459
#
# Coordination Sequence:
#
# PCOD9133299 Si02
#       5
#     4   4   4   2   4
#     4  10  22  43  65  96 132 167 214 264 315 386
#     4  10  22  43  65  96 132 167 214 264 315 386
#     4  11  24  41  69  96 127 171 217 260 324 379
#     4  12  22  44  66  92 128 180 202 280 304 394
#     4  11  24  41  69  96 127 171 217 260 324 379
#
# _framework density 26.936896000000001
#
# number of rings (size 3 to 8) (size 9 to 14) (size 15 to 20)
#    0.000    1.333    4.444    0.667    3.111    0.889 
#    4.000    0.000    0.000    0.000    0.000    0.000 
#    0.000    0.000    0.000    0.000    0.000    0.000 
#
# Total GULP energy -50240.838107 kJ/mol
# GULP energy per Si atom -5582.315345 kJ/mol
# Density = 2.687559 g / cm^3
# Si number density = 26.936896 Si / 1000 Ang^3
#
#
#
# Elastic Constant Matrix: (Units=GPa)
#
#
# Indices 1 2 3 4 5 6 
#
# 1 149.1537 25.5459 31.3538 0.0050 29.2146 -0.0106
# 2 25.5459 121.1711 1.5032 0.0391 23.1767 0.0038
# 3 31.3538 1.5032 124.5424 0.0753 31.1576 0.0089
# 4 0.0050 0.0391 0.0753 -9.0327 0.0048 16.5590
# 5 29.2146 23.1767 31.1576 0.0048 63.9123 -0.0021
# 6 -0.0106 0.0038 0.0089 16.5590 -0.0021 4.4039
#
#
#
# Elastic Compliance Matrix: (Units=1/GPa)
#
#
# Indices 1 2 3 4 5 6 
#
# 1 0.007652 -0.001127 -0.001298 0.000003 -0.002456 0.000009
# 2 -0.001127 0.009104 0.000992 0.000002 -0.003269 -0.000023
# 3 -0.001298 0.000992 0.009437 0.000004 -0.004367 -0.000041
# 4 0.000003 0.000002 0.000004 -0.014026 -0.000002 0.052739
# 5 -0.002456 -0.003269 -0.004367 -0.000002 0.020083 0.000022
# 6 0.000009 -0.000023 -0.000041 0.052739 0.000022 0.028769
#
#
# Mechanical properties :
#
#
# Convention : Reuss Voigt Hill
#
# Bulk Modulus (GPa) = 42.87374 56.85256 49.86315
# Shear Modulus (GPa) = 69.77397 34.28764 52.03081
#
# Velocity S-wave (km/s) = 5.09500 3.57163 4.39974
# Velocity P-wave (km/s) = 7.11076 6.17740 6.66045
#
# Compressibility (1/GPa) = 0.02332430
#
# Stress axis : x y z
#
# Youngs Moduli (GPa) = 130.69323 109.84770 105.96915
#
# Poissons Ratio (x) = 0.12383 0.13758
# Poissons Ratio (y) = 0.14733 -0.10511
# Poissons Ratio (z) = 0.16968 -0.10895
#
# Static dielectric constant tensor:
#      x y z
#    x 2.116580 0.000000 -0.054510 
#    y 0.000000 2.021680 -0.000010 
#    z -0.054510 -0.000010 2.126420 
# 
# From -- ./inp_files/9985.got.cif
#   From: 2010.05.17/outbox.cif.g08.bks.cpg/sg8_5_cif.got.tgz:9985.got - 2010.06.03 19:46:02.
