data_PCOD9133150
_publ_section_title
;
Structure prediction by ZEFSAII (Michael W. Deem and Ramdas Pophale) SiO2 
 PCOD9133150
Probable space group: C M
;
_chemical_formula_sum "Si O2"
_cell_formula_units_Z 28
_cell_length_a 11.650569
_cell_length_b 21.997709
_cell_length_c 5.237040
_cell_angle_alpha 90.000000
_cell_angle_beta 64.528712
_cell_angle_gamma 90.000000
_cell_volume 1211.720533
_symmetry_space_group_name_H-M "C M"
_symmetry_group_IT_number 8
_symmetry_cell_setting 'monoclinic'
loop_
_space_group_symop_operation_xyz
x,y,z
x,-y,z
1/2+x,1/2+y,z
1/2+x,1/2-y,z
loop_
_atom_site_type_symbol
_atom_site_label
_atom_site_fract_x
_atom_site_fract_y
_atom_site_fract_z
Si Si1 0.569250 0.246590 0.171130
Si Si2 0.550253 0.570851 0.160031
Si Si3 0.835982 0.574315 0.018071
Si Si4 0.965111 0.868417 0.762276
Si Si5 0.228145 0.183830 0.396155
Si Si6 0.561986 0.837644 0.669762
Si Si7 0.324560 0.305906 0.520008
O O1 0.693927 0.282872 0.157270
O O2 0.537222 0.202837 0.443534
O O3 0.463284 0.299809 0.258711
O O4 0.557031 0.204379 0.932564
O O5 0.549005 0.500000 0.165175
O O6 0.702771 0.584777 0.992020
O O7 0.463706 0.591064 0.009037
O O8 0.493727 0.591748 0.483370
O O9 0.848439 0.500000 0.048916
O O10 0.963780 0.606065 0.783187
O O11 0.804290 0.620990 0.284790
O O12 0.093235 0.829584 0.651306
O O13 0.848736 0.826411 0.787745
O O14 0.284376 0.236655 0.513911
O O15 0.714655 0.849010 0.514578
#
# Coordination Sequence:
#
# PCOD9133150 Si02
#       7
#     4   4   4   4   4   4   4
#     4  10  23  38  63  95 127 168 213 277 329 386
#     4  10  22  41  65  91 124 169 220 275 320 379
#     4  10  22  41  68  96 136 178 222 270 324 399
#     4  10  22  38  63  95 125 163 220 269 331 384
#     4   9  20  38  63  93 129 166 219 267 330 379
#     4  11  24  39  64  94 134 169 214 264 335 397
#     4  10  22  39  64  96 132 171 210 280 333 394
#
# _framework density 23.107637
#
# number of rings (size 3 to 8) (size 9 to 14) (size 15 to 20)
#    0.000    2.000    1.429    0.429    4.000   12.000 
#    0.000    5.000    0.000    0.857    0.000    0.000 
#    0.000    0.000    0.000    0.000    0.000    0.000 
#
# Total GULP energy -78013.866345 kJ/mol
# GULP energy per Si atom -5572.419025 kJ/mol
# Density = 2.305504 g / cm^3
# Si number density = 23.107637 Si / 1000 Ang^3
#
#
#
# Elastic Constant Matrix: (Units=GPa)
#
#
# Indices 1 2 3 4 5 6 
#
# 1 105.3008 55.9110 41.2755 0.0000 6.1601 0.0000
# 2 55.9110 159.6995 51.5411 0.0000 11.8111 0.0000
# 3 41.2755 51.5411 113.2082 0.0000 16.0019 0.0000
# 4 0.0000 0.0000 0.0000 10.4149 0.0000 -13.2673
# 5 6.1601 11.8111 16.0019 0.0000 30.4451 0.0000
# 6 0.0000 0.0000 0.0000 -13.2673 0.0000 41.4463
#
#
#
# Elastic Compliance Matrix: (Units=1/GPa)
#
#
# Indices 1 2 3 4 5 6 
#
# 1 0.012483 -0.003415 -0.003054 0.000000 0.000404 0.000000
# 2 -0.003415 0.008314 -0.002357 0.000000 -0.001296 0.000000
# 3 -0.003054 -0.002357 0.011670 0.000000 -0.004602 0.000000
# 4 0.000000 0.000000 0.000000 0.162129 0.000000 0.051899
# 5 0.000404 -0.001296 -0.004602 0.000000 0.035685 0.000000
# 6 0.000000 0.000000 0.000000 0.051899 0.000000 0.040741
#
#
# Mechanical properties :
#
#
# Convention : Reuss Voigt Hill
#
# Bulk Modulus (GPa) = 67.49374 75.07374 71.28374
# Shear Modulus (GPa) = 17.02930 31.76000 24.39465
#
# Velocity S-wave (km/s) = 2.71764 3.71136 3.25267
# Velocity P-wave (km/s) = 6.25454 7.13617 6.70985
#
# Compressibility (1/GPa) = 0.01481619
#
# Stress axis : x y z
#
# Youngs Moduli (GPa) = 80.10871 120.28306 85.68849
#
# Poissons Ratio (x) = 0.41072 0.26168
# Poissons Ratio (y) = 0.27354 0.20196
# Poissons Ratio (z) = 0.24464 0.28350
#
# Static dielectric constant tensor:
#      x y z
#    x 2.038300 0.000000 -0.060600 
#    y 0.000000 1.898930 0.000000 
#    z -0.060600 0.000000 2.023310 
# 
# From -- ./inp_files/2922.got.cif
#   From: 2010.05.17/outbox.cif.g08.bks.cpg/sg8_2_cif.got.tgz:2922.got - 2010.06.03 19:46:02.
