data_PCOD9133160
_publ_section_title
;
Structure prediction by ZEFSAII (Michael W. Deem and Ramdas Pophale) SiO2 
 PCOD9133160
Probable space group: C M
;
_chemical_formula_sum "Si O2"
_cell_formula_units_Z 32
_cell_length_a 20.134126
_cell_length_b 7.788418
_cell_length_c 12.286397
_cell_angle_alpha 90.000000
_cell_angle_beta 128.731554
_cell_angle_gamma 90.000000
_cell_volume 1502.965587
_symmetry_space_group_name_H-M "C M"
_symmetry_group_IT_number 8
_symmetry_cell_setting 'monoclinic'
loop_
_space_group_symop_operation_xyz
x,y,z
x,-y,z
1/2+x,1/2+y,z
1/2+x,1/2-y,z
loop_
_atom_site_type_symbol
_atom_site_label
_atom_site_fract_x
_atom_site_fract_y
_atom_site_fract_z
Si Si1 0.133600 0.695975 0.475780
Si Si2 0.245986 0.289923 0.952304
Si Si3 0.078025 0.288807 0.646713
Si Si4 0.600401 0.698699 0.202156
Si Si5 0.909130 0.792504 0.979400
Si Si6 0.394078 0.798013 0.525596
Si Si7 0.755450 0.200014 0.210967
Si Si8 0.317523 0.203944 0.671041
O O1 0.107518 0.500000 0.428593
O O2 0.081975 0.767720 0.524865
O O3 0.129852 0.790399 0.357365
O O4 0.231001 0.702387 0.614798
O O5 0.244754 0.500000 0.950201
O O6 0.161254 0.234785 0.799967
O O7 0.332675 0.233814 0.980389
O O8 0.245075 0.232990 0.077338
O O9 0.079236 0.500000 0.645632
O O10 0.988685 0.228976 0.604259
O O11 0.597674 0.500000 0.166109
O O12 0.669074 0.782824 0.192743
O O13 0.504399 0.769469 0.101874
O O14 0.885817 0.737410 0.833932
O O15 0.909771 0.000000 0.987151
O O16 0.332075 0.780237 0.359114
O O17 0.348333 0.727857 0.586058
O O18 0.405056 0.000000 0.558596
O O19 0.776494 0.000000 0.223280
O O20 0.299873 0.000000 0.646364
#
# Coordination Sequence:
#
# PCOD9133160 Si02
#       8
#     4   4   4   4   4   4   4   4
#     4  11  21  38  65  88 115 155 203 248 294 356
#     4   9  19  38  61  85 113 151 198 243 290 346
#     4   9  19  37  62  87 114 153 196 242 295 349
#     4  11  24  40  60  87 123 159 195 247 303 349
#     4  10  22  41  63  85 117 159 199 243 299 355
#     4  10  22  39  60  86 120 157 192 241 301 351
#     4  11  23  38  62  87 116 158 201 245 293 356
#     4  11  22  37  61  89 120 154 196 249 299 350
#
# _framework density 21.291239999999998
#
# number of rings (size 3 to 8) (size 9 to 14) (size 15 to 20)
#    0.000    1.750    2.500    1.500    3.500    1.500 
#    0.000    1.875    0.000    0.000    0.000    0.000 
#    0.000    0.000    0.000    0.000    0.000    0.000 
#
# Total GULP energy -89366.975780 kJ/mol
# GULP energy per Si atom -5585.435986 kJ/mol
# Density = 2.124278 g / cm^3
# Si number density = 21.291240 Si / 1000 Ang^3
#
#
#
# Elastic Constant Matrix: (Units=GPa)
#
#
# Indices 1 2 3 4 5 6 
#
# 1 97.2278 -0.7214 36.1921 0.0000 -0.8967 0.0000
# 2 -0.7214 24.2212 -9.9318 0.0000 -0.4488 0.0000
# 3 36.1921 -9.9318 97.9259 0.0000 -2.4966 0.0000
# 4 0.0000 0.0000 0.0000 8.9502 0.0000 1.8754
# 5 -0.8967 -0.4488 -2.4966 0.0000 42.4530 0.0000
# 6 0.0000 0.0000 0.0000 1.8754 0.0000 -3.1780
#
#
#
# Elastic Compliance Matrix: (Units=1/GPa)
#
#
# Indices 1 2 3 4 5 6 
#
# 1 0.011979 -0.001523 -0.004583 0.000000 -0.000033 0.000000
# 2 -0.001523 0.043293 0.004972 0.000000 0.000718 0.000000
# 3 -0.004583 0.004972 0.012427 0.000000 0.000687 0.000000
# 4 0.000000 0.000000 0.000000 0.099434 0.000000 0.058680
# 5 -0.000033 0.000718 0.000687 0.000000 0.023603 0.000000
# 6 0.000000 0.000000 0.000000 0.058680 0.000000 -0.280037
#
#
# Mechanical properties :
#
#
# Convention : Reuss Voigt Hill
#
# Bulk Modulus (GPa) = 15.28299 30.05031 22.66665
# Shear Modulus (GPa) = -76.66049 22.56743 -27.04653
#
# Velocity S-wave (km/s) = -6.00698 3.25920 -3.56801
# Velocity P-wave (km/s) = 6.39673 5.32051 2.51101
#
# Compressibility (1/GPa) = 0.06543220
#
# Stress axis : x y z
#
# Youngs Moduli (GPa) = 83.47665 23.09850 80.46807
#
# Poissons Ratio (x) = 0.03518 0.36876
# Poissons Ratio (y) = 0.12713 -0.40009
# Poissons Ratio (z) = 0.38255 -0.11485
#
# Static dielectric constant tensor:
#      x y z
#    x 1.759310 0.000000 0.002900 
#    y 0.000000 1.766610 0.000000 
#    z 0.002900 0.000000 1.728310 
# 
# From -- ./inp_files/23838.got.cif
#   From: 2010.05.17/outbox.cif.g08.bks.cpg/sg8_12_cif.got.tgz:23838.got - 2010.06.03 19:46:02.
