data_PCOD9133417
_publ_section_title
;
Structure prediction by ZEFSAII (Michael W. Deem and Ramdas Pophale) SiO2 
 PCOD9133417
Probable space group: C M
;
_chemical_formula_sum "Si O2"
_cell_formula_units_Z 32
_cell_length_a 8.163233
_cell_length_b 31.190449
_cell_length_c 10.107966
_cell_angle_alpha 90.000000
_cell_angle_beta 148.112225
_cell_angle_gamma 90.000000
_cell_volume 1359.543165
_symmetry_space_group_name_H-M "C M"
_symmetry_group_IT_number 8
_symmetry_cell_setting 'monoclinic'
loop_
_space_group_symop_operation_xyz
x,y,z
x,-y,z
1/2+x,1/2+y,z
1/2+x,1/2-y,z
loop_
_atom_site_type_symbol
_atom_site_label
_atom_site_fract_x
_atom_site_fract_y
_atom_site_fract_z
Si Si1 0.648070 0.714087 0.908470
Si Si2 0.938979 0.628797 0.218968
Si Si3 0.224166 0.612794 0.144881
Si Si4 0.399673 0.708459 0.230095
Si Si5 0.723468 0.452590 0.442921
Si Si6 0.697402 0.546439 0.740199
Si Si7 0.799416 0.915520 0.688857
Si Si8 0.514281 0.756276 0.566947
O O1 0.634822 0.717055 0.741311
O O2 0.294187 0.714331 0.712439
O O3 0.838733 0.677151 0.111729
O O4 0.759014 0.761271 0.023502
O O5 0.199384 0.615498 0.288319
O O6 0.095264 0.619674 0.467480
O O7 0.615613 0.602479 0.973282
O O8 0.270345 0.661310 0.133560
O O9 0.481047 0.584775 0.245584
O O10 0.906876 0.588367 0.898916
O O11 0.343512 0.732901 0.328955
O O12 0.768684 0.712997 0.468980
O O13 0.660726 0.500000 0.342447
O O14 0.660719 0.456053 0.557437
O O15 0.065570 0.438042 0.631619
O O16 0.846327 0.500000 0.879989
O O17 0.415516 0.553007 0.649644
#
# Coordination Sequence:
#
# PCOD9133417 Si02
#       8
#     4   4   4   4   4   4   4   4
#     4  11  24  43  65  99 142 194 240 302 363 433
#     4  11  26  45  74 103 150 191 248 297 369 432
#     4  11  24  43  71 102 140 190 248 303 369 440
#     4  11  24  42  67  98 141 189 246 302 364 437
#     4  11  25  45  72 106 142 187 241 306 372 447
#     4  10  23  48  74 103 144 190 240 309 383 449
#     4  11  26  47  72 113 144 196 239 306 366 449
#     4  10  24  41  65  98 135 197 242 301 364 435
#
# _framework density 23.537316000000001
#
# number of rings (size 3 to 8) (size 9 to 14) (size 15 to 20)
#    0.000    1.250    1.250    3.000    8.750    3.000 
#    0.000    1.250    0.000    0.000    0.000    0.000 
#    0.000    0.000    0.000    0.000    0.000    0.000 
#
# Total GULP energy -89324.740048 kJ/mol
# GULP energy per Si atom -5582.796253 kJ/mol
# Density = 2.348374 g / cm^3
# Si number density = 23.537316 Si / 1000 Ang^3
#
#
#
# Elastic Constant Matrix: (Units=GPa)
#
#
# Indices 1 2 3 4 5 6 
#
# 1 99.8756 37.8965 25.4002 0.0000 37.0028 0.0000
# 2 37.8965 134.8012 36.6945 0.0000 24.7614 0.0000
# 3 25.4002 36.6945 67.2096 0.0000 16.6972 0.0000
# 4 0.0000 0.0000 0.0000 33.2517 0.0000 3.3148
# 5 37.0028 24.7614 16.6972 0.0000 44.1715 0.0000
# 6 0.0000 0.0000 0.0000 3.3148 0.0000 16.5961
#
#
#
# Elastic Compliance Matrix: (Units=1/GPa)
#
#
# Indices 1 2 3 4 5 6 
#
# 1 0.015289 -0.001693 -0.002105 0.000000 -0.011063 0.000000
# 2 -0.001693 0.009391 -0.003898 0.000000 -0.002373 0.000000
# 3 -0.002105 -0.003898 0.018565 0.000000 -0.003069 0.000000
# 4 0.000000 0.000000 0.000000 0.030685 0.000000 -0.006129
# 5 -0.011063 -0.002373 -0.003069 0.000000 0.034397 0.000000
# 6 0.000000 0.000000 0.000000 -0.006129 0.000000 0.061479
#
#
# Mechanical properties :
#
#
# Convention : Reuss Voigt Hill
#
# Bulk Modulus (GPa) = 35.90340 55.76320 45.83330
# Shear Modulus (GPa) = 25.70921 32.26352 28.98637
#
# Velocity S-wave (km/s) = 3.30854 3.70637 3.51309
# Velocity P-wave (km/s) = 5.46646 6.48529 5.99755
#
# Compressibility (1/GPa) = 0.02785252
#
# Stress axis : x y z
#
# Youngs Moduli (GPa) = 65.40703 106.48251 53.86430
#
# Poissons Ratio (x) = 0.18027 0.11341
# Poissons Ratio (y) = 0.11073 0.20997
# Poissons Ratio (z) = 0.13771 0.41507
#
# Static dielectric constant tensor:
#      x y z
#    x 1.951230 0.000000 0.009120 
#    y 0.000000 1.895860 0.000000 
#    z 0.009120 0.000000 1.913600 
# 
# From -- ./inp_files/19474.got.cif
#   From: 2010.05.17/outbox.cif.g08.bks.cpg/sg8_10_cif.got.tgz:19474.got - 2010.06.03 19:46:02.
