data_PCOD9133017
_publ_section_title
;
Structure prediction by ZEFSAII (Michael W. Deem and Ramdas Pophale) SiO2 
 PCOD9133017
Probable space group: C M
;
_chemical_formula_sum "Si O2"
_cell_formula_units_Z 28
_cell_length_a 7.823933
_cell_length_b 26.070224
_cell_length_c 5.215900
_cell_angle_alpha 90.000000
_cell_angle_beta 90.084914
_cell_angle_gamma 90.000000
_cell_volume 1063.894748
_symmetry_space_group_name_H-M "C M"
_symmetry_group_IT_number 8
_symmetry_cell_setting 'monoclinic'
loop_
_space_group_symop_operation_xyz
x,y,z
x,-y,z
1/2+x,1/2+y,z
1/2+x,1/2-y,z
loop_
_atom_site_type_symbol
_atom_site_label
_atom_site_fract_x
_atom_site_fract_y
_atom_site_fract_z
Si Si1 0.092530 0.555000 0.960500
Si Si2 0.259729 0.758300 0.576837
Si Si3 0.224006 0.656062 0.836183
Si Si4 0.558636 0.639937 0.648169
Si Si5 0.782142 0.407671 0.267686
Si Si6 0.918008 0.698086 0.090952
Si Si7 0.430503 0.444289 0.296676
O O1 0.063187 0.500000 0.831937
O O2 0.114967 0.604510 0.781737
O O3 0.274039 0.554705 0.104883
O O4 0.950775 0.563330 0.180497
O O5 0.210198 0.699754 0.621545
O O6 0.114578 0.802806 0.573624
O O7 0.363213 0.774372 0.832095
O O8 0.372156 0.766838 0.327372
O O9 0.426777 0.647489 0.884456
O O10 0.427774 0.605763 0.475198
O O11 0.113445 0.680475 0.067185
O O12 0.728702 0.606527 0.563701
O O13 0.616779 0.438216 0.167191
O O14 0.803119 0.352925 0.127932
O O15 0.430250 0.500000 0.435595
#
# Coordination Sequence:
#
# PCOD9133017 Si02
#       7
#     4   4   4   4   4   4   4
#     4  10  21  39  68 104 148 208 263 322 390 466
#     4  11  24  45  68 102 149 200 248 314 389 459
#     4  11  24  41  67 103 146 199 256 321 384 463
#     4   9  22  38  65 101 142 193 252 315 378 455
#     4   8  19  40  64 102 146 199 247 320 381 462
#     4  10  24  43  68 102 146 192 251 308 381 458
#     4   9  19  38  69 104 148 201 258 316 385 459
#
# _framework density 26.318394999999999
#
# number of rings (size 3 to 8) (size 9 to 14) (size 15 to 20)
#    0.857    1.429    0.000    1.286    2.000    8.571 
#    0.000    0.000    0.000    0.857    0.000    0.000 
#    0.000    0.000    0.000    0.000    0.000    0.000 
#
# Total GULP energy -78106.164642 kJ/mol
# GULP energy per Si atom -5579.011760 kJ/mol
# Density = 2.625849 g / cm^3
# Si number density = 26.318395 Si / 1000 Ang^3
#
#
#
# Elastic Constant Matrix: (Units=GPa)
#
#
# Indices 1 2 3 4 5 6 
#
# 1 143.2709 41.0696 54.7346 0.0000 -50.6114 0.0000
# 2 41.0696 193.1994 44.4012 0.0000 -17.3273 0.0000
# 3 54.7346 44.4012 125.6684 0.0000 -34.7825 0.0000
# 4 0.0000 0.0000 0.0000 16.4900 0.0000 18.7419
# 5 -50.6114 -17.3273 -34.7825 0.0000 57.5090 0.0000
# 6 0.0000 0.0000 0.0000 18.7419 0.0000 -7.4003
#
#
#
# Elastic Compliance Matrix: (Units=1/GPa)
#
#
# Indices 1 2 3 4 5 6 
#
# 1 0.010948 -0.001113 -0.002163 0.000000 0.007991 0.000000
# 2 -0.001113 0.005764 -0.001612 0.000000 -0.000218 0.000000
# 3 -0.002163 -0.001612 0.010579 0.000000 0.004009 0.000000
# 4 0.000000 0.000000 0.000000 0.015636 0.000000 0.039599
# 5 0.007991 -0.000218 0.004009 0.000000 0.026780 0.000000
# 6 0.000000 0.000000 0.000000 0.039599 0.000000 -0.034841
#
#
# Mechanical properties :
#
#
# Convention : Reuss Voigt Hill
#
# Bulk Modulus (GPa) = 57.09875 82.50550 69.80213
# Shear Modulus (GPa) = 99.04786 34.78195 66.91491
#
# Velocity S-wave (km/s) = 6.14135 3.63930 5.04781
# Velocity P-wave (km/s) = 8.48709 7.00546 7.78162
#
# Compressibility (1/GPa) = 0.01751352
#
# Stress axis : x y z
#
# Youngs Moduli (GPa) = 91.33711 173.50401 94.52967
#
# Poissons Ratio (x) = 0.19320 0.20449
# Poissons Ratio (y) = 0.10170 0.15236
# Poissons Ratio (z) = 0.19759 0.27966
#
# Static dielectric constant tensor:
#      x y z
#    x 2.161110 0.000000 0.006250 
#    y 0.000000 2.120470 0.000000 
#    z 0.006250 0.000000 2.101330 
# 
# From -- ./inp_files/1868.got.cif
#   From: 2010.05.17/outbox.cif.g08.bks.cpg/sg8_1_cif.got.tgz:1868.got - 2010.06.03 19:46:02.
