data_PCOD9133809
_publ_section_title
;
Structure prediction by ZEFSAII (Michael W. Deem and Ramdas Pophale) SiO2 
 PCOD9133809
Probable space group: C C
;
_chemical_formula_sum "Si O2"
_cell_formula_units_Z 32
_cell_length_a 11.459804
_cell_length_b 14.323444
_cell_length_c 11.551844
_cell_angle_alpha 90.000000
_cell_angle_beta 61.626624
_cell_angle_gamma 90.000000
_cell_volume 1668.377091
_symmetry_space_group_name_H-M "C C"
_symmetry_group_IT_number 9
_symmetry_cell_setting 'monoclinic'
loop_
_space_group_symop_operation_xyz
x,y,z
x,-y,1/2+z
1/2+x,1/2+y,z
1/2+x,1/2-y,1/2+z
loop_
_atom_site_type_symbol
_atom_site_label
_atom_site_fract_x
_atom_site_fract_y
_atom_site_fract_z
Si Si1 0.087570 0.321426 0.070510
Si Si2 0.356220 0.278240 0.075670
Si Si3 0.055722 0.068877 0.551100
Si Si4 0.126288 0.127404 0.957279
Si Si5 0.930862 0.626456 0.872426
Si Si6 0.225538 0.930968 0.186157
Si Si7 0.978594 0.421468 0.915458
Si Si8 0.306210 0.881307 0.785342
O O1 0.230883 0.316165 0.063374
O O2 0.987650 0.358104 0.216844
O O3 0.057792 0.214582 0.048704
O O4 0.087867 0.377937 0.949145
O O5 0.313948 0.204078 0.193599
O O6 0.432192 0.364158 0.096654
O O7 0.446588 0.218349 0.943245
O O8 0.104812 0.048023 0.657311
O O9 0.177145 0.120293 0.427880
O O10 0.042221 0.966948 0.500829
O O11 0.271093 0.108984 0.947450
O O12 0.170637 0.142730 0.804422
O O13 0.993166 0.533090 0.896583
O O14 0.281352 0.022579 0.225862
O O15 0.347222 0.897546 0.051872
O O16 0.937041 0.387901 0.805790
#
# Coordination Sequence:
#
# PCOD9133809 Si02
#       8
#     4   4   4   4   4   4   4   4
#     4  11  24  38  61  93 129 162 204 256 329 369
#     4  11  23  38  59  92 131 163 198 259 325 377
#     4  10  21  36  63  90 118 163 209 256 307 370
#     4  10  20  38  62  90 117 165 210 256 297 370
#     4  11  20  40  64  87 122 167 214 253 301 381
#     4  10  16  36  63  88 112 151 216 256 287 352
#     4  11  19  36  66  92 116 157 212 265 295 367
#     4  10  19  36  62  92 115 154 213 259 299 360
#
# _framework density 19.180316000000001
#
# number of rings (size 3 to 8) (size 9 to 14) (size 15 to 20)
#    0.000    1.500    6.250    1.500    1.750    1.000 
#    0.000    5.000    5.500    0.000    0.000    0.000 
#    0.000    0.000    0.000    0.000    0.000    0.000 
#
# Total GULP energy -89155.153754 kJ/mol
# GULP energy per Si atom -5572.197110 kJ/mol
# Density = 1.913666 g / cm^3
# Si number density = 19.180316 Si / 1000 Ang^3
#
#
#
# Elastic Constant Matrix: (Units=GPa)
#
#
# Indices 1 2 3 4 5 6 
#
# 1 76.3219 44.0442 31.8156 0.0000 29.4424 0.0000
# 2 44.0442 104.1570 34.1030 0.0000 9.0767 0.0000
# 3 31.8156 34.1030 72.9468 0.0000 25.2294 0.0000
# 4 0.0000 0.0000 0.0000 38.3731 0.0000 9.5929
# 5 29.4424 9.0767 25.2294 0.0000 27.2258 0.0000
# 6 0.0000 0.0000 0.0000 9.5929 0.0000 24.8708
#
#
#
# Elastic Compliance Matrix: (Units=1/GPa)
#
#
# Indices 1 2 3 4 5 6 
#
# 1 0.030774 -0.011172 0.002977 0.000000 -0.032314 0.000000
# 2 -0.011172 0.015443 -0.006983 0.000000 0.013404 0.000000
# 3 0.002977 -0.006983 0.023522 0.000000 -0.022688 0.000000
# 4 0.000000 0.000000 0.000000 0.028841 0.000000 -0.011124
# 5 -0.032314 0.013404 -0.022688 0.000000 0.088230 0.000000
# 6 0.000000 0.000000 0.000000 -0.011124 0.000000 0.044498
#
#
# Mechanical properties :
#
#
# Convention : Reuss Voigt Hill
#
# Bulk Modulus (GPa) = 25.39174 52.59458 38.99316
# Shear Modulus (GPa) = 18.19552 27.65814 22.92683
#
# Velocity S-wave (km/s) = 3.08337 3.80150 3.46111
# Velocity P-wave (km/s) = 5.09346 6.83733 6.02879
#
# Compressibility (1/GPa) = 0.03938288
#
# Stress axis : x y z
#
# Youngs Moduli (GPa) = 32.49488 64.75237 42.51357
#
# Poissons Ratio (x) = 0.72341 -0.12656
# Poissons Ratio (y) = 0.36303 0.29688
# Poissons Ratio (z) = -0.09673 0.45218
#
# Static dielectric constant tensor:
#      x y z
#    x 1.711430 0.000000 0.043330 
#    y 0.000000 1.672820 0.000000 
#    z 0.043330 0.000000 1.709770 
# 
# From -- ./inp_files/14578.got.cif
#   From: 2010.05.17/outbox.cif.g08.bks.cpg/sg9_8_cif.got.tgz:14578.got - 2010.06.03 20:04:27.
