data_PCOD9133709
_publ_section_title
;
Structure prediction by ZEFSAII (Michael W. Deem and Ramdas Pophale) SiO2 
 PCOD9133709
Probable space group: C M
;
_chemical_formula_sum "Si O2"
_cell_formula_units_Z 16
_cell_length_a 27.000000
_cell_length_b 9.000000
_cell_length_c 21.000000
_cell_angle_alpha 90.000000
_cell_angle_beta 20.000000
_cell_angle_gamma 90.000000
_cell_volume 1745.328791
_symmetry_space_group_name_H-M "C M"
_symmetry_group_IT_number 8
_symmetry_cell_setting 'monoclinic'
loop_
_space_group_symop_operation_xyz
x,y,z
x,-y,z
1/2+x,1/2+y,z
1/2+x,1/2-y,z
loop_
_atom_site_type_symbol
_atom_site_label
_atom_site_fract_x
_atom_site_fract_y
_atom_site_fract_z
Si Si1 0.860290 0.823268 0.820420
Si Si2 0.201098 0.178930 0.135759
Si Si3 0.354875 0.321312 0.567621
Si Si4 0.199460 0.821379 0.633871
Si Si5 0.201669 0.180455 0.383882
Si Si6 0.177409 0.322530 0.912441
Si Si7 0.855639 0.179314 0.071768
Si Si8 0.359512 0.680050 0.316042
O O1 0.773423 0.798981 0.859678
O O2 0.029273 0.785770 0.601375
O O3 0.856500 0.000000 0.840009
O O4 0.779182 0.739492 0.976813
O O5 0.276820 0.256231 0.104614
O O6 0.027892 0.209545 0.352775
O O7 0.218822 0.000000 0.116563
O O8 0.338438 0.500000 0.579847
O O9 0.279148 0.236307 0.601017
O O10 0.272853 0.283044 0.733776
O O11 0.276827 0.743958 0.479063
O O12 0.213760 0.000000 0.609277
O O13 0.027790 0.788656 0.852769
O O14 0.279839 0.246486 0.225859
O O15 0.278555 0.252924 0.352209
O O16 0.216685 0.000000 0.364957
O O17 0.145506 0.500000 0.946108
O O18 0.026245 0.235885 0.106210
O O19 0.840456 0.000000 0.094664
O O20 0.355187 0.500000 0.322485
#
# Coordination Sequence:
#
# PCOD9133709 Si02
#       8
#     4   4   4   4   4   4   4   4
#     4  10  22  40  62  89 120 156 199 245 294 351
#     4  11  23  39  61  90 122 157 198 243 294 352
#     4  10  22  40  62  90 121 155 198 245 294 352
#     4  11  24  41  61  87 119 157 200 245 296 352
#     4  11  23  41  64  89 120 157 197 243 296 353
#     4  10  21  40  64  88 119 158 197 242 298 353
#     4  11  24  41  62  90 121 154 198 247 294 351
#     4  12  25  40  60  89 122 156 199 246 292 350
#
# _framework density 9.1673270000000002
#
# number of rings (size 3 to 8) (size 9 to 14) (size 15 to 20)
#    0.000    1.250    0.000    5.625    0.000   14.000 
#    0.000    1.250    0.000    0.000    0.000    0.000 
#    0.000    0.000    0.000    0.000    0.000    0.000 
#
# Total GULP energy -89379.477712 kJ/mol
# GULP energy per Si atom -5586.217357 kJ/mol
# Density = 0.914646 g / cm^3
# Si number density = 9.167327 Si / 1000 Ang^3
#
#
#
# Elastic Constant Matrix: (Units=GPa)
#
#
# Indices 1 2 3 4 5 6 
#
# 1 171.9053 77.6891 110.8982 0.0000 16.4025 0.0000
# 2 77.6891 116.6416 94.4694 0.0000 3.0666 0.0000
# 3 110.8982 94.4694 223.8279 0.0000 10.4558 0.0000
# 4 0.0000 0.0000 0.0000 41.2068 0.0000 8.3855
# 5 16.4025 3.0666 10.4558 0.0000 54.3231 0.0000
# 6 0.0000 0.0000 0.0000 8.3855 0.0000 36.1290
#
#
#
# Elastic Compliance Matrix: (Units=1/GPa)
#
#
# Indices 1 2 3 4 5 6 
#
# 1 0.009807 -0.003983 -0.003078 0.000000 -0.002144 0.000000
# 2 -0.003983 0.014649 -0.004265 0.000000 0.001197 0.000000
# 3 -0.003078 -0.004265 0.007809 0.000000 -0.000333 0.000000
# 4 0.000000 0.000000 0.000000 0.025471 0.000000 -0.005912
# 5 -0.002144 0.001197 -0.000333 0.000000 0.019052 0.000000
# 6 0.000000 0.000000 0.000000 -0.005912 0.000000 0.029051
#
#
# Mechanical properties :
#
#
# Convention : Reuss Voigt Hill
#
# Bulk Modulus (GPa) = 104.03084 119.83201 111.93143
# Shear Modulus (GPa) = 37.96626 41.61965 39.79295
#
# Velocity S-wave (km/s) = 4.55547 4.76962 4.66378
# Velocity P-wave (km/s) = 9.19418 9.78941 9.49646
#
# Compressibility (1/GPa) = 0.00961253
#
# Stress axis : x y z
#
# Youngs Moduli (GPa) = 101.96412 68.26287 128.06471
#
# Poissons Ratio (x) = 0.27189 0.39418
# Poissons Ratio (y) = 0.40612 0.54625
# Poissons Ratio (z) = 0.31384 0.29117
#
# Static dielectric constant tensor:
#      x y z
#    x 1.621270 0.000000 -0.018950 
#    y 0.000000 1.620790 0.000000 
#    z -0.018950 0.000000 1.627500 
# 
# From -- ./inp_files/21570.got.cif
#   From: 2010.05.17/outbox.ucp.g08.bks.cvg/sg8_11_cif.got.tgz:21570.got - 2010.06.11 13:00:03.
