data_PCOD9133387
_publ_section_title
;
Structure prediction by ZEFSAII (Michael W. Deem and Ramdas Pophale) SiO2 
 PCOD9133387
Probable space group: C M
;
_chemical_formula_sum "Si O2"
_cell_formula_units_Z 24
_cell_length_a 11.353280
_cell_length_b 19.534043
_cell_length_c 5.060666
_cell_angle_alpha 90.000000
_cell_angle_beta 63.824145
_cell_angle_gamma 90.000000
_cell_volume 1007.230083
_symmetry_space_group_name_H-M "C M"
_symmetry_group_IT_number 8
_symmetry_cell_setting 'monoclinic'
loop_
_space_group_symop_operation_xyz
x,y,z
x,-y,z
1/2+x,1/2+y,z
1/2+x,1/2-y,z
loop_
_atom_site_type_symbol
_atom_site_label
_atom_site_fract_x
_atom_site_fract_y
_atom_site_fract_z
Si Si1 0.854650 0.500000 0.784431
Si Si2 0.673684 0.500000 0.457601
Si Si3 0.868159 0.245779 0.388702
Si Si4 0.264929 0.684645 0.978772
Si Si5 0.971453 0.111168 0.458538
Si Si6 0.827812 0.000000 0.273009
Si Si7 0.141570 0.500000 0.948067
Si Si8 0.004764 0.616557 0.356697
O O1 0.735035 0.500000 0.687986
O O2 0.941662 0.566538 0.632734
O O3 0.791029 0.500000 0.132309
O O4 0.586202 0.567276 0.478023
O O5 0.838241 0.231787 0.115118
O O6 0.983768 0.190371 0.351965
O O7 0.904405 0.323888 0.389355
O O8 0.752837 0.225106 0.711839
O O9 0.141000 0.656731 0.261642
O O10 0.356181 0.622555 0.787086
O O11 0.915779 0.065550 0.271408
O O12 0.750022 0.000000 0.076465
O O13 0.712023 0.000000 0.602263
O O14 0.050563 0.565759 0.079993
#
# Coordination Sequence:
#
# PCOD9133387 Si02
#       8
#     2   2   4   4   4   2   2   4
#     4  11  30  44  65 104 130 195 211 277 358 402
#     4  11  26  46  67  96 146 175 229 265 346 422
#     4  10  24  40  65 106 129 176 225 277 345 389
#     4  10  23  43  68 104 123 178 233 272 348 377
#     4   9  23  41  71  98 133 175 225 281 328 394
#     4  11  20  37  66 100 130 161 233 269 327 393
#     4  11  22  37  64 100 130 175 211 279 333 391
#     4  11  25  46  70  95 145 168 233 285 332 416
#
# _framework density 23.827721
#
# number of rings (size 3 to 8) (size 9 to 14) (size 15 to 20)
#    1.000    0.667    1.667    1.000    2.333   12.000 
#    0.000    0.000    0.000    0.000    0.000    0.000 
#    0.000    0.000    0.000    0.000    0.000    0.000 
#
# Total GULP energy -66989.558127 kJ/mol
# GULP energy per Si atom -5582.463177 kJ/mol
# Density = 2.377349 g / cm^3
# Si number density = 23.827721 Si / 1000 Ang^3
#
#
#
# Elastic Constant Matrix: (Units=GPa)
#
#
# Indices 1 2 3 4 5 6 
#
# 1 83.5894 13.6072 16.5057 0.0000 15.2969 0.0000
# 2 13.6072 141.8341 13.4413 0.0000 0.4627 0.0000
# 3 16.5057 13.4413 56.7706 0.0000 6.5730 0.0000
# 4 0.0000 0.0000 0.0000 0.2793 0.0000 -16.5944
# 5 15.2969 0.4627 6.5730 0.0000 43.9291 0.0000
# 6 0.0000 0.0000 0.0000 -16.5944 0.0000 16.7803
#
#
#
# Elastic Compliance Matrix: (Units=1/GPa)
#
#
# Indices 1 2 3 4 5 6 
#
# 1 0.013529 -0.000980 -0.003213 0.000000 -0.004220 0.000000
# 2 -0.000980 0.007285 -0.001496 0.000000 0.000488 0.000000
# 3 -0.003213 -0.001496 0.019103 0.000000 -0.001724 0.000000
# 4 0.000000 0.000000 0.000000 -0.061991 0.000000 -0.061304
# 5 -0.004220 0.000488 -0.001724 0.000000 0.024486 0.000000
# 6 0.000000 0.000000 0.000000 -0.061304 0.000000 -0.001032
#
#
# Mechanical properties :
#
#
# Convention : Reuss Voigt Hill
#
# Bulk Modulus (GPa) = 35.04032 41.03361 38.03697
# Shear Modulus (GPa) = 224.50006 28.10707 126.30356
#
# Velocity S-wave (km/s) = 9.71713 3.43825 7.28849
# Velocity P-wave (km/s) = 11.85894 5.74634 9.31812
#
# Compressibility (1/GPa) = 0.02853855
#
# Stress axis : x y z
#
# Youngs Moduli (GPa) = 73.91283 137.27391 52.34836
#
# Poissons Ratio (x) = 0.13449 0.16820
# Poissons Ratio (y) = 0.07241 0.07834
# Poissons Ratio (z) = 0.23748 0.20542
#
# Static dielectric constant tensor:
#      x y z
#    x 1.971380 0.000000 -0.040080 
#    y 0.000000 1.950380 0.000000 
#    z -0.040080 0.000000 1.871580 
# 
# From -- ./inp_files/2802.got.cif
#   From: 2010.05.17/outbox.cif.g08.bks.cpg/sg8_2_cif.got.tgz:2802.got - 2010.06.03 19:46:02.
