data_PCOD9133796
_publ_section_title
;
Structure prediction by ZEFSAII (Michael W. Deem and Ramdas Pophale) SiO2 
 PCOD9133796
Probable space group: C C
;
_chemical_formula_sum "Si O2"
_cell_formula_units_Z 32
_cell_length_a 11.558173
_cell_length_b 17.073775
_cell_length_c 12.722764
_cell_angle_alpha 90.000000
_cell_angle_beta 38.552212
_cell_angle_gamma 90.000000
_cell_volume 1564.756833
_symmetry_space_group_name_H-M "C C"
_symmetry_group_IT_number 9
_symmetry_cell_setting 'monoclinic'
loop_
_space_group_symop_operation_xyz
x,y,z
x,-y,1/2+z
1/2+x,1/2+y,z
1/2+x,1/2-y,1/2+z
loop_
_atom_site_type_symbol
_atom_site_label
_atom_site_fract_x
_atom_site_fract_y
_atom_site_fract_z
Si Si1 0.781560 0.044780 0.676310
Si Si2 0.380801 0.712831 0.308019
Si Si3 0.080047 0.957964 0.320097
Si Si4 0.023760 0.191062 0.996335
Si Si5 0.992838 0.431730 0.982750
Si Si6 0.952354 0.853906 0.230074
Si Si7 0.851989 0.709697 0.451848
Si Si8 0.112692 0.365546 0.122895
O O1 0.627545 0.070378 0.700956
O O2 0.840900 0.117153 0.708260
O O3 0.671821 0.982358 0.825296
O O4 0.958550 0.012091 0.484264
O O5 0.188785 0.748791 0.401250
O O6 0.323224 0.661313 0.446694
O O7 0.507205 0.788155 0.237249
O O8 0.464160 0.663446 0.153503
O O9 0.099668 0.877177 0.371035
O O10 0.961436 0.928144 0.303872
O O11 0.291768 0.976545 0.133576
O O12 0.858481 0.235375 0.052223
O O13 0.975336 0.363399 0.906236
O O14 0.026495 0.396965 0.075713
O O15 0.893090 0.774060 0.332852
O O16 0.163608 0.832539 0.054255
#
# Coordination Sequence:
#
# PCOD9133796 Si02
#       8
#     4   4   4   4   4   4   4   4
#     4  12  27  43  59  93 146 177 200 263 343 406
#     4  10  18  34  63  93 122 148 214 274 313 364
#     4  10  22  40  65  93 126 165 220 262 325 386
#     4  10  16  33  65  99 115 148 211 289 313 351
#     4  11  22  42  69  96 123 167 227 272 320 383
#     4  10  24  42  64  99 126 174 223 268 334 393
#     4  10  20  38  70  97 122 160 231 279 315 379
#     4  11  23  40  63  96 124 169 216 261 331 386
#
# _framework density 20.450461000000001
#
# number of rings (size 3 to 8) (size 9 to 14) (size 15 to 20)
#    0.000    1.500    3.750    3.000    3.500    3.000 
#    6.750    0.000    0.000    0.000    0.000    0.000 
#    0.000    0.000    0.000    0.000    0.000    0.000 
#
# Total GULP energy -89103.934929 kJ/mol
# GULP energy per Si atom -5568.995933 kJ/mol
# Density = 2.040391 g / cm^3
# Si number density = 20.450461 Si / 1000 Ang^3
#
#
#
# Elastic Constant Matrix: (Units=GPa)
#
#
# Indices 1 2 3 4 5 6 
#
# 1 65.7846 32.4229 20.7377 0.0019 1.8271 -0.0015
# 2 32.4229 50.4466 18.5997 0.0024 -0.2348 -0.0017
# 3 20.7377 18.5997 68.1806 0.0017 -9.1353 -0.0007
# 4 0.0019 0.0024 0.0017 19.1039 -0.0012 2.6928
# 5 1.8271 -0.2348 -9.1353 -0.0012 19.5395 0.0004
# 6 -0.0015 -0.0017 -0.0007 2.6928 0.0004 30.1386
#
#
#
# Elastic Compliance Matrix: (Units=1/GPa)
#
#
# Indices 1 2 3 4 5 6 
#
# 1 0.023202 -0.013480 -0.003939 -0.000001 -0.004173 0.000000
# 2 -0.013480 0.030007 -0.004127 -0.000002 -0.000309 0.000001
# 3 -0.003939 -0.004127 0.018172 0.000000 0.008815 0.000000
# 4 -0.000001 -0.000002 0.000000 0.053013 0.000003 -0.004737
# 5 -0.004173 -0.000309 0.008815 0.000003 0.055686 -0.000001
# 6 0.000000 0.000001 0.000000 -0.004737 -0.000001 0.033603
#
#
# Mechanical properties :
#
#
# Convention : Reuss Voigt Hill
#
# Bulk Modulus (GPa) = 35.34920 36.43695 35.89308
# Shear Modulus (GPa) = 18.78246 21.26648 20.02447
#
# Velocity S-wave (km/s) = 3.03386 3.22825 3.13256
# Velocity P-wave (km/s) = 5.44015 5.63483 5.53835
#
# Compressibility (1/GPa) = 0.02828918
#
# Stress axis : x y z
#
# Youngs Moduli (GPa) = 43.09889 33.32567 55.02961
#
# Poissons Ratio (x) = 0.44922 0.21677
# Poissons Ratio (y) = 0.58096 0.22712
# Poissons Ratio (z) = 0.16977 0.13754
#
# Static dielectric constant tensor:
#      x y z
#    x 1.722600 0.000000 -0.011600 
#    y 0.000000 1.733430 0.000000 
#    z -0.011600 0.000000 1.804970 
# 
# From -- ./inp_files/11833.got.cif
#   From: 2010.05.17/outbox.cif.g08.bks.cpg/sg9_6_cif.got.tgz:11833.got - 2010.06.03 20:04:27.
