data_PCOD9133137
_publ_section_title
;
Structure prediction by ZEFSAII (Michael W. Deem and Ramdas Pophale) SiO2 
 PCOD9133137
Probable space group: C M
;
_chemical_formula_sum "Si O2"
_cell_formula_units_Z 32
_cell_length_a 8.629429
_cell_length_b 13.186302
_cell_length_c 20.652101
_cell_angle_alpha 90.000000
_cell_angle_beta 140.801572
_cell_angle_gamma 90.000000
_cell_volume 1485.223874
_symmetry_space_group_name_H-M "C M"
_symmetry_group_IT_number 8
_symmetry_cell_setting 'monoclinic'
loop_
_space_group_symop_operation_xyz
x,y,z
x,-y,z
1/2+x,1/2+y,z
1/2+x,1/2-y,z
loop_
_atom_site_type_symbol
_atom_site_label
_atom_site_fract_x
_atom_site_fract_y
_atom_site_fract_z
Si Si1 0.478880 0.882269 0.261470
Si Si2 0.779007 0.384971 0.659362
Si Si3 0.741965 0.196248 0.469908
Si Si4 0.039961 0.310219 0.866996
Si Si5 0.070006 0.292436 0.156060
Si Si6 0.029781 0.706422 0.004660
Si Si7 0.743787 0.117872 0.728309
Si Si8 0.480316 0.117144 0.511798
O O1 0.662033 0.863952 0.380333
O O2 0.261169 0.800347 0.206644
O O3 0.606440 0.853987 0.234169
O O4 0.396859 0.000000 0.233368
O O5 0.723361 0.500000 0.624370
O O6 0.524746 0.327777 0.576430
O O7 0.909140 0.376846 0.770807
O O8 0.984291 0.348893 0.675595
O O9 0.577182 0.162880 0.476278
O O10 0.748898 0.316077 0.458682
O O11 0.968833 0.344645 0.916144
O O12 0.330541 0.296554 0.950139
O O13 0.939652 0.196020 0.819764
O O14 0.052446 0.349712 0.080969
O O15 0.797909 0.249519 0.077992
O O16 0.696135 0.121829 0.635989
O O17 0.789561 0.000000 0.760918
O O18 0.416406 0.000000 0.483552
#
# Coordination Sequence:
#
# PCOD9133137 Si02
#       8
#     4   4   4   4   4   4   4   4
#     4  11  23  44  72  97 130 173 218 275 340 398
#     4  11  23  38  58  89 130 174 222 264 316 391
#     4  12  24  41  66  98 134 179 219 271 325 389
#     4  11  19  37  59  91 122 173 205 262 331 388
#     4   9  21  45  65  96 125 162 216 281 342 388
#     4   9  20  38  66  88 126 164 209 273 338 393
#     4  10  22  38  56  84 125 173 219 260 311 378
#     4  11  24  41  62  93 134 182 222 264 317 375
#
# _framework density 21.545573999999998
#
# number of rings (size 3 to 8) (size 9 to 14) (size 15 to 20)
#    0.000    1.500    2.500    2.625    1.750    0.000 
#    0.000   19.375    0.000    0.000    0.000    0.000 
#    0.000    0.000    0.000    0.000    0.000    0.000 
#
# Total GULP energy -89286.759318 kJ/mol
# GULP energy per Si atom -5580.422457 kJ/mol
# Density = 2.149654 g / cm^3
# Si number density = 21.545574 Si / 1000 Ang^3
#
#
#
# Elastic Constant Matrix: (Units=GPa)
#
#
# Indices 1 2 3 4 5 6 
#
# 1 116.5338 33.0895 43.0133 0.0000 -37.7136 0.0000
# 2 33.0895 96.1888 18.3090 0.0000 2.5469 0.0000
# 3 43.0133 18.3090 73.3667 0.0000 -27.9855 0.0000
# 4 0.0000 0.0000 0.0000 3.6397 0.0000 3.3791
# 5 -37.7136 2.5469 -27.9855 0.0000 49.3544 0.0000
# 6 0.0000 0.0000 0.0000 3.3791 0.0000 19.2859
#
#
#
# Elastic Compliance Matrix: (Units=1/GPa)
#
#
# Indices 1 2 3 4 5 6 
#
# 1 0.014076 -0.004353 -0.003799 0.000000 0.008826 0.000000
# 2 -0.004353 0.012548 -0.002673 0.000000 -0.005490 0.000000
# 3 -0.003799 -0.002673 0.019740 0.000000 0.008428 0.000000
# 4 0.000000 0.000000 0.000000 0.328123 0.000000 -0.057490
# 5 0.008826 -0.005490 0.008428 0.000000 0.032068 0.000000
# 6 0.000000 0.000000 0.000000 -0.057490 0.000000 0.061924
#
#
# Mechanical properties :
#
#
# Convention : Reuss Voigt Hill
#
# Bulk Modulus (GPa) = 40.46596 52.76809 46.61702
# Shear Modulus (GPa) = 10.03276 27.23449 18.63363
#
# Velocity S-wave (km/s) = 2.16024 3.55919 2.94402
# Velocity P-wave (km/s) = 5.00445 6.43700 5.76539
#
# Compressibility (1/GPa) = 0.02471213
#
# Stress axis : x y z
#
# Youngs Moduli (GPa) = 71.04323 79.69524 50.65966
#
# Poissons Ratio (x) = 0.34689 0.19248
# Poissons Ratio (y) = 0.30923 0.13544
# Poissons Ratio (z) = 0.26993 0.21306
#
# Static dielectric constant tensor:
#      x y z
#    x 1.811270 0.000000 -0.035010 
#    y 0.000000 1.795380 0.000000 
#    z -0.035010 0.000000 1.847110 
# 
# From -- ./inp_files/30384.got.cif
#   From: 2010.05.17/outbox.cif.g08.bks.cpg/sg8_16_cif.got.tgz:30384.got - 2010.06.03 19:46:02.
