data_PCOD9133315
_publ_section_title
;
Structure prediction by ZEFSAII (Michael W. Deem and Ramdas Pophale) SiO2 
 PCOD9133315
Probable space group: C M
;
_chemical_formula_sum "Si O2"
_cell_formula_units_Z 30
_cell_length_a 9.065248
_cell_length_b 32.973035
_cell_length_c 4.970691
_cell_angle_alpha 90.000000
_cell_angle_beta 122.005395
_cell_angle_gamma 90.000000
_cell_volume 1259.941287
_symmetry_space_group_name_H-M "C M"
_symmetry_group_IT_number 8
_symmetry_cell_setting 'monoclinic'
loop_
_space_group_symop_operation_xyz
x,y,z
x,-y,z
1/2+x,1/2+y,z
1/2+x,1/2-y,z
loop_
_atom_site_type_symbol
_atom_site_label
_atom_site_fract_x
_atom_site_fract_y
_atom_site_fract_z
Si Si1 0.040861 0.000000 0.462350
Si Si2 0.407915 0.567815 0.628435
Si Si3 0.709611 0.435496 0.292805
Si Si4 0.594414 0.638128 0.515295
Si Si5 0.495114 0.147650 0.022995
Si Si6 0.969690 0.271908 0.692735
Si Si7 0.570125 0.722549 0.282325
Si Si8 0.574890 0.097136 0.591138
O O1 0.185094 0.035515 0.521339
O O2 0.893773 0.035948 0.375918
O O3 0.471672 0.611170 0.582317
O O4 0.245730 0.574026 0.663724
O O5 0.569158 0.547615 0.947508
O O6 0.643455 0.390849 0.312953
O O7 0.903310 0.430004 0.376470
O O8 0.508367 0.679578 0.337411
O O9 0.783438 0.647001 0.828751
O O10 0.561529 0.112526 0.884317
O O11 0.545667 0.189778 0.929705
O O12 0.559689 0.136522 0.381128
O O13 0.974890 0.236711 0.922418
O O14 0.056893 0.255447 0.507625
O O15 0.773989 0.282696 0.417810
#
# Coordination Sequence:
#
# PCOD9133315 Si02
#       8
#     2   4   4   4   4   4   4   4
#     4  10  24  44  66  98 136 166 212 262 336 386
#     4  11  23  42  68  98 126 173 214 274 316 399
#     4  10  22  45  65  94 132 173 207 274 324 396
#     4   9  22  40  66  87 132 174 222 264 338 380
#     4  10  22  44  62  93 132 179 216 277 321 393
#     4  11  24  41  63  92 137 174 224 277 337 383
#     4  11  24  41  62  94 132 179 221 279 331 395
#     4  11  24  40  72  98 130 173 228 260 327 384
#
# _framework density 23.810631999999998
#
# number of rings (size 3 to 8) (size 9 to 14) (size 15 to 20)
#    0.000    1.600    1.333    2.000    5.600    5.867 
#    0.000    1.333    0.000    0.000    0.000    0.000 
#    0.000    0.000    0.000    0.000    0.000    0.000 
#
# Total GULP energy -83644.452113 kJ/mol
# GULP energy per Si atom -5576.296808 kJ/mol
# Density = 2.375644 g / cm^3
# Si number density = 23.810632 Si / 1000 Ang^3
#
#
#
# Elastic Constant Matrix: (Units=GPa)
#
#
# Indices 1 2 3 4 5 6 
#
# 1 141.4615 21.7863 4.6242 0.0000 -0.3309 0.0000
# 2 21.7863 79.2350 -5.2428 0.0000 10.0220 0.0000
# 3 4.6242 -5.2428 58.2861 0.0000 -12.3416 0.0000
# 4 0.0000 0.0000 0.0000 64.5917 0.0000 -1.2276
# 5 -0.3309 10.0220 -12.3416 0.0000 20.9416 0.0000
# 6 0.0000 0.0000 0.0000 -1.2276 0.0000 114.3426
#
#
#
# Elastic Compliance Matrix: (Units=1/GPa)
#
#
# Indices 1 2 3 4 5 6 
#
# 1 0.007427 -0.002184 -0.000616 0.000000 0.000799 0.000000
# 2 -0.002184 0.014078 0.000007 0.000000 -0.006768 0.000000
# 3 -0.000616 0.000007 0.019656 0.000000 0.011571 0.000000
# 4 0.000000 0.000000 0.000000 0.015485 0.000000 0.000166
# 5 0.000799 -0.006768 0.011571 0.000000 0.057823 0.000000
# 6 0.000000 0.000000 0.000000 0.000166 0.000000 0.008747
#
#
# Mechanical properties :
#
#
# Convention : Reuss Voigt Hill
#
# Bulk Modulus (GPa) = 28.11094 35.70201 31.90647
# Shear Modulus (GPa) = 35.54608 57.16284 46.35446
#
# Velocity S-wave (km/s) = 3.86795 4.90504 4.41704
# Velocity P-wave (km/s) = 5.63735 6.86337 6.28035
#
# Compressibility (1/GPa) = 0.03557334
#
# Stress axis : x y z
#
# Youngs Moduli (GPa) = 134.63561 71.03443 50.87411
#
# Poissons Ratio (x) = 0.15515 0.03136
# Poissons Ratio (y) = 0.29406 -0.00033
# Poissons Ratio (z) = 0.08300 -0.00046
#
# Static dielectric constant tensor:
#      x y z
#    x 1.898270 0.000000 -0.027980 
#    y 0.000000 1.914370 0.000000 
#    z -0.027980 0.000000 2.040590 
# 
# From -- ./inp_files/2015.got.cif
#   From: 2010.05.17/outbox.cif.g08.bks.cpg/sg8_2_cif.got.tgz:2015.got - 2010.06.03 19:46:02.
