data_PCOD9133953
_publ_section_title
;
Structure prediction by ZEFSAII (Michael W. Deem and Ramdas Pophale) SiO2 
 PCOD9133953
Probable space group: C C
;
_chemical_formula_sum "Si O2"
_cell_formula_units_Z 32
_cell_length_a 14.851813
_cell_length_b 20.301825
_cell_length_c 14.888602
_cell_angle_alpha 90.000000
_cell_angle_beta 20.074706
_cell_angle_gamma 90.000000
_cell_volume 1540.894128
_symmetry_space_group_name_H-M "C C"
_symmetry_group_IT_number 9
_symmetry_cell_setting 'monoclinic'
loop_
_space_group_symop_operation_xyz
x,y,z
x,-y,1/2+z
1/2+x,1/2+y,z
1/2+x,1/2-y,1/2+z
loop_
_atom_site_type_symbol
_atom_site_label
_atom_site_fract_x
_atom_site_fract_y
_atom_site_fract_z
Si Si1 0.982280 0.836162 0.016790
Si Si2 0.508910 0.911003 0.243855
Si Si3 0.112862 0.911269 0.051546
Si Si4 0.367122 0.284980 0.940460
Si Si5 0.951779 0.586491 0.993872
Si Si6 0.539359 0.063944 0.436040
Si Si7 0.169623 0.560740 0.104474
Si Si8 0.093895 0.940058 0.484389
O O1 0.725495 0.877742 0.238909
O O2 0.014393 0.844285 0.093742
O O3 0.944101 0.781456 0.975517
O O4 0.242630 0.874210 0.745008
O O5 0.356534 0.914242 0.481258
O O6 0.286879 0.908828 0.376900
O O7 0.652815 0.981657 0.106081
O O8 0.721548 0.852511 0.049713
O O9 0.939058 0.918451 0.304551
O O10 0.420097 0.909314 0.785998
O O11 0.078904 0.980910 0.025968
O O12 0.640642 0.269182 0.636478
O O13 0.011873 0.514535 0.970960
O O14 0.616927 0.075830 0.259275
O O15 0.251900 0.080573 0.744818
O O16 0.793221 0.083620 0.257415
#
# Coordination Sequence:
#
# PCOD9133953 Si02
#       8
#     4   4   4   4   4   4   4   4
#     4  11  20  33  56  74 103 143 183 230 276 319
#     4   9  22  35  53  76 106 149 188 226 276 325
#     4  11  19  33  50  77 106 141 187 219 265 344
#     4  11  24  40  56  79 110 149 198 240 272 320
#     4  10  18  32  49  71 103 142 178 215 269 325
#     4  11  19  32  46  74 108 142 173 218 264 326
#     4  10  22  32  51  77 113 144 179 217 274 342
#     4  11  20  31  51  74 107 138 188 221 264 335
#
# _framework density 20.767164000000001
#
# number of rings (size 3 to 8) (size 9 to 14) (size 15 to 20)
#    0.000    1.500    2.500    4.500    0.000   13.000 
#    0.000    0.000    0.000    0.000    0.000    0.000 
#    0.000   20.000    0.000    0.000    0.000    0.000 
#
# Total GULP energy -89097.233879 kJ/mol
# GULP energy per Si atom -5568.577117 kJ/mol
# Density = 2.071990 g / cm^3
# Si number density = 20.767164 Si / 1000 Ang^3
#
#
#
# Elastic Constant Matrix: (Units=GPa)
#
#
# Indices 1 2 3 4 5 6 
#
# 1 73.6551 10.0065 16.4495 0.0668 -9.0930 -0.0322
# 2 10.0065 13.4199 1.3591 0.3038 -10.4674 -0.1161
# 3 16.4495 1.3591 115.3639 0.0882 4.3290 -0.0482
# 4 0.0668 0.3038 0.0882 12.4987 -0.0568 -3.7027
# 5 -9.0930 -10.4674 4.3290 -0.0568 36.1856 0.0385
# 6 -0.0322 -0.1161 -0.0482 -3.7027 0.0385 24.7457
#
#
#
# Elastic Compliance Matrix: (Units=1/GPa)
#
#
# Indices 1 2 3 4 5 6 
#
# 1 0.015630 -0.010560 -0.002147 0.000192 0.001130 -0.000007
# 2 -0.010560 0.103977 -0.000750 -0.002316 0.027510 0.000083
# 3 -0.002147 -0.000750 0.009052 -0.000040 -0.001839 0.000008
# 4 0.000192 -0.002316 -0.000040 0.083772 -0.000499 0.012525
# 5 0.001130 0.027510 -0.001839 -0.000499 0.036096 -0.000004
# 6 -0.000007 0.000083 0.000008 0.012525 -0.000004 0.042286
#
#
# Mechanical properties :
#
#
# Convention : Reuss Voigt Hill
#
# Bulk Modulus (GPa) = 9.82840 28.67435 19.25138
# Shear Modulus (GPa) = 14.21902 26.32759 20.27331
#
# Velocity S-wave (km/s) = 2.61949 3.56441 3.12784
# Velocity P-wave (km/s) = 3.72719 5.54775 4.72596
#
# Compressibility (1/GPa) = 0.10174593
#
# Stress axis : x y z
#
# Youngs Moduli (GPa) = 63.97849 9.61752 110.47015
#
# Poissons Ratio (x) = 0.10156 0.23716
# Poissons Ratio (y) = 0.67563 0.08282
# Poissons Ratio (z) = 0.13735 0.00721
#
# Static dielectric constant tensor:
#      x y z
#    x 1.847130 -0.000060 0.081600 
#    y -0.000060 1.773500 0.000120 
#    z 0.081600 0.000120 1.772960 
# 
# From -- ./inp_files/26145.got.cif
#   From: 2010.05.17/outbox.cif.g08.bks.cpg/sg9_14_cif.got.tgz:26145.got - 2010.06.03 20:04:27.
