data_PCOD9133007
_publ_section_title
;
Structure prediction by ZEFSAII (Michael W. Deem and Ramdas Pophale) SiO2 
 PCOD9133007
Probable space group: C M
;
_chemical_formula_sum "Si O2"
_cell_formula_units_Z 24
_cell_length_a 15.331305
_cell_length_b 8.747634
_cell_length_c 10.355833
_cell_angle_alpha 90.000000
_cell_angle_beta 111.862665
_cell_angle_gamma 90.000000
_cell_volume 1288.960948
_symmetry_space_group_name_H-M "C M"
_symmetry_group_IT_number 8
_symmetry_cell_setting 'monoclinic'
loop_
_space_group_symop_operation_xyz
x,y,z
x,-y,z
1/2+x,1/2+y,z
1/2+x,1/2-y,z
loop_
_atom_site_type_symbol
_atom_site_label
_atom_site_fract_x
_atom_site_fract_y
_atom_site_fract_z
Si Si1 0.946800 0.818305 0.272320
Si Si2 0.166693 0.818059 0.745368
Si Si3 0.340219 0.817080 0.460023
Si Si4 0.646624 0.181926 0.448909
Si Si5 0.485787 0.816873 0.771559
Si Si6 0.373060 0.816517 0.966888
O O1 0.889300 0.742449 0.357870
O O2 0.053245 0.757720 0.339908
O O3 0.945547 0.000000 0.286667
O O4 0.902055 0.768604 0.112260
O O5 0.154582 0.732948 0.602619
O O6 0.267142 0.780652 0.863485
O O7 0.081216 0.769299 0.789817
O O8 0.164585 0.000000 0.719655
O O9 0.240018 0.740007 0.429280
O O10 0.408764 0.781604 0.618627
O O11 0.329029 0.000000 0.448933
O O12 0.638769 0.000000 0.436665
O O13 0.442102 0.778258 0.886118
O O14 0.502076 0.000000 0.776225
O O15 0.378355 0.000000 0.990711
#
# Coordination Sequence:
#
# PCOD9133007 Si02
#       6
#     4   4   4   4   4   4
#     4  12  26  43  64  95 131 170 213 262 318 378
#     4  11  22  39  65  95 127 165 212 261 313 377
#     4  11  22  41  67  96 127 166 212 263 317 376
#     4  12  24  40  65  95 128 169 214 263 315 374
#     4  10  21  39  65  94 125 165 210 259 315 375
#     4  10  23  44  64  89 130 171 207 260 322 374
#
# _framework density 18.61965
#
# number of rings (size 3 to 8) (size 9 to 14) (size 15 to 20)
#    0.000    1.000    3.333    4.000    0.000    4.000 
#    0.000    3.333    0.000    0.000    0.000    0.000 
#    0.000    0.000    0.000    0.000    0.000    0.000 
#
# Total GULP energy -67134.125248 kJ/mol
# GULP energy per Si atom -5594.510437 kJ/mol
# Density = 1.857727 g / cm^3
# Si number density = 18.619650 Si / 1000 Ang^3
#
#
#
# Elastic Constant Matrix: (Units=GPa)
#
#
# Indices 1 2 3 4 5 6 
#
# 1 82.5266 6.4241 -2.5121 0.0000 -2.1400 0.0000
# 2 6.4241 42.8740 20.7116 0.0000 4.1712 0.0000
# 3 -2.5121 20.7116 69.4399 0.0000 -2.7147 0.0000
# 4 0.0000 0.0000 0.0000 26.0051 0.0000 -1.0644
# 5 -2.1400 4.1712 -2.7147 0.0000 28.7871 0.0000
# 6 0.0000 0.0000 0.0000 -1.0644 0.0000 38.0748
#
#
#
# Elastic Compliance Matrix: (Units=1/GPa)
#
#
# Indices 1 2 3 4 5 6 
#
# 1 0.012397 -0.002616 0.001284 0.000000 0.001422 0.000000
# 2 -0.002616 0.028461 -0.008785 0.000000 -0.005147 0.000000
# 3 0.001284 -0.008785 0.017184 0.000000 0.002989 0.000000
# 4 0.000000 0.000000 0.000000 0.038498 0.000000 0.001076
# 5 0.001422 -0.005147 0.002989 0.000000 0.035871 0.000000
# 6 0.000000 0.000000 0.000000 0.001076 0.000000 0.026294
#
#
# Mechanical properties :
#
#
# Convention : Reuss Voigt Hill
#
# Bulk Modulus (GPa) = 26.44889 27.12086 26.78487
# Shear Modulus (GPa) = 26.10401 29.92119 28.01260
#
# Velocity S-wave (km/s) = 3.74834 4.01305 3.88295
# Velocity P-wave (km/s) = 5.74187 6.00584 5.87534
#
# Compressibility (1/GPa) = 0.03780877
#
# Stress axis : x y z
#
# Youngs Moduli (GPa) = 80.66510 35.13630 58.19215
#
# Poissons Ratio (x) = 0.09193 -0.07474
# Poissons Ratio (y) = 0.21105 0.51120
# Poissons Ratio (z) = -0.10361 0.30866
#
# Static dielectric constant tensor:
#      x y z
#    x 1.618180 0.000000 -0.001440 
#    y 0.000000 1.623350 0.000000 
#    z -0.001440 0.000000 1.609430 
# 
# From -- ./inp_files/12136.got.cif
#   From: 2010.05.17/outbox.cif.g08.bks.cpg/sg8_7_cif.got.tgz:12136.got - 2010.06.03 19:46:02.
