data_PCOD9133577
_publ_section_title
;
Structure prediction by ZEFSAII (Michael W. Deem and Ramdas Pophale) SiO2 
 PCOD9133577
Probable space group: C M
;
_chemical_formula_sum "Si O2"
_cell_formula_units_Z 22
_cell_length_a 13.327608
_cell_length_b 11.656599
_cell_length_c 16.913158
_cell_angle_alpha 90.000000
_cell_angle_beta 157.753654
_cell_angle_gamma 90.000000
_cell_volume 994.758004
_symmetry_space_group_name_H-M "C M"
_symmetry_group_IT_number 8
_symmetry_cell_setting 'monoclinic'
loop_
_space_group_symop_operation_xyz
x,y,z
x,-y,z
1/2+x,1/2+y,z
1/2+x,1/2-y,z
loop_
_atom_site_type_symbol
_atom_site_label
_atom_site_fract_x
_atom_site_fract_y
_atom_site_fract_z
Si Si1 0.685150 0.276778 0.084990
Si Si2 0.948184 0.000000 0.582752
Si Si3 0.509980 0.865406 0.812901
Si Si4 0.103644 0.747350 0.710392
Si Si5 0.391378 0.000000 0.150487
Si Si6 0.810464 0.000000 0.655002
Si Si7 0.000794 0.731344 0.473038
O O1 0.837240 0.384953 0.160612
O O2 0.804497 0.248633 0.257572
O O3 0.680199 0.183637 0.010661
O O4 0.380181 0.305102 0.882943
O O5 0.694490 0.000000 0.337476
O O6 0.117840 0.114873 0.715365
O O7 0.779335 0.000000 0.539429
O O8 0.548081 0.798174 0.757433
O O9 0.210028 0.835270 0.619286
O O10 0.552328 0.000000 0.832433
O O11 0.897763 0.721747 0.488317
O O12 0.126877 0.000000 0.901739
O O13 0.664446 0.886038 0.578122
#
# Coordination Sequence:
#
# PCOD9133577 Si02
#       7
#     4   2   4   4   2   2   4
#     4  11  24  43  71 101 136 184 228 283 349 407
#     4  12  24  44  70 104 132 176 242 287 340 407
#     4  11  25  44  65  96 145 181 221 280 349 413
#     4  11  25  42  69 103 138 172 234 287 339 403
#     4  12  20  42  78  93 130 189 231 277 343 404
#     4  12  20  44  72  95 130 185 233 284 335 409
#     4  11  24  44  69  98 139 180 230 287 344 407
#
# _framework density 22.115931
#
# number of rings (size 3 to 8) (size 9 to 14) (size 15 to 20)
#    0.000    0.727    7.273    0.000    7.636    5.091 
#    0.000    0.000    0.000    0.000    0.000    0.000 
#    0.000    0.000    0.000    0.000    0.000    0.000 
#
# Total GULP energy -61325.292112 kJ/mol
# GULP energy per Si atom -5575.026556 kJ/mol
# Density = 2.206559 g / cm^3
# Si number density = 22.115931 Si / 1000 Ang^3
#
#
#
# Elastic Constant Matrix: (Units=GPa)
#
#
# Indices 1 2 3 4 5 6 
#
# 1 120.2631 24.9550 33.2913 -0.0016 -43.5552 0.0174
# 2 24.9550 76.9051 6.8406 0.0265 -28.9122 0.0673
# 3 33.2913 6.8406 111.2620 0.0107 -47.9017 0.0673
# 4 -0.0016 0.0265 0.0107 27.9332 0.0020 -1.7534
# 5 -43.5552 -28.9122 -47.9017 0.0020 49.6763 0.0215
# 6 0.0174 0.0673 0.0673 -1.7534 0.0215 90.2037
#
#
#
# Elastic Compliance Matrix: (Units=1/GPa)
#
#
# Indices 1 2 3 4 5 6 
#
# 1 0.012389 0.000747 0.001899 -0.000002 0.013128 -0.000008
# 2 0.000747 0.018815 0.006183 -0.000023 0.017568 -0.000023
# 3 0.001899 0.006183 0.017621 -0.000016 0.022256 -0.000024
# 4 -0.000002 -0.000023 -0.000016 0.035843 -0.000032 0.000697
# 5 0.013128 0.017568 0.022256 -0.000032 0.063326 -0.000048
# 6 -0.000008 -0.000023 -0.000024 0.000697 -0.000048 0.011100
#
#
# Mechanical properties :
#
#
# Convention : Reuss Voigt Hill
#
# Bulk Modulus (GPa) = 15.04129 48.73377 31.88753
# Shear Modulus (GPa) = 30.56274 49.78553 40.17413
#
# Velocity S-wave (km/s) = 3.72147 4.74974 4.26669
# Velocity P-wave (km/s) = 5.02809 7.22243 6.22275
#
# Compressibility (1/GPa) = 0.06648367
#
# Stress axis : x y z
#
# Youngs Moduli (GPa) = 80.71595 53.14816 56.75024
#
# Poissons Ratio (x) = -0.03968 -0.10779
# Poissons Ratio (y) = -0.06026 -0.35090
# Poissons Ratio (z) = -0.15330 -0.32863
#
# Static dielectric constant tensor:
#      x y z
#    x 1.838690 0.000000 -0.056000 
#    y 0.000000 1.789860 -0.000050 
#    z -0.056000 -0.000050 1.908470 
# 
# From -- ./inp_files/22022.got.cif
#   From: 2010.05.17/outbox.cif.g08.bks.cpg/sg8_12_cif.got.tgz:22022.got - 2010.06.03 19:46:02.
