data_PCOD9133931
_publ_section_title
;
Structure prediction by ZEFSAII (Michael W. Deem and Ramdas Pophale) SiO2 
 PCOD9133931
Probable space group: C C
;
_chemical_formula_sum "Si O2"
_cell_formula_units_Z 32
_cell_length_a 11.412218
_cell_length_b 21.153883
_cell_length_c 7.429817
_cell_angle_alpha 90.000000
_cell_angle_beta 97.468540
_cell_angle_gamma 90.000000
_cell_volume 1778.435701
_symmetry_space_group_name_H-M "C C"
_symmetry_group_IT_number 9
_symmetry_cell_setting 'monoclinic'
loop_
_space_group_symop_operation_xyz
x,y,z
x,-y,1/2+z
1/2+x,1/2+y,z
1/2+x,1/2-y,1/2+z
loop_
_atom_site_type_symbol
_atom_site_label
_atom_site_fract_x
_atom_site_fract_y
_atom_site_fract_z
Si Si1 0.108280 0.740474 0.572980
Si Si2 0.500481 0.237587 0.179974
Si Si3 0.724397 0.306728 0.046517
Si Si4 0.801603 0.195733 0.830532
Si Si5 0.569800 0.419086 0.978149
Si Si6 0.614884 0.564210 0.902913
Si Si7 0.456133 0.643186 0.146740
Si Si8 0.305277 0.164177 0.946753
O O1 0.048485 0.713973 0.381759
O O2 0.177538 0.688707 0.703945
O O3 0.208728 0.788468 0.516513
O O4 0.017546 0.787104 0.659029
O O5 0.609971 0.267249 0.093382
O O6 0.410615 0.295217 0.214750
O O7 0.428127 0.184107 0.060303
O O8 0.804443 0.319966 0.235132
O O9 0.788295 0.265171 0.913623
O O10 0.676507 0.371384 0.954458
O O11 0.836889 0.152116 0.006254
O O12 0.601871 0.489602 0.925037
O O13 0.566145 0.581202 0.694175
O O14 0.460681 0.389415 0.843004
O O15 0.745700 0.594835 0.948637
O O16 0.536679 0.598544 0.037765
#
# Coordination Sequence:
#
# PCOD9133931 Si02
#       8
#     4   4   4   4   4   4   4   4
#     4   8  15  30  45  69  99 132 163 208 253 298
#     4   9  18  31  48  70 110 137 167 210 258 312
#     4  10  20  30  48  77 105 136 167 213 253 315
#     4  10  18  30  49  71 107 135 173 203 263 314
#     4  11  19  32  51  72 111 131 165 214 263 302
#     4  10  20  33  50  75 107 133 169 214 256 308
#     4  10  19  32  48  73 107 135 167 211 256 316
#     4   8  17  30  45  69 102 135 165 203 256 305
#
# _framework density 17.99334
#
# number of rings (size 3 to 8) (size 9 to 14) (size 15 to 20)
#    0.000    2.500    2.500    2.250    1.750    0.000 
#    2.250    0.000    0.000    0.000    0.000    0.000 
#   41.250    0.000    0.000    0.000    0.000    0.000 
#
# Total GULP energy -89117.045569 kJ/mol
# GULP energy per Si atom -5569.815348 kJ/mol
# Density = 1.795239 g / cm^3
# Si number density = 17.993340 Si / 1000 Ang^3
#
#
#
# Elastic Constant Matrix: (Units=GPa)
#
#
# Indices 1 2 3 4 5 6 
#
# 1 51.1521 24.2110 28.8429 0.0000 20.9602 0.0000
# 2 24.2110 67.4916 36.3383 0.0000 18.1945 0.0000
# 3 28.8429 36.3383 109.1632 0.0000 36.2474 0.0000
# 4 0.0000 0.0000 0.0000 24.7288 0.0000 3.0663
# 5 20.9602 18.1945 36.2474 0.0000 40.8674 0.0000
# 6 0.0000 0.0000 0.0000 3.0663 0.0000 13.8488
#
#
#
# Elastic Compliance Matrix: (Units=1/GPa)
#
#
# Indices 1 2 3 4 5 6 
#
# 1 0.027556 -0.006210 -0.002039 0.000000 -0.009559 0.000000
# 2 -0.006210 0.019886 -0.004389 0.000000 -0.001775 0.000000
# 3 -0.002039 -0.004389 0.014408 0.000000 -0.009779 0.000000
# 4 0.000000 0.000000 0.000000 0.041580 0.000000 -0.009206
# 5 -0.009559 -0.001775 -0.009779 0.000000 0.038836 0.000000
# 6 0.000000 0.000000 0.000000 -0.009206 0.000000 0.074247
#
#
# Mechanical properties :
#
#
# Convention : Reuss Voigt Hill
#
# Bulk Modulus (GPa) = 27.34333 45.17684 36.26009
# Shear Modulus (GPa) = 19.68654 25.11665 22.40159
#
# Velocity S-wave (km/s) = 3.31131 3.74021 3.53227
# Velocity P-wave (km/s) = 5.46343 6.61923 6.06891
#
# Compressibility (1/GPa) = 0.03657198
#
# Stress axis : x y z
#
# Youngs Moduli (GPa) = 36.28997 50.28593 69.40783
#
# Poissons Ratio (x) = 0.31227 0.14155
# Poissons Ratio (y) = 0.22536 0.30467
# Poissons Ratio (z) = 0.07401 0.22073
#
# Static dielectric constant tensor:
#      x y z
#    x 1.650580 0.000000 0.038270 
#    y 0.000000 1.600930 0.000000 
#    z 0.038270 0.000000 1.705770 
# 
# From -- ./inp_files/8183.got.cif
#   From: 2010.05.17/outbox.cif.g08.bks.cpg/sg9_5_cif.got.tgz:8183.got - 2010.06.03 20:04:27.
