data_PCOD9133181
_publ_section_title
;
Structure prediction by ZEFSAII (Michael W. Deem and Ramdas Pophale) SiO2 
 PCOD9133181
Probable space group: C M
;
_chemical_formula_sum "Si O2"
_cell_formula_units_Z 32
_cell_length_a 9.250538
_cell_length_b 23.150217
_cell_length_c 15.967492
_cell_angle_alpha 90.000000
_cell_angle_beta 152.961226
_cell_angle_gamma 90.000000
_cell_volume 1554.468274
_symmetry_space_group_name_H-M "C M"
_symmetry_group_IT_number 8
_symmetry_cell_setting 'monoclinic'
loop_
_space_group_symop_operation_xyz
x,y,z
x,-y,z
1/2+x,1/2+y,z
1/2+x,1/2-y,z
loop_
_atom_site_type_symbol
_atom_site_label
_atom_site_fract_x
_atom_site_fract_y
_atom_site_fract_z
Si Si1 0.358860 0.171807 0.908940
Si Si2 0.748606 0.137372 0.495307
Si Si3 0.986785 0.064511 0.489440
Si Si4 0.900708 0.356175 0.491092
Si Si5 0.324535 0.729182 0.398739
Si Si6 0.797448 0.762017 0.007135
Si Si7 0.980052 0.338332 0.714970
Si Si8 0.275134 0.569255 0.197213
O O1 0.600807 0.215653 0.986341
O O2 0.197966 0.205613 0.903197
O O3 0.090367 0.159375 0.702910
O O4 0.524508 0.112476 0.024165
O O5 0.555002 0.134090 0.480372
O O6 0.664692 0.181033 0.376095
O O7 0.787472 0.076573 0.469558
O O8 0.292647 0.105468 0.649593
O O9 0.774222 0.076936 0.297587
O O10 0.098507 0.000000 0.539421
O O11 0.801715 0.289352 0.434878
O O12 0.083881 0.355216 0.674594
O O13 0.616763 0.402409 0.351423
O O14 0.686058 0.708527 0.566025
O O15 0.138424 0.742200 0.217334
O O16 0.749550 0.813905 0.915409
O O17 0.248060 0.500000 0.164825
#
# Coordination Sequence:
#
# PCOD9133181 Si02
#       8
#     4   4   4   4   4   4   4   4
#     4  12  24  41  59 100 131 173 216 272 332 395
#     4  11  24  37  62  98 128 168 215 278 335 379
#     4   9  19  41  65  86 122 172 221 263 321 394
#     4  11  21  37  63  90 124 165 210 271 325 383
#     4  11  21  38  59  88 131 169 212 259 332 400
#     4  12  24  37  61  92 130 169 215 266 333 393
#     4  10  22  40  57  93 128 167 214 266 331 391
#     4  10  23  45  68  91 128 177 227 269 321 397
#
# _framework density 20.585816999999999
#
# number of rings (size 3 to 8) (size 9 to 14) (size 15 to 20)
#    0.000    1.250    3.750    4.500    3.500    1.000 
#    0.000    0.000    0.000    0.000    0.000    0.000 
#    0.000    0.000    0.000    0.000    0.000    0.000 
#
# Total GULP energy -89180.032308 kJ/mol
# GULP energy per Si atom -5573.752019 kJ/mol
# Density = 2.053896 g / cm^3
# Si number density = 20.585817 Si / 1000 Ang^3
#
#
#
# Elastic Constant Matrix: (Units=GPa)
#
#
# Indices 1 2 3 4 5 6 
#
# 1 120.4342 37.9674 19.2505 0.0055 -15.7079 0.0060
# 2 37.9674 115.9273 35.5239 -0.0099 -11.1102 -0.0071
# 3 19.2505 35.5239 62.3125 0.0096 -14.3344 0.0115
# 4 0.0055 -0.0099 0.0096 28.3103 0.0000 -5.9877
# 5 -15.7079 -11.1102 -14.3344 0.0000 23.4328 0.0006
# 6 0.0060 -0.0071 0.0115 -5.9877 0.0006 22.0099
#
#
#
# Elastic Compliance Matrix: (Units=1/GPa)
#
#
# Indices 1 2 3 4 5 6 
#
# 1 0.009860 -0.002624 -0.000368 -0.000004 0.005140 -0.000004
# 2 -0.002624 0.011197 -0.005535 0.000008 0.000164 0.000009
# 3 -0.000368 -0.005535 0.021712 -0.000013 0.010411 -0.000017
# 4 -0.000004 0.000008 -0.000013 0.037479 -0.000007 0.010196
# 5 0.005140 0.000164 0.010411 -0.000007 0.052567 -0.000010
# 6 -0.000004 0.000009 -0.000017 0.010196 -0.000010 0.048208
#
#
# Mechanical properties :
#
#
# Convention : Reuss Voigt Hill
#
# Bulk Modulus (GPa) = 38.88645 53.79528 46.34087
# Shear Modulus (GPa) = 24.19557 28.47941 26.33749
#
# Velocity S-wave (km/s) = 3.43206 3.72351 3.58075
# Velocity P-wave (km/s) = 5.88526 6.68393 6.29727
#
# Compressibility (1/GPa) = 0.02571590
#
# Stress axis : x y z
#
# Youngs Moduli (GPa) = 101.42318 89.30706 46.05697
#
# Poissons Ratio (x) = 0.23433 0.01693
# Poissons Ratio (y) = 0.26612 0.25493
# Poissons Ratio (z) = 0.03729 0.49433
#
# Static dielectric constant tensor:
#      x y z
#    x 1.818430 0.000000 -0.018800 
#    y 0.000000 1.729650 -0.000010 
#    z -0.018800 -0.000010 1.795060 
# 
# From -- ./inp_files/13840.got.cif
#   From: 2010.05.17/outbox.cif.g08.bks.cpg/sg8_7_cif.got.tgz:13840.got - 2010.06.03 19:46:02.
