data_PCOD9133171
_publ_section_title
;
Structure prediction by ZEFSAII (Michael W. Deem and Ramdas Pophale) SiO2 
 PCOD9133171
Probable space group: C M
;
_chemical_formula_sum "Si O2"
_cell_formula_units_Z 24
_cell_length_a 13.675258
_cell_length_b 12.925737
_cell_length_c 11.971234
_cell_angle_alpha 90.000000
_cell_angle_beta 31.895416
_cell_angle_gamma 90.000000
_cell_volume 1118.068088
_symmetry_space_group_name_H-M "C M"
_symmetry_group_IT_number 8
_symmetry_cell_setting 'monoclinic'
loop_
_space_group_symop_operation_xyz
x,y,z
x,-y,z
1/2+x,1/2+y,z
1/2+x,1/2-y,z
loop_
_atom_site_type_symbol
_atom_site_label
_atom_site_fract_x
_atom_site_fract_y
_atom_site_fract_z
Si Si1 0.984220 0.616205 0.912620
Si Si2 0.750554 0.307364 0.675453
Si Si3 0.460804 0.120669 0.671770
Si Si4 0.788379 0.736055 0.269628
Si Si5 0.523894 0.125461 0.230809
Si Si6 0.889084 0.116335 0.976712
O O1 0.040919 0.500000 0.883956
O O2 0.935539 0.625064 0.829277
O O3 0.158019 0.693616 0.767004
O O4 0.803301 0.645701 0.161350
O O5 0.784928 0.353463 0.764784
O O6 0.942351 0.328846 0.425763
O O7 0.603229 0.370342 0.742422
O O8 0.608954 0.210405 0.496452
O O9 0.517217 0.000000 0.592158
O O10 0.919688 0.689235 0.237090
O O11 0.870302 0.826017 0.112144
O O12 0.742833 0.149783 0.025291
O O13 0.496816 0.000000 0.247497
O O14 0.839227 0.000000 0.046535
#
# Coordination Sequence:
#
# PCOD9133171 Si02
#       6
#     4   4   4   4   4   4
#     4  10  24  44  66  96 137 178 223 277 339 402
#     4  11  22  41  71  96 130 173 229 277 333 400
#     4  11  22  43  72  99 134 180 228 278 331 408
#     4  11  22  39  65  95 134 173 217 277 336 390
#     4  11  22  40  64  95 133 172 222 281 332 397
#     4  10  22  39  64  95 126 170 225 274 329 395
#
# _framework density 21.465598
#
# number of rings (size 3 to 8) (size 9 to 14) (size 15 to 20)
#    0.000    1.333    3.333    2.500    0.000    5.333 
#    0.000    1.667    0.000    6.000    0.000    0.000 
#    0.000    0.000    0.000    0.000    0.000    0.000 
#
# Total GULP energy -66828.224309 kJ/mol
# GULP energy per Si atom -5569.018692 kJ/mol
# Density = 2.141674 g / cm^3
# Si number density = 21.465598 Si / 1000 Ang^3
#
#
#
# Elastic Constant Matrix: (Units=GPa)
#
#
# Indices 1 2 3 4 5 6 
#
# 1 127.7895 56.9517 35.8651 -0.0006 -12.5800 0.0003
# 2 56.9517 138.8979 13.9624 -0.0005 -9.7960 0.0004
# 3 35.8651 13.9624 43.4070 -0.0006 -5.9315 0.0006
# 4 -0.0006 -0.0005 -0.0006 25.8221 0.0004 -0.0436
# 5 -12.5800 -9.7960 -5.9315 0.0004 37.6761 -0.0002
# 6 0.0003 0.0004 0.0006 -0.0436 -0.0002 37.7326
#
#
#
# Elastic Compliance Matrix: (Units=1/GPa)
#
#
# Indices 1 2 3 4 5 6 
#
# 1 0.012177 -0.004016 -0.008540 0.000000 0.001677 0.000000
# 2 -0.004016 0.008859 0.000613 0.000000 0.001059 0.000000
# 3 -0.008540 0.000613 0.030178 0.000001 0.002059 0.000000
# 4 0.000000 0.000000 0.000001 0.038727 0.000000 0.000045
# 5 0.001677 0.001059 0.002059 0.000000 0.027702 0.000000
# 6 0.000000 0.000000 0.000000 0.000045 0.000000 0.026502
#
#
# Mechanical properties :
#
#
# Convention : Reuss Voigt Hill
#
# Bulk Modulus (GPa) = 36.59192 58.18364 47.38778
# Shear Modulus (GPa) = 28.22602 33.80050 31.01326
#
# Velocity S-wave (km/s) = 3.63015 3.97247 3.80516
# Velocity P-wave (km/s) = 5.88680 6.94299 6.43659
#
# Compressibility (1/GPa) = 0.02732844
#
# Stress axis : x y z
#
# Youngs Moduli (GPa) = 82.11983 112.87553 33.13632
#
# Poissons Ratio (x) = 0.45333 0.28300
# Poissons Ratio (y) = 0.32981 -0.02033
# Poissons Ratio (z) = 0.70134 -0.06924
#
# Static dielectric constant tensor:
#      x y z
#    x 1.792280 0.000000 -0.014930 
#    y 0.000000 1.865210 0.000000 
#    z -0.014930 0.000000 1.870080 
# 
# From -- ./inp_files/20366.got.cif
#   From: 2010.05.17/outbox.cif.g08.bks.cpg/sg8_11_cif.got.tgz:20366.got - 2010.06.03 19:46:02.
