data_PCOD9133226
_publ_section_title
;
Structure prediction by ZEFSAII (Michael W. Deem and Ramdas Pophale) SiO2 
 PCOD9133226
Probable space group: C M
;
_chemical_formula_sum "Si O2"
_cell_formula_units_Z 32
_cell_length_a 24.116863
_cell_length_b 13.056695
_cell_length_c 9.753060
_cell_angle_alpha 90.000000
_cell_angle_beta 143.641730
_cell_angle_gamma 90.000000
_cell_volume 1820.652153
_symmetry_space_group_name_H-M "C M"
_symmetry_group_IT_number 8
_symmetry_cell_setting 'monoclinic'
loop_
_space_group_symop_operation_xyz
x,y,z
x,-y,z
1/2+x,1/2+y,z
1/2+x,1/2-y,z
loop_
_atom_site_type_symbol
_atom_site_label
_atom_site_fract_x
_atom_site_fract_y
_atom_site_fract_z
Si Si1 0.861230 0.120775 0.297970
Si Si2 0.415414 0.383953 0.990856
Si Si3 0.944589 0.188072 0.746709
Si Si4 0.998613 0.758222 0.369344
Si Si5 0.330111 0.883996 0.600836
Si Si6 0.195818 0.233412 0.876414
Si Si7 0.826347 0.684243 0.900293
Si Si8 0.644981 0.621437 0.053800
O O1 0.942533 0.177474 0.372905
O O2 0.884696 0.141207 0.503397
O O3 0.859856 0.000000 0.267883
O O4 0.765998 0.177547 0.065063
O O5 0.398311 0.500000 0.996495
O O6 0.430748 0.373182 0.860312
O O7 0.333459 0.305721 0.873278
O O8 0.503079 0.335674 0.248252
O O9 0.905934 0.301525 0.701520
O O10 0.052617 0.180649 0.918984
O O11 0.097912 0.726014 0.622780
O O12 0.927730 0.670359 0.174936
O O13 0.317783 0.873205 0.740282
O O14 0.231948 0.862572 0.329585
O O15 0.357730 0.000000 0.621887
O O16 0.247493 0.172477 0.856731
O O17 0.174610 0.161244 0.963459
O O18 0.623251 0.500000 0.006696
#
# Coordination Sequence:
#
# PCOD9133226 Si02
#       8
#     4   4   4   4   4   4   4   4
#     4  11  21  37  60  84 117 157 194 236 286 338
#     4   9  18  34  57  86 113 144 191 239 287 334
#     4  11  21  38  62  85 117 150 192 244 285 342
#     4   9  20  34  55  82 117 153 189 233 289 333
#     4  10  22  41  61  84 115 155 192 236 292 344
#     4  11  21  36  56  87 122 147 190 241 286 339
#     4   8  21  35  56  81 116 155 187 235 285 338
#     4  11  23  37  60  89 115 149 192 238 291 342
#
# _framework density 17.576118000000001
#
# number of rings (size 3 to 8) (size 9 to 14) (size 15 to 20)
#    0.750    1.250    2.500    1.500    1.750    1.000 
#    0.000    1.250    0.000    3.750    0.000    0.000 
#    0.000    0.000    0.000    0.000    0.000    0.000 
#
# Total GULP energy -89134.679065 kJ/mol
# GULP energy per Si atom -5570.917442 kJ/mol
# Density = 1.753611 g / cm^3
# Si number density = 17.576118 Si / 1000 Ang^3
#
#
#
# Elastic Constant Matrix: (Units=GPa)
#
#
# Indices 1 2 3 4 5 6 
#
# 1 107.8147 27.6988 63.5804 0.0000 -5.4077 0.0000
# 2 27.6988 60.7598 23.2647 0.0000 12.8622 0.0000
# 3 63.5804 23.2647 119.6230 0.0000 -0.6161 0.0000
# 4 0.0000 0.0000 0.0000 13.2807 0.0000 4.0202
# 5 -5.4077 12.8622 -0.6161 0.0000 34.8671 0.0000
# 6 0.0000 0.0000 0.0000 4.0202 0.0000 4.7662
#
#
#
# Elastic Compliance Matrix: (Units=1/GPa)
#
#
# Indices 1 2 3 4 5 6 
#
# 1 0.014813 -0.004964 -0.006887 0.000000 0.004007 0.000000
# 2 -0.004964 0.021118 -0.001513 0.000000 -0.008587 0.000000
# 3 -0.006887 -0.001513 0.012313 0.000000 -0.000292 0.000000
# 4 0.000000 0.000000 0.000000 0.101115 0.000000 -0.085289
# 5 0.004007 -0.008587 -0.000292 0.000000 0.032464 0.000000
# 6 0.000000 0.000000 0.000000 -0.085289 0.000000 0.281750
#
#
# Mechanical properties :
#
#
# Convention : Reuss Voigt Hill
#
# Bulk Modulus (GPa) = 46.47722 57.47613 51.97667
# Shear Modulus (GPa) = 10.05078 22.15971 16.10525
#
# Velocity S-wave (km/s) = 2.39392 3.55461 3.03035
# Velocity P-wave (km/s) = 5.84311 7.04409 6.47152
#
# Compressibility (1/GPa) = 0.02151592
#
# Stress axis : x y z
#
# Youngs Moduli (GPa) = 67.50871 47.35232 81.21575
#
# Poissons Ratio (x) = 0.23506 0.55934
# Poissons Ratio (y) = 0.33511 0.12288
# Poissons Ratio (z) = 0.46494 0.07164
#
# Static dielectric constant tensor:
#      x y z
#    x 1.601590 0.000000 -0.018980 
#    y 0.000000 1.579860 0.000000 
#    z -0.018980 0.000000 1.614880 
# 
# From -- ./inp_files/17123.got.cif
#   From: 2010.05.17/outbox.cif.g08.bks.cpg/sg8_9_cif.got.tgz:17123.got - 2010.06.03 19:46:02.
