data_PCOD9133360
_publ_section_title
;
Structure prediction by ZEFSAII (Michael W. Deem and Ramdas Pophale) SiO2 
 PCOD9133360
Probable space group: C M
;
_chemical_formula_sum "Si O2"
_cell_formula_units_Z 32
_cell_length_a 24.886331
_cell_length_b 8.550494
_cell_length_c 16.205240
_cell_angle_alpha 90.000000
_cell_angle_beta 27.053600
_cell_angle_gamma 90.000000
_cell_volume 1568.378074
_symmetry_space_group_name_H-M "C M"
_symmetry_group_IT_number 8
_symmetry_cell_setting 'monoclinic'
loop_
_space_group_symop_operation_xyz
x,y,z
x,-y,z
1/2+x,1/2+y,z
1/2+x,1/2-y,z
loop_
_atom_site_type_symbol
_atom_site_label
_atom_site_fract_x
_atom_site_fract_y
_atom_site_fract_z
Si Si1 0.817230 0.813975 0.178590
Si Si2 0.724912 0.684166 0.830398
Si Si3 0.017100 0.684154 0.015282
Si Si4 0.437903 0.186101 0.430118
Si Si5 0.147777 0.814069 0.553174
Si Si6 0.846349 0.816554 0.386405
Si Si7 0.383939 0.184280 0.915607
Si Si8 0.202351 0.315657 0.040397
O O1 0.719831 0.739454 0.372811
O O2 0.945148 0.763709 0.039780
O O3 0.805373 0.000000 0.197792
O O4 0.814200 0.753073 0.089711
O O5 0.705829 0.500000 0.871473
O O6 0.858840 0.711057 0.618645
O O7 0.640183 0.738195 0.871948
O O8 0.696103 0.778525 0.951998
O O9 0.030075 0.500000 0.983010
O O10 0.933442 0.716540 0.209048
O O11 0.379988 0.278204 0.433524
O O12 0.574640 0.228554 0.251901
O O13 0.432648 0.000000 0.417636
O O14 0.215546 0.732139 0.536863
O O15 0.012259 0.763292 0.734525
O O16 0.157514 0.000000 0.548411
O O17 0.864207 0.000000 0.344474
O O18 0.399483 0.000000 0.904955
O O19 0.306793 0.221753 0.940678
O O20 0.221568 0.500000 0.027232
#
# Coordination Sequence:
#
# PCOD9133360 Si02
#       8
#     4   4   4   4   4   4   4   4
#     4  11  23  42  66  96 131 170 215 267 327 387
#     4  11  23  40  63  94 127 168 216 264 322 383
#     4  11  21  37  61  92 132 171 210 262 324 383
#     4  10  23  41  63  91 128 168 211 261 322 383
#     4  11  23  42  66  95 131 170 215 267 326 386
#     4  11  21  36  62  94 131 168 211 262 322 385
#     4  12  26  45  68  95 129 173 222 269 322 387
#     4  11  24  45  67  91 127 172 218 268 325 382
#
# _framework density 20.403243
#
# number of rings (size 3 to 8) (size 9 to 14) (size 15 to 20)
#    0.000    1.000    1.250    7.875    1.750    2.500 
#    0.000    3.750    0.000    0.000    0.000    0.000 
#    0.000    0.000    0.000    0.000    0.000    0.000 
#
# Total GULP energy -89522.648899 kJ/mol
# GULP energy per Si atom -5595.165556 kJ/mol
# Density = 2.035680 g / cm^3
# Si number density = 20.403243 Si / 1000 Ang^3
#
#
#
# Elastic Constant Matrix: (Units=GPa)
#
#
# Indices 1 2 3 4 5 6 
#
# 1 46.8116 1.1667 2.4039 0.0001 -12.7413 0.0000
# 2 1.1667 80.1794 13.5805 0.0002 -4.9749 -0.0001
# 3 2.4039 13.5805 65.8240 0.0001 -21.5204 0.0000
# 4 0.0001 0.0002 0.0001 24.4223 0.0000 1.2408
# 5 -12.7413 -4.9749 -21.5204 0.0000 26.8481 0.0000
# 6 0.0000 -0.0001 0.0000 1.2408 0.0000 34.0676
#
#
#
# Elastic Compliance Matrix: (Units=1/GPa)
#
#
# Indices 1 2 3 4 5 6 
#
# 1 0.025311 -0.000114 0.004092 0.000000 0.015271 0.000000
# 2 -0.000114 0.012927 -0.002571 0.000000 0.000280 0.000000
# 3 0.004092 -0.002571 0.021753 0.000000 0.018901 0.000000
# 4 0.000000 0.000000 0.000000 0.041022 0.000000 -0.001494
# 5 0.015271 0.000280 0.018901 0.000000 0.059696 0.000000
# 6 0.000000 0.000000 0.000000 -0.001494 0.000000 0.029408
#
#
# Mechanical properties :
#
#
# Convention : Reuss Voigt Hill
#
# Bulk Modulus (GPa) = 15.92255 25.23523 20.57889
# Shear Modulus (GPa) = 24.01100 28.77854 26.39477
#
# Velocity S-wave (km/s) = 3.43421 3.75972 3.60064
# Velocity P-wave (km/s) = 4.85241 5.58949 5.23394
#
# Compressibility (1/GPa) = 0.06280399
#
# Stress axis : x y z
#
# Youngs Moduli (GPa) = 39.50794 77.36007 45.97140
#
# Poissons Ratio (x) = 0.00881 -0.18810
# Poissons Ratio (y) = 0.00450 0.11820
# Poissons Ratio (z) = -0.16165 0.19890
#
# Static dielectric constant tensor:
#      x y z
#    x 1.699360 0.000000 -0.001280 
#    y 0.000000 1.680670 0.000000 
#    z -0.001280 0.000000 1.735400 
# 
# From -- ./inp_files/28180.got.cif
#   From: 2010.05.17/outbox.cif.g08.bks.cpg/sg8_15_cif.got.tgz:28180.got - 2010.06.03 19:46:02.
