data_PCOD9133940
_publ_section_title
;
Structure prediction by ZEFSAII (Michael W. Deem and Ramdas Pophale) SiO2 
 PCOD9133940
Probable space group: C C
;
_chemical_formula_sum "Si O2"
_cell_formula_units_Z 32
_cell_length_a 18.162776
_cell_length_b 17.961693
_cell_length_c 8.084161
_cell_angle_alpha 90.000000
_cell_angle_beta 150.695519
_cell_angle_gamma 90.000000
_cell_volume 1290.842818
_symmetry_space_group_name_H-M "C C"
_symmetry_group_IT_number 9
_symmetry_cell_setting 'monoclinic'
loop_
_space_group_symop_operation_xyz
x,y,z
x,-y,1/2+z
1/2+x,1/2+y,z
1/2+x,1/2-y,1/2+z
loop_
_atom_site_type_symbol
_atom_site_label
_atom_site_fract_x
_atom_site_fract_y
_atom_site_fract_z
Si Si1 0.810090 0.325133 0.003540
Si Si2 0.241041 0.594403 0.539404
Si Si3 0.393901 0.098724 0.336549
Si Si4 0.393130 0.930212 0.449865
Si Si5 0.201032 0.311247 0.444875
Si Si6 0.149975 0.737348 0.209039
Si Si7 0.018998 0.889332 0.061704
Si Si8 0.923587 0.008593 0.642321
O O1 0.795944 0.385459 0.122788
O O2 0.980067 0.294712 0.368831
O O3 0.814043 0.354377 0.825972
O O4 0.696457 0.256673 0.806950
O O5 0.280964 0.548843 0.450387
O O6 0.355730 0.554189 0.887817
O O7 0.250931 0.682566 0.520485
O O8 0.071424 0.583950 0.267966
O O9 0.560917 0.134006 0.665034
O O10 0.379077 0.016660 0.382224
O O11 0.359771 0.091475 0.073710
O O12 0.212822 0.272228 0.647411
O O13 0.349391 0.359163 0.705296
O O14 0.122832 0.821093 0.213593
O O15 0.030942 0.962373 0.972288
O O16 0.014644 0.924965 0.234829
#
# Coordination Sequence:
#
# PCOD9133940 Si02
#       8
#     4   4   4   4   4   4   4   4
#     4   9  21  36  53  84 121 155 187 238 296 347
#     4  10  18  31  53  91 115 148 188 247 296 342
#     4  11  20  34  61  87 116 150 195 244 289 344
#     4  11  19  32  58  90 116 146 194 243 294 341
#     4  10  19  36  56  82 116 157 184 239 297 343
#     4   9  19  34  56  80 118 159 183 233 304 345
#     4  10  19  34  58  83 115 151 189 238 292 344
#     4  10  19  31  59  87 115 142 198 242 288 340
#
# _framework density 24.790004
#
# number of rings (size 3 to 8) (size 9 to 14) (size 15 to 20)
#    0.000    2.000    2.500    3.000    1.750    0.000 
#    0.000    7.500   16.500    0.000    0.000    0.000 
#    0.000    0.000    0.000    0.000    0.000    0.000 
#
# Total GULP energy -89467.080448 kJ/mol
# GULP energy per Si atom -5591.692528 kJ/mol
# Density = 2.473358 g / cm^3
# Si number density = 24.790004 Si / 1000 Ang^3
#
#
#
# Elastic Constant Matrix: (Units=GPa)
#
#
# Indices 1 2 3 4 5 6 
#
# 1 131.6357 93.8330 55.1516 0.0000 -23.7122 0.0000
# 2 93.8330 175.2647 37.2903 0.0000 -2.4529 0.0000
# 3 55.1516 37.2903 67.0480 0.0000 2.1719 0.0000
# 4 0.0000 0.0000 0.0000 9.6169 0.0000 10.0907
# 5 -23.7122 -2.4529 2.1719 0.0000 30.6808 0.0000
# 6 0.0000 0.0000 0.0000 10.0907 0.0000 43.6514
#
#
#
# Elastic Compliance Matrix: (Units=1/GPa)
#
#
# Indices 1 2 3 4 5 6 
#
# 1 0.024050 -0.009382 -0.015177 0.000000 0.018912 0.000000
# 2 -0.009382 0.010150 0.002286 0.000000 -0.006601 0.000000
# 3 -0.015177 0.002286 0.026563 0.000000 -0.013428 0.000000
# 4 0.000000 0.000000 0.000000 0.137283 0.000000 -0.031735
# 5 0.018912 -0.006601 -0.013428 0.000000 0.047633 0.000000
# 6 0.000000 0.000000 0.000000 -0.031735 0.000000 0.030245
#
#
# Mechanical properties :
#
#
# Convention : Reuss Voigt Hill
#
# Bulk Modulus (GPa) = 61.66781 82.94425 72.30603
# Shear Modulus (GPa) = 15.34334 29.30138 22.32236
#
# Velocity S-wave (km/s) = 2.49053 3.44173 3.00402
# Velocity P-wave (km/s) = 5.76198 7.02320 6.42362
#
# Compressibility (1/GPa) = 0.01621591
#
# Stress axis : x y z
#
# Youngs Moduli (GPa) = 41.58017 98.52464 37.64691
#
# Poissons Ratio (x) = 0.92435 0.57138
# Poissons Ratio (y) = 0.39010 -0.08606
# Poissons Ratio (z) = 0.63108 -0.22524
#
# Static dielectric constant tensor:
#      x y z
#    x 1.982460 0.000000 -0.024640 
#    y 0.000000 1.944410 0.000000 
#    z -0.024640 0.000000 2.011320 
# 
# From -- ./inp_files/10957.got.cif
#   From: 2010.05.17/outbox.cif.g08.bks.cpg/sg9_6_cif.got.tgz:10957.got - 2010.06.03 20:04:27.
