data_PCOD9133125
_publ_section_title
;
Structure prediction by ZEFSAII (Michael W. Deem and Ramdas Pophale) SiO2 
 PCOD9133125
Probable space group: C M
;
_chemical_formula_sum "Si O2"
_cell_formula_units_Z 28
_cell_length_a 14.437168
_cell_length_b 9.355179
_cell_length_c 17.444404
_cell_angle_alpha 90.000000
_cell_angle_beta 145.403545
_cell_angle_gamma 90.000000
_cell_volume 1337.765958
_symmetry_space_group_name_H-M "C M"
_symmetry_group_IT_number 8
_symmetry_cell_setting 'monoclinic'
loop_
_space_group_symop_operation_xyz
x,y,z
x,-y,z
1/2+x,1/2+y,z
1/2+x,1/2-y,z
loop_
_atom_site_type_symbol
_atom_site_label
_atom_site_fract_x
_atom_site_fract_y
_atom_site_fract_z
Si Si1 0.639230 0.328256 0.021360
Si Si2 0.164590 0.660150 0.489982
Si Si3 0.440140 0.837855 0.619239
Si Si4 0.334604 0.343444 0.040269
Si Si5 0.344697 0.664141 0.292295
Si Si6 0.175963 0.253448 0.330599
Si Si7 0.793889 0.834742 0.832180
O O1 0.643214 0.500000 0.034904
O O2 0.725033 0.279457 0.001969
O O3 0.740882 0.250911 0.158314
O O4 0.450913 0.277348 0.895124
O O5 0.168387 0.500000 0.524054
O O6 0.338661 0.741687 0.610315
O O7 0.132007 0.653746 0.375570
O O8 0.017902 0.756514 0.421364
O O9 0.320519 0.841409 0.464611
O O10 0.611903 0.772349 0.709067
O O11 0.466375 0.000000 0.665644
O O12 0.266589 0.500000 0.013835
O O13 0.515220 0.329811 0.197055
O O14 0.344448 0.332996 0.955844
O O15 0.371081 0.500000 0.285798
O O16 0.245553 0.667856 0.304086
O O17 0.774165 0.000000 0.793697
#
# Coordination Sequence:
#
# PCOD9133125 Si02
#       7
#     4   4   4   4   4   4   4
#     4  11  22  37  59  88 122 154 195 245 292 343
#     4  10  22  39  59  86 119 149 192 245 293 342
#     4   9  19  39  64  84 116 160 197 237 290 350
#     4  11  21  38  63  89 116 153 198 243 294 349
#     4  12  23  37  60  89 120 154 197 242 296 350
#     4  10  22  36  63  85 117 146 199 239 294 337
#     4   9  20  40  60  83 120 160 196 237 291 351
#
# _framework density 20.930416999999998
#
# number of rings (size 3 to 8) (size 9 to 14) (size 15 to 20)
#    0.857    0.857    2.857    2.143    0.000    2.286 
#    2.571    2.143    0.000    0.000    0.000    0.000 
#    0.000    0.000    0.000    0.000    0.000    0.000 
#
# Total GULP energy -78043.871173 kJ/mol
# GULP energy per Si atom -5574.562227 kJ/mol
# Density = 2.088278 g / cm^3
# Si number density = 20.930417 Si / 1000 Ang^3
#
#
#
# Elastic Constant Matrix: (Units=GPa)
#
#
# Indices 1 2 3 4 5 6 
#
# 1 69.7560 15.6962 8.0070 0.0000 19.8600 0.0000
# 2 15.6962 107.6177 18.7465 0.0000 19.8929 0.0000
# 3 8.0070 18.7465 101.1196 0.0000 37.4660 0.0000
# 4 0.0000 0.0000 0.0000 17.3192 0.0000 4.6995
# 5 19.8600 19.8929 37.4660 0.0000 42.1935 0.0000
# 6 0.0000 0.0000 0.0000 4.6995 0.0000 15.7793
#
#
#
# Elastic Compliance Matrix: (Units=1/GPa)
#
#
# Indices 1 2 3 4 5 6 
#
# 1 0.017061 -0.001127 0.002439 0.000000 -0.009665 0.000000
# 2 -0.001127 0.010255 -0.000323 0.000000 -0.004018 0.000000
# 3 0.002439 -0.000323 0.015089 0.000000 -0.014394 0.000000
# 4 0.000000 0.000000 0.000000 0.062816 0.000000 -0.018708
# 5 -0.009665 -0.004018 -0.014394 0.000000 0.042925 0.000000
# 6 0.000000 0.000000 0.000000 -0.018708 0.000000 0.068946
#
#
# Mechanical properties :
#
#
# Convention : Reuss Voigt Hill
#
# Bulk Modulus (GPa) = 22.53119 40.37700 31.45409
# Shear Modulus (GPa) = 21.74769 30.79461 26.27115
#
# Velocity S-wave (km/s) = 3.22692 3.83989 3.54668
# Velocity P-wave (km/s) = 4.96711 6.24441 5.64202
#
# Compressibility (1/GPa) = 0.04438292
#
# Stress axis : x y z
#
# Youngs Moduli (GPa) = 58.61366 97.50896 66.27213
#
# Poissons Ratio (x) = 0.10986 -0.16163
# Poissons Ratio (y) = 0.06604 0.02144
# Poissons Ratio (z) = -0.14295 0.03154
#
# Static dielectric constant tensor:
#      x y z
#    x 1.759550 0.000000 0.005020 
#    y 0.000000 1.757110 0.000000 
#    z 0.005020 0.000000 1.765650 
# 
# From -- ./inp_files/30768.got.cif
#   From: 2010.05.17/outbox.cif.g08.bks.cpg/sg8_16_cif.got.tgz:30768.got - 2010.06.03 19:46:02.
