data_PCOD9133496
_publ_section_title
;
Structure prediction by ZEFSAII (Michael W. Deem and Ramdas Pophale) SiO2 
 PCOD9133496
Probable space group: C M
;
_chemical_formula_sum "Si O2"
_cell_formula_units_Z 24
_cell_length_a 10.747711
_cell_length_b 21.865431
_cell_length_c 7.682942
_cell_angle_alpha 90.000000
_cell_angle_beta 141.475843
_cell_angle_gamma 90.000000
_cell_volume 1124.556400
_symmetry_space_group_name_H-M "C M"
_symmetry_group_IT_number 8
_symmetry_cell_setting 'monoclinic'
loop_
_space_group_symop_operation_xyz
x,y,z
x,-y,z
1/2+x,1/2+y,z
1/2+x,1/2-y,z
loop_
_atom_site_type_symbol
_atom_site_label
_atom_site_fract_x
_atom_site_fract_y
_atom_site_fract_z
Si Si1 0.660780 0.263417 0.765540
Si Si2 0.724666 0.263963 0.226680
Si Si3 0.259604 0.429276 0.565221
Si Si4 0.455509 0.352732 0.080043
Si Si5 0.281779 0.570948 0.196372
Si Si6 0.990148 0.354842 0.062863
O O1 0.808024 0.205771 0.911295
O O2 0.412045 0.389891 0.207295
O O3 0.617098 0.271068 0.923041
O O4 0.775434 0.323889 0.828047
O O5 0.641244 0.202790 0.223778
O O6 0.671093 0.322513 0.283918
O O7 0.956982 0.253027 0.447719
O O8 0.225361 0.500000 0.570134
O O9 0.390893 0.396527 0.852035
O O10 0.358003 0.426237 0.479717
O O11 0.050016 0.394103 0.298592
O O12 0.267525 0.500000 0.129880
O O13 0.062876 0.602574 0.982225
#
# Coordination Sequence:
#
# PCOD9133496 Si02
#       6
#     4   4   4   4   4   4
#     4  11  22  39  62  93 135 176 215 281 332 405
#     4  11  23  37  62  95 133 174 221 274 338 403
#     4   9  18  36  65  96 130 174 225 279 333 400
#     4  11  21  37  63  96 126 175 218 266 340 406
#     4   9  19  39  65  95 131 171 217 281 335 400
#     4   9  19  38  59  91 125 170 214 263 340 392
#
# _framework density 21.341749
#
# number of rings (size 3 to 8) (size 9 to 14) (size 15 to 20)
#    1.000    1.000    1.667    2.500    0.000    4.000 
#    0.000    0.000    0.000   24.000    0.000    0.000 
#    0.000    0.000    0.000    0.000    0.000    0.000 
#
# Total GULP energy -66962.072009 kJ/mol
# GULP energy per Si atom -5580.172667 kJ/mol
# Density = 2.129317 g / cm^3
# Si number density = 21.341749 Si / 1000 Ang^3
#
#
#
# Elastic Constant Matrix: (Units=GPa)
#
#
# Indices 1 2 3 4 5 6 
#
# 1 63.5534 55.3118 20.5678 0.0000 -1.8624 0.0000
# 2 55.3118 157.2381 31.2469 0.0000 1.9456 0.0000
# 3 20.5678 31.2469 54.1647 0.0000 1.4466 0.0000
# 4 0.0000 0.0000 0.0000 30.0499 0.0000 -2.4255
# 5 -1.8624 1.9456 1.4466 0.0000 28.6591 0.0000
# 6 0.0000 0.0000 0.0000 -2.4255 0.0000 39.6331
#
#
#
# Elastic Compliance Matrix: (Units=1/GPa)
#
#
# Indices 1 2 3 4 5 6 
#
# 1 0.023856 -0.007464 -0.004815 0.000000 0.002300 0.000000
# 2 -0.007464 0.009521 -0.002631 0.000000 -0.000999 0.000000
# 3 -0.004815 -0.002631 0.021842 0.000000 -0.001237 0.000000
# 4 0.000000 0.000000 0.000000 0.033443 0.000000 0.002047
# 5 0.002300 -0.000999 -0.001237 0.000000 0.035173 0.000000
# 6 0.000000 0.000000 0.000000 0.002047 0.000000 0.025357
#
#
# Mechanical properties :
#
#
# Convention : Reuss Voigt Hill
#
# Bulk Modulus (GPa) = 39.37183 54.35656 46.86420
# Shear Modulus (GPa) = 26.67006 30.85706 28.76356
#
# Velocity S-wave (km/s) = 3.53890 3.80656 3.67517
# Velocity P-wave (km/s) = 5.93184 6.69663 6.32580
#
# Compressibility (1/GPa) = 0.02539887
#
# Stress axis : x y z
#
# Youngs Moduli (GPa) = 41.91819 105.03613 45.78433
#
# Poissons Ratio (x) = 0.78394 0.22043
# Poissons Ratio (y) = 0.31286 0.12048
# Poissons Ratio (z) = 0.20182 0.27640
#
# Static dielectric constant tensor:
#      x y z
#    x 1.812260 0.000000 -0.005780 
#    y 0.000000 1.760810 0.000000 
#    z -0.005780 0.000000 1.776400 
# 
# From -- ./inp_files/11527.got.cif
#   From: 2010.05.17/outbox.cif.g08.bks.cpg/sg8_6_cif.got.tgz:11527.got - 2010.06.03 19:46:02.
