data_PCOD9133388
_publ_section_title
;
Structure prediction by ZEFSAII (Michael W. Deem and Ramdas Pophale) SiO2 
 PCOD9133388
Probable space group: C M
;
_chemical_formula_sum "Si O2"
_cell_formula_units_Z 20
_cell_length_a 4.874572
_cell_length_b 19.250894
_cell_length_c 8.343817
_cell_angle_alpha 90.000000
_cell_angle_beta 75.897782
_cell_angle_gamma 90.000000
_cell_volume 759.385618
_symmetry_space_group_name_H-M "C M"
_symmetry_group_IT_number 8
_symmetry_cell_setting 'monoclinic'
loop_
_space_group_symop_operation_xyz
x,y,z
x,-y,z
1/2+x,1/2+y,z
1/2+x,1/2-y,z
loop_
_atom_site_type_symbol
_atom_site_label
_atom_site_fract_x
_atom_site_fract_y
_atom_site_fract_z
Si Si1 0.211990 0.702388 0.571920
Si Si2 0.404618 0.078323 0.484138
Si Si3 0.444272 0.077886 0.131909
Si Si4 0.251250 0.133848 0.826768
Si Si5 0.860685 0.794034 0.088822
O O1 0.525083 0.730838 0.545088
O O2 0.142099 0.638637 0.463184
O O3 0.051198 0.670272 0.748442
O O4 0.274905 0.081311 0.324437
O O5 0.204305 0.092302 0.667764
O O6 0.519046 0.000000 0.487788
O O7 0.684371 0.135497 0.119974
O O8 0.564243 0.000000 0.105249
O O9 0.284575 0.091825 0.987431
O O10 0.023650 0.192677 0.897104
O O11 0.633855 0.732492 0.146791
#
# Coordination Sequence:
#
# PCOD9133388 Si02
#       5
#     4   4   4   4   4
#     4  10  23  43  71 102 140 184 237 297 356 428
#     4   9  23  46  72 107 147 191 247 302 363 444
#     4  11  25  47  75 109 151 196 248 306 371 446
#     4  10  23  43  76 101 146 194 240 304 366 439
#     4  12  25  47  76 111 149 195 250 311 371 443
#
# _framework density 26.337081999999999
#
# number of rings (size 3 to 8) (size 9 to 14) (size 15 to 20)
#    1.200    0.400    2.000    1.800    2.800    3.200 
#    3.600    1.000    0.000    0.000    0.000    0.000 
#    0.000    0.000    0.000    0.000    0.000    0.000 
#
# Total GULP energy -55749.403287 kJ/mol
# GULP energy per Si atom -5574.940329 kJ/mol
# Density = 2.627714 g / cm^3
# Si number density = 26.337082 Si / 1000 Ang^3
#
#
#
# Elastic Constant Matrix: (Units=GPa)
#
#
# Indices 1 2 3 4 5 6 
#
# 1 89.4798 4.4971 26.1894 0.0000 -4.9142 0.0000
# 2 4.4971 145.5126 25.9303 0.0000 15.4244 0.0000
# 3 26.1894 25.9303 176.9373 0.0000 39.3209 0.0000
# 4 0.0000 0.0000 0.0000 26.6568 0.0000 2.3953
# 5 -4.9142 15.4244 39.3209 0.0000 19.2194 0.0000
# 6 0.0000 0.0000 0.0000 2.3953 0.0000 28.2293
#
#
#
# Elastic Compliance Matrix: (Units=1/GPa)
#
#
# Indices 1 2 3 4 5 6 
#
# 1 0.013555 -0.001077 -0.005154 0.000000 0.014876 0.000000
# 2 -0.001077 0.007615 0.000849 0.000000 -0.008124 0.000000
# 3 -0.005154 0.000849 0.012349 0.000000 -0.027264 0.000000
# 4 0.000000 0.000000 0.000000 0.037802 0.000000 -0.003208
# 5 0.014876 -0.008124 -0.027264 0.000000 0.118134 0.000000
# 6 0.000000 0.000000 0.000000 -0.003208 0.000000 0.035696
#
#
# Mechanical properties :
#
#
# Convention : Reuss Voigt Hill
#
# Bulk Modulus (GPa) = 43.94815 58.35145 51.14980
# Shear Modulus (GPa) = 20.53358 38.50862 29.52110
#
# Velocity S-wave (km/s) = 2.79524 3.82795 3.35161
# Velocity P-wave (km/s) = 5.20969 6.46075 5.86865
#
# Compressibility (1/GPa) = 0.02275409
#
# Stress axis : x y z
#
# Youngs Moduli (GPa) = 73.77090 131.31272 80.97640
#
# Poissons Ratio (x) = 0.14146 0.41739
# Poissons Ratio (y) = 0.07947 -0.06872
# Poissons Ratio (z) = 0.38025 -0.11145
#
# Static dielectric constant tensor:
#      x y z
#    x 2.027800 0.000000 0.051510 
#    y 0.000000 2.079050 0.000000 
#    z 0.051510 0.000000 2.174720 
# 
# From -- ./inp_files/6689.got.cif
#   From: 2010.05.17/outbox.cif.g08.bks.cpg/sg8_4_cif.got.tgz:6689.got - 2010.06.03 19:46:02.
