data_PCOD9133236
_publ_section_title
;
Structure prediction by ZEFSAII (Michael W. Deem and Ramdas Pophale) SiO2 
 PCOD9133236
Probable space group: C M
;
_chemical_formula_sum "Si O2"
_cell_formula_units_Z 32
_cell_length_a 11.985230
_cell_length_b 13.253873
_cell_length_c 17.271601
_cell_angle_alpha 90.000000
_cell_angle_beta 150.475454
_cell_angle_gamma 90.000000
_cell_volume 1352.039206
_symmetry_space_group_name_H-M "C M"
_symmetry_group_IT_number 8
_symmetry_cell_setting 'monoclinic'
loop_
_space_group_symop_operation_xyz
x,y,z
x,-y,z
1/2+x,1/2+y,z
1/2+x,1/2-y,z
loop_
_atom_site_type_symbol
_atom_site_label
_atom_site_fract_x
_atom_site_fract_y
_atom_site_fract_z
Si Si1 0.910970 0.610560 0.297140
Si Si2 0.840009 0.328731 0.422387
Si Si3 0.084372 0.879062 0.559893
Si Si4 0.403751 0.884942 0.902386
Si Si5 0.459046 0.882789 0.666591
Si Si6 0.425283 0.616150 0.919460
Si Si7 0.709677 0.382369 0.952989
Si Si8 0.383241 0.275677 0.169955
O O1 0.999674 0.500000 0.326098
O O2 0.936278 0.620794 0.403555
O O3 0.994214 0.712461 0.307311
O O4 0.650564 0.616733 0.107819
O O5 0.894497 0.208130 0.449576
O O6 0.930089 0.369619 0.557720
O O7 0.572249 0.354571 0.260722
O O8 0.249826 0.844483 0.589982
O O9 0.016965 0.000000 0.511406
O O10 0.240301 0.870761 0.730612
O O11 0.251428 0.875987 0.887577
O O12 0.633215 0.818045 0.038459
O O13 0.488006 0.000000 0.951067
O O14 0.708788 0.836269 0.830621
O O15 0.456931 0.000000 0.689235
O O16 0.361157 0.500000 0.873741
O O17 0.481117 0.644111 0.863549
O O18 0.755388 0.500000 0.001404
O O19 0.872965 0.304255 0.093847
#
# Coordination Sequence:
#
# PCOD9133236 Si02
#       8
#     4   4   4   4   4   4   4   4
#     4  10  22  41  63  94 129 164 211 266 326 390
#     4  12  25  40  63  98 130 171 220 272 329 392
#     4  10  25  46  65  91 135 184 224 270 333 393
#     4  10  23  43  67  97 132 176 228 276 322 391
#     4  10  22  42  65  93 131 175 218 271 336 396
#     4   8  17  36  65  95 125 165 211 266 328 386
#     4   9  19  39  66  95 126 165 218 272 328 392
#     4  11  23  39  63  95 130 172 217 269 335 388
#
# _framework density 23.667954000000002
#
# number of rings (size 3 to 8) (size 9 to 14) (size 15 to 20)
#    0.000    2.000    0.000    3.000    5.250    3.000 
#    2.250    3.125    0.000    0.000    0.000    0.000 
#    0.000    0.000    0.000    0.000    0.000    0.000 
#
# Total GULP energy -89166.005442 kJ/mol
# GULP energy per Si atom -5572.875340 kJ/mol
# Density = 2.361408 g / cm^3
# Si number density = 23.667954 Si / 1000 Ang^3
#
#
#
# Elastic Constant Matrix: (Units=GPa)
#
#
# Indices 1 2 3 4 5 6 
#
# 1 114.9470 9.7646 36.6767 0.0058 -8.1684 0.0010
# 2 9.7646 104.1620 8.1104 0.0107 -1.4641 0.0018
# 3 36.6767 8.1104 40.5529 0.0219 9.9562 0.0035
# 4 0.0058 0.0107 0.0219 26.0834 0.0019 -6.3614
# 5 -8.1684 -1.4641 9.9562 0.0019 45.0278 -0.0008
# 6 0.0010 0.0018 0.0035 -6.3614 -0.0008 26.8354
#
#
#
# Elastic Compliance Matrix: (Units=1/GPa)
#
#
# Indices 1 2 3 4 5 6 
#
# 1 0.013362 -0.000135 -0.013378 0.000009 0.005378 0.000004
# 2 -0.000135 0.009780 -0.002015 -0.000003 0.000739 -0.000001
# 3 -0.013378 -0.002015 0.039941 -0.000032 -0.011324 -0.000012
# 4 0.000009 -0.000003 -0.000032 0.040691 0.000007 0.009646
# 5 0.005378 0.000739 -0.011324 0.000007 0.025712 0.000004
# 6 0.000004 -0.000001 -0.000012 0.009646 0.000004 0.039551
#
#
# Mechanical properties :
#
#
# Convention : Reuss Voigt Hill
#
# Bulk Modulus (GPa) = 31.22350 40.97395 36.09873
# Shear Modulus (GPa) = 23.72257 33.26332 28.49294
#
# Velocity S-wave (km/s) = 3.16936 3.75295 3.47344
# Velocity P-wave (km/s) = 5.15888 6.01075 5.60104
#
# Compressibility (1/GPa) = 0.03202716
#
# Stress axis : x y z
#
# Youngs Moduli (GPa) = 74.83998 102.24525 25.03665
#
# Poissons Ratio (x) = 0.01384 0.33494
# Poissons Ratio (y) = 0.01013 0.05045
# Poissons Ratio (z) = 1.00120 0.20603
#
# Static dielectric constant tensor:
#      x y z
#    x 1.925170 0.000000 0.035780 
#    y 0.000000 1.981650 0.000000 
#    z 0.035780 0.000000 1.885170 
# 
# From -- ./inp_files/28893.got.cif
#   From: 2010.05.17/outbox.cif.g08.bks.cpg/sg8_15_cif.got.tgz:28893.got - 2010.06.03 19:46:02.
