data_PCOD9133043
_publ_section_title
;
Structure prediction by ZEFSAII (Michael W. Deem and Ramdas Pophale) SiO2 
 PCOD9133043
Probable space group: C M
;
_chemical_formula_sum "Si O2"
_cell_formula_units_Z 30
_cell_length_a 8.664737
_cell_length_b 11.356097
_cell_length_c 15.185076
_cell_angle_alpha 90.000000
_cell_angle_beta 70.062605
_cell_angle_gamma 90.000000
_cell_volume 1404.622720
_symmetry_space_group_name_H-M "C M"
_symmetry_group_IT_number 8
_symmetry_cell_setting 'monoclinic'
loop_
_space_group_symop_operation_xyz
x,y,z
x,-y,z
1/2+x,1/2+y,z
1/2+x,1/2-y,z
loop_
_atom_site_type_symbol
_atom_site_label
_atom_site_fract_x
_atom_site_fract_y
_atom_site_fract_z
Si Si1 0.776430 0.637184 0.308430
Si Si2 0.270398 0.134358 0.585753
Si Si3 0.597807 0.135429 0.029387
Si Si4 0.798768 0.632053 0.788685
Si Si5 0.133779 0.302883 0.472803
Si Si6 0.950145 0.217479 0.905488
Si Si7 0.548808 0.717050 0.212874
Si Si8 0.847595 0.000000 0.331166
O O1 0.756659 0.500000 0.316155
O O2 0.653488 0.694916 0.401168
O O3 0.720188 0.683307 0.224098
O O4 0.962234 0.677670 0.285192
O O5 0.283899 0.152566 0.687548
O O6 0.173053 0.240029 0.557978
O O7 0.453682 0.142912 0.510507
O O8 0.207448 0.000000 0.582276
O O9 0.572570 0.229608 0.112355
O O10 0.559926 0.000000 0.062069
O O11 0.789367 0.146028 0.965353
O O12 0.488883 0.179646 0.968576
O O13 0.862675 0.500000 0.789340
O O14 0.909577 0.724092 0.819385
O O15 0.616462 0.643667 0.864943
O O16 0.263256 0.397428 0.411117
O O17 0.433006 0.604405 0.252288
#
# Coordination Sequence:
#
# PCOD9133043 Si02
#       8
#     4   4   4   4   4   4   4   2
#     4  11  23  41  61  86 124 164 213 263 315 368
#     4  11  23  40  65  99 128 165 215 261 307 384
#     4  11  23  42  64  94 127 164 216 260 316 381
#     4  10  21  40  66  96 130 163 206 257 320 375
#     4  11  22  41  64  89 128 172 211 261 316 367
#     4  10  22  42  66  94 128 169 201 259 323 384
#     4  11  23  42  61  91 122 166 211 268 309 369
#     4  10  22  42  62  86 128 166 214 256 316 366
#
# _framework density 21.358046999999999
#
# number of rings (size 3 to 8) (size 9 to 14) (size 15 to 20)
#    0.000    1.333    1.333    4.800    0.000    0.000 
#   22.800    0.000    2.933    0.000    0.000    0.000 
#    0.000    0.000    0.000    0.000    0.000    0.000 
#
# Total GULP energy -83541.470218 kJ/mol
# GULP energy per Si atom -5569.431348 kJ/mol
# Density = 2.130944 g / cm^3
# Si number density = 21.358047 Si / 1000 Ang^3
#
#
#
# Elastic Constant Matrix: (Units=GPa)
#
#
# Indices 1 2 3 4 5 6 
#
# 1 30.0864 17.5978 -17.8017 0.0000 -5.2327 0.0000
# 2 17.5978 124.0321 29.2738 0.0000 15.8875 0.0000
# 3 -17.8017 29.2738 55.1707 0.0000 -3.9037 0.0000
# 4 0.0000 0.0000 0.0000 30.1568 0.0000 -0.7561
# 5 -5.2327 15.8875 -3.9037 0.0000 23.0616 0.0000
# 6 0.0000 0.0000 0.0000 -0.7561 0.0000 11.3769
#
#
#
# Elastic Compliance Matrix: (Units=1/GPa)
#
#
# Indices 1 2 3 4 5 6 
#
# 1 0.086733 -0.029566 0.047071 0.000000 0.048016 0.000000
# 2 -0.029566 0.020678 -0.022261 0.000000 -0.024722 0.000000
# 3 0.047071 -0.022261 0.047536 0.000000 0.034063 0.000000
# 4 0.000000 0.000000 0.000000 0.033215 0.000000 0.002208
# 5 0.048016 -0.024722 0.034063 0.000000 0.077055 0.000000
# 6 0.000000 0.000000 0.000000 0.002208 0.000000 0.088044
#
#
# Mechanical properties :
#
#
# Convention : Reuss Voigt Hill
#
# Bulk Modulus (GPa) = 6.87588 29.71434 18.29511
# Shear Modulus (GPa) = 12.15801 24.93368 18.54584
#
# Velocity S-wave (km/s) = 2.38848 3.42045 2.94994
# Velocity P-wave (km/s) = 3.29132 5.43525 4.49304
#
# Compressibility (1/GPa) = 0.14543583
#
# Stress axis : x y z
#
# Youngs Moduli (GPa) = 11.52957 48.36058 21.03675
#
# Poissons Ratio (x) = 1.42983 -0.99023
# Poissons Ratio (y) = 0.34088 0.46830
# Poissons Ratio (z) = -0.54271 1.07656
#
# Static dielectric constant tensor:
#      x y z
#    x 1.823190 0.000000 0.026580 
#    y 0.000000 1.743950 0.000000 
#    z 0.026580 0.000000 1.782660 
# 
# From -- ./inp_files/25179.got.cif
#   From: 2010.05.17/outbox.cif.g08.bks.cpg/sg8_13_cif.got.tgz:25179.got - 2010.06.03 19:46:02.
