data_PCOD9133839
_publ_section_title
;
Structure prediction by ZEFSAII (Michael W. Deem and Ramdas Pophale) SiO2 
 PCOD9133839
Probable space group: C C
;
_chemical_formula_sum "Si O2"
_cell_formula_units_Z 32
_cell_length_a 11.840435
_cell_length_b 19.207560
_cell_length_c 19.622465
_cell_angle_alpha 90.000000
_cell_angle_beta 158.159199
_cell_angle_gamma 90.000000
_cell_volume 1660.237157
_symmetry_space_group_name_H-M "C C"
_symmetry_group_IT_number 9
_symmetry_cell_setting 'monoclinic'
loop_
_space_group_symop_operation_xyz
x,y,z
x,-y,1/2+z
1/2+x,1/2+y,z
1/2+x,1/2-y,1/2+z
loop_
_atom_site_type_symbol
_atom_site_label
_atom_site_fract_x
_atom_site_fract_y
_atom_site_fract_z
Si Si1 0.932200 0.378074 0.209780
Si Si2 0.006408 0.530337 0.287896
Si Si3 0.289467 0.340403 0.550029
Si Si4 0.256478 0.716367 0.791302
Si Si5 0.334652 0.659546 0.435947
Si Si6 0.612282 0.469893 0.695448
Si Si7 0.368074 0.716261 0.694801
Si Si8 0.692258 0.378108 0.276272
O O1 0.871495 0.461138 0.177895
O O2 0.117874 0.356313 0.382160
O O3 0.142082 0.352502 0.265995
O O4 0.603604 0.341547 0.031473
O O5 0.804648 0.555673 0.238320
O O6 0.104840 0.594677 0.296915
O O7 0.307350 0.500469 0.491775
O O8 0.486844 0.271807 0.652948
O O9 0.519302 0.405187 0.689528
O O10 0.020466 0.341391 0.454456
O O11 0.312533 0.704926 0.743211
O O12 0.562126 0.750129 0.992966
O O13 0.506532 0.643861 0.603967
O O14 0.137148 0.728167 0.332733
O O15 0.753614 0.538828 0.808275
O O16 0.482493 0.647329 0.720204
#
# Coordination Sequence:
#
# PCOD9133839 Si02
#       8
#     4   4   4   4   4   4   4   4
#     4  10  20  36  57  86 120 149 191 240 296 340
#     4  10  17  31  58  90 113 142 195 248 284 329
#     4  10  20  36  59  89 114 151 193 245 287 343
#     4  12  24  38  58  86 119 156 195 240 289 347
#     4  10  20  36  59  89 114 151 193 245 287 343
#     4  10  17  31  58  90 113 142 195 248 284 329
#     4  12  24  38  58  86 119 156 195 240 289 347
#     4  10  20  36  57  86 120 149 191 240 296 340
#
# _framework density 19.274355
#
# number of rings (size 3 to 8) (size 9 to 14) (size 15 to 20)
#    0.000    1.500    7.500    1.500    3.500    0.000 
#    0.000    0.000    0.000    6.000    0.000    0.000 
#    0.000    0.000    0.000    0.000    0.000    0.000 
#
# Total GULP energy -89233.471141 kJ/mol
# GULP energy per Si atom -5577.091946 kJ/mol
# Density = 1.923049 g / cm^3
# Si number density = 19.274355 Si / 1000 Ang^3
#
#
#
# Elastic Constant Matrix: (Units=GPa)
#
#
# Indices 1 2 3 4 5 6 
#
# 1 115.9803 18.4431 31.3135 -0.0358 22.3385 0.0156
# 2 18.4431 62.4569 2.6132 -0.1720 9.5741 0.0220
# 3 31.3135 2.6132 55.6977 -0.1855 24.7774 -0.0150
# 4 -0.0358 -0.1720 -0.1855 25.2762 -0.0141 16.2043
# 5 22.3385 9.5741 24.7774 -0.0141 30.0192 0.0136
# 6 0.0156 0.0220 -0.0150 16.2043 0.0136 22.4674
#
#
#
# Elastic Compliance Matrix: (Units=1/GPa)
#
#
# Indices 1 2 3 4 5 6 
#
# 1 0.010910 -0.002467 -0.004356 -0.000059 -0.003737 0.000037
# 2 -0.002467 0.017621 0.003546 0.000269 -0.006711 -0.000203
# 3 -0.004356 0.003546 0.030496 0.000385 -0.023061 -0.000244
# 4 -0.000059 0.000269 0.000385 0.073597 -0.000301 -0.053080
# 5 -0.003737 -0.006711 -0.023061 -0.000301 0.057267 0.000176
# 6 0.000037 -0.000203 -0.000244 -0.053080 0.000176 0.082792
#
#
# Mechanical properties :
#
#
# Convention : Reuss Voigt Hill
#
# Bulk Modulus (GPa) = 19.05677 37.65271 28.35474
# Shear Modulus (GPa) = 16.85049 27.67024 22.26037
#
# Velocity S-wave (km/s) = 2.95997 3.79304 3.40210
# Velocity P-wave (km/s) = 4.64655 6.22579 5.49322
#
# Compressibility (1/GPa) = 0.05247479
#
# Stress axis : x y z
#
# Youngs Moduli (GPa) = 91.65769 56.75158 32.79071
#
# Poissons Ratio (x) = 0.14000 0.14283
# Poissons Ratio (y) = 0.22610 -0.11629
# Poissons Ratio (z) = 0.39925 -0.20127
#
# Static dielectric constant tensor:
#      x y z
#    x 1.603300 0.000090 0.004170 
#    y 0.000090 1.734340 0.000000 
#    z 0.004170 0.000000 1.690950 
# 
# From -- ./inp_files/7894.got.cif
#   From: 2010.05.17/outbox.cif.g08.bks.cpg/sg9_4_cif.got.tgz:7894.got - 2010.06.03 20:04:27.
