data_PCOD9133627
_publ_section_title
;
Structure prediction by ZEFSAII (Michael W. Deem and Ramdas Pophale) SiO2 
 PCOD9133627
Probable space group: C M
;
_chemical_formula_sum "Si O2"
_cell_formula_units_Z 18
_cell_length_a 9.707110
_cell_length_b 10.732850
_cell_length_c 7.293904
_cell_angle_alpha 90.000000
_cell_angle_beta 103.690493
_cell_angle_gamma 90.000000
_cell_volume 738.324665
_symmetry_space_group_name_H-M "C M"
_symmetry_group_IT_number 8
_symmetry_cell_setting 'monoclinic'
loop_
_space_group_symop_operation_xyz
x,y,z
x,-y,z
1/2+x,1/2+y,z
1/2+x,1/2-y,z
loop_
_atom_site_type_symbol
_atom_site_label
_atom_site_fract_x
_atom_site_fract_y
_atom_site_fract_z
Si Si1 0.252550 0.229722 0.383510
Si Si2 0.745477 0.747490 0.814828
Si Si3 0.086510 0.500000 0.873114
Si Si4 0.445481 0.000000 0.475602
Si Si5 0.535651 0.642477 0.024507
Si Si6 0.701024 0.000000 0.299210
O O1 0.232295 0.228345 0.594866
O O2 0.286891 0.370637 0.329352
O O3 0.368545 0.124041 0.381838
O O4 0.111838 0.189758 0.231482
O O5 0.671100 0.877494 0.841898
O O6 0.657588 0.649771 0.907058
O O7 0.907917 0.767258 0.925187
O O8 0.948719 0.500000 0.699379
O O9 0.091966 0.500000 0.094281
O O10 0.604148 0.000000 0.449410
O O11 0.486006 0.500000 0.027169
#
# Coordination Sequence:
#
# PCOD9133627 Si02
#       6
#     4   4   2   2   4   2
#     4  12  28  48  79 114 151 203 263 315 388 461
#     4  12  27  51  78 114 157 206 252 326 390 464
#     4  12  24  51  78 108 156 208 253 316 397 454
#     4  12  28  51  77 116 155 202 268 319 387 467
#     4  12  29  50  78 114 155 202 264 318 387 465
#     4  12  28  50  75 112 155 210 249 327 380 469
#
# _framework density 24.379517
#
# number of rings (size 3 to 8) (size 9 to 14) (size 15 to 20)
#    0.000    0.000    6.667    1.333    4.667    0.000 
#    2.000    1.111    0.000    0.000    0.000    0.000 
#    0.000    0.000    0.000    0.000    0.000    0.000 
#
# Total GULP energy -50451.087963 kJ/mol
# GULP energy per Si atom -5605.676440 kJ/mol
# Density = 2.432403 g / cm^3
# Si number density = 24.379517 Si / 1000 Ang^3
#
#
#
# Elastic Constant Matrix: (Units=GPa)
#
#
# Indices 1 2 3 4 5 6 
#
# 1 68.0251 29.6741 25.4360 0.0000 15.3151 0.0000
# 2 29.6741 159.6535 18.9727 0.0000 7.5649 0.0000
# 3 25.4360 18.9727 176.4991 0.0000 14.5765 0.0000
# 4 0.0000 0.0000 0.0000 33.8230 0.0000 4.2729
# 5 15.3151 7.5649 14.5765 0.0000 34.0333 0.0000
# 6 0.0000 0.0000 0.0000 4.2729 0.0000 40.5310
#
#
#
# Elastic Compliance Matrix: (Units=1/GPa)
#
#
# Indices 1 2 3 4 5 6 
#
# 1 0.018117 -0.002839 -0.001746 0.000000 -0.006774 0.000000
# 2 -0.002839 0.006834 -0.000317 0.000000 -0.000106 0.000000
# 3 -0.001746 -0.000317 0.006096 0.000000 -0.001755 0.000000
# 4 0.000000 0.000000 0.000000 0.029965 0.000000 -0.003159
# 5 -0.006774 -0.000106 -0.001755 0.000000 0.033206 0.000000
# 6 0.000000 0.000000 0.000000 -0.003159 0.000000 0.025005
#
#
# Mechanical properties :
#
#
# Convention : Reuss Voigt Hill
#
# Bulk Modulus (GPa) = 47.07360 61.37147 54.22254
# Shear Modulus (GPa) = 36.73540 43.68378 40.20959
#
# Velocity S-wave (km/s) = 3.88598 4.23759 4.06559
# Velocity P-wave (km/s) = 6.28371 7.01219 6.65792
#
# Compressibility (1/GPa) = 0.02124333
#
# Stress axis : x y z
#
# Youngs Moduli (GPa) = 55.19738 146.33014 164.03137
#
# Poissons Ratio (x) = 0.41540 0.28645
# Poissons Ratio (y) = 0.15669 0.05196
# Poissons Ratio (z) = 0.09639 0.04635
#
# Static dielectric constant tensor:
#      x y z
#    x 1.917590 0.000000 -0.007900 
#    y 0.000000 1.927390 0.000000 
#    z -0.007900 0.000000 1.910690 
# 
# From -- ./inp_files/10081.got.cif
#   From: 2010.05.17/outbox.cif.g08.bks.cpg/sg8_6_cif.got.tgz:10081.got - 2010.06.03 19:46:02.
