data_PCOD9133833
_publ_section_title
;
Structure prediction by ZEFSAII (Michael W. Deem and Ramdas Pophale) SiO2 
 PCOD9133833
Probable space group: C C
;
_chemical_formula_sum "Si O2"
_cell_formula_units_Z 32
_cell_length_a 19.738119
_cell_length_b 9.039627
_cell_length_c 8.403670
_cell_angle_alpha 90.000000
_cell_angle_beta 79.128627
_cell_angle_gamma 90.000000
_cell_volume 1472.516672
_symmetry_space_group_name_H-M "C C"
_symmetry_group_IT_number 9
_symmetry_cell_setting 'monoclinic'
loop_
_space_group_symop_operation_xyz
x,y,z
x,-y,1/2+z
1/2+x,1/2+y,z
1/2+x,1/2-y,1/2+z
loop_
_atom_site_type_symbol
_atom_site_label
_atom_site_fract_x
_atom_site_fract_y
_atom_site_fract_z
Si Si1 0.656200 0.705239 0.106430
Si Si2 0.045757 0.650062 0.448604
Si Si3 0.254373 0.304392 0.552511
Si Si4 0.680437 0.015982 0.814438
Si Si5 0.181767 0.952048 0.915946
Si Si6 0.542284 0.647771 0.649226
Si Si7 0.907917 0.209336 0.107208
Si Si8 0.960197 0.920360 0.896196
O O1 0.677843 0.855908 0.182320
O O2 0.668468 0.586916 0.240266
O O3 0.582397 0.742457 0.061407
O O4 0.694795 0.623085 0.945311
O O5 0.101822 0.514349 0.414881
O O6 0.048460 0.719901 0.270977
O O7 0.964660 0.663846 0.534092
O O8 0.207435 0.369171 0.715846
O O9 0.234922 0.425250 0.421951
O O10 0.237000 0.152957 0.470960
O O11 0.329646 0.274020 0.588939
O O12 0.111976 0.897895 0.032881
O O13 0.515909 0.508148 0.763910
O O14 0.491170 0.677691 0.524421
O O15 0.926612 0.058627 0.002738
O O16 0.915688 0.171723 0.290598
#
# Coordination Sequence:
#
# PCOD9133833 Si02
#       8
#     4   4   4   4   4   4   4   4
#     4  11  23  38  64  95 126 169 221 277 325 388
#     4  11  21  38  64  94 129 167 216 278 326 393
#     4  11  23  39  64  95 134 176 218 276 335 402
#     4  11  23  42  64  97 134 175 222 275 338 397
#     4  11  21  35  60  94 125 163 218 270 324 387
#     4  10  17  30  55  89 122 157 209 271 315 379
#     4  10  20  36  60  93 133 174 218 273 334 403
#     4   9  18  32  55  91 129 165 216 266 327 391
#
# _framework density 21.731504000000001
#
# number of rings (size 3 to 8) (size 9 to 14) (size 15 to 20)
#    0.000    1.500    2.500    5.250    0.000    0.000 
#    0.000    0.000    5.500    0.000   16.250    0.000 
#    0.000    0.000    0.000    0.000    0.000    0.000 
#
# Total GULP energy -89126.507932 kJ/mol
# GULP energy per Si atom -5570.406746 kJ/mol
# Density = 2.168204 g / cm^3
# Si number density = 21.731504 Si / 1000 Ang^3
#
#
#
# Elastic Constant Matrix: (Units=GPa)
#
#
# Indices 1 2 3 4 5 6 
#
# 1 113.2664 18.7430 44.7540 0.0000 36.7741 0.0000
# 2 18.7430 54.0323 41.2369 0.0000 10.0632 0.0000
# 3 44.7540 41.2369 112.6066 0.0000 34.1357 0.0000
# 4 0.0000 0.0000 0.0000 36.0707 0.0000 5.0960
# 5 36.7741 10.0632 34.1357 0.0000 30.5877 0.0000
# 6 0.0000 0.0000 0.0000 5.0960 0.0000 18.5704
#
#
#
# Elastic Compliance Matrix: (Units=1/GPa)
#
#
# Indices 1 2 3 4 5 6 
#
# 1 0.014666 -0.001954 0.000056 0.000000 -0.017052 0.000000
# 2 -0.001954 0.026142 -0.010430 0.000000 0.005389 0.000000
# 3 0.000056 -0.010430 0.017618 0.000000 -0.016298 0.000000
# 4 0.000000 0.000000 0.000000 0.028842 0.000000 -0.007915
# 5 -0.017052 0.005389 -0.016298 0.000000 0.069609 0.000000
# 6 0.000000 0.000000 0.000000 -0.007915 0.000000 0.056021
#
#
# Mechanical properties :
#
#
# Convention : Reuss Voigt Hill
#
# Bulk Modulus (GPa) = 29.61264 54.37476 41.99370
# Shear Modulus (GPa) = 20.09552 28.72384 24.40968
#
# Velocity S-wave (km/s) = 3.04422 3.63955 3.35511
# Velocity P-wave (km/s) = 5.10025 6.53737 5.86301
#
# Compressibility (1/GPa) = 0.03376937
#
# Stress axis : x y z
#
# Youngs Moduli (GPa) = 68.18342 38.25276 56.75913
#
# Poissons Ratio (x) = 0.07476 -0.00318
# Poissons Ratio (y) = 0.13326 0.59201
# Poissons Ratio (z) = -0.00382 0.39898
#
# Static dielectric constant tensor:
#      x y z
#    x 1.847520 0.000000 -0.003590 
#    y 0.000000 1.855520 0.000000 
#    z -0.003590 0.000000 1.828400 
# 
# From -- ./inp_files/11350.got.cif
#   From: 2010.05.17/outbox.cif.g08.bks.cpg/sg9_6_cif.got.tgz:11350.got - 2010.06.03 20:04:27.
