data_PCOD9133885
_publ_section_title
;
Structure prediction by ZEFSAII (Michael W. Deem and Ramdas Pophale) SiO2 
 PCOD9133885
Probable space group: C C
;
_chemical_formula_sum "Si O2"
_cell_formula_units_Z 32
_cell_length_a 9.164096
_cell_length_b 17.621859
_cell_length_c 10.048467
_cell_angle_alpha 90.000000
_cell_angle_beta 60.599324
_cell_angle_gamma 90.000000
_cell_volume 1413.718779
_symmetry_space_group_name_H-M "C C"
_symmetry_group_IT_number 9
_symmetry_cell_setting 'monoclinic'
loop_
_space_group_symop_operation_xyz
x,y,z
x,-y,1/2+z
1/2+x,1/2+y,z
1/2+x,1/2-y,1/2+z
loop_
_atom_site_type_symbol
_atom_site_label
_atom_site_fract_x
_atom_site_fract_y
_atom_site_fract_z
Si Si1 0.850280 0.364704 0.190890
Si Si2 0.604489 0.490769 0.416438
Si Si3 0.511274 0.982203 0.933745
Si Si4 0.802724 0.070343 0.878198
Si Si5 0.187039 0.073777 0.130087
Si Si6 0.948764 0.201521 0.123612
Si Si7 0.594271 0.136883 0.201318
Si Si8 0.017938 0.201701 0.771056
O O1 0.736947 0.421393 0.330402
O O2 0.705474 0.329005 0.160685
O O3 0.936856 0.285662 0.193949
O O4 0.980770 0.421535 0.065024
O O5 0.431734 0.465614 0.425681
O O6 0.659769 0.559433 0.298375
O O7 0.595452 0.492207 0.579741
O O8 0.488277 0.929355 0.816125
O O9 0.699998 0.011355 0.838827
O O10 0.378645 0.049899 0.013023
O O11 0.894844 0.139570 0.767122
O O12 0.662315 0.108150 0.032871
O O13 0.091140 0.149681 0.127981
O O14 0.763258 0.162111 0.209685
O O15 0.992139 0.206828 0.944918
O O16 0.494024 0.214320 0.230334
#
# Coordination Sequence:
#
# PCOD9133885 Si02
#       8
#     4   4   4   4   4   4   4   4
#     4   9  18  33  57  88 113 155 209 245 287 356
#     4  10  21  40  59  91 119 164 198 256 294 365
#     4  11  23  33  59  92 123 156 197 257 308 361
#     4  10  21  36  59  89 123 154 204 253 302 356
#     4  11  22  38  62  90 129 154 202 248 315 355
#     4  10  17  35  59  88 112 156 206 258 277 359
#     4  10  19  33  60  86 115 156 211 244 293 367
#     4   9  17  34  59  84 116 155 213 245 290 355
#
# _framework density 22.635335000000001
#
# number of rings (size 3 to 8) (size 9 to 14) (size 15 to 20)
#    0.000    2.000    5.000    0.750    3.500    0.000 
#    0.000    0.000    2.750    1.500    0.000    0.000 
#    0.000    0.000    0.000    0.000    0.000    0.000 
#
# Total GULP energy -89152.817217 kJ/mol
# GULP energy per Si atom -5572.051076 kJ/mol
# Density = 2.258382 g / cm^3
# Si number density = 22.635335 Si / 1000 Ang^3
#
#
#
# Elastic Constant Matrix: (Units=GPa)
#
#
# Indices 1 2 3 4 5 6 
#
# 1 91.3793 43.3193 7.1119 0.0000 -12.7783 0.0000
# 2 43.3193 98.6080 11.0652 0.0000 -14.9439 0.0000
# 3 7.1119 11.0652 26.2444 0.0000 -12.1181 0.0000
# 4 0.0000 0.0000 0.0000 22.7875 0.0000 -6.7709
# 5 -12.7783 -14.9439 -12.1181 0.0000 27.2492 0.0000
# 6 0.0000 0.0000 0.0000 -6.7709 0.0000 30.2811
#
#
#
# Elastic Compliance Matrix: (Units=1/GPa)
#
#
# Indices 1 2 3 4 5 6 
#
# 1 0.014125 -0.005684 0.000237 0.000000 0.003612 0.000000
# 2 -0.005684 0.013464 -0.002464 0.000000 0.003623 0.000000
# 3 0.000237 -0.002464 0.048455 0.000000 0.020309 0.000000
# 4 0.000000 0.000000 0.000000 0.047007 0.000000 0.010511
# 5 0.003612 0.003623 0.020309 0.000000 0.049410 0.000000
# 6 0.000000 0.000000 0.000000 0.010511 0.000000 0.035374
#
#
# Mechanical properties :
#
#
# Convention : Reuss Voigt Hill
#
# Bulk Modulus (GPa) = 16.60541 37.69162 27.14852
# Shear Modulus (GPa) = 20.51438 26.37923 23.44681
#
# Velocity S-wave (km/s) = 3.01375 3.41750 3.22195
# Velocity P-wave (km/s) = 4.41160 5.67981 5.08539
#
# Compressibility (1/GPa) = 0.06022132
#
# Stress axis : x y z
#
# Youngs Moduli (GPa) = 70.79776 74.27329 20.63754
#
# Poissons Ratio (x) = 0.42220 -0.00488
# Poissons Ratio (y) = 0.40244 0.05084
# Poissons Ratio (z) = -0.01675 0.18298
#
# Static dielectric constant tensor:
#      x y z
#    x 1.884130 0.000000 -0.027960 
#    y 0.000000 1.871680 0.000000 
#    z -0.027960 0.000000 1.947590 
# 
# From -- ./inp_files/15171.got.cif
#   From: 2010.05.17/outbox.cif.g08.bks.cpg/sg9_8_cif.got.tgz:15171.got - 2010.06.03 20:04:27.
