data_PCOD9133013
_publ_section_title
;
Structure prediction by ZEFSAII (Michael W. Deem and Ramdas Pophale) SiO2 
 PCOD9133013
Probable space group: C M
;
_chemical_formula_sum "Si O2"
_cell_formula_units_Z 28
_cell_length_a 13.619667
_cell_length_b 18.476299
_cell_length_c 4.949364
_cell_angle_alpha 90.000000
_cell_angle_beta 72.534615
_cell_angle_gamma 90.000000
_cell_volume 1188.045320
_symmetry_space_group_name_H-M "C M"
_symmetry_group_IT_number 8
_symmetry_cell_setting 'monoclinic'
loop_
_space_group_symop_operation_xyz
x,y,z
x,-y,z
1/2+x,1/2+y,z
1/2+x,1/2-y,z
loop_
_atom_site_type_symbol
_atom_site_label
_atom_site_fract_x
_atom_site_fract_y
_atom_site_fract_z
Si Si1 0.409870 0.086097 0.781870
Si Si2 0.713603 0.203665 0.130296
Si Si3 0.985482 0.080250 0.196759
Si Si4 0.043967 0.413798 0.184685
Si Si5 0.434824 0.666765 0.732683
Si Si6 0.650157 0.714900 0.678634
Si Si7 0.210323 0.916238 0.272762
O O1 0.452302 0.112720 0.460648
O O2 0.392749 0.000000 0.762485
O O3 0.502278 0.096424 0.917644
O O4 0.305745 0.111383 0.013178
O O5 0.646584 0.131255 0.150808
O O6 0.828089 0.195522 0.927419
O O7 0.709848 0.228519 0.441537
O O8 0.660898 0.263875 0.980379
O O9 0.968348 0.100482 0.901114
O O10 0.104973 0.082289 0.187084
O O11 0.945997 0.000000 0.283546
O O12 0.930634 0.138410 0.432351
O O13 0.059159 0.500000 0.217291
O O14 0.530444 0.720329 0.693090
O O15 0.690900 0.637046 0.540673
O O16 0.231110 0.000000 0.340925
#
# Coordination Sequence:
#
# PCOD9133013 Si02
#       7
#     4   4   4   4   4   4   4
#     4   9  19  36  61  93 126 162 208 259 313 369
#     4  12  26  44  65  91 126 170 211 262 321 374
#     4  10  21  39  66  98 130 164 210 266 316 374
#     4  10  22  40  61  90 125 164 214 262 306 371
#     4  11  24  44  63  92 129 167 213 260 316 388
#     4  11  25  43  63  94 127 164 213 262 314 381
#     4   9  20  40  67  98 132 169 209 261 322 379
#
# _framework density 23.568127
#
# number of rings (size 3 to 8) (size 9 to 14) (size 15 to 20)
#    0.000    1.714    0.000    3.857    0.000    8.571 
#    0.000   10.714    0.000    0.000    0.000    0.000 
#    0.000    0.000    0.000    0.000    0.000    0.000 
#
# Total GULP energy -78385.461403 kJ/mol
# GULP energy per Si atom -5598.961529 kJ/mol
# Density = 2.351448 g / cm^3
# Si number density = 23.568127 Si / 1000 Ang^3
#
#
#
# Elastic Constant Matrix: (Units=GPa)
#
#
# Indices 1 2 3 4 5 6 
#
# 1 50.7274 22.7215 22.6683 0.0000 -18.8686 0.0000
# 2 22.7215 75.9887 5.2435 0.0000 -6.2329 0.0000
# 3 22.6683 5.2435 85.4814 0.0000 -9.6253 0.0000
# 4 0.0000 0.0000 0.0000 32.7898 0.0000 3.7699
# 5 -18.8686 -6.2329 -9.6253 0.0000 51.9407 0.0000
# 6 0.0000 0.0000 0.0000 3.7699 0.0000 27.1416
#
#
#
# Elastic Compliance Matrix: (Units=1/GPa)
#
#
# Indices 1 2 3 4 5 6 
#
# 1 0.029067 -0.007561 -0.006289 0.000000 0.008486 0.000000
# 2 -0.007561 0.015293 0.000985 0.000000 -0.000729 0.000000
# 3 -0.006289 0.000985 0.013340 0.000000 0.000306 0.000000
# 4 0.000000 0.000000 0.000000 0.030992 0.000000 -0.004305
# 5 0.008486 -0.000729 0.000306 0.000000 0.022305 0.000000
# 6 0.000000 0.000000 0.000000 -0.004305 0.000000 0.037442
#
#
# Mechanical properties :
#
#
# Convention : Reuss Voigt Hill
#
# Bulk Modulus (GPa) = 31.27935 34.82933 33.05434
# Shear Modulus (GPa) = 27.05256 33.14535 30.09896
#
# Velocity S-wave (km/s) = 3.39166 3.75422 3.57754
# Velocity P-wave (km/s) = 5.35150 5.79676 5.57857
#
# Compressibility (1/GPa) = 0.03196997
#
# Stress axis : x y z
#
# Youngs Moduli (GPa) = 34.40344 65.38935 74.96187
#
# Poissons Ratio (x) = 0.49443 0.47141
# Poissons Ratio (y) = 0.26014 -0.07383
# Poissons Ratio (z) = 0.21635 -0.06441
#
# Static dielectric constant tensor:
#      x y z
#    x 1.864350 0.000000 -0.014010 
#    y 0.000000 1.916150 0.000000 
#    z -0.014010 0.000000 1.852010 
# 
# From -- ./inp_files/4091.got.cif
#   From: 2010.05.17/outbox.cif.g08.bks.cpg/sg8_3_cif.got.tgz:4091.got - 2010.06.03 19:46:02.
