data_PCOD9133097
_publ_section_title
;
Structure prediction by ZEFSAII (Michael W. Deem and Ramdas Pophale) SiO2 
 PCOD9133097
Probable space group: C M
;
_chemical_formula_sum "Si O2"
_cell_formula_units_Z 22
_cell_length_a 8.636606
_cell_length_b 10.471518
_cell_length_c 11.620142
_cell_angle_alpha 90.000000
_cell_angle_beta 79.277643
_cell_angle_gamma 90.000000
_cell_volume 1032.558218
_symmetry_space_group_name_H-M "C M"
_symmetry_group_IT_number 8
_symmetry_cell_setting 'monoclinic'
loop_
_space_group_symop_operation_xyz
x,y,z
x,-y,z
1/2+x,1/2+y,z
1/2+x,1/2-y,z
loop_
_atom_site_type_symbol
_atom_site_label
_atom_site_fract_x
_atom_site_fract_y
_atom_site_fract_z
Si Si1 0.529900 0.361891 0.911580
Si Si2 0.235442 0.500000 0.542803
Si Si3 0.801561 0.730998 0.404875
Si Si4 0.378816 0.000000 0.557142
Si Si5 0.515202 0.500000 0.692477
Si Si6 0.566450 0.645991 0.255078
Si Si7 0.314812 0.857118 0.018415
O O1 0.476785 0.500000 0.968778
O O2 0.497004 0.378439 0.781087
O O3 0.445481 0.247674 0.985286
O O4 0.713855 0.354772 0.914374
O O5 0.262748 0.367741 0.468071
O O6 0.375063 0.500000 0.619411
O O7 0.047187 0.500000 0.602093
O O8 0.877550 0.628783 0.480394
O O9 0.651707 0.665685 0.366205
O O10 0.920970 0.759556 0.283633
O O11 0.200066 0.000000 0.632769
O O12 0.513533 0.500000 0.252321
O O13 0.688219 0.669489 0.135762
O O14 0.377388 0.000000 0.028563
#
# Coordination Sequence:
#
# PCOD9133097 Si02
#       7
#     4   2   4   2   2   4   4
#     4   9  22  46  63  93 135 167 221 290 329 399
#     4  12  26  46  71  98 135 190 226 280 345 397
#     4  12  23  43  64 100 137 174 229 272 332 415
#     4  12  26  46  68  99 136 179 238 280 335 409
#     4  10  26  50  67  97 141 177 228 300 340 380
#     4  11  22  38  67  98 140 175 210 277 340 400
#     4  10  21  42  68  97 130 176 220 269 344 407
#
# _framework density 21.306304000000001
#
# number of rings (size 3 to 8) (size 9 to 14) (size 15 to 20)
#    0.545    0.727    3.636    2.182    0.000    2.182 
#    6.545    0.000    0.000    0.000    0.000    0.000 
#    0.000    0.000    0.000    0.000    0.000    0.000 
#
# Total GULP energy -61323.442983 kJ/mol
# GULP energy per Si atom -5574.858453 kJ/mol
# Density = 2.125781 g / cm^3
# Si number density = 21.306304 Si / 1000 Ang^3
#
#
#
# Elastic Constant Matrix: (Units=GPa)
#
#
# Indices 1 2 3 4 5 6 
#
# 1 96.7394 40.7148 27.5065 0.0000 0.9025 0.0000
# 2 40.7148 125.4527 31.8932 0.0000 -25.8898 0.0000
# 3 27.5065 31.8932 58.1224 0.0000 1.9632 0.0000
# 4 0.0000 0.0000 0.0000 31.2574 0.0000 -5.8602
# 5 0.9025 -25.8898 1.9632 0.0000 40.5078 0.0000
# 6 0.0000 0.0000 0.0000 -5.8602 0.0000 21.1130
#
#
#
# Elastic Compliance Matrix: (Units=1/GPa)
#
#
# Indices 1 2 3 4 5 6 
#
# 1 0.013083 -0.003723 -0.004065 0.000000 -0.002474 0.000000
# 2 -0.003723 0.012174 -0.005192 0.000000 0.008116 0.000000
# 3 -0.004065 -0.005192 0.022123 0.000000 -0.004300 0.000000
# 4 0.000000 0.000000 0.000000 0.033749 0.000000 0.009367
# 5 -0.002474 0.008116 -0.004300 0.000000 0.030137 0.000000
# 6 0.000000 0.000000 0.000000 0.009367 0.000000 0.049964
#
#
# Mechanical properties :
#
#
# Convention : Reuss Voigt Hill
#
# Bulk Modulus (GPa) = 46.68669 53.39370 50.04020
# Shear Modulus (GPa) = 25.72923 30.58896 28.15910
#
# Velocity S-wave (km/s) = 3.47881 3.79314 3.63937
# Velocity P-wave (km/s) = 6.17218 6.65570 6.41850
#
# Compressibility (1/GPa) = 0.02141938
#
# Stress axis : x y z
#
# Youngs Moduli (GPa) = 76.43564 82.14013 45.20118
#
# Poissons Ratio (x) = 0.30582 0.18374
# Poissons Ratio (y) = 0.28458 0.23471
# Poissons Ratio (z) = 0.31071 0.42651
#
# Static dielectric constant tensor:
#      x y z
#    x 1.792000 0.000000 0.021120 
#    y 0.000000 1.759360 0.000000 
#    z 0.021120 0.000000 1.821040 
# 
# From -- ./inp_files/18510.got.cif
#   From: 2010.05.17/outbox.cif.g08.bks.cpg/sg8_10_cif.got.tgz:18510.got - 2010.06.03 19:46:02.
