data_PCOD9133234
_publ_section_title
;
Structure prediction by ZEFSAII (Michael W. Deem and Ramdas Pophale) SiO2 
 PCOD9133234
Probable space group: C M
;
_chemical_formula_sum "Si O2"
_cell_formula_units_Z 28
_cell_length_a 16.892446
_cell_length_b 11.482528
_cell_length_c 19.402563
_cell_angle_alpha 90.000000
_cell_angle_beta 159.905625
_cell_angle_gamma 90.000000
_cell_volume 1293.008043
_symmetry_space_group_name_H-M "C M"
_symmetry_group_IT_number 8
_symmetry_cell_setting 'monoclinic'
loop_
_space_group_symop_operation_xyz
x,y,z
x,-y,z
1/2+x,1/2+y,z
1/2+x,1/2-y,z
loop_
_atom_site_type_symbol
_atom_site_label
_atom_site_fract_x
_atom_site_fract_y
_atom_site_fract_z
Si Si1 0.552590 0.262720 0.123980
Si Si2 0.348300 0.189294 0.826071
Si Si3 0.849038 0.136333 0.477822
Si Si4 0.940987 0.366928 0.352783
Si Si5 0.057119 0.731361 0.773029
Si Si6 0.101858 0.132884 0.952532
Si Si7 0.218047 0.121989 0.582016
O O1 0.656925 0.202827 0.276773
O O2 0.736793 0.351941 0.242526
O O3 0.504717 0.172504 0.021252
O O4 0.295400 0.305610 0.931951
O O5 0.407742 0.318754 0.846952
O O6 0.382285 0.119952 0.783682
O O7 0.088098 0.160722 0.632944
O O8 0.910900 0.184729 0.603495
O O9 0.798337 0.000000 0.438551
O O10 0.036315 0.500000 0.437285
O O11 0.085985 0.246359 0.478019
O O12 0.830456 0.358733 0.186027
O O13 0.112516 0.797645 0.889926
O O14 0.883191 0.630175 0.651608
O O15 0.060737 0.000000 0.902100
O O16 0.081777 0.000000 0.470272
#
# Coordination Sequence:
#
# PCOD9133234 Si02
#       7
#     4   4   4   4   4   4   4
#     4  10  22  41  63  93 132 167 215 267 325 378
#     4   9  20  39  62  92 125 163 215 265 318 378
#     4  11  22  38  62  93 131 171 215 264 321 388
#     4  10  22  41  70  99 126 169 223 271 320 384
#     4  10  24  41  62  93 134 166 215 263 326 384
#     4   9  19  39  64  93 130 169 214 270 325 381
#     4  11  23  43  67  95 133 173 214 268 326 385
#
# _framework density 21.654931000000001
#
# number of rings (size 3 to 8) (size 9 to 14) (size 15 to 20)
#    0.000    2.000    1.429    0.857    2.000    6.857 
#    0.000   12.143    0.000    0.000    0.000    0.000 
#    0.000    0.000    0.000    0.000    0.000    0.000 
#
# Total GULP energy -77963.061325 kJ/mol
# GULP energy per Si atom -5568.790095 kJ/mol
# Density = 2.160564 g / cm^3
# Si number density = 21.654931 Si / 1000 Ang^3
#
#
#
# Elastic Constant Matrix: (Units=GPa)
#
#
# Indices 1 2 3 4 5 6 
#
# 1 100.9873 29.3434 24.5902 0.0036 -12.1757 0.0032
# 2 29.3434 137.6291 33.9853 0.0073 -0.3565 0.0027
# 3 24.5902 33.9853 85.7693 -0.0024 -10.9983 0.0049
# 4 0.0036 0.0073 -0.0024 15.0505 -0.0025 4.1469
# 5 -12.1757 -0.3565 -10.9983 -0.0025 34.1164 -0.0015
# 6 0.0032 0.0027 0.0049 4.1469 -0.0015 0.3807
#
#
#
# Elastic Compliance Matrix: (Units=1/GPa)
#
#
# Indices 1 2 3 4 5 6 
#
# 1 0.011366 -0.001903 -0.002073 -0.000005 0.003368 0.000012
# 2 -0.001903 0.008404 -0.002984 0.000001 -0.001553 -0.000018
# 3 -0.002073 -0.002984 0.013912 -0.000020 0.003714 0.000089
# 4 -0.000005 0.000001 -0.000020 -0.033202 0.000005 0.361647
# 5 0.003368 -0.001553 0.003714 0.000005 0.031695 0.000004
# 6 0.000012 -0.000018 0.000089 0.361647 0.000004 -1.312539
#
#
# Mechanical properties :
#
#
# Convention : Reuss Voigt Hill
#
# Bulk Modulus (GPa) = 50.59785 55.58038 53.08912
# Shear Modulus (GPa) = -3.96870 25.67399 10.85264
#
# Velocity S-wave (km/s) = -1.35524 3.44698 2.24109
# Velocity P-wave (km/s) = 4.57901 6.44704 5.59159
#
# Compressibility (1/GPa) = 0.01976368
#
# Stress axis : x y z
#
# Youngs Moduli (GPa) = 87.98236 118.98595 71.88039
#
# Poissons Ratio (x) = 0.22640 0.14899
# Poissons Ratio (y) = 0.16741 0.21448
# Poissons Ratio (z) = 0.18237 0.35503
#
# Static dielectric constant tensor:
#      x y z
#    x 1.822100 0.000000 0.018210 
#    y 0.000000 1.809630 0.000000 
#    z 0.018210 0.000000 1.853650 
# 
# From -- ./inp_files/31134.got.cif
#   From: 2010.05.17/outbox.cif.g08.bks.cpg/sg8_16_cif.got.tgz:31134.got - 2010.06.03 19:46:02.
