data_PCOD9133316
_publ_section_title
;
Structure prediction by ZEFSAII (Michael W. Deem and Ramdas Pophale) SiO2 
 PCOD9133316
Probable space group: C M
;
_chemical_formula_sum "Si O2"
_cell_formula_units_Z 32
_cell_length_a 9.802680
_cell_length_b 25.431679
_cell_length_c 5.133928
_cell_angle_alpha 90.000000
_cell_angle_beta 90.764627
_cell_angle_gamma 90.000000
_cell_volume 1279.767151
_symmetry_space_group_name_H-M "C M"
_symmetry_group_IT_number 8
_symmetry_cell_setting 'monoclinic'
loop_
_space_group_symop_operation_xyz
x,y,z
x,-y,z
1/2+x,1/2+y,z
1/2+x,1/2-y,z
loop_
_atom_site_type_symbol
_atom_site_label
_atom_site_fract_x
_atom_site_fract_y
_atom_site_fract_z
Si Si1 0.905110 0.251237 0.177800
Si Si2 0.552594 0.909028 0.279281
Si Si3 0.647532 0.204434 0.483279
Si Si4 0.290775 0.136867 0.066393
Si Si5 0.710114 0.942497 0.762568
Si Si6 0.521690 0.600051 0.239822
Si Si7 0.818017 0.160161 0.920634
Si Si8 0.649623 0.442344 0.745712
O O1 0.778039 0.227440 0.336486
O O2 0.861380 0.306835 0.051268
O O3 0.023571 0.258870 0.391042
O O4 0.923856 0.208649 0.946894
O O5 0.604954 0.850259 0.344876
O O6 0.392799 0.902292 0.220794
O O7 0.602368 0.941567 0.525652
O O8 0.625873 0.930338 0.023315
O O9 0.687001 0.191473 0.785884
O O10 0.146977 0.141574 0.211459
O O11 0.254623 0.105943 0.799513
O O12 0.807014 0.891491 0.738272
O O13 0.775002 0.000000 0.777065
O O14 0.553786 0.569837 0.501616
O O15 0.379028 0.627817 0.175254
O O16 0.558645 0.561212 0.003731
O O17 0.713239 0.500000 0.723826
#
# Coordination Sequence:
#
# PCOD9133316 Si02
#       8
#     4   4   4   4   4   4   4   4
#     4  11  22  44  70 104 136 190 229 290 351 425
#     4  10  22  44  64 100 138 180 229 286 339 410
#     4  10  24  42  69  99 143 181 233 283 356 414
#     4   9  24  41  68 105 142 179 230 283 347 415
#     4  11  24  42  68  98 132 185 233 285 346 410
#     4  10  24  42  68 100 137 182 228 283 349 412
#     4  11  25  44  70  97 139 178 232 290 349 415
#     4  10  23  43  68 103 144 183 230 286 349 417
#
# _framework density 25.004546999999999
#
# number of rings (size 3 to 8) (size 9 to 14) (size 15 to 20)
#    0.750    1.000    1.250    1.500    3.500    6.000 
#    4.500    0.000    0.000    0.000    0.000    0.000 
#    0.000    0.000    0.000    0.000    0.000    0.000 
#
# Total GULP energy -89110.608706 kJ/mol
# GULP energy per Si atom -5569.413044 kJ/mol
# Density = 2.494764 g / cm^3
# Si number density = 25.004547 Si / 1000 Ang^3
#
#
#
# Elastic Constant Matrix: (Units=GPa)
#
#
# Indices 1 2 3 4 5 6 
#
# 1 88.8003 11.8725 36.6746 0.0000 29.7685 0.0000
# 2 11.8725 137.0573 46.5373 0.0000 20.0544 0.0000
# 3 36.6746 46.5373 198.8180 0.0000 30.0679 0.0000
# 4 0.0000 0.0000 0.0000 48.4038 0.0000 20.6639
# 5 29.7685 20.0544 30.0679 0.0000 35.4989 0.0000
# 6 0.0000 0.0000 0.0000 20.6639 0.0000 31.0254
#
#
#
# Elastic Compliance Matrix: (Units=1/GPa)
#
#
# Indices 1 2 3 4 5 6 
#
# 1 0.015953 0.000912 -0.001210 0.000000 -0.012868 0.000000
# 2 0.000912 0.008338 -0.001482 0.000000 -0.004220 0.000000
# 3 -0.001210 -0.001482 0.006101 0.000000 -0.003316 0.000000
# 4 0.000000 0.000000 0.000000 0.028868 0.000000 -0.019227
# 5 -0.012868 -0.004220 -0.003316 0.000000 0.044153 0.000000
# 6 0.000000 0.000000 0.000000 -0.019227 0.000000 0.045037
#
#
# Mechanical properties :
#
#
# Convention : Reuss Voigt Hill
#
# Bulk Modulus (GPa) = 37.26893 68.31602 52.79248
# Shear Modulus (GPa) = 31.06487 44.95835 38.01161
#
# Velocity S-wave (km/s) = 3.52855 4.24489 3.90319
# Velocity P-wave (km/s) = 5.61588 7.16981 6.43989
#
# Compressibility (1/GPa) = 0.02683200
#
# Stress axis : x y z
#
# Youngs Moduli (GPa) = 62.68512 119.93595 163.90104
#
# Poissons Ratio (x) = -0.10936 0.19833
# Poissons Ratio (y) = -0.05716 0.24284
# Poissons Ratio (z) = 0.07585 0.17770
#
# Static dielectric constant tensor:
#      x y z
#    x 2.033090 0.000000 -0.063940 
#    y 0.000000 1.986640 0.000000 
#    z -0.063940 0.000000 2.035320 
# 
# From -- ./inp_files/3180.got.cif
#   From: 2010.05.17/outbox.cif.g08.bks.cpg/sg8_2_cif.got.tgz:3180.got - 2010.06.03 19:46:02.
