data_PCOD9133431
_publ_section_title
;
Structure prediction by ZEFSAII (Michael W. Deem and Ramdas Pophale) SiO2 
 PCOD9133431
Probable space group: C M
;
_chemical_formula_sum "Si O2"
_cell_formula_units_Z 28
_cell_length_a 8.939973
_cell_length_b 28.862545
_cell_length_c 5.476552
_cell_angle_alpha 90.000000
_cell_angle_beta 124.889685
_cell_angle_gamma 90.000000
_cell_volume 1159.115895
_symmetry_space_group_name_H-M "C M"
_symmetry_group_IT_number 8
_symmetry_cell_setting 'monoclinic'
loop_
_space_group_symop_operation_xyz
x,y,z
x,-y,z
1/2+x,1/2+y,z
1/2+x,1/2-y,z
loop_
_atom_site_type_symbol
_atom_site_label
_atom_site_fract_x
_atom_site_fract_y
_atom_site_fract_z
Si Si1 0.526560 0.761539 0.178860
Si Si2 0.368176 0.446329 0.299123
Si Si3 0.329586 0.682965 0.283543
Si Si4 0.486464 0.861349 0.688105
Si Si5 0.653819 0.613146 0.705538
Si Si6 0.675604 0.056299 0.615086
Si Si7 0.734660 0.687409 0.098451
O O1 0.448138 0.726834 0.307246
O O2 0.700312 0.795459 0.376883
O O3 0.587416 0.725713 0.027005
O O4 0.350359 0.793791 0.976616
O O5 0.330547 0.500000 0.275907
O O6 0.573849 0.436694 0.577121
O O7 0.244733 0.428268 0.411057
O O8 0.320433 0.435267 0.972943
O O9 0.484592 0.644120 0.445386
O O10 0.172544 0.661613 0.962508
O O11 0.347854 0.880668 0.761993
O O12 0.525299 0.905884 0.552256
O O13 0.379899 0.821018 0.445559
O O14 0.661213 0.636218 0.978157
O O15 0.633712 0.000000 0.576153
#
# Coordination Sequence:
#
# PCOD9133431 Si02
#       7
#     4   4   4   4   4   4   4
#     4  10  24  44  66  94 132 192 234 296 358 422
#     4  10  24  47  77 108 145 190 236 293 365 439
#     4  11  24  44  65  96 136 180 237 298 352 423
#     4  12  26  44  70 105 138 186 238 299 361 433
#     4  12  26  44  70 105 138 186 238 299 361 433
#     4  10  24  47  77 108 145 190 236 293 365 439
#     4  11  26  42  67 100 138 182 247 292 360 421
#
# _framework density 24.156343
#
# number of rings (size 3 to 8) (size 9 to 14) (size 15 to 20)
#    0.000    1.143    4.286    0.000    8.000    7.429 
#    0.000    0.714    0.000    0.000    0.000    0.000 
#    0.000    0.000    0.000    0.000    0.000    0.000 
#
# Total GULP energy -77999.425458 kJ/mol
# GULP energy per Si atom -5571.387533 kJ/mol
# Density = 2.410136 g / cm^3
# Si number density = 24.156343 Si / 1000 Ang^3
#
#
#
# Elastic Constant Matrix: (Units=GPa)
#
#
# Indices 1 2 3 4 5 6 
#
# 1 93.2917 5.1917 7.8280 0.0000 -2.0294 0.0000
# 2 5.1917 35.9738 3.3286 0.0000 -4.8190 0.0000
# 3 7.8280 3.3286 84.0001 0.0000 13.2999 0.0000
# 4 0.0000 0.0000 0.0000 16.3359 0.0000 -0.5957
# 5 -2.0294 -4.8190 13.2999 0.0000 23.5617 0.0000
# 6 0.0000 0.0000 0.0000 -0.5957 0.0000 39.6312
#
#
#
# Elastic Compliance Matrix: (Units=1/GPa)
#
#
# Indices 1 2 3 4 5 6 
#
# 1 0.010919 -0.001287 -0.001179 0.000000 0.001343 0.000000
# 2 -0.001287 0.029129 -0.002152 0.000000 0.007062 0.000000
# 3 -0.001179 -0.002152 0.013382 0.000000 -0.008095 0.000000
# 4 0.000000 0.000000 0.000000 0.061249 0.000000 0.000921
# 5 0.001343 0.007062 -0.008095 0.000000 0.048571 0.000000
# 6 0.000000 0.000000 0.000000 0.000921 0.000000 0.025247
#
#
# Mechanical properties :
#
#
# Convention : Reuss Voigt Hill
#
# Bulk Modulus (GPa) = 22.62825 27.32914 24.97869
# Shear Modulus (GPa) = 23.53346 29.03357 26.28351
#
# Velocity S-wave (km/s) = 3.12463 3.47061 3.30215
# Velocity P-wave (km/s) = 4.73344 5.23433 4.99017
#
# Compressibility (1/GPa) = 0.04419256
#
# Stress axis : x y z
#
# Youngs Moduli (GPa) = 91.58491 34.33021 74.72899
#
# Poissons Ratio (x) = 0.04418 0.08812
# Poissons Ratio (y) = 0.11785 0.16085
# Poissons Ratio (z) = 0.10799 0.07389
#
# Static dielectric constant tensor:
#      x y z
#    x 1.951870 0.000000 -0.020970 
#    y 0.000000 2.136260 0.000000 
#    z -0.020970 0.000000 2.002510 
# 
# From -- ./inp_files/1838.got.cif
#   From: 2010.05.17/outbox.cif.g08.bks.cpg/sg8_1_cif.got.tgz:1838.got - 2010.06.03 19:46:02.
