data_PCOD9133455
_publ_section_title
;
Structure prediction by ZEFSAII (Michael W. Deem and Ramdas Pophale) SiO2 
 PCOD9133455
Probable space group: C M
;
_chemical_formula_sum "Si O2"
_cell_formula_units_Z 26
_cell_length_a 9.891871
_cell_length_b 7.546960
_cell_length_c 24.376332
_cell_angle_alpha 90.000000
_cell_angle_beta 33.828700
_cell_angle_gamma 90.000000
_cell_volume 1013.092897
_symmetry_space_group_name_H-M "C M"
_symmetry_group_IT_number 8
_symmetry_cell_setting 'monoclinic'
loop_
_space_group_symop_operation_xyz
x,y,z
x,-y,z
1/2+x,1/2+y,z
1/2+x,1/2-y,z
loop_
_atom_site_type_symbol
_atom_site_label
_atom_site_fract_x
_atom_site_fract_y
_atom_site_fract_z
Si Si1 0.223240 0.708792 0.417300
Si Si2 0.653888 0.798316 0.603628
Si Si3 0.172768 0.000000 0.519819
Si Si4 0.954929 0.788734 0.907601
Si Si5 0.913313 0.205388 0.236660
Si Si6 0.943412 0.202546 0.789278
Si Si7 0.898581 0.211675 0.121873
O O1 0.282628 0.500000 0.404411
O O2 0.299826 0.842613 0.439094
O O3 0.313411 0.777027 0.327714
O O4 0.930516 0.728153 0.515030
O O5 0.540215 0.656526 0.601226
O O6 0.540699 0.795806 0.702125
O O7 0.653285 0.000000 0.583512
O O8 0.003811 0.725732 0.828894
O O9 0.151295 0.705784 0.881803
O O10 0.991852 0.000000 0.896525
O O11 0.676392 0.753404 0.015572
O O12 0.204755 0.216937 0.144116
O O13 0.837633 0.282639 0.203679
O O14 0.844180 0.000000 0.259946
O O15 0.032758 0.000000 0.756529
O O16 0.873001 0.000000 0.130828
#
# Coordination Sequence:
#
# PCOD9133455 Si02
#       7
#     4   4   2   4   4   4   4
#     4  11  25  46  71 103 141 187 236 294 350 421
#     4  12  26  45  71 104 142 187 233 293 351 423
#     4  12  26  46  72  98 144 188 232 294 352 416
#     4  11  25  44  68 100 138 178 230 289 348 416
#     4  10  25  44  68 100 136 179 230 288 348 415
#     4  11  25  45  69 100 138 182 233 289 349 418
#     4  11  24  43  69  99 136 178 228 286 348 417
#
# _framework density 25.663982000000001
#
# number of rings (size 3 to 8) (size 9 to 14) (size 15 to 20)
#    0.000    0.923    2.308    2.769    5.385    7.385 
#    0.000    0.000    0.000    0.000    0.000    0.000 
#    0.000    0.000    0.000    0.000    0.000    0.000 
#
# Total GULP energy -72590.719070 kJ/mol
# GULP energy per Si atom -5583.901467 kJ/mol
# Density = 2.560557 g / cm^3
# Si number density = 25.663982 Si / 1000 Ang^3
#
#
#
# Elastic Constant Matrix: (Units=GPa)
#
#
# Indices 1 2 3 4 5 6 
#
# 1 94.9690 8.6182 3.3729 -0.0002 5.6725 0.0000
# 2 8.6182 169.8445 8.2849 0.0001 27.1005 0.0000
# 3 3.3729 8.2849 100.2213 0.0002 8.0907 0.0000
# 4 -0.0002 0.0001 0.0002 35.7373 0.0000 4.8283
# 5 5.6725 27.1005 8.0907 0.0000 50.8990 0.0001
# 6 0.0000 0.0000 0.0000 4.8283 0.0001 17.2430
#
#
#
# Elastic Compliance Matrix: (Units=1/GPa)
#
#
# Indices 1 2 3 4 5 6 
#
# 1 0.010629 -0.000376 -0.000250 0.000000 -0.000944 0.000000
# 2 -0.000376 0.006454 -0.000250 0.000000 -0.003355 0.000000
# 3 -0.000250 -0.000250 0.010124 0.000000 -0.001448 0.000000
# 4 0.000000 0.000000 0.000000 0.029082 0.000000 -0.008143
# 5 -0.000944 -0.003355 -0.001448 0.000000 0.021768 0.000000
# 6 0.000000 0.000000 0.000000 -0.008143 0.000000 0.060275
#
#
# Mechanical properties :
#
#
# Convention : Reuss Voigt Hill
#
# Bulk Modulus (GPa) = 39.28695 45.06518 42.17606
# Shear Modulus (GPa) = 33.65386 43.75978 38.70682
#
# Velocity S-wave (km/s) = 3.62515 4.13377 3.88779
# Velocity P-wave (km/s) = 5.73269 6.35468 6.05168
#
# Compressibility (1/GPa) = 0.02545375
#
# Stress axis : x y z
#
# Youngs Moduli (GPa) = 94.08037 154.93463 98.77587
#
# Poissons Ratio (x) = 0.05833 0.02473
# Poissons Ratio (y) = 0.03542 0.02470
# Poissons Ratio (z) = 0.02355 0.03874
#
# Static dielectric constant tensor:
#      x y z
#    x 2.128620 0.000000 -0.047630 
#    y 0.000000 1.959150 0.000000 
#    z -0.047630 0.000000 2.044720 
# 
# From -- ./inp_files/32774.got.cif
#   From: 2010.05.17/outbox.cif.g08.bks.cpg/sg8_17_cif.got.tgz:32774.got - 2010.06.03 19:46:02.
