data_PCOD9133260
_publ_section_title
;
Structure prediction by ZEFSAII (Michael W. Deem and Ramdas Pophale) SiO2 
 PCOD9133260
Probable space group: C M
;
_chemical_formula_sum "Si O2"
_cell_formula_units_Z 26
_cell_length_a 4.709442
_cell_length_b 31.233608
_cell_length_c 7.502158
_cell_angle_alpha 90.000000
_cell_angle_beta 115.907360
_cell_angle_gamma 90.000000
_cell_volume 992.612601
_symmetry_space_group_name_H-M "C M"
_symmetry_group_IT_number 8
_symmetry_cell_setting 'monoclinic'
loop_
_space_group_symop_operation_xyz
x,y,z
x,-y,z
1/2+x,1/2+y,z
1/2+x,1/2-y,z
loop_
_atom_site_type_symbol
_atom_site_label
_atom_site_fract_x
_atom_site_fract_y
_atom_site_fract_z
Si Si1 0.628050 0.276435 0.639960
Si Si2 0.588378 0.632521 0.057491
Si Si3 0.900832 0.776957 0.170333
Si Si4 0.642756 0.000000 0.423879
Si Si5 0.915707 0.044898 0.157872
Si Si6 0.411242 0.867431 0.800619
Si Si7 0.885255 0.455853 0.698843
O O1 0.350633 0.265329 0.698503
O O2 0.515057 0.277280 0.405246
O O3 0.780169 0.321874 0.713622
O O4 0.523051 0.678080 0.129882
O O5 0.582882 0.590086 0.176725
O O6 0.886338 0.630997 0.009277
O O7 0.276246 0.628588 0.847114
O O8 0.040258 0.736606 0.098727
O O9 0.757635 0.036860 0.304006
O O10 0.539829 0.036555 0.550527
O O11 0.127547 0.000000 0.189714
O O12 0.648037 0.043230 0.929240
O O13 0.239099 0.909356 0.678736
O O14 0.674955 0.500000 0.668999
#
# Coordination Sequence:
#
# PCOD9133260 Si02
#       7
#     4   4   4   2   4   4   4
#     4  10  22  42  61  90 126 162 206 261 311 371
#     4  11  23  40  63  93 124 166 208 258 316 368
#     4  10  22  42  61  90 126 162 206 261 311 371
#     4   8  14  36  62  88 120 176 200 248 324 368
#     4   8  17  36  59  90 127 159 210 258 305 371
#     4  11  23  40  63  93 124 166 208 258 316 368
#     4   8  17  36  59  90 127 159 210 258 305 371
#
# _framework density 26.1935
#
# number of rings (size 3 to 8) (size 9 to 14) (size 15 to 20)
#    0.923    1.538    0.000    1.846    0.000    4.308 
#   19.385    0.000    0.000    8.308    0.000    0.000 
#    0.000    1.231    0.000    0.000    0.000    0.000 
#
# Total GULP energy -72460.865198 kJ/mol
# GULP energy per Si atom -5573.912708 kJ/mol
# Density = 2.613388 g / cm^3
# Si number density = 26.193500 Si / 1000 Ang^3
#
#
#
# Elastic Constant Matrix: (Units=GPa)
#
#
# Indices 1 2 3 4 5 6 
#
# 1 79.4010 42.0761 5.8589 0.0000 -31.5601 0.0000
# 2 42.0761 211.7189 35.0156 0.0000 -19.5639 0.0000
# 3 5.8589 35.0156 134.8135 0.0000 -19.6418 0.0000
# 4 0.0000 0.0000 0.0000 50.9951 0.0000 -9.8062
# 5 -31.5601 -19.5639 -19.6418 0.0000 41.3241 0.0000
# 6 0.0000 0.0000 0.0000 -9.8062 0.0000 39.5206
#
#
#
# Elastic Compliance Matrix: (Units=1/GPa)
#
#
# Indices 1 2 3 4 5 6 
#
# 1 0.019855 -0.002921 0.002045 0.000000 0.014753 0.000000
# 2 -0.002921 0.005501 -0.001340 0.000000 -0.000263 0.000000
# 3 0.002045 -0.001340 0.008393 0.000000 0.004917 0.000000
# 4 0.000000 0.000000 0.000000 0.020592 0.000000 0.005110
# 5 0.014753 -0.000263 0.004917 0.000000 0.037679 0.000000
# 6 0.000000 0.000000 0.000000 0.005110 0.000000 0.026571
#
#
# Mechanical properties :
#
#
# Convention : Reuss Voigt Hill
#
# Bulk Modulus (GPa) = 34.10902 65.75940 49.93421
# Shear Modulus (GPa) = 37.65168 49.23346 43.44257
#
# Velocity S-wave (km/s) = 3.79548 4.34015 4.07692
# Velocity P-wave (km/s) = 5.67959 7.09053 6.42391
#
# Compressibility (1/GPa) = 0.02931776
#
# Stress axis : x y z
#
# Youngs Moduli (GPa) = 50.36431 181.78342 119.14328
#
# Poissons Ratio (x) = 0.53098 -0.24368
# Poissons Ratio (y) = 0.14711 0.15968
# Poissons Ratio (z) = -0.10301 0.24364
#
# Static dielectric constant tensor:
#      x y z
#    x 1.969930 0.000000 0.094680 
#    y 0.000000 2.074000 0.000000 
#    z 0.094680 0.000000 2.021610 
# 
# From -- ./inp_files/6989.got.cif
#   From: 2010.05.17/outbox.cif.g08.bks.cpg/sg8_4_cif.got.tgz:6989.got - 2010.06.03 19:46:02.
