data_PCOD9133062
_publ_section_title
;
Structure prediction by ZEFSAII (Michael W. Deem and Ramdas Pophale) SiO2 
 PCOD9133062
Probable space group: C M
;
_chemical_formula_sum "Si O2"
_cell_formula_units_Z 30
_cell_length_a 13.024752
_cell_length_b 14.660301
_cell_length_c 8.323145
_cell_angle_alpha 90.000000
_cell_angle_beta 127.846742
_cell_angle_gamma 90.000000
_cell_volume 1254.980728
_symmetry_space_group_name_H-M "C M"
_symmetry_group_IT_number 8
_symmetry_cell_setting 'monoclinic'
loop_
_space_group_symop_operation_xyz
x,y,z
x,-y,z
1/2+x,1/2+y,z
1/2+x,1/2-y,z
loop_
_atom_site_type_symbol
_atom_site_label
_atom_site_fract_x
_atom_site_fract_y
_atom_site_fract_z
Si Si1 0.234190 0.836945 0.851260
Si Si2 0.895189 0.902239 0.253522
Si Si3 0.816809 0.148168 0.843949
Si Si4 0.316166 0.000000 0.697897
Si Si5 0.766757 0.150448 0.455764
Si Si6 0.597420 0.391200 0.032564
Si Si7 0.493228 0.203187 0.305640
Si Si8 0.861720 0.650575 0.484402
O O1 0.230605 0.739631 0.760229
O O2 0.124597 0.857625 0.877884
O O3 0.251406 0.920016 0.749120
O O4 0.365052 0.823819 0.082402
O O5 0.812270 0.897204 0.336839
O O6 0.983457 0.811577 0.334945
O O7 0.966228 0.000000 0.312343
O O8 0.804049 0.895544 0.007552
O O9 0.791502 0.101322 0.649085
O O10 0.973303 0.160692 0.983580
O O11 0.378978 0.079679 0.641714
O O12 0.615239 0.173929 0.318463
O O13 0.843531 0.246652 0.529559
O O14 0.573080 0.500000 0.011600
O O15 0.725091 0.373610 0.263019
O O16 0.472181 0.150703 0.453979
#
# Coordination Sequence:
#
# PCOD9133062 Si02
#       8
#     4   4   4   2   4   4   4   4
#     4  10  22  41  65  99 131 167 218 275 331 382
#     4  10  23  45  68  97 128 174 229 273 322 390
#     4  11  24  42  65  96 137 174 213 269 336 390
#     4  12  20  40  64 106 130 156 234 284 314 390
#     4  11  23  46  65  95 138 178 213 266 339 399
#     4  11  22  42  69  94 126 170 221 282 326 382
#     4   9  22  44  68  90 135 179 210 268 341 391
#     4  10  21  40  68  98 126 166 221 281 330 379
#
# _framework density 23.90475
#
# number of rings (size 3 to 8) (size 9 to 14) (size 15 to 20)
#    0.000    1.600    2.667    2.800    0.000    3.200 
#    8.400    0.000    0.000    0.000    0.000    0.000 
#    0.000    0.000    0.000    0.000    0.000    0.000 
#
# Total GULP energy -83610.864217 kJ/mol
# GULP energy per Si atom -5574.057614 kJ/mol
# Density = 2.385034 g / cm^3
# Si number density = 23.904750 Si / 1000 Ang^3
#
#
#
# Elastic Constant Matrix: (Units=GPa)
#
#
# Indices 1 2 3 4 5 6 
#
# 1 100.4220 28.8127 45.4268 0.0000 -24.8352 0.0000
# 2 28.8127 148.6133 29.9674 0.0000 -13.5108 0.0000
# 3 45.4268 29.9674 79.8381 0.0000 -32.5012 0.0000
# 4 0.0000 0.0000 0.0000 6.4355 0.0000 -5.0525
# 5 -24.8352 -13.5108 -32.5012 0.0000 53.2323 0.0000
# 6 0.0000 0.0000 0.0000 -5.0525 0.0000 13.2682
#
#
#
# Elastic Compliance Matrix: (Units=1/GPa)
#
#
# Indices 1 2 3 4 5 6 
#
# 1 0.013775 -0.001159 -0.006529 0.000000 0.002146 0.000000
# 2 -0.001159 0.007380 -0.002087 0.000000 0.000058 0.000000
# 3 -0.006529 -0.002087 0.020717 0.000000 0.009073 0.000000
# 4 0.000000 0.000000 0.000000 0.221654 0.000000 0.084406
# 5 0.002146 0.000058 0.009073 0.000000 0.025341 0.000000
# 6 0.000000 0.000000 0.000000 0.084406 0.000000 0.107510
#
#
# Mechanical properties :
#
#
# Convention : Reuss Voigt Hill
#
# Bulk Modulus (GPa) = 44.79889 59.69858 52.24873
# Shear Modulus (GPa) = 11.81010 29.56498 20.68754
#
# Velocity S-wave (km/s) = 2.22513 3.52061 2.94499
# Velocity P-wave (km/s) = 5.03814 6.44624 5.78519
#
# Compressibility (1/GPa) = 0.02232198
#
# Stress axis : x y z
#
# Youngs Moduli (GPa) = 72.59700 135.50754 48.26918
#
# Poissons Ratio (x) = 0.15705 0.31515
# Poissons Ratio (y) = 0.08414 0.10073
# Poissons Ratio (z) = 0.47398 0.28278
#
# Static dielectric constant tensor:
#      x y z
#    x 1.878400 0.000000 0.010890 
#    y 0.000000 1.880060 0.000000 
#    z 0.010890 0.000000 2.004230 
# 
# From -- ./inp_files/10774.got.cif
#   From: 2010.05.17/outbox.cif.g08.bks.cpg/sg8_6_cif.got.tgz:10774.got - 2010.06.03 19:46:02.
