data_PCOD9133158
_publ_section_title
;
Structure prediction by ZEFSAII (Michael W. Deem and Ramdas Pophale) SiO2 
 PCOD9133158
Probable space group: C M
;
_chemical_formula_sum "Si O2"
_cell_formula_units_Z 32
_cell_length_a 31.659383
_cell_length_b 9.136454
_cell_length_c 5.360893
_cell_angle_alpha 90.000000
_cell_angle_beta 95.950497
_cell_angle_gamma 90.000000
_cell_volume 1542.307181
_symmetry_space_group_name_H-M "C M"
_symmetry_group_IT_number 8
_symmetry_cell_setting 'monoclinic'
loop_
_space_group_symop_operation_xyz
x,y,z
x,-y,z
1/2+x,1/2+y,z
1/2+x,1/2-y,z
loop_
_atom_site_type_symbol
_atom_site_label
_atom_site_fract_x
_atom_site_fract_y
_atom_site_fract_z
Si Si1 0.534920 0.175423 0.487040
Si Si2 0.448584 0.842835 0.707398
Si Si3 0.162114 0.675666 0.140918
Si Si4 0.386348 0.661512 0.914725
Si Si5 0.868046 0.656946 0.306898
Si Si6 0.715294 0.173867 0.673661
Si Si7 0.071675 0.176999 0.013236
Si Si8 0.304168 0.167530 0.661559
O O1 0.485664 0.189591 0.537210
O O2 0.545473 0.252535 0.230223
O O3 0.544978 0.000000 0.479992
O O4 0.558485 0.251820 0.737939
O O5 0.433733 0.721141 0.890348
O O6 0.403879 0.857904 0.539346
O O7 0.459489 0.000000 0.835098
O O8 0.152141 0.500000 0.130731
O O9 0.186153 0.707448 0.415072
O O10 0.119743 0.770661 0.093730
O O11 0.191504 0.707220 0.918478
O O12 0.382371 0.500000 0.817060
O O13 0.343889 0.750977 0.812092
O O14 0.380781 0.688115 0.202729
O O15 0.872844 0.500000 0.166854
O O16 0.820802 0.664180 0.386060
O O17 0.760030 0.254167 0.676532
O O18 0.723108 0.000000 0.674698
O O19 0.067610 0.000000 0.005012
O O20 0.301127 0.000000 0.741971
#
# Coordination Sequence:
#
# PCOD9133158 Si02
#       8
#     4   4   4   4   4   4   4   4
#     4  11  24  44  71  99 131 179 226 267 325 404
#     4   9  21  40  61  86 117 161 214 259 307 376
#     4  10  22  42  66  92 127 170 211 256 319 397
#     4  11  22  35  57  86 121 161 201 256 317 370
#     4   9  19  37  58  82 116 159 207 255 303 366
#     4  10  22  39  63  95 126 161 210 265 315 374
#     4  12  26  44  68 102 138 171 214 278 337 388
#     4  10  22  39  58  84 118 162 209 256 307 369
#
# _framework density 20.748137
#
# number of rings (size 3 to 8) (size 9 to 14) (size 15 to 20)
#    0.000    1.750    0.000    4.500    3.500    5.500 
#    0.000    0.000    0.000    0.000    0.000    0.000 
#    0.000    0.000    0.000    0.000    0.000    0.000 
#
# Total GULP energy -89116.499481 kJ/mol
# GULP energy per Si atom -5569.781218 kJ/mol
# Density = 2.070091 g / cm^3
# Si number density = 20.748137 Si / 1000 Ang^3
#
#
#
# Elastic Constant Matrix: (Units=GPa)
#
#
# Indices 1 2 3 4 5 6 
#
# 1 76.1533 26.0778 -6.5317 0.0000 -20.5726 0.0000
# 2 26.0778 80.0362 14.1234 0.0000 -12.7981 0.0000
# 3 -6.5317 14.1234 56.9479 0.0000 -9.9477 0.0000
# 4 0.0000 0.0000 0.0000 13.8493 0.0000 12.0149
# 5 -20.5726 -12.7981 -9.9477 0.0000 26.5256 0.0000
# 6 0.0000 0.0000 0.0000 12.0149 0.0000 -16.8739
#
#
#
# Elastic Compliance Matrix: (Units=1/GPa)
#
#
# Indices 1 2 3 4 5 6 
#
# 1 0.019391 -0.005007 0.006068 0.000000 0.014900 0.000000
# 2 -0.005007 0.015138 -0.003992 0.000000 0.001923 0.000000
# 3 0.006068 -0.003992 0.021115 0.000000 0.010699 0.000000
# 4 0.000000 0.000000 0.000000 0.044634 0.000000 0.031781
# 5 0.014900 0.001923 0.010699 0.000000 0.054196 0.000000
# 6 0.000000 0.000000 0.000000 0.031781 0.000000 -0.036634
#
#
# Mechanical properties :
#
#
# Convention : Reuss Voigt Hill
#
# Bulk Modulus (GPa) = 20.08715 31.16405 25.62560
# Shear Modulus (GPa) = 35.63900 16.66473 26.15186
#
# Velocity S-wave (km/s) = 4.14901 2.83714 3.55412
# Velocity P-wave (km/s) = 5.71444 5.07792 5.40555
#
# Compressibility (1/GPa) = 0.04978307
#
# Stress axis : x y z
#
# Youngs Moduli (GPa) = 51.56900 66.06019 47.35973
#
# Poissons Ratio (x) = 0.33073 -0.28740
# Poissons Ratio (y) = 0.25818 0.18908
# Poissons Ratio (z) = -0.31295 0.26374
#
# Static dielectric constant tensor:
#      x y z
#    x 1.695960 0.000000 -0.009800 
#    y 0.000000 1.918760 0.000000 
#    z -0.009800 0.000000 1.910660 
# 
# From -- ./inp_files/6415.got.cif
#   From: 2010.05.17/outbox.cif.g08.bks.cpg/sg8_4_cif.got.tgz:6415.got - 2010.06.03 19:46:02.
