data_PCOD9133621
_publ_section_title
;
Structure prediction by ZEFSAII (Michael W. Deem and Ramdas Pophale) SiO2 
 PCOD9133621
Probable space group: C M
;
_chemical_formula_sum "Si O2"
_cell_formula_units_Z 16
_cell_length_a 6.839595
_cell_length_b 18.748088
_cell_length_c 7.964880
_cell_angle_alpha 90.000000
_cell_angle_beta 37.323925
_cell_angle_gamma 90.000000
_cell_volume 619.254068
_symmetry_space_group_name_H-M "C M"
_symmetry_group_IT_number 8
_symmetry_cell_setting 'monoclinic'
loop_
_space_group_symop_operation_xyz
x,y,z
x,-y,z
1/2+x,1/2+y,z
1/2+x,1/2-y,z
loop_
_atom_site_type_symbol
_atom_site_label
_atom_site_fract_x
_atom_site_fract_y
_atom_site_fract_z
Si Si1 0.193260 0.146043 0.017130
Si Si2 0.565244 0.000000 0.243717
Si Si3 0.313540 0.000000 0.775902
Si Si4 0.649144 0.362889 0.424045
Si Si5 0.798833 0.801127 0.971746
O O1 0.041655 0.136162 0.304803
O O2 0.354708 0.071285 0.856939
O O3 0.948868 0.162835 0.032965
O O4 0.402243 0.218981 0.880086
O O5 0.547993 0.000000 0.457678
O O6 0.365456 0.067604 0.313914
O O7 0.947702 0.000000 0.947929
O O8 0.401202 0.348003 0.741709
O O9 0.914940 0.300059 0.254189
#
# Coordination Sequence:
#
# PCOD9133621 Si02
#       5
#     4   2   2   4   4
#     4  12  27  50  76 113 148 202 242 309 375 440
#     4  12  23  50  73 108 154 192 249 310 363 444
#     4  12  27  46  79 108 152 194 247 304 373 444
#     4  12  27  47  76 108 149 199 245 307 370 434
#     4  12  28  45  77 109 148 194 254 301 362 450
#
# _framework density 25.837537999999999
#
# number of rings (size 3 to 8) (size 9 to 14) (size 15 to 20)
#    0.000    0.000    7.500    0.750    3.500    6.000 
#    0.000    2.500    0.000    0.000    0.000    0.000 
#    0.000    0.000    0.000    0.000    0.000    0.000 
#
# Total GULP energy -44841.846899 kJ/mol
# GULP energy per Si atom -5605.230862 kJ/mol
# Density = 2.577873 g / cm^3
# Si number density = 25.837538 Si / 1000 Ang^3
#
#
#
# Elastic Constant Matrix: (Units=GPa)
#
#
# Indices 1 2 3 4 5 6 
#
# 1 133.2508 27.6400 43.4131 0.0000 50.1888 0.0000
# 2 27.6400 171.8515 9.2447 0.0000 17.1439 0.0000
# 3 43.4131 9.2447 104.2089 0.0000 24.4512 0.0000
# 4 0.0000 0.0000 0.0000 34.8344 0.0000 6.9598
# 5 50.1888 17.1439 24.4512 0.0000 54.2571 0.0000
# 6 0.0000 0.0000 0.0000 6.9598 0.0000 58.2715
#
#
#
# Elastic Compliance Matrix: (Units=1/GPa)
#
#
# Indices 1 2 3 4 5 6 
#
# 1 0.012285 -0.000845 -0.002728 0.000000 -0.009868 0.000000
# 2 -0.000845 0.006067 0.000090 0.000000 -0.001176 0.000000
# 3 -0.002728 0.000090 0.011338 0.000000 -0.002615 0.000000
# 4 0.000000 0.000000 0.000000 0.029409 0.000000 -0.003513
# 5 -0.009868 -0.001176 -0.002615 0.000000 0.029109 0.000000
# 6 0.000000 0.000000 0.000000 -0.003513 0.000000 0.017581
#
#
# Mechanical properties :
#
#
# Convention : Reuss Voigt Hill
#
# Bulk Modulus (GPa) = 44.00436 63.32296 53.66366
# Shear Modulus (GPa) = 41.55250 51.40683 46.47966
#
# Velocity S-wave (km/s) = 4.01462 4.46535 4.24597
# Velocity P-wave (km/s) = 6.20948 7.15172 6.69719
#
# Compressibility (1/GPa) = 0.02272502
#
# Stress axis : x y z
#
# Youngs Moduli (GPa) = 81.39809 164.81653 88.19893
#
# Poissons Ratio (x) = 0.13923 0.24058
# Poissons Ratio (y) = 0.06876 -0.00791
# Poissons Ratio (z) = 0.22203 -0.01477
#
# Static dielectric constant tensor:
#      x y z
#    x 2.020150 0.000000 -0.018640 
#    y 0.000000 2.085880 0.000000 
#    z -0.018640 0.000000 1.917740 
# 
# From -- ./inp_files/1053.got.cif
#   From: 2010.05.17/outbox.cif.g08.bks.cpg/sg8_1_cif.got.tgz:1053.got - 2010.06.03 19:46:02.
