data_PCOD9133722
_publ_section_title
;
Structure prediction by ZEFSAII (Michael W. Deem and Ramdas Pophale) SiO2 
 PCOD9133722
Probable space group: C C
;
_chemical_formula_sum "Si O2"
_cell_formula_units_Z 28
_cell_length_a 36.471849
_cell_length_b 6.963579
_cell_length_c 5.344088
_cell_angle_alpha 90.000000
_cell_angle_beta 116.130006
_cell_angle_gamma 90.000000
_cell_volume 1218.546385
_symmetry_space_group_name_H-M "C C"
_symmetry_group_IT_number 9
_symmetry_cell_setting 'monoclinic'
loop_
_space_group_symop_operation_xyz
x,y,z
x,-y,1/2+z
1/2+x,1/2+y,z
1/2+x,1/2-y,1/2+z
loop_
_atom_site_type_symbol
_atom_site_label
_atom_site_fract_x
_atom_site_fract_y
_atom_site_fract_z
Si Si1 0.769460 0.700551 0.640000
Si Si2 0.737403 0.264187 0.543043
Si Si3 0.570613 0.873667 0.603781
Si Si4 0.893803 0.737712 0.696813
Si Si5 0.480719 0.870226 0.383821
Si Si6 0.361746 0.199387 0.099669
Si Si7 0.650786 0.623437 0.913374
O O1 0.748426 0.492072 0.542836
O O2 0.766721 0.793797 0.359011
O O3 0.815547 0.673457 0.870504
O O4 0.745398 0.808306 0.787964
O O5 0.690831 0.246546 0.489166
O O6 0.525707 0.779029 0.498722
O O7 0.608566 0.734371 0.753319
O O8 0.572714 0.971081 0.336157
O O9 0.885178 0.808886 0.949441
O O10 0.883365 0.508375 0.696030
O O11 0.940667 0.760739 0.758861
O O12 0.864574 0.792906 0.380309
O O13 0.478283 0.985549 0.639320
O O14 0.652897 0.467428 0.695781
#
# Coordination Sequence:
#
# PCOD9133722 Si02
#       7
#     4   4   4   4   4   4   4
#     4  10  16  25  36  61  96 128 167 195 255 306
#     4  10  16  27  41  62  91 130 166 199 247 311
#     4  10  23  38  56  79 107 141 177 229 273 319
#     4  10  14  22  33  55  80 123 167 185 225 306
#     4  10  16  29  44  60  90 127 170 189 253 309
#     4  10  16  20  34  57  87 127 161 191 235 305
#     4  12  21  37  58  80 103 140 190 220 268 320
#
# _framework density 22.978197999999999
#
# number of rings (size 3 to 8) (size 9 to 14) (size 15 to 20)
#    0.000    1.714    5.714    5.143    0.000    0.000 
#    0.000    0.000    0.000    0.000    0.000    0.000 
#    0.000    0.000    0.000   43.714    1.714    0.000 
#
# Total GULP energy -78164.478502 kJ/mol
# GULP energy per Si atom -5583.177036 kJ/mol
# Density = 2.292590 g / cm^3
# Si number density = 22.978198 Si / 1000 Ang^3
#
#
#
# Elastic Constant Matrix: (Units=GPa)
#
#
# Indices 1 2 3 4 5 6 
#
# 1 117.5289 -12.2521 10.4730 0.0000 18.4968 0.0000
# 2 -12.2521 47.9897 -22.5731 0.0000 4.0141 0.0000
# 3 10.4730 -22.5731 91.1590 0.0000 -10.5874 0.0000
# 4 0.0000 0.0000 0.0000 -53.2632 0.0000 25.6017
# 5 18.4968 4.0141 -10.5874 0.0000 73.8369 0.0000
# 6 0.0000 0.0000 0.0000 25.6017 0.0000 -2.6619
#
#
#
# Elastic Compliance Matrix: (Units=1/GPa)
#
#
# Indices 1 2 3 4 5 6 
#
# 1 0.009208 0.002181 -0.000813 0.000000 -0.002542 0.000000
# 2 0.002181 0.024116 0.005599 0.000000 -0.001055 0.000000
# 3 -0.000813 0.005599 0.012649 0.000000 0.001713 0.000000
# 4 0.000000 0.000000 0.000000 0.005182 0.000000 0.049841
# 5 -0.002542 -0.001055 0.001713 0.000000 0.014483 0.000000
# 6 0.000000 0.000000 0.000000 0.049841 0.000000 0.103692
#
#
# Mechanical properties :
#
#
# Convention : Reuss Voigt Hill
#
# Bulk Modulus (GPa) = 16.69256 23.10815 19.90036
# Shear Modulus (GPa) = 28.51189 22.31769 25.41479
#
# Velocity S-wave (km/s) = 3.52635 3.11988 3.32932
# Velocity P-wave (km/s) = 4.88472 4.80173 4.84340
#
# Compressibility (1/GPa) = 0.05990691
#
# Stress axis : x y z
#
# Youngs Moduli (GPa) = 108.59613 41.46566 79.06030
#
# Poissons Ratio (x) = -0.09044 0.06428
# Poissons Ratio (y) = -0.23686 -0.44263
# Poissons Ratio (z) = 0.08830 -0.23215
#
# Static dielectric constant tensor:
#      x y z
#    x 1.882250 0.000000 -0.053090 
#    y 0.000000 2.093880 0.000000 
#    z -0.053090 0.000000 1.893620 
# 
# From -- ./inp_files/3450.got.cif
#   From: 2010.05.17/outbox.cif.g08.bks.cpg/sg9_2_cif.got.tgz:3450.got - 2010.06.03 20:04:27.
