data_PCOD9133534
_publ_section_title
;
Structure prediction by ZEFSAII (Michael W. Deem and Ramdas Pophale) SiO2 
 PCOD9133534
Probable space group: C M
;
_chemical_formula_sum "Si O2"
_cell_formula_units_Z 24
_cell_length_a 9.268841
_cell_length_b 17.869818
_cell_length_c 9.758754
_cell_angle_alpha 90.000000
_cell_angle_beta 136.325132
_cell_angle_gamma 90.000000
_cell_volume 1116.206730
_symmetry_space_group_name_H-M "C M"
_symmetry_group_IT_number 8
_symmetry_cell_setting 'monoclinic'
loop_
_space_group_symop_operation_xyz
x,y,z
x,-y,z
1/2+x,1/2+y,z
1/2+x,1/2-y,z
loop_
_atom_site_type_symbol
_atom_site_label
_atom_site_fract_x
_atom_site_fract_y
_atom_site_fract_z
Si Si1 0.353840 0.854842 0.628700
Si Si2 0.614297 0.500000 0.572458
Si Si3 0.591154 0.881863 0.542949
Si Si4 0.630529 0.000000 0.156615
Si Si5 0.019373 0.249547 0.287330
Si Si6 0.954388 0.000000 0.761993
Si Si7 0.079490 0.670145 0.042250
Si Si8 0.831531 0.500000 0.216622
O O1 0.560063 0.874225 0.683596
O O2 0.208165 0.809053 0.424919
O O3 0.228954 0.927383 0.592935
O O4 0.421951 0.810501 0.811328
O O5 0.373866 0.500000 0.362047
O O6 0.601098 0.500000 0.728684
O O7 0.575847 0.806029 0.448693
O O8 0.800647 0.928468 0.654511
O O9 0.394765 0.929903 0.352208
O O10 0.588694 0.920628 0.054447
O O11 0.492328 0.000000 0.199338
O O12 0.010615 0.296643 0.141151
O O13 0.804835 0.205811 0.166251
O O14 0.102150 0.000000 0.996079
#
# Coordination Sequence:
#
# PCOD9133534 Si02
#       8
#     4   2   4   2   4   2   4   2
#     4  12  28  46  73 107 149 186 244 303 365 435
#     4  12  22  46  76 107 145 194 237 309 359 424
#     4  11  25  46  66 107 144 184 242 304 359 428
#     4  12  22  48  75 105 142 189 250 296 354 435
#     4  12  26  46  71 104 147 189 237 306 364 432
#     4  11  24  42  77 101 142 198 244 292 364 438
#     4  12  27  48  75 106 144 198 245 295 370 437
#     4  11  22  42  72 103 139 187 245 297 353 431
#
# _framework density 21.501394000000001
#
# number of rings (size 3 to 8) (size 9 to 14) (size 15 to 20)
#    0.000    0.333    6.667    2.500    2.333    2.667 
#    3.000    0.000    0.000    0.000    0.000    0.000 
#    0.000    0.000    0.000    0.000    0.000    0.000 
#
# Total GULP energy -67128.043907 kJ/mol
# GULP energy per Si atom -5594.003659 kJ/mol
# Density = 2.145246 g / cm^3
# Si number density = 21.501394 Si / 1000 Ang^3
#
#
#
# Elastic Constant Matrix: (Units=GPa)
#
#
# Indices 1 2 3 4 5 6 
#
# 1 107.1095 42.3282 18.1941 0.0000 -18.0196 0.0000
# 2 42.3282 111.8933 27.4477 0.0000 0.7579 0.0000
# 3 18.1941 27.4477 101.6893 0.0000 -8.1076 0.0000
# 4 0.0000 0.0000 0.0000 10.6201 0.0000 0.7792
# 5 -18.0196 0.7579 -8.1076 0.0000 30.1176 0.0000
# 6 0.0000 0.0000 0.0000 0.7792 0.0000 17.5145
#
#
#
# Elastic Compliance Matrix: (Units=1/GPa)
#
#
# Indices 1 2 3 4 5 6 
#
# 1 0.012518 -0.004695 -0.000374 0.000000 0.007507 0.000000
# 2 -0.004695 0.011358 -0.002527 0.000000 -0.003775 0.000000
# 3 -0.000374 -0.002527 0.010802 0.000000 0.002748 0.000000
# 4 0.000000 0.000000 0.000000 0.094469 0.000000 -0.004203
# 5 0.007507 -0.003775 0.002748 0.000000 0.038529 0.000000
# 6 0.000000 0.000000 0.000000 -0.004203 0.000000 0.057282
#
#
# Mechanical properties :
#
#
# Convention : Reuss Voigt Hill
#
# Bulk Modulus (GPa) = 51.31514 55.18133 53.24824
# Shear Modulus (GPa) = 20.27198 27.16525 23.71862
#
# Velocity S-wave (km/s) = 3.07387 3.55832 3.32493
# Velocity P-wave (km/s) = 6.04285 6.52702 6.28959
#
# Compressibility (1/GPa) = 0.01948742
#
# Stress axis : x y z
#
# Youngs Moduli (GPa) = 79.88551 88.04069 92.57621
#
# Poissons Ratio (x) = 0.41331 0.03463
# Poissons Ratio (y) = 0.37502 0.23393
# Poissons Ratio (z) = 0.02988 0.22247
#
# Static dielectric constant tensor:
#      x y z
#    x 1.760290 0.000000 -0.028060 
#    y 0.000000 1.792750 0.000000 
#    z -0.028060 0.000000 1.774020 
# 
# From -- ./inp_files/8674.got.cif
#   From: 2010.05.17/outbox.cif.g08.bks.cpg/sg8_5_cif.got.tgz:8674.got - 2010.06.03 19:46:02.
