data_PCOD9133416
_publ_section_title
;
Structure prediction by ZEFSAII (Michael W. Deem and Ramdas Pophale) SiO2 
 PCOD9133416
Probable space group: C M
;
_chemical_formula_sum "Si O2"
_cell_formula_units_Z 32
_cell_length_a 7.635953
_cell_length_b 24.638819
_cell_length_c 8.892188
_cell_angle_alpha 90.000000
_cell_angle_beta 133.424031
_cell_angle_gamma 90.000000
_cell_volume 1215.065525
_symmetry_space_group_name_H-M "C M"
_symmetry_group_IT_number 8
_symmetry_cell_setting 'monoclinic'
loop_
_space_group_symop_operation_xyz
x,y,z
x,-y,z
1/2+x,1/2+y,z
1/2+x,1/2-y,z
loop_
_atom_site_type_symbol
_atom_site_label
_atom_site_fract_x
_atom_site_fract_y
_atom_site_fract_z
Si Si1 0.514490 0.057839 0.027880
Si Si2 0.963468 0.711069 0.852733
Si Si3 0.471105 0.439339 0.789481
Si Si4 0.080955 0.393740 0.756494
Si Si5 0.515504 0.678510 0.685192
Si Si6 0.530871 0.836056 0.173336
Si Si7 0.941804 0.216015 0.364068
Si Si8 0.803855 0.334290 0.347663
O O1 0.258744 0.055196 0.960443
O O2 0.650591 0.108603 0.178332
O O3 0.638990 0.000000 0.113813
O O4 0.466325 0.072211 0.824794
O O5 0.157780 0.718389 0.116565
O O6 0.110606 0.667266 0.837819
O O7 0.972864 0.770947 0.777559
O O8 0.672699 0.696370 0.617692
O O9 0.384341 0.500000 0.687000
O O10 0.324361 0.424087 0.852910
O O11 0.437359 0.383274 0.677216
O O12 0.914477 0.382470 0.513499
O O13 0.278488 0.686650 0.411992
O O14 0.820327 0.674811 0.917380
O O15 0.339708 0.848955 0.195166
O O16 0.954780 0.278455 0.427339
O O17 0.065450 0.187885 0.289519
#
# Coordination Sequence:
#
# PCOD9133416 Si02
#       8
#     4   4   4   4   4   4   4   4
#     4  10  23  48  70  95 135 179 238 296 339 405
#     4  11  24  39  67 101 132 177 225 297 341 412
#     4  11  23  39  68  98 131 175 228 290 341 399
#     4  11  21  42  68 103 129 176 233 279 346 411
#     4  12  21  42  64  99 136 173 234 280 347 416
#     4  11  26  42  62 103 139 181 221 282 355 416
#     4  12  23  40  65  94 140 187 217 273 359 416
#     4  12  24  40  64  97 143 180 216 279 348 431
#
# _framework density 26.336029
#
# number of rings (size 3 to 8) (size 9 to 14) (size 15 to 20)
#    0.000    0.750    6.250    1.875    1.750    2.000 
#    0.000    3.125    0.000    2.250    0.000    0.000 
#    0.000    0.000    0.000    0.000    0.000    0.000 
#
# Total GULP energy -89113.118918 kJ/mol
# GULP energy per Si atom -5569.569932 kJ/mol
# Density = 2.627609 g / cm^3
# Si number density = 26.336029 Si / 1000 Ang^3
#
#
#
# Elastic Constant Matrix: (Units=GPa)
#
#
# Indices 1 2 3 4 5 6 
#
# 1 168.5529 53.5729 41.8860 0.0000 -9.6683 0.0000
# 2 53.5729 200.3670 62.5155 0.0000 -20.5348 0.0000
# 3 41.8860 62.5155 199.8519 0.0000 -15.6603 0.0000
# 4 0.0000 0.0000 0.0000 15.9161 0.0000 5.0427
# 5 -9.6683 -20.5348 -15.6603 0.0000 40.0126 0.0000
# 6 0.0000 0.0000 0.0000 5.0427 0.0000 27.0633
#
#
#
# Elastic Compliance Matrix: (Units=1/GPa)
#
#
# Indices 1 2 3 4 5 6 
#
# 1 0.006645 -0.001443 -0.000901 0.000000 0.000512 0.000000
# 2 -0.001443 0.006044 -0.001416 0.000000 0.002199 0.000000
# 3 -0.000901 -0.001416 0.005737 0.000000 0.001301 0.000000
# 4 0.000000 0.000000 0.000000 0.066772 0.000000 -0.012442
# 5 0.000512 0.002199 0.001301 0.000000 0.026754 0.000000
# 6 0.000000 0.000000 0.000000 -0.012442 0.000000 0.039269
#
#
# Mechanical properties :
#
#
# Convention : Reuss Voigt Hill
#
# Bulk Modulus (GPa) = 91.69149 98.30230 94.99689
# Shear Modulus (GPa) = 30.79289 43.98488 37.38888
#
# Velocity S-wave (km/s) = 3.42311 4.09117 3.77196
# Velocity P-wave (km/s) = 7.10740 7.72814 7.42426
#
# Compressibility (1/GPa) = 0.01090614
#
# Stress axis : x y z
#
# Youngs Moduli (GPa) = 150.49323 165.46015 174.29477
#
# Poissons Ratio (x) = 0.23876 0.15706
# Poissons Ratio (y) = 0.21716 0.24677
# Poissons Ratio (z) = 0.13561 0.23426
#
# Static dielectric constant tensor:
#      x y z
#    x 2.145670 0.000000 0.005700 
#    y 0.000000 2.038030 0.000000 
#    z 0.005700 0.000000 2.193930 
# 
# From -- ./inp_files/9126.got.cif
#   From: 2010.05.17/outbox.cif.g08.bks.cpg/sg8_5_cif.got.tgz:9126.got - 2010.06.03 19:46:02.
