data_PCOD9133011
_publ_section_title
;
Structure prediction by ZEFSAII (Michael W. Deem and Ramdas Pophale) SiO2 
 PCOD9133011
Probable space group: C M
;
_chemical_formula_sum "Si O2"
_cell_formula_units_Z 20
_cell_length_a 13.541632
_cell_length_b 12.437090
_cell_length_c 5.422441
_cell_angle_alpha 90.000000
_cell_angle_beta 121.061071
_cell_angle_gamma 90.000000
_cell_volume 782.297126
_symmetry_space_group_name_H-M "C M"
_symmetry_group_IT_number 8
_symmetry_cell_setting 'monoclinic'
loop_
_space_group_symop_operation_xyz
x,y,z
x,-y,z
1/2+x,1/2+y,z
1/2+x,1/2-y,z
loop_
_atom_site_type_symbol
_atom_site_label
_atom_site_fract_x
_atom_site_fract_y
_atom_site_fract_z
Si Si1 0.774390 0.796232 0.725660
Si Si2 0.585541 0.335956 0.009896
Si Si3 0.851713 0.623564 0.474062
Si Si4 0.012627 0.206049 0.421553
Si Si5 0.205752 0.381640 0.136967
O O1 0.844851 0.691782 0.721105
O O2 0.771569 0.871830 0.481578
O O3 0.785871 0.850719 0.007514
O O4 0.008898 0.853680 0.152621
O O5 0.524733 0.368392 0.678905
O O6 0.605517 0.206656 0.018463
O O7 0.717304 0.376263 0.207849
O O8 0.887674 0.500000 0.544722
O O9 0.928552 0.694670 0.385393
O O10 0.142534 0.254123 0.570959
O O11 0.160405 0.500000 0.041823
#
# Coordination Sequence:
#
# PCOD9133011 Si02
#       5
#     4   4   4   4   4
#     4   9  20  35  52  86 126 149 189 258 307 351
#     4   9  21  37  54  88 131 155 192 261 314 357
#     4  10  21  39  66  94 122 166 213 254 309 375
#     4   9  19  36  57  82 118 159 199 247 302 358
#     4   9  16  31  54  74 107 157 192 228 295 357
#
# _framework density 25.565733999999999
#
# number of rings (size 3 to 8) (size 9 to 14) (size 15 to 20)
#    0.000    3.200    0.000    0.600    0.000   12.800 
#    0.000   24.000    0.000   39.600    0.000    0.000 
#    0.000    0.000    0.000    0.000    0.000    0.000 
#
# Total GULP energy -55792.797192 kJ/mol
# GULP energy per Si atom -5579.279719 kJ/mol
# Density = 2.550755 g / cm^3
# Si number density = 25.565734 Si / 1000 Ang^3
#
#
#
# Elastic Constant Matrix: (Units=GPa)
#
#
# Indices 1 2 3 4 5 6 
#
# 1 201.6041 15.1784 73.6330 0.0000 -14.8077 0.0000
# 2 15.1784 128.8517 26.0567 0.0000 -4.7052 0.0000
# 3 73.6330 26.0567 97.8718 0.0000 -54.6428 0.0000
# 4 0.0000 0.0000 0.0000 -4.0961 0.0000 -1.7393
# 5 -14.8077 -4.7052 -54.6428 0.0000 83.0218 0.0000
# 6 0.0000 0.0000 0.0000 -1.7393 0.0000 5.5759
#
#
#
# Elastic Compliance Matrix: (Units=1/GPa)
#
#
# Indices 1 2 3 4 5 6 
#
# 1 0.007558 0.000589 -0.008018 0.000000 -0.003896 0.000000
# 2 0.000589 0.008374 -0.003714 0.000000 -0.001865 0.000000
# 3 -0.008018 -0.003714 0.025805 0.000000 0.015344 0.000000
# 4 0.000000 0.000000 0.000000 -0.215579 0.000000 -0.067245
# 5 -0.003896 -0.001865 0.015344 0.000000 0.021343 0.000000
# 6 0.000000 0.000000 0.000000 -0.067245 0.000000 0.158368
#
#
# Mechanical properties :
#
#
# Convention : Reuss Voigt Hill
#
# Bulk Modulus (GPa) = 51.40919 73.11820 62.26370
# Shear Modulus (GPa) = 144.34365 37.79761 91.07063
#
# Velocity S-wave (km/s) = 7.52213 3.84923 5.97490
# Velocity P-wave (km/s) = 9.77729 6.95828 8.48567
#
# Compressibility (1/GPa) = 0.01945177
#
# Stress axis : x y z
#
# Youngs Moduli (GPa) = 132.30434 119.41194 38.75176
#
# Poissons Ratio (x) = -0.07032 0.31073
# Poissons Ratio (y) = -0.07791 0.14391
# Poissons Ratio (z) = 1.06087 0.44344
#
# Static dielectric constant tensor:
#      x y z
#    x 2.077990 0.000000 -0.001510 
#    y 0.000000 2.004490 0.000000 
#    z -0.001510 0.000000 2.384710 
# 
# From -- ./inp_files/12559.got.cif
#   From: 2010.05.17/outbox.cif.g08.bks.cpg/sg8_7_cif.got.tgz:12559.got - 2010.06.03 19:46:02.
