data_PCOD9133578
_publ_section_title
;
Structure prediction by ZEFSAII (Michael W. Deem and Ramdas Pophale) SiO2 
 PCOD9133578
Probable space group: C M
;
_chemical_formula_sum "Si O2"
_cell_formula_units_Z 32
_cell_length_a 10.142497
_cell_length_b 15.516031
_cell_length_c 10.286609
_cell_angle_alpha 90.000000
_cell_angle_beta 89.668821
_cell_angle_gamma 90.000000
_cell_volume 1618.789967
_symmetry_space_group_name_H-M "C M"
_symmetry_group_IT_number 8
_symmetry_cell_setting 'monoclinic'
loop_
_space_group_symop_operation_xyz
x,y,z
x,-y,z
1/2+x,1/2+y,z
1/2+x,1/2-y,z
loop_
_atom_site_type_symbol
_atom_site_label
_atom_site_fract_x
_atom_site_fract_y
_atom_site_fract_z
Si Si1 0.044360 0.741642 0.640210
Si Si2 0.610187 0.401227 0.817341
Si Si3 0.294448 0.746356 0.468748
Si Si4 0.912968 0.097614 0.288836
Si Si5 0.594200 0.903221 0.855901
Si Si6 0.362959 0.357521 0.996264
Si Si7 0.729251 0.400342 0.281972
Si Si8 0.845483 0.650750 0.002056
O O1 0.078362 0.833619 0.704601
O O2 0.149685 0.727608 0.525284
O O3 0.064001 0.668597 0.748395
O O4 0.897019 0.742230 0.585998
O O5 0.613647 0.500000 0.772716
O O6 0.745687 0.377065 0.888523
O O7 0.495012 0.389283 0.924717
O O8 0.346936 0.668183 0.380761
O O9 0.288726 0.832716 0.382967
O O10 0.860203 0.108273 0.142774
O O11 0.070857 0.111428 0.282206
O O12 0.889014 0.000000 0.334773
O O13 0.486578 0.890046 0.969700
O O14 0.583766 0.000000 0.803394
O O15 0.738078 0.888231 0.914580
O O16 0.360670 0.253817 0.001177
O O17 0.756694 0.500000 0.314367
O O18 0.785852 0.379830 0.138873
#
# Coordination Sequence:
#
# PCOD9133578 Si02
#       8
#     4   4   4   4   4   4   4   4
#     4  12  26  44  66  96 134 180 226 268 318 388
#     4  12  24  43  71  98 129 179 227 268 324 399
#     4  12  26  44  70  94 132 180 228 266 326 382
#     4  11  24  44  70 100 132 171 222 277 329 396
#     4  12  26  43  65 100 139 169 209 276 338 389
#     4  12  22  42  71 101 135 171 210 274 347 395
#     4  11  24  44  70 100 132 171 222 277 329 396
#     4  12  22  42  71 101 135 171 210 274 347 395
#
# _framework density 19.767852000000001
#
# number of rings (size 3 to 8) (size 9 to 14) (size 15 to 20)
#    0.000    0.250    6.250    3.750    0.000    3.000 
#    0.000    1.250    0.000    0.000    0.000    0.000 
#    0.000    0.000    0.000    0.000    0.000    0.000 
#
# Total GULP energy -89576.079019 kJ/mol
# GULP energy per Si atom -5598.504939 kJ/mol
# Density = 1.972286 g / cm^3
# Si number density = 19.767852 Si / 1000 Ang^3
#
#
#
# Elastic Constant Matrix: (Units=GPa)
#
#
# Indices 1 2 3 4 5 6 
#
# 1 36.8368 0.7560 -16.6532 0.0000 -1.6693 0.0000
# 2 0.7560 159.4802 24.5689 0.0000 -1.2423 0.0000
# 3 -16.6532 24.5689 49.5614 0.0000 -1.4113 0.0000
# 4 0.0000 0.0000 0.0000 1.2641 0.0000 51.9361
# 5 -1.6693 -1.2423 -1.4113 0.0000 35.6459 0.0000
# 6 0.0000 0.0000 0.0000 51.9361 0.0000 279.2034
#
#
#
# Elastic Compliance Matrix: (Units=1/GPa)
#
#
# Indices 1 2 3 4 5 6 
#
# 1 0.032717 -0.001994 0.012037 0.000000 0.001939 0.000000
# 2 -0.001994 0.006911 -0.004096 0.000000 -0.000015 0.000000
# 3 0.012037 -0.004096 0.026294 0.000000 0.001462 0.000000
# 4 0.000000 0.000000 0.000000 -0.119093 0.000000 0.022153
# 5 0.001939 -0.000015 0.001462 0.000000 0.028202 0.000000
# 6 0.000000 0.000000 0.000000 0.022153 0.000000 -0.000539
#
#
# Mechanical properties :
#
#
# Convention : Reuss Voigt Hill
#
# Bulk Modulus (GPa) = 12.85095 29.24685 21.04890
# Shear Modulus (GPa) = -436.19431 79.03647 -178.57892
#
# Velocity S-wave (km/s) = -14.87069 6.33002 -9.51494
# Velocity P-wave (km/s) = 16.98043 8.26152 10.49005
#
# Compressibility (1/GPa) = 0.07781527
#
# Stress axis : x y z
#
# Youngs Moduli (GPa) = 30.56475 144.70124 38.03147
#
# Poissons Ratio (x) = 0.28859 -0.45780
# Poissons Ratio (y) = 0.06096 0.15579
# Poissons Ratio (z) = -0.36792 0.59276
#
# Static dielectric constant tensor:
#      x y z
#    x 1.662590 0.000000 -0.009050 
#    y 0.000000 1.481180 0.000000 
#    z -0.009050 0.000000 1.669310 
# 
# From -- ./inp_files/18875.got.cif
#   From: 2010.05.17/outbox.cif.g08.bks.cpg/sg8_10_cif.got.tgz:18875.got - 2010.06.03 19:46:02.
