data_PCOD9133085
_publ_section_title
;
Structure prediction by ZEFSAII (Michael W. Deem and Ramdas Pophale) SiO2 
 PCOD9133085
Probable space group: C M
;
_chemical_formula_sum "Si O2"
_cell_formula_units_Z 32
_cell_length_a 14.157082
_cell_length_b 14.602362
_cell_length_c 19.154061
_cell_angle_alpha 90.000000
_cell_angle_beta 20.342805
_cell_angle_gamma 90.000000
_cell_volume 1376.520771
_symmetry_space_group_name_H-M "C M"
_symmetry_group_IT_number 8
_symmetry_cell_setting 'monoclinic'
loop_
_space_group_symop_operation_xyz
x,y,z
x,-y,z
1/2+x,1/2+y,z
1/2+x,1/2-y,z
loop_
_atom_site_type_symbol
_atom_site_label
_atom_site_fract_x
_atom_site_fract_y
_atom_site_fract_z
Si Si1 0.884780 0.602982 0.491430
Si Si2 0.911085 0.099576 0.636208
Si Si3 0.329365 0.106413 0.779590
Si Si4 0.275666 0.688159 0.104661
Si Si5 0.808910 0.601269 0.043534
Si Si6 0.373979 0.295383 0.804387
Si Si7 0.924030 0.336347 0.214770
Si Si8 0.754545 0.132212 0.364925
O O1 0.813414 0.500000 0.518597
O O2 0.616376 0.664014 0.682412
O O3 0.076765 0.651176 0.301956
O O4 0.059394 0.595941 0.440331
O O5 0.930214 0.172674 0.685830
O O6 0.164535 0.101973 0.408696
O O7 0.910843 0.000000 0.671228
O O8 0.618914 0.109350 0.802001
O O9 0.358733 0.185460 0.817423
O O10 0.597783 0.113747 0.545698
O O11 0.287855 0.000000 0.828550
O O12 0.069238 0.143853 0.915972
O O13 0.271976 0.799588 0.106809
O O14 0.147428 0.653698 0.121015
O O15 0.795659 0.500000 0.089116
O O16 0.561961 0.598161 0.160102
O O17 0.090308 0.336774 0.028120
O O18 0.793332 0.237373 0.318319
#
# Coordination Sequence:
#
# PCOD9133085 Si02
#       8
#     4   4   4   4   4   4   4   4
#     4  12  25  42  70 107 145 187 242 302 362 429
#     4  11  23  44  73 104 143 189 243 296 359 433
#     4  12  24  44  72 106 146 191 244 299 360 432
#     4  11  22  42  66 102 144 186 237 300 362 421
#     4  10  21  41  71  97 135 191 240 292 357 427
#     4  12  24  45  71 106 148 189 235 301 366 428
#     4  11  24  43  72 102 145 190 237 296 364 426
#     4  11  23  43  69 104 142 189 244 296 354 430
#
# _framework density 23.247014
#
# number of rings (size 3 to 8) (size 9 to 14) (size 15 to 20)
#    0.000    0.750    3.750    4.125    0.000    2.500 
#    0.000    3.125    0.000    0.750    0.000    0.000 
#    0.000    0.000    0.000    0.000    0.000    0.000 
#
# Total GULP energy -89369.329180 kJ/mol
# GULP energy per Si atom -5585.583074 kJ/mol
# Density = 2.319410 g / cm^3
# Si number density = 23.247014 Si / 1000 Ang^3
#
#
#
# Elastic Constant Matrix: (Units=GPa)
#
#
# Indices 1 2 3 4 5 6 
#
# 1 67.4894 23.9755 62.8870 0.0623 -20.0277 -0.0873
# 2 23.9755 163.6497 44.3716 -0.3552 -22.9749 0.1085
# 3 62.8870 44.3716 156.7367 -0.3828 -17.5581 0.0183
# 4 0.0623 -0.3552 -0.3828 3.0745 -0.1073 2.0348
# 5 -20.0277 -22.9749 -17.5581 -0.1073 49.3885 0.1134
# 6 -0.0873 0.1085 0.0183 2.0348 0.1134 -6.8493
#
#
#
# Elastic Compliance Matrix: (Units=1/GPa)
#
#
# Indices 1 2 3 4 5 6 
#
# 1 0.025849 -0.000225 -0.009527 -0.001113 0.006989 -0.000573
# 2 -0.000225 0.006935 -0.001584 0.000500 0.002572 0.000300
# 3 -0.009527 -0.001584 0.010559 0.001021 -0.000845 0.000414
# 4 -0.001113 0.000500 0.001021 0.271980 0.000550 0.080836
# 5 0.006989 0.002572 -0.000845 0.000550 0.023978 0.000510
# 6 -0.000573 0.000300 0.000414 0.080836 0.000510 -0.121963
#
#
# Mechanical properties :
#
#
# Convention : Reuss Voigt Hill
#
# Bulk Modulus (GPa) = 48.37616 72.26047 60.31832
# Shear Modulus (GPa) = 20.25110 26.23219 23.24165
#
# Velocity S-wave (km/s) = 2.95469 3.36283 3.16534
# Velocity P-wave (km/s) = 5.70044 6.79922 6.27393
#
# Compressibility (1/GPa) = 0.02067134
#
# Stress axis : x y z
#
# Youngs Moduli (GPa) = 38.68609 144.19690 94.70652
#
# Poissons Ratio (x) = 0.03238 0.90231
# Poissons Ratio (y) = 0.00869 0.15000
# Poissons Ratio (z) = 0.36858 0.22838
#
# Static dielectric constant tensor:
#      x y z
#    x 1.888700 0.000070 -0.017910 
#    y 0.000070 1.950090 0.000040 
#    z -0.017910 0.000040 1.855530 
# 
# From -- ./inp_files/30931.got.cif
#   From: 2010.05.17/outbox.cif.g08.bks.cpg/sg8_16_cif.got.tgz:30931.got - 2010.06.03 19:46:02.
