data_PCOD9133237
_publ_section_title
;
Structure prediction by ZEFSAII (Michael W. Deem and Ramdas Pophale) SiO2 
 PCOD9133237
Probable space group: C M
;
_chemical_formula_sum "Si O2"
_cell_formula_units_Z 32
_cell_length_a 22.630876
_cell_length_b 8.955577
_cell_length_c 14.651257
_cell_angle_alpha 90.000000
_cell_angle_beta 149.855130
_cell_angle_gamma 90.000000
_cell_volume 1491.201214
_symmetry_space_group_name_H-M "C M"
_symmetry_group_IT_number 8
_symmetry_cell_setting 'monoclinic'
loop_
_space_group_symop_operation_xyz
x,y,z
x,-y,z
1/2+x,1/2+y,z
1/2+x,1/2-y,z
loop_
_atom_site_type_symbol
_atom_site_label
_atom_site_fract_x
_atom_site_fract_y
_atom_site_fract_z
Si Si1 0.367270 0.820368 0.202610
Si Si2 0.733598 0.675362 0.299693
Si Si3 0.645557 0.822622 0.009379
Si Si4 0.820954 0.178455 0.801009
Si Si5 0.960288 0.673122 0.132773
Si Si6 0.731030 0.825653 0.491952
Si Si7 0.005470 0.675905 0.651481
Si Si8 0.597532 0.322156 0.602522
O O1 0.254291 0.748600 0.098889
O O2 0.378960 0.787616 0.110290
O O3 0.483680 0.751422 0.403309
O O4 0.366539 0.000000 0.213216
O O5 0.710103 0.500000 0.267586
O O6 0.648388 0.754997 0.114022
O O7 0.732662 0.736704 0.400542
O O8 0.868528 0.700399 0.447558
O O9 0.661342 0.000000 0.037197
O O10 0.533620 0.792592 0.795089
O O11 0.812938 0.226405 0.684570
O O12 0.712779 0.253914 0.710085
O O13 0.807572 0.000000 0.784403
O O14 0.933979 0.227794 0.009520
O O15 0.938256 0.500000 0.079218
O O16 0.095504 0.684036 0.344545
O O17 0.756376 0.000000 0.506566
O O18 0.031470 0.500000 0.670315
O O19 0.084254 0.775211 0.690392
O O20 0.596820 0.500000 0.592003
#
# Coordination Sequence:
#
# PCOD9133237 Si02
#       8
#     4   4   4   4   4   4   4   4
#     4  11  21  38  62  90 127 164 198 247 308 365
#     4  11  24  42  64  89 120 162 207 258 308 358
#     4  11  23  40  63  93 123 161 204 249 306 367
#     4  11  23  41  64  92 126 163 201 251 308 362
#     4  10  22  41  64  91 124 163 203 248 306 366
#     4  10  23  44  64  85 121 164 205 255 308 360
#     4  10  23  42  63  89 126 163 200 250 308 365
#     4  12  23  36  62  95 125 162 204 248 302 367
#
# _framework density 21.459209999999999
#
# number of rings (size 3 to 8) (size 9 to 14) (size 15 to 20)
#    0.000    1.250    2.500    3.375    0.000    7.000 
#    0.000    3.750    0.000    0.000    0.000    0.000 
#    0.000    0.000    0.000    0.000    0.000    0.000 
#
# Total GULP energy -89494.095245 kJ/mol
# GULP energy per Si atom -5593.380953 kJ/mol
# Density = 2.141037 g / cm^3
# Si number density = 21.459210 Si / 1000 Ang^3
#
#
#
# Elastic Constant Matrix: (Units=GPa)
#
#
# Indices 1 2 3 4 5 6 
#
# 1 74.0599 33.9027 3.8086 0.0000 -35.7272 0.0000
# 2 33.9027 61.0113 32.3084 0.0000 -25.4179 0.0000
# 3 3.8086 32.3084 88.0692 0.0000 -39.0362 0.0000
# 4 0.0000 0.0000 0.0000 29.5977 0.0000 -4.3450
# 5 -35.7272 -25.4179 -39.0362 0.0000 40.6604 0.0000
# 6 0.0000 0.0000 0.0000 -4.3450 0.0000 32.3816
#
#
#
# Elastic Compliance Matrix: (Units=1/GPa)
#
#
# Indices 1 2 3 4 5 6 
#
# 1 0.054910 -0.020436 0.036287 0.000000 0.070311 0.000000
# 2 -0.020436 0.030392 -0.017066 0.000000 -0.015342 0.000000
# 3 0.036287 -0.017066 0.044303 0.000000 0.063749 0.000000
# 4 0.000000 0.000000 0.000000 0.034465 0.000000 0.004625
# 5 0.070311 -0.015342 0.063749 0.000000 0.137986 0.000000
# 6 0.000000 0.000000 0.000000 0.004625 0.000000 0.031502
#
#
# Mechanical properties :
#
#
# Convention : Reuss Voigt Hill
#
# Bulk Modulus (GPa) = 7.86317 40.35330 24.10824
# Shear Modulus (GPa) = 13.21427 30.73600 21.97513
#
# Velocity S-wave (km/s) = 2.48419 3.78868 3.20354
# Velocity P-wave (km/s) = 3.44971 6.16314 4.99423
#
# Compressibility (1/GPa) = 0.12717513
#
# Stress axis : x y z
#
# Youngs Moduli (GPa) = 18.21160 32.90358 22.57205
#
# Poissons Ratio (x) = 0.67242 -0.81908
# Poissons Ratio (y) = 0.37217 0.38521
# Poissons Ratio (z) = -0.66085 0.56153
#
# Static dielectric constant tensor:
#      x y z
#    x 1.785030 0.000000 -0.013550 
#    y 0.000000 1.712950 0.000000 
#    z -0.013550 0.000000 1.803250 
# 
# From -- ./inp_files/26518.got.cif
#   From: 2010.05.17/outbox.cif.g08.bks.cpg/sg8_14_cif.got.tgz:26518.got - 2010.06.03 19:46:02.
