data_PCOD9133768
_publ_section_title
;
Structure prediction by ZEFSAII (Michael W. Deem and Ramdas Pophale) SiO2 
 PCOD9133768
Probable space group: C C
;
_chemical_formula_sum "Si O2"
_cell_formula_units_Z 28
_cell_length_a 6.781084
_cell_length_b 16.855542
_cell_length_c 11.255141
_cell_angle_alpha 90.000000
_cell_angle_beta 52.787763
_cell_angle_gamma 90.000000
_cell_volume 1024.529478
_symmetry_space_group_name_H-M "C C"
_symmetry_group_IT_number 9
_symmetry_cell_setting 'monoclinic'
loop_
_space_group_symop_operation_xyz
x,y,z
x,-y,1/2+z
1/2+x,1/2+y,z
1/2+x,1/2-y,1/2+z
loop_
_atom_site_type_symbol
_atom_site_label
_atom_site_fract_x
_atom_site_fract_y
_atom_site_fract_z
Si Si1 0.455850 0.861479 0.872530
Si Si2 0.888931 0.133261 0.475991
Si Si3 0.235484 0.495809 0.192129
Si Si4 0.461497 0.097409 0.996278
Si Si5 0.734994 0.451762 0.154356
Si Si6 0.676907 0.733496 0.191141
Si Si7 0.445027 0.307335 0.327735
O O1 0.512728 0.770301 0.873674
O O2 0.649058 0.913407 0.727140
O O3 0.440617 0.909573 0.999166
O O4 0.168304 0.864704 0.933209
O O5 0.803774 0.043792 0.540232
O O6 0.679654 0.185000 0.618870
O O7 0.961043 0.183441 0.333191
O O8 0.486485 0.480464 0.175683
O O9 0.030491 0.446739 0.347120
O O10 0.270804 0.169315 0.060640
O O11 0.356095 0.036748 0.134094
O O12 0.699421 0.145959 0.950578
O O13 0.641691 0.377826 0.263452
O O14 0.870674 0.764589 0.226464
#
# Coordination Sequence:
#
# PCOD9133768 Si02
#       7
#     4   4   4   4   4   4   4
#     4   9  16  28  52  74  98 133 168 210 240 302
#     4  10  17  29  49  77 101 125 174 205 250 288
#     4   9  17  32  47  75 102 134 166 203 255 298
#     4  10  17  29  50  74 102 131 165 215 241 303
#     4   9  17  29  48  75  99 134 169 201 257 294
#     4  11  16  29  49  77  99 125 171 210 237 292
#     4  10  16  30  51  78  93 128 175 206 242 295
#
# _framework density 27.329619999999998
#
# number of rings (size 3 to 8) (size 9 to 14) (size 15 to 20)
#    0.000    2.286    7.143    0.000    0.000    0.000 
#    0.000    7.143    0.000    5.143    7.429    0.000 
#    0.000    0.000    0.000    0.000    0.000    0.000 
#
# Total GULP energy -77993.452761 kJ/mol
# GULP energy per Si atom -5570.960911 kJ/mol
# Density = 2.726742 g / cm^3
# Si number density = 27.329620 Si / 1000 Ang^3
#
#
#
# Elastic Constant Matrix: (Units=GPa)
#
#
# Indices 1 2 3 4 5 6 
#
# 1 79.9962 8.3810 -2.0411 0.0000 -12.5605 0.0000
# 2 8.3810 218.5607 45.4332 0.0000 -32.0121 0.0000
# 3 -2.0411 45.4332 92.6763 0.0000 -13.8123 0.0000
# 4 0.0000 0.0000 0.0000 71.8964 0.0000 -12.5018
# 5 -12.5605 -32.0121 -13.8123 0.0000 14.4546 0.0000
# 6 0.0000 0.0000 0.0000 -12.5018 0.0000 28.9555
#
#
#
# Elastic Compliance Matrix: (Units=1/GPa)
#
#
# Indices 1 2 3 4 5 6 
#
# 1 0.015468 0.001795 0.002398 0.000000 0.019708 0.000000
# 2 0.001795 0.007110 -0.001011 0.000000 0.016340 0.000000
# 3 0.002398 -0.001011 0.013195 0.000000 0.012454 0.000000
# 4 0.000000 0.000000 0.000000 0.015038 0.000000 0.006493
# 5 0.019708 0.016340 0.012454 0.000000 0.134397 0.000000
# 6 0.000000 0.000000 0.000000 0.006493 0.000000 0.037339
#
#
# Mechanical properties :
#
#
# Convention : Reuss Voigt Hill
#
# Bulk Modulus (GPa) = 23.73201 54.97547 39.35374
# Shear Modulus (GPa) = 21.71764 45.69197 33.70480
#
# Velocity S-wave (km/s) = 2.82202 4.09330 3.51560
# Velocity P-wave (km/s) = 4.39555 6.51917 5.55970
#
# Compressibility (1/GPa) = 0.04213719
#
# Stress axis : x y z
#
# Youngs Moduli (GPa) = 64.64894 140.64729 75.78850
#
# Poissons Ratio (x) = -0.25246 -0.18174
# Poissons Ratio (y) = -0.11604 0.07660
# Poissons Ratio (z) = -0.15503 0.14215
#
# Static dielectric constant tensor:
#      x y z
#    x 2.306230 0.000000 0.048410 
#    y 0.000000 2.096910 0.000000 
#    z 0.048410 0.000000 2.202560 
# 
# From -- ./inp_files/14875.got.cif
#   From: 2010.05.17/outbox.cif.g08.bks.cpg/sg9_8_cif.got.tgz:14875.got - 2010.06.03 20:04:27.
