data_PCOD9133961
_publ_section_title
;
Structure prediction by ZEFSAII (Michael W. Deem and Ramdas Pophale) SiO2 
 PCOD9133961
Probable space group: C C
;
_chemical_formula_sum "Si O2"
_cell_formula_units_Z 32
_cell_length_a 9.372403
_cell_length_b 11.763591
_cell_length_c 19.693120
_cell_angle_alpha 90.000000
_cell_angle_beta 139.714120
_cell_angle_gamma 90.000000
_cell_volume 1403.919843
_symmetry_space_group_name_H-M "C C"
_symmetry_group_IT_number 9
_symmetry_cell_setting 'monoclinic'
loop_
_space_group_symop_operation_xyz
x,y,z
x,-y,1/2+z
1/2+x,1/2+y,z
1/2+x,1/2-y,1/2+z
loop_
_atom_site_type_symbol
_atom_site_label
_atom_site_fract_x
_atom_site_fract_y
_atom_site_fract_z
Si Si1 0.706850 0.075070 0.992630
Si Si2 0.620428 0.511445 0.886250
Si Si3 0.305274 0.165733 0.537510
Si Si4 0.285271 0.013689 0.655298
Si Si5 0.272476 0.488555 0.369182
Si Si6 0.607633 0.986311 0.600134
Si Si7 0.186054 0.075070 0.762802
Si Si8 0.087630 0.665733 0.217922
O O1 0.822480 0.031700 0.965696
O O2 0.446452 0.076843 0.877716
O O3 0.789650 0.201558 0.038263
O O4 0.720615 0.006485 0.068117
O O5 0.446452 0.556336 0.877716
O O6 0.570425 0.531700 0.789736
O O7 0.665741 0.379263 0.921942
O O8 0.861013 0.562318 0.991660
O O9 0.210907 0.099035 0.569067
O O10 0.544299 0.108489 0.609514
O O11 0.531892 0.062319 0.763772
O O12 0.172289 0.006486 0.687315
O O13 0.348606 0.891511 0.645918
O O14 0.227164 0.620737 0.333490
O O15 0.681998 0.900965 0.686365
O O16 0.103254 0.201558 0.717169
#
# Coordination Sequence:
#
# PCOD9133961 Si02
#       8
#     4   4   4   4   4   4   4   4
#     4  10  18  32  54  79 100 141 182 208 260 317
#     4   9  18  33  48  75 106 128 176 219 254 315
#     4   9  17  33  56  71 105 139 171 221 260 300
#     4   8  18  33  54  73 104 135 183 209 259 323
#     4   9  18  33  48  75 106 128 176 219 254 315
#     4   8  18  33  54  73 104 135 183 209 259 323
#     4  10  18  32  54  79 100 141 182 208 260 317
#     4   9  17  33  56  71 105 139 171 221 260 300
#
# _framework density 22.793322
#
# number of rings (size 3 to 8) (size 9 to 14) (size 15 to 20)
#    1.500    1.500    0.000    1.500    0.000    0.000 
#    4.500    2.500    0.000    0.000    0.000    0.000 
#    0.000    0.000    0.000    0.000    0.000    0.000 
#
# Total GULP energy -89113.983931 kJ/mol
# GULP energy per Si atom -5569.623996 kJ/mol
# Density = 2.274144 g / cm^3
# Si number density = 22.793322 Si / 1000 Ang^3
#
#
#
# Elastic Constant Matrix: (Units=GPa)
#
#
# Indices 1 2 3 4 5 6 
#
# 1 144.3532 9.2041 26.4153 0.0000 -44.8589 0.0000
# 2 9.2041 36.0352 10.6621 0.0000 -12.4588 0.0000
# 3 26.4153 10.6621 112.4504 -0.0001 -28.4015 -0.0001
# 4 0.0000 0.0000 -0.0001 27.0481 -0.0001 -1.9886
# 5 -44.8589 -12.4588 -28.4015 -0.0001 45.0225 0.0000
# 6 0.0000 0.0000 -0.0001 -1.9886 0.0000 14.0847
#
#
#
# Elastic Compliance Matrix: (Units=1/GPa)
#
#
# Indices 1 2 3 4 5 6 
#
# 1 0.010069 0.000977 0.000172 0.000000 0.010411 0.000000
# 2 0.000977 0.030860 -0.000895 0.000000 0.008948 0.000000
# 3 0.000172 -0.000895 0.010608 0.000000 0.006615 0.000000
# 4 0.000000 0.000000 0.000000 0.037359 0.000000 0.005275
# 5 0.010411 0.008948 0.006615 0.000000 0.039234 0.000000
# 6 0.000000 0.000000 0.000000 0.005275 0.000000 0.071744
#
#
# Mechanical properties :
#
#
# Convention : Reuss Voigt Hill
#
# Bulk Modulus (GPa) = 19.21484 42.82242 31.01863
# Shear Modulus (GPa) = 23.07179 33.66822 28.37000
#
# Velocity S-wave (km/s) = 3.18499 3.84749 3.53181
# Velocity P-wave (km/s) = 4.68763 6.21012 5.50179
#
# Compressibility (1/GPa) = 0.05204311
#
# Stress axis : x y z
#
# Youngs Moduli (GPa) = 99.31385 32.40460 94.26680
#
# Poissons Ratio (x) = -0.03166 -0.01618
# Poissons Ratio (y) = -0.09702 0.08441
# Poissons Ratio (z) = -0.01704 0.02902
#
# Static dielectric constant tensor:
#      x y z
#    x 2.006030 0.000000 0.114430 
#    y 0.000000 1.771890 0.000000 
#    z 0.114430 0.000000 1.940110 
# 
# From -- ./inp_files/23104.got.cif
#   From: 2010.05.17/outbox.cif.g08.bks.cpg/sg9_12_cif.got.tgz:23104.got - 2010.06.03 20:04:27.
