data_PCOD9133549
_publ_section_title
;
Structure prediction by ZEFSAII (Michael W. Deem and Ramdas Pophale) SiO2 
 PCOD9133549
Probable space group: C M
;
_chemical_formula_sum "Si O2"
_cell_formula_units_Z 20
_cell_length_a 7.481979
_cell_length_b 28.060727
_cell_length_c 4.919414
_cell_angle_alpha 90.000000
_cell_angle_beta 135.558925
_cell_angle_gamma 90.000000
_cell_volume 723.162006
_symmetry_space_group_name_H-M "C M"
_symmetry_group_IT_number 8
_symmetry_cell_setting 'monoclinic'
loop_
_space_group_symop_operation_xyz
x,y,z
x,-y,z
1/2+x,1/2+y,z
1/2+x,1/2-y,z
loop_
_atom_site_type_symbol
_atom_site_label
_atom_site_fract_x
_atom_site_fract_y
_atom_site_fract_z
Si Si1 0.316680 0.000000 0.770051
Si Si2 0.294074 0.500000 0.877497
Si Si3 0.953057 0.402719 0.915599
Si Si4 0.805438 0.696070 0.984306
Si Si5 0.012127 0.799473 0.160016
Si Si6 0.921241 0.098691 0.032517
O O1 0.379782 0.951212 0.992191
O O2 0.027734 0.000000 0.351938
O O3 0.521834 0.000000 0.739016
O O4 0.353432 0.550582 0.794914
O O5 0.935791 0.353410 0.053505
O O6 0.225780 0.406258 0.071051
O O7 0.718231 0.401685 0.442037
O O8 0.773051 0.699703 0.271044
O O9 0.909644 0.746889 0.999362
O O10 0.548654 0.693096 0.520380
O O11 0.876979 0.846639 0.894694
#
# Coordination Sequence:
#
# PCOD9133549 Si02
#       6
#     2   2   4   4   4   4
#     4   8  14  28  53  82 116 154 196 244 298 356
#     4   8  14  28  53  82 116 154 196 244 298 356
#     4   9  18  34  57  87 120 158 201 249 302 361
#     4  11  23  40  62  92 124 163 206 255 308 367
#     4  11  23  40  62  92 124 163 206 255 308 367
#     4   9  18  34  57  87 120 158 201 249 302 361
#
# _framework density 27.656320000000001
#
# number of rings (size 3 to 8) (size 9 to 14) (size 15 to 20)
#    0.000    2.400    0.000    2.400    0.000    3.200 
#    0.000    1.000    0.000    0.000    0.000   43.400 
#    0.000    0.000    0.000    0.000    0.000    0.000 
#
# Total GULP energy -55854.966035 kJ/mol
# GULP energy per Si atom -5585.496603 kJ/mol
# Density = 2.759337 g / cm^3
# Si number density = 27.656320 Si / 1000 Ang^3
#
#
#
# Elastic Constant Matrix: (Units=GPa)
#
#
# Indices 1 2 3 4 5 6 
#
# 1 106.5104 37.8536 24.3153 0.0000 7.8470 0.0000
# 2 37.8536 303.4780 3.5379 0.0000 -4.2112 0.0000
# 3 24.3153 3.5379 129.4501 0.0000 15.9095 0.0000
# 4 0.0000 0.0000 0.0000 4.4347 0.0000 17.6606
# 5 7.8470 -4.2112 15.9095 0.0000 36.0101 0.0000
# 6 0.0000 0.0000 0.0000 17.6606 0.0000 43.7600
#
#
#
# Elastic Compliance Matrix: (Units=1/GPa)
#
#
# Indices 1 2 3 4 5 6 
#
# 1 0.010361 -0.001295 -0.001707 0.000000 -0.001655 0.000000
# 2 -0.001295 0.003465 0.000068 0.000000 0.000658 0.000000
# 3 -0.001707 0.000068 0.008456 0.000000 -0.003356 0.000000
# 4 0.000000 0.000000 0.000000 -0.371369 0.000000 0.149877
# 5 -0.001655 0.000658 -0.003356 0.000000 0.029690 0.000000
# 6 0.000000 0.000000 0.000000 0.149877 0.000000 -0.037635
#
#
# Mechanical properties :
#
#
# Convention : Reuss Voigt Hill
#
# Bulk Modulus (GPa) = 60.92984 74.53912 67.73448
# Shear Modulus (GPa) = -14.46375 48.42308 16.97966
#
# Velocity S-wave (km/s) = -2.28936 4.18890 2.48049
# Velocity P-wave (km/s) = 3.88467 7.09974 5.72263
#
# Compressibility (1/GPa) = 0.01641232
#
# Stress axis : x y z
#
# Youngs Moduli (GPa) = 96.51734 288.59661 118.25512
#
# Poissons Ratio (x) = 0.37385 0.20190
# Poissons Ratio (y) = 0.12503 -0.00802
# Poissons Ratio (z) = 0.16479 -0.01957
#
# Static dielectric constant tensor:
#      x y z
#    x 2.109060 0.000000 -0.032140 
#    y 0.000000 2.260410 0.000000 
#    z -0.032140 0.000000 2.332700 
# 
# From -- ./inp_files/1644.got.cif
#   From: 2010.05.17/outbox.cif.g08.bks.cpg/sg8_1_cif.got.tgz:1644.got - 2010.06.03 19:46:02.
