data_PCOD9133762
_publ_section_title
;
Structure prediction by ZEFSAII (Michael W. Deem and Ramdas Pophale) SiO2 
 PCOD9133762
Probable space group: C C
;
_chemical_formula_sum "Si O2"
_cell_formula_units_Z 32
_cell_length_a 10.752219
_cell_length_b 19.317147
_cell_length_c 9.533942
_cell_angle_alpha 90.000000
_cell_angle_beta 136.244214
_cell_angle_gamma 90.000000
_cell_volume 1369.492899
_symmetry_space_group_name_H-M "C C"
_symmetry_group_IT_number 9
_symmetry_cell_setting 'monoclinic'
loop_
_space_group_symop_operation_xyz
x,y,z
x,-y,1/2+z
1/2+x,1/2+y,z
1/2+x,1/2-y,1/2+z
loop_
_atom_site_type_symbol
_atom_site_label
_atom_site_fract_x
_atom_site_fract_y
_atom_site_fract_z
Si Si1 0.224640 0.210567 0.230690
Si Si2 0.667389 0.030307 0.554663
Si Si3 0.814629 0.109259 0.063865
Si Si4 0.757716 0.672492 0.792682
Si Si5 0.353148 0.327963 0.894892
Si Si6 0.522189 0.069857 0.165191
Si Si7 0.962712 0.682683 0.666965
Si Si8 0.933491 0.148322 0.866952
O O1 0.073213 0.248393 0.207567
O O2 0.352178 0.166143 0.436265
O O3 0.334897 0.277916 0.270708
O O4 0.142197 0.170126 0.030975
O O5 0.509654 0.047720 0.316089
O O6 0.804719 0.093214 0.690027
O O7 0.791263 0.968832 0.593637
O O8 0.580015 0.997029 0.621769
O O9 0.865700 0.156493 0.238021
O O10 0.620788 0.133484 0.848522
O O11 0.938787 0.119383 0.031644
O O12 0.545963 0.657517 0.619644
O O13 0.801512 0.749109 0.884835
O O14 0.826909 0.681954 0.687249
O O15 0.868524 0.612262 0.959770
O O16 0.193045 0.378450 0.806499
#
# Coordination Sequence:
#
# PCOD9133762 Si02
#       8
#     4   4   4   4   4   4   4   4
#     4   9  19  31  56  96 120 163 207 261 320 359
#     4  11  22  44  66  84 130 173 207 251 324 381
#     4  10  19  35  60  91 123 167 211 258 306 372
#     4  12  19  36  63  98 128 165 209 272 314 371
#     4  11  21  36  63  99 130 162 211 264 322 369
#     4  11  25  44  66  94 128 172 212 260 316 385
#     4  10  16  29  56  91 131 153 209 258 306 366
#     4  10  19  37  62  85 124 161 210 262 310 379
#
# _framework density 23.366313000000002
#
# number of rings (size 3 to 8) (size 9 to 14) (size 15 to 20)
#    0.000    1.500    5.000    3.750    0.000    0.000 
#    2.250    5.000    5.500    0.000    0.000    0.000 
#    0.000    0.000    0.000    0.000    0.000    0.000 
#
# Total GULP energy -89345.953342 kJ/mol
# GULP energy per Si atom -5584.122084 kJ/mol
# Density = 2.331313 g / cm^3
# Si number density = 23.366313 Si / 1000 Ang^3
#
#
#
# Elastic Constant Matrix: (Units=GPa)
#
#
# Indices 1 2 3 4 5 6 
#
# 1 27.4514 5.9090 16.1517 0.0000 -3.4145 0.0000
# 2 5.9090 84.9183 84.0684 0.0000 -10.5378 0.0000
# 3 16.1517 84.0684 202.3758 0.0000 4.6749 0.0000
# 4 0.0000 0.0000 0.0000 48.7121 0.0000 -5.9932
# 5 -3.4145 -10.5378 4.6749 0.0000 41.1389 0.0000
# 6 0.0000 0.0000 0.0000 -5.9932 0.0000 11.1316
#
#
#
# Elastic Compliance Matrix: (Units=1/GPa)
#
#
# Indices 1 2 3 4 5 6 
#
# 1 0.038865 0.001643 -0.003879 0.000000 0.004087 0.000000
# 2 0.001643 0.021715 -0.009308 0.000000 0.006756 0.000000
# 3 -0.003879 -0.009308 0.009204 0.000000 -0.003752 0.000000
# 4 0.000000 0.000000 0.000000 0.021985 0.000000 0.011837
# 5 0.004087 0.006756 -0.003752 0.000000 0.026804 0.000000
# 6 0.000000 0.000000 0.000000 0.011837 0.000000 0.096208
#
#
# Mechanical properties :
#
#
# Convention : Reuss Voigt Hill
#
# Bulk Modulus (GPa) = 21.41497 58.55597 39.98547
# Shear Modulus (GPa) = 19.72911 34.10427 26.91669
#
# Velocity S-wave (km/s) = 2.90890 3.82455 3.39771
# Velocity P-wave (km/s) = 4.52406 6.67962 5.70458
#
# Compressibility (1/GPa) = 0.04669632
#
# Stress axis : x y z
#
# Youngs Moduli (GPa) = 25.73014 46.05214 108.64903
#
# Poissons Ratio (x) = -0.07564 0.42141
# Poissons Ratio (y) = -0.04226 1.01126
# Poissons Ratio (z) = 0.09980 0.42863
#
# Static dielectric constant tensor:
#      x y z
#    x 2.020600 0.000000 -0.027070 
#    y 0.000000 1.865270 0.000000 
#    z -0.027070 0.000000 1.930670 
# 
# From -- ./inp_files/17102.got.cif
#   From: 2010.05.17/outbox.cif.g08.bks.cpg/sg9_9_cif.got.tgz:17102.got - 2010.06.03 20:04:27.
