data_PCOD9133493
_publ_section_title
;
Structure prediction by ZEFSAII (Michael W. Deem and Ramdas Pophale) SiO2 
 PCOD9133493
Probable space group: C M
;
_chemical_formula_sum "Si O2"
_cell_formula_units_Z 32
_cell_length_a 9.403775
_cell_length_b 20.173512
_cell_length_c 8.951785
_cell_angle_alpha 90.000000
_cell_angle_beta 120.159002
_cell_angle_gamma 90.000000
_cell_volume 1468.337709
_symmetry_space_group_name_H-M "C M"
_symmetry_group_IT_number 8
_symmetry_cell_setting 'monoclinic'
loop_
_space_group_symop_operation_xyz
x,y,z
x,-y,z
1/2+x,1/2+y,z
1/2+x,1/2-y,z
loop_
_atom_site_type_symbol
_atom_site_label
_atom_site_fract_x
_atom_site_fract_y
_atom_site_fract_z
Si Si1 0.011870 0.797318 0.666230
Si Si2 0.632772 0.715839 0.175622
Si Si3 0.500055 0.573579 0.476888
Si Si4 0.148194 0.428915 0.442060
Si Si5 0.091369 0.927063 0.175192
Si Si6 0.237117 0.427844 0.842010
Si Si7 0.249538 0.287255 0.976733
Si Si8 0.632475 0.211327 0.475013
O O1 0.025614 0.739010 0.551906
O O2 0.062256 0.865426 0.610259
O O3 0.823914 0.800267 0.622471
O O4 0.142328 0.773138 0.855581
O O5 0.686191 0.639696 0.183833
O O6 0.439107 0.718470 0.031251
O O7 0.733381 0.772579 0.143588
O O8 0.637584 0.734295 0.350636
O O9 0.565762 0.500000 0.551988
O O10 0.307116 0.572251 0.418053
O O11 0.529795 0.581828 0.315361
O O12 0.064236 0.500000 0.374143
O O13 0.202850 0.427387 0.646618
O O14 0.065430 0.358069 0.377611
O O15 0.170021 0.000000 0.208185
O O16 0.930579 0.928697 0.984421
O O17 0.171848 0.500000 0.863330
O O18 0.180721 0.358939 0.888761
#
# Coordination Sequence:
#
# PCOD9133493 Si02
#       8
#     4   4   4   4   4   4   4   4
#     4  11  21  36  58  84 113 147 185 233 282 329
#     4  11  23  38  58  85 115 150 187 232 283 337
#     4   9  18  32  54  83 111 144 190 237 275 322
#     4   9  18  32  54  83 111 144 190 237 275 322
#     4   9  18  33  54  81 111 146 190 235 276 325
#     4   9  18  33  54  81 111 146 190 235 276 325
#     4  11  23  38  58  85 115 150 187 232 283 337
#     4  11  21  36  58  84 113 147 185 233 282 329
#
# _framework density 21.793351000000001
#
# number of rings (size 3 to 8) (size 9 to 14) (size 15 to 20)
#    0.000    2.000    2.500    1.500   10.500    0.000 
#    0.000    0.000    0.000    9.000    0.000    0.000 
#    0.000    0.000    0.000    0.000    0.000    0.000 
#
# Total GULP energy -89191.351783 kJ/mol
# GULP energy per Si atom -5574.459486 kJ/mol
# Density = 2.174375 g / cm^3
# Si number density = 21.793351 Si / 1000 Ang^3
#
#
#
# Elastic Constant Matrix: (Units=GPa)
#
#
# Indices 1 2 3 4 5 6 
#
# 1 74.3779 26.1038 7.1672 0.0000 -0.7526 0.0000
# 2 26.1038 156.0948 -12.5648 0.0000 1.8298 0.0000
# 3 7.1672 -12.5648 25.0806 0.0000 5.0982 0.0000
# 4 0.0000 0.0000 0.0000 27.3981 0.0000 -9.0120
# 5 -0.7526 1.8298 5.0982 0.0000 24.2723 0.0000
# 6 0.0000 0.0000 0.0000 -9.0120 0.0000 21.0018
#
#
#
# Elastic Compliance Matrix: (Units=1/GPa)
#
#
# Indices 1 2 3 4 5 6 
#
# 1 0.015144 -0.003061 -0.006271 0.000000 0.002018 0.000000
# 2 -0.003061 0.007331 0.004888 0.000000 -0.001674 0.000000
# 3 -0.006271 0.004888 0.046199 0.000000 -0.010267 0.000000
# 4 0.000000 0.000000 0.000000 0.042497 0.000000 0.018236
# 5 0.002018 -0.001674 -0.010267 0.000000 0.043544 0.000000
# 6 0.000000 0.000000 0.000000 0.018236 0.000000 0.055440
#
#
# Mechanical properties :
#
#
# Convention : Reuss Voigt Hill
#
# Bulk Modulus (GPa) = 16.72639 32.99618 24.86128
# Shear Modulus (GPa) = 20.92285 30.19091 25.55688
#
# Velocity S-wave (km/s) = 3.10184 3.72604 3.42817
# Velocity P-wave (km/s) = 4.52992 5.80383 5.20599
#
# Compressibility (1/GPa) = 0.05978577
#
# Stress axis : x y z
#
# Youngs Moduli (GPa) = 66.03343 136.40113 21.64544
#
# Poissons Ratio (x) = 0.41752 0.13574
# Poissons Ratio (y) = 0.20213 -0.10580
# Poissons Ratio (z) = 0.41411 -0.66671
#
# Static dielectric constant tensor:
#      x y z
#    x 1.803800 0.000000 0.003020 
#    y 0.000000 1.861870 0.000000 
#    z 0.003020 0.000000 1.866350 
# 
# From -- ./inp_files/11370.got.cif
#   From: 2010.05.17/outbox.cif.g08.bks.cpg/sg8_6_cif.got.tgz:11370.got - 2010.06.03 19:46:02.
