data_PCOD9133498
_publ_section_title
;
Structure prediction by ZEFSAII (Michael W. Deem and Ramdas Pophale) SiO2 
 PCOD9133498
Probable space group: C M
;
_chemical_formula_sum "Si O2"
_cell_formula_units_Z 24
_cell_length_a 10.928378
_cell_length_b 21.775690
_cell_length_c 7.840546
_cell_angle_alpha 90.000000
_cell_angle_beta 36.336707
_cell_angle_gamma 90.000000
_cell_volume 1105.563854
_symmetry_space_group_name_H-M "C M"
_symmetry_group_IT_number 8
_symmetry_cell_setting 'monoclinic'
loop_
_space_group_symop_operation_xyz
x,y,z
x,-y,z
1/2+x,1/2+y,z
1/2+x,1/2-y,z
loop_
_atom_site_type_symbol
_atom_site_label
_atom_site_fract_x
_atom_site_fract_y
_atom_site_fract_z
Si Si1 0.756180 0.072683 0.121850
Si Si2 0.599846 0.240805 0.590812
Si Si3 0.874396 0.155447 0.677563
Si Si4 0.867592 0.630829 0.702205
Si Si5 0.474073 0.429590 0.247297
Si Si6 0.544428 0.740592 0.013544
O O1 0.520121 0.097456 0.399472
O O2 0.870227 0.081436 0.177482
O O3 0.757163 0.000000 0.086332
O O4 0.867889 0.110086 0.846672
O O5 0.552553 0.293220 0.504968
O O6 0.525997 0.173158 0.628480
O O7 0.470264 0.259633 0.901781
O O8 0.842812 0.238903 0.355626
O O9 0.898102 0.115845 0.480441
O O10 0.669090 0.197236 0.906565
O O11 0.697962 0.683023 0.847952
O O12 0.721377 0.580785 0.954224
O O13 0.427926 0.500000 0.344548
#
# Coordination Sequence:
#
# PCOD9133498 Si02
#       6
#     4   4   4   4   4   4
#     4  11  24  42  63  88 122 163 206 251 297 353
#     4  11  22  37  61  92 123 155 195 249 305 360
#     4  11  23  40  64  92 123 159 202 248 302 363
#     4  11  21  38  62  88 121 159 200 246 304 361
#     4  11  24  42  63  88 122 163 206 251 297 353
#     4  11  22  37  61  92 123 155 195 249 305 360
#
# _framework density 21.708378
#
# number of rings (size 3 to 8) (size 9 to 14) (size 15 to 20)
#    0.000    1.000    0.000    8.000    0.000    5.333 
#    0.000    0.000    0.000   10.000    0.000    0.000 
#    0.000    0.000    0.000    0.000    0.000    0.000 
#
# Total GULP energy -67023.854233 kJ/mol
# GULP energy per Si atom -5585.321186 kJ/mol
# Density = 2.165897 g / cm^3
# Si number density = 21.708378 Si / 1000 Ang^3
#
#
#
# Elastic Constant Matrix: (Units=GPa)
#
#
# Indices 1 2 3 4 5 6 
#
# 1 73.6900 56.8364 30.4975 0.0000 10.2551 0.0000
# 2 56.8364 99.8971 38.8763 0.0000 7.6380 0.0000
# 3 30.4975 38.8763 105.1960 0.0000 -14.3592 0.0000
# 4 0.0000 0.0000 0.0000 30.6192 0.0000 13.0527
# 5 10.2551 7.6380 -14.3592 0.0000 26.8196 0.0000
# 6 0.0000 0.0000 0.0000 13.0527 0.0000 27.5320
#
#
#
# Elastic Compliance Matrix: (Units=1/GPa)
#
#
# Indices 1 2 3 4 5 6 
#
# 1 0.026245 -0.012677 -0.004100 0.000000 -0.008620 0.000000
# 2 -0.012677 0.018816 -0.003612 0.000000 -0.002445 0.000000
# 3 -0.004100 -0.003612 0.013360 0.000000 0.009750 0.000000
# 4 0.000000 0.000000 0.000000 0.040932 0.000000 -0.019405
# 5 -0.008620 -0.002445 0.009750 0.000000 0.046499 0.000000
# 6 0.000000 0.000000 0.000000 -0.019405 0.000000 0.045521
#
#
# Mechanical properties :
#
#
# Convention : Reuss Voigt Hill
#
# Bulk Modulus (GPa) = 56.68339 59.02261 57.85300
# Shear Modulus (GPa) = 21.00561 27.16568 24.08565
#
# Velocity S-wave (km/s) = 3.11405 3.54134 3.33454
# Velocity P-wave (km/s) = 6.25281 6.63094 6.44465
#
# Compressibility (1/GPa) = 0.01764185
#
# Stress axis : x y z
#
# Youngs Moduli (GPa) = 38.10293 53.14759 74.84765
#
# Poissons Ratio (x) = 0.67376 0.30690
# Poissons Ratio (y) = 0.48304 0.27035
# Poissons Ratio (z) = 0.15623 0.19197
#
# Static dielectric constant tensor:
#      x y z
#    x 1.851070 0.000000 -0.010440 
#    y 0.000000 1.793700 0.000000 
#    z -0.010440 0.000000 1.747420 
# 
# From -- ./inp_files/11569.got.cif
#   From: 2010.05.17/outbox.cif.g08.bks.cpg/sg8_6_cif.got.tgz:11569.got - 2010.06.03 19:46:02.
