data_PCOD9133986
_publ_section_title
;
Structure prediction by ZEFSAII (Michael W. Deem and Ramdas Pophale) SiO2 
 PCOD9133986
Probable space group: C C
;
_chemical_formula_sum "Si O2"
_cell_formula_units_Z 32
_cell_length_a 7.840957
_cell_length_b 15.327729
_cell_length_c 12.448552
_cell_angle_alpha 90.000000
_cell_angle_beta 71.087857
_cell_angle_gamma 90.000000
_cell_volume 1415.352189
_symmetry_space_group_name_H-M "C C"
_symmetry_group_IT_number 9
_symmetry_cell_setting 'monoclinic'
loop_
_space_group_symop_operation_xyz
x,y,z
x,-y,1/2+z
1/2+x,1/2+y,z
1/2+x,1/2-y,1/2+z
loop_
_atom_site_type_symbol
_atom_site_label
_atom_site_fract_x
_atom_site_fract_y
_atom_site_fract_z
Si Si1 0.377900 0.462327 0.046460
Si Si2 0.129203 0.850082 0.297217
Si Si3 0.108893 0.373973 0.983326
Si Si4 0.340912 0.003797 0.164651
Si Si5 0.644630 0.591661 0.032378
Si Si6 0.237086 0.622576 0.929737
Si Si7 0.114161 0.503358 0.292195
Si Si8 0.838311 0.775799 0.599133
O O1 0.584174 0.490754 0.019863
O O2 0.274405 0.478775 0.178640
O O3 0.297080 0.374085 0.011665
O O4 0.313684 0.535766 0.973563
O O5 0.176246 0.940948 0.228931
O O6 0.189648 0.864772 0.408831
O O7 0.238242 0.775130 0.213850
O O8 0.914585 0.837302 0.337398
O O9 0.146035 0.412194 0.858685
O O10 0.983203 0.445299 0.069530
O O11 0.984151 0.289730 0.015416
O O12 0.282295 0.083264 0.101635
O O13 0.442629 0.024031 0.254081
O O14 0.466925 0.644262 0.107779
O O15 0.099587 0.582324 0.872118
O O16 0.200679 0.687457 0.036500
#
# Coordination Sequence:
#
# PCOD9133986 Si02
#       8
#     4   4   4   4   4   4   4   4
#     4   8  17  31  53  79 105 143 193 234 279 341
#     4   9  18  35  56  79 117 156 187 245 295 335
#     4   9  18  33  53  79 111 150 193 237 289 347
#     4  10  19  33  57  82 111 154 197 239 286 344
#     4  10  20  35  57  87 115 150 197 237 289 357
#     4   9  19  34  55  84 114 152 194 232 289 354
#     4  10  18  33  56  82 113 150 195 246 286 335
#     4   9  19  34  55  84 118 153 188 236 297 351
#
# _framework density 22.609214000000001
#
# number of rings (size 3 to 8) (size 9 to 14) (size 15 to 20)
#    0.000    3.000    0.000    1.500    0.000    4.000 
#    0.000    3.750    0.000   30.000    0.000    0.000 
#    0.000    0.000    0.000    0.000    0.000    0.000 
#
# Total GULP energy -89144.328053 kJ/mol
# GULP energy per Si atom -5571.520503 kJ/mol
# Density = 2.255775 g / cm^3
# Si number density = 22.609214 Si / 1000 Ang^3
#
#
#
# Elastic Constant Matrix: (Units=GPa)
#
#
# Indices 1 2 3 4 5 6 
#
# 1 69.8820 29.0720 47.4870 0.0000 24.2978 0.0000
# 2 29.0720 65.1031 40.9124 0.0000 15.1071 0.0000
# 3 47.4870 40.9124 127.3353 0.0000 16.9926 0.0000
# 4 0.0000 0.0000 0.0000 42.5097 0.0000 -4.5200
# 5 24.2978 15.1071 16.9926 0.0000 38.3796 0.0000
# 6 0.0000 0.0000 0.0000 -4.5200 0.0000 25.0224
#
#
#
# Elastic Compliance Matrix: (Units=1/GPa)
#
#
# Indices 1 2 3 4 5 6 
#
# 1 0.024042 -0.004390 -0.006116 0.000000 -0.010785 0.000000
# 2 -0.004390 0.021052 -0.004668 0.000000 -0.003441 0.000000
# 3 -0.006116 -0.004668 0.011555 0.000000 0.000594 0.000000
# 4 0.000000 0.000000 0.000000 0.023985 0.000000 0.004333
# 5 -0.010785 -0.003441 0.000594 0.000000 0.033975 0.000000
# 6 0.000000 0.000000 0.000000 0.004333 0.000000 0.040747
#
#
# Mechanical properties :
#
#
# Convention : Reuss Voigt Hill
#
# Bulk Modulus (GPa) = 38.02074 55.25146 46.63610
# Shear Modulus (GPa) = 25.71078 30.83894 28.27486
#
# Velocity S-wave (km/s) = 3.37587 3.69724 3.54020
# Velocity P-wave (km/s) = 5.66112 6.53581 6.11413
#
# Compressibility (1/GPa) = 0.02630143
#
# Stress axis : x y z
#
# Youngs Moduli (GPa) = 41.59347 47.50059 86.54431
#
# Poissons Ratio (x) = 0.20852 0.52934
# Poissons Ratio (y) = 0.18259 0.40397
# Poissons Ratio (z) = 0.25440 0.22172
#
# Static dielectric constant tensor:
#      x y z
#    x 1.943280 0.000000 0.000430 
#    y 0.000000 1.893870 0.000000 
#    z 0.000430 0.000000 1.880780 
# 
# From -- ./inp_files/15061.got.cif
#   From: 2010.05.17/outbox.cif.g08.bks.cpg/sg9_8_cif.got.tgz:15061.got - 2010.06.03 20:04:27.
