data_PCOD9133169
_publ_section_title
;
Structure prediction by ZEFSAII (Michael W. Deem and Ramdas Pophale) SiO2 
 PCOD9133169
Probable space group: C M
;
_chemical_formula_sum "Si O2"
_cell_formula_units_Z 24
_cell_length_a 17.193583
_cell_length_b 14.680768
_cell_length_c 7.335323
_cell_angle_alpha 90.000000
_cell_angle_beta 33.215946
_cell_angle_gamma 90.000000
_cell_volume 1014.269414
_symmetry_space_group_name_H-M "C M"
_symmetry_group_IT_number 8
_symmetry_cell_setting 'monoclinic'
loop_
_space_group_symop_operation_xyz
x,y,z
x,-y,z
1/2+x,1/2+y,z
1/2+x,1/2-y,z
loop_
_atom_site_type_symbol
_atom_site_label
_atom_site_fract_x
_atom_site_fract_y
_atom_site_fract_z
Si Si1 0.407410 0.398922 0.848320
Si Si2 0.222276 0.104176 0.119805
Si Si3 0.821476 0.696081 0.559286
Si Si4 0.822348 0.102276 0.640482
Si Si5 0.065236 0.400054 0.860587
Si Si6 0.116684 0.785387 0.641919
O O1 0.390799 0.500000 0.962765
O O2 0.550123 0.398874 0.439776
O O3 0.291494 0.385979 0.918709
O O4 0.463685 0.330383 0.892518
O O5 0.228750 0.166151 0.287135
O O6 0.269292 0.000000 0.054040
O O7 0.293217 0.150937 0.809373
O O8 0.881161 0.798348 0.469169
O O9 0.676699 0.699578 0.725695
O O10 0.927172 0.635113 0.235134
O O11 0.684408 0.902874 0.783367
O O12 0.888286 0.000000 0.487003
O O13 0.047976 0.500000 0.814746
O O14 0.108359 0.322632 0.632319
#
# Coordination Sequence:
#
# PCOD9133169 Si02
#       6
#     4   4   4   4   4   4
#     4   8  17  37  63  90 121 159 212 262 303 364
#     4   9  20  38  63  96 124 160 209 264 316 364
#     4  11  22  37  66  94 131 166 207 262 322 377
#     4   9  20  39  60  87 128 169 207 249 306 381
#     4  10  22  39  62  96 130 167 209 257 321 383
#     4   9  21  40  60  93 126 165 210 258 310 373
#
# _framework density 23.662353
#
# number of rings (size 3 to 8) (size 9 to 14) (size 15 to 20)
#    1.000    1.667    0.000    0.500    4.667    4.000 
#    0.000    2.500    0.000    5.000    0.000    0.000 
#    0.000    0.000    0.000    0.000    0.000    0.000 
#
# Total GULP energy -66870.494151 kJ/mol
# GULP energy per Si atom -5572.541179 kJ/mol
# Density = 2.360850 g / cm^3
# Si number density = 23.662353 Si / 1000 Ang^3
#
#
#
# Elastic Constant Matrix: (Units=GPa)
#
#
# Indices 1 2 3 4 5 6 
#
# 1 83.7847 64.8495 8.0204 0.0000 22.4196 0.0000
# 2 64.8495 231.3537 45.3468 0.0000 24.0413 0.0000
# 3 8.0204 45.3468 76.6102 0.0000 20.1050 0.0000
# 4 0.0000 0.0000 0.0000 21.0929 0.0000 9.3316
# 5 22.4196 24.0413 20.1050 0.0000 24.1635 0.0000
# 6 0.0000 0.0000 0.0000 9.3316 0.0000 40.9181
#
#
#
# Elastic Compliance Matrix: (Units=1/GPa)
#
#
# Indices 1 2 3 4 5 6 
#
# 1 0.020063 -0.004798 0.005593 0.000000 -0.018495 0.000000
# 2 -0.004798 0.006231 -0.003489 0.000000 0.001155 0.000000
# 3 0.005593 -0.003489 0.019169 0.000000 -0.017668 0.000000
# 4 0.000000 0.000000 0.000000 0.052729 0.000000 -0.012025
# 5 -0.018495 0.001155 -0.017668 0.000000 0.072096 0.000000
# 6 0.000000 0.000000 0.000000 -0.012025 0.000000 0.027181
#
#
# Mechanical properties :
#
#
# Convention : Reuss Voigt Hill
#
# Bulk Modulus (GPa) = 24.95307 69.79799 47.37553
# Shear Modulus (GPa) = 23.12503 35.47035 29.29769
#
# Velocity S-wave (km/s) = 3.12956 3.87592 3.52256
# Velocity P-wave (km/s) = 4.86078 7.04215 6.05058
#
# Compressibility (1/GPa) = 0.04007523
#
# Stress axis : x y z
#
# Youngs Moduli (GPa) = 49.84418 160.48394 52.16628
#
# Poissons Ratio (x) = 0.77001 -0.29178
# Poissons Ratio (y) = 0.23915 0.18202
# Poissons Ratio (z) = -0.27879 0.55996
#
# Static dielectric constant tensor:
#      x y z
#    x 1.936360 0.000000 -0.023850 
#    y 0.000000 1.933260 0.000000 
#    z -0.023850 0.000000 1.906230 
# 
# From -- ./inp_files/16169.got.cif
#   From: 2010.05.17/outbox.cif.g08.bks.cpg/sg8_9_cif.got.tgz:16169.got - 2010.06.03 19:46:02.
