data_PCOD9133405
_publ_section_title
;
Structure prediction by ZEFSAII (Michael W. Deem and Ramdas Pophale) SiO2 
 PCOD9133405
Probable space group: C M
;
_chemical_formula_sum "Si O2"
_cell_formula_units_Z 28
_cell_length_a 9.141280
_cell_length_b 28.619090
_cell_length_c 5.072193
_cell_angle_alpha 90.000000
_cell_angle_beta 119.203360
_cell_angle_gamma 90.000000
_cell_volume 1158.296770
_symmetry_space_group_name_H-M "C M"
_symmetry_group_IT_number 8
_symmetry_cell_setting 'monoclinic'
loop_
_space_group_symop_operation_xyz
x,y,z
x,-y,z
1/2+x,1/2+y,z
1/2+x,1/2-y,z
loop_
_atom_site_type_symbol
_atom_site_label
_atom_site_fract_x
_atom_site_fract_y
_atom_site_fract_z
Si Si1 0.048400 0.602784 0.763990
Si Si2 0.292176 0.552090 0.645049
Si Si3 0.814468 0.446487 0.937720
Si Si4 0.668288 0.774978 0.292295
Si Si5 0.103622 0.079575 0.250015
Si Si6 0.866173 0.137587 0.314079
Si Si7 0.940923 0.701049 0.589562
O O1 0.111880 0.563916 0.616733
O O2 0.926865 0.644803 0.578711
O O3 0.975953 0.579305 0.961796
O O4 0.218570 0.630329 0.974219
O O5 0.292656 0.500000 0.527941
O O6 0.343129 0.594414 0.496681
O O7 0.435459 0.553895 0.997817
O O8 0.845753 0.500000 0.035385
O O9 0.691804 0.444971 0.574705
O O10 0.725250 0.421904 0.105379
O O11 0.818866 0.813323 0.399847
O O12 0.563314 0.785434 0.459588
O O13 0.764165 0.726185 0.392419
O O14 0.535632 0.781473 0.937819
O O15 0.037198 0.128700 0.309287
#
# Coordination Sequence:
#
# PCOD9133405 Si02
#       7
#     4   4   4   4   4   4   4
#     4  10  25  43  65  99 138 175 227 282 338 407
#     4  11  21  41  69  95 131 183 230 270 327 401
#     4  12  25  42  63  98 141 180 224 284 345 401
#     4  11  24  46  73 104 140 178 229 289 350 417
#     4  11  25  42  65  95 135 180 230 281 332 397
#     4  10  23  45  69  98 134 179 232 277 330 410
#     4  11  24  47  72 103 139 179 228 291 349 417
#
# _framework density 24.173425000000002
#
# number of rings (size 3 to 8) (size 9 to 14) (size 15 to 20)
#    0.000    1.143    2.857    2.571    2.000    4.571 
#    2.571    0.000    0.000    0.000    0.000    0.000 
#    0.000    0.000    0.000    0.000    0.000    0.000 
#
# Total GULP energy -78329.516162 kJ/mol
# GULP energy per Si atom -5594.965440 kJ/mol
# Density = 2.411840 g / cm^3
# Si number density = 24.173425 Si / 1000 Ang^3
#
#
#
# Elastic Constant Matrix: (Units=GPa)
#
#
# Indices 1 2 3 4 5 6 
#
# 1 158.7652 23.9874 27.0850 0.0000 -28.1564 0.0000
# 2 23.9874 73.9457 39.5581 0.0000 -5.3642 0.0000
# 3 27.0850 39.5581 99.2290 0.0000 -12.4636 0.0000
# 4 0.0000 0.0000 0.0000 -1.4915 0.0000 12.7431
# 5 -28.1564 -5.3642 -12.4636 0.0000 45.5090 0.0000
# 6 0.0000 0.0000 0.0000 12.7431 0.0000 -6.1499
#
#
#
# Elastic Compliance Matrix: (Units=1/GPa)
#
#
# Indices 1 2 3 4 5 6 
#
# 1 0.007433 -0.001657 -0.000844 0.000000 0.004172 0.000000
# 2 -0.001657 0.017560 -0.006645 0.000000 -0.000775 0.000000
# 3 -0.000844 -0.006645 0.013249 0.000000 0.002323 0.000000
# 4 0.000000 0.000000 0.000000 0.040139 0.000000 0.083172
# 5 0.004172 -0.000775 0.002323 0.000000 0.025100 0.000000
# 6 0.000000 0.000000 0.000000 0.083172 0.000000 0.009735
#
#
# Mechanical properties :
#
#
# Convention : Reuss Voigt Hill
#
# Bulk Modulus (GPa) = 50.12862 57.02230 53.57546
# Shear Modulus (GPa) = 36.19026 23.66082 29.92554
#
# Velocity S-wave (km/s) = 3.87345 3.13196 3.52227
# Velocity P-wave (km/s) = 6.38646 6.05962 6.22519
#
# Compressibility (1/GPa) = 0.01994869
#
# Stress axis : x y z
#
# Youngs Moduli (GPa) = 134.53702 56.94860 75.47669
#
# Poissons Ratio (x) = 0.09436 0.06372
# Poissons Ratio (y) = 0.22291 0.50157
# Poissons Ratio (z) = 0.11359 0.37845
#
# Static dielectric constant tensor:
#      x y z
#    x 1.928640 0.000000 0.042550 
#    y 0.000000 1.937020 0.000000 
#    z 0.042550 0.000000 1.975720 
# 
# From -- ./inp_files/2030.got.cif
#   From: 2010.05.17/outbox.cif.g08.bks.cpg/sg8_2_cif.got.tgz:2030.got - 2010.06.03 19:46:02.
