data_PCOD9133984
_publ_section_title
;
Structure prediction by ZEFSAII (Michael W. Deem and Ramdas Pophale) SiO2 
 PCOD9133984
Probable space group: C C
;
_chemical_formula_sum "Si O2"
_cell_formula_units_Z 28
_cell_length_a 5.450542
_cell_length_b 13.489500
_cell_length_c 15.638439
_cell_angle_alpha 90.000000
_cell_angle_beta 110.653948
_cell_angle_gamma 90.000000
_cell_volume 1075.916315
_symmetry_space_group_name_H-M "C C"
_symmetry_group_IT_number 9
_symmetry_cell_setting 'monoclinic'
loop_
_space_group_symop_operation_xyz
x,y,z
x,-y,1/2+z
1/2+x,1/2+y,z
1/2+x,1/2-y,1/2+z
loop_
_atom_site_type_symbol
_atom_site_label
_atom_site_fract_x
_atom_site_fract_y
_atom_site_fract_z
Si Si1 0.610990 0.207700 0.140940
Si Si2 0.719746 0.731247 0.392935
Si Si3 0.344943 0.096195 0.819155
Si Si4 0.568943 0.266585 0.598847
Si Si5 0.513852 0.019060 0.018437
Si Si6 0.158732 0.693733 0.330360
Si Si7 0.616387 0.495757 0.117241
O O1 0.359656 0.273903 0.127921
O O2 0.546513 0.132793 0.056680
O O3 0.665589 0.150691 0.235546
O O4 0.870100 0.266148 0.147441
O O5 0.608784 0.835721 0.342822
O O6 0.457527 0.677931 0.397840
O O7 0.924721 0.751880 0.492409
O O8 0.892254 0.671301 0.345970
O O9 0.151174 0.186069 0.821823
O O10 0.234184 0.043296 0.721399
O O11 0.401892 0.029061 0.909346
O O12 0.613145 0.383571 0.621273
O O13 0.310607 0.972159 0.061255
O O14 0.807704 0.975047 0.059534
#
# Coordination Sequence:
#
# PCOD9133984 Si02
#       7
#     4   4   4   4   4   4   4
#     4  10  18  33  55  79 107 139 189 224 274 326
#     4  10  19  34  53  85 105 140 194 219 279 328
#     4  10  22  35  62  81 117 145 195 223 288 334
#     4  10  18  35  55  79 108 145 183 229 270 331
#     4  10  21  37  57  83 112 150 188 230 275 335
#     4  10  20  31  54  82 105 142 183 239 267 327
#     4  10  20  33  58  85 108 147 190 230 275 333
#
# _framework density 26.024332000000001
#
# number of rings (size 3 to 8) (size 9 to 14) (size 15 to 20)
#    0.857    1.143    2.857    3.429    2.000    0.000 
#    0.000    0.000    0.000   27.429    0.000    0.000 
#    0.000    0.000    0.000    0.000    0.000    0.000 
#
# Total GULP energy -78181.538151 kJ/mol
# GULP energy per Si atom -5584.395582 kJ/mol
# Density = 2.596510 g / cm^3
# Si number density = 26.024332 Si / 1000 Ang^3
#
#
#
# Elastic Constant Matrix: (Units=GPa)
#
#
# Indices 1 2 3 4 5 6 
#
# 1 249.6453 13.4532 60.9145 0.0000 4.1730 0.0000
# 2 13.4532 83.4671 41.1075 0.0000 -7.8483 0.0000
# 3 60.9145 41.1075 189.9860 0.0000 12.1229 0.0000
# 4 0.0000 0.0000 0.0000 46.9988 0.0000 -1.1390
# 5 4.1730 -7.8483 12.1229 0.0000 42.0626 0.0000
# 6 0.0000 0.0000 0.0000 -1.1390 0.0000 -8.0381
#
#
#
# Elastic Compliance Matrix: (Units=1/GPa)
#
#
# Indices 1 2 3 4 5 6 
#
# 1 0.004346 -0.000021 -0.001387 0.000000 -0.000035 0.000000
# 2 -0.000021 0.013905 -0.003227 0.000000 0.003527 0.000000
# 3 -0.001387 -0.003227 0.006557 0.000000 -0.002354 0.000000
# 4 0.000000 0.000000 0.000000 0.021204 0.000000 -0.003005
# 5 -0.000035 0.003527 -0.002354 0.000000 0.025114 0.000000
# 6 0.000000 0.000000 0.000000 -0.003005 0.000000 -0.123982
#
#
# Mechanical properties :
#
#
# Convention : Reuss Voigt Hill
#
# Bulk Modulus (GPa) = 64.35657 83.78322 74.06989
# Shear Modulus (GPa) = -130.18099 43.37954 -43.40072
#
# Velocity S-wave (km/s) = -7.08035 4.08718 -4.08818
# Velocity P-wave (km/s) = 6.48527 7.38495 2.49787
#
# Compressibility (1/GPa) = 0.01553843
#
# Stress axis : x y z
#
# Youngs Moduli (GPa) = 230.11083 71.91649 152.51894
#
# Poissons Ratio (x) = 0.00150 0.21148
# Poissons Ratio (y) = 0.00481 0.49217
# Poissons Ratio (z) = 0.31907 0.23207
#
# Static dielectric constant tensor:
#      x y z
#    x 2.201000 0.000000 -0.020380 
#    y 0.000000 2.080690 0.000000 
#    z -0.020380 0.000000 2.022280 
# 
# From -- ./inp_files/13573.got.cif
#   From: 2010.05.17/outbox.cif.g08.bks.cpg/sg9_7_cif.got.tgz:13573.got - 2010.06.03 20:04:27.
