data_PCOD9133427
_publ_section_title
;
Structure prediction by ZEFSAII (Michael W. Deem and Ramdas Pophale) SiO2 
 PCOD9133427
Probable space group: C M
;
_chemical_formula_sum "Si O2"
_cell_formula_units_Z 20
_cell_length_a 9.987476
_cell_length_b 18.773150
_cell_length_c 5.063168
_cell_angle_alpha 90.000000
_cell_angle_beta 73.756776
_cell_angle_gamma 90.000000
_cell_volume 911.431407
_symmetry_space_group_name_H-M "C M"
_symmetry_group_IT_number 8
_symmetry_cell_setting 'monoclinic'
loop_
_space_group_symop_operation_xyz
x,y,z
x,-y,z
1/2+x,1/2+y,z
1/2+x,1/2-y,z
loop_
_atom_site_type_symbol
_atom_site_label
_atom_site_fract_x
_atom_site_fract_y
_atom_site_fract_z
Si Si1 0.039510 0.079789 0.337490
Si Si2 0.769898 0.083279 0.147942
Si Si3 0.118344 0.640336 0.735580
Si Si4 0.306324 0.857040 0.983121
Si Si5 0.174694 0.201385 0.539136
O O1 0.191432 0.083367 0.116356
O O2 0.055718 0.142687 0.541654
O O3 0.920776 0.098587 0.192461
O O4 0.012196 0.000000 0.455334
O O5 0.664664 0.099141 0.447427
O O6 0.765415 0.000000 0.081797
O O7 0.725558 0.125874 0.913273
O O8 0.116555 0.723380 0.659003
O O9 0.964605 0.619475 0.917094
O O10 0.265136 0.796216 0.219887
O O11 0.273789 0.829023 0.710961
#
# Coordination Sequence:
#
# PCOD9133427 Si02
#       5
#     4   4   4   4   4
#     4   9  24  47  72 102 141 184 234 282 346 421
#     4  11  26  45  71 104 142 188 229 289 355 412
#     4  12  25  45  71 102 148 180 236 291 345 417
#     4  10  24  43  67 105 131 188 232 280 353 397
#     4  10  24  42  71 101 139 178 237 282 348 401
#
# _framework density 21.943503
#
# number of rings (size 3 to 8) (size 9 to 14) (size 15 to 20)
#    1.200    0.400    0.000    3.000    5.600    4.000 
#    0.000    0.000    0.000    0.000    0.000    0.000 
#    0.000    0.000    0.000    0.000    0.000    0.000 
#
# Total GULP energy -55859.484730 kJ/mol
# GULP energy per Si atom -5585.948473 kJ/mol
# Density = 2.189356 g / cm^3
# Si number density = 21.943503 Si / 1000 Ang^3
#
#
#
# Elastic Constant Matrix: (Units=GPa)
#
#
# Indices 1 2 3 4 5 6 
#
# 1 115.2115 55.3020 43.6461 0.0000 1.6129 0.0000
# 2 55.3020 94.1085 37.7792 0.0000 24.3561 0.0000
# 3 43.6461 37.7792 104.6491 0.0000 19.2444 0.0000
# 4 0.0000 0.0000 0.0000 24.5651 0.0000 13.9217
# 5 1.6129 24.3561 19.2444 0.0000 43.9761 0.0000
# 6 0.0000 0.0000 0.0000 13.9217 0.0000 11.4554
#
#
#
# Elastic Compliance Matrix: (Units=1/GPa)
#
#
# Indices 1 2 3 4 5 6 
#
# 1 0.013993 -0.008112 -0.003958 0.000000 0.005712 0.000000
# 2 -0.008112 0.018406 -0.001568 0.000000 -0.009211 0.000000
# 3 -0.003958 -0.001568 0.012600 0.000000 -0.004501 0.000000
# 4 0.000000 0.000000 0.000000 0.130782 0.000000 -0.158937
# 5 0.005712 -0.009211 -0.004501 0.000000 0.029601 0.000000
# 6 0.000000 0.000000 0.000000 -0.158937 0.000000 0.280449
#
#
# Mechanical properties :
#
#
# Convention : Reuss Voigt Hill
#
# Bulk Modulus (GPa) = 56.42129 65.26931 60.84530
# Shear Modulus (GPa) = 9.63365 27.81546 18.72455
#
# Velocity S-wave (km/s) = 2.09755 3.56419 2.92431
# Velocity P-wave (km/s) = 5.62443 6.83716 6.26023
#
# Compressibility (1/GPa) = 0.01772381
#
# Stress axis : x y z
#
# Youngs Moduli (GPa) = 71.46420 54.32933 79.36514
#
# Poissons Ratio (x) = 0.44073 0.31412
# Poissons Ratio (y) = 0.57974 0.12441
# Poissons Ratio (z) = 0.28284 0.08517
#
# Static dielectric constant tensor:
#      x y z
#    x 1.782430 0.000000 -0.033390 
#    y 0.000000 1.851120 0.000000 
#    z -0.033390 0.000000 1.803810 
# 
# From -- ./inp_files/1407.got.cif
#   From: 2010.05.17/outbox.cif.g08.bks.cpg/sg8_1_cif.got.tgz:1407.got - 2010.06.03 19:46:02.
