data_PCOD9133576
_publ_section_title
;
Structure prediction by ZEFSAII (Michael W. Deem and Ramdas Pophale) SiO2 
 PCOD9133576
Probable space group: C M
;
_chemical_formula_sum "Si O2"
_cell_formula_units_Z 20
_cell_length_a 5.199289
_cell_length_b 34.171673
_cell_length_c 4.882478
_cell_angle_alpha 90.000000
_cell_angle_beta 100.484254
_cell_angle_gamma 90.000000
_cell_volume 852.979751
_symmetry_space_group_name_H-M "C M"
_symmetry_group_IT_number 8
_symmetry_cell_setting 'monoclinic'
loop_
_space_group_symop_operation_xyz
x,y,z
x,-y,z
1/2+x,1/2+y,z
1/2+x,1/2-y,z
loop_
_atom_site_type_symbol
_atom_site_label
_atom_site_fract_x
_atom_site_fract_y
_atom_site_fract_z
Si Si1 0.200550 0.068653 0.590480
Si Si2 0.176653 0.878052 0.088017
Si Si3 0.566834 0.000000 0.708278
Si Si4 0.363254 0.500000 0.267759
Si Si5 0.128636 0.274725 0.650465
Si Si6 0.677328 0.172572 0.154692
O O1 0.290369 0.096961 0.363784
O O2 0.420961 0.039905 0.752423
O O3 0.001935 0.038708 0.406627
O O4 0.095025 0.094251 0.820234
O O5 0.408128 0.849689 0.033533
O O6 0.926417 0.854611 0.149256
O O7 0.592630 0.000000 0.384689
O O8 0.829905 0.000000 0.937304
O O9 0.337233 0.242352 0.596278
O O10 0.157763 0.311926 0.458981
O O11 0.199584 0.289533 0.966152
#
# Coordination Sequence:
#
# PCOD9133576 Si02
#       6
#     4   4   2   2   4   4
#     4  11  26  43  66 103 130 192 232 296 346 411
#     4  12  26  44  70  98 148 181 230 281 358 410
#     4  11  24  43  70  95 135 174 252 289 344 409
#     4  11  24  43  70  95 135 174 252 289 344 409
#     4  12  24  45  74 101 138 179 228 279 338 401
#     4  12  26  45  68 107 138 181 228 279 340 425
#
# _framework density 23.447216000000001
#
# number of rings (size 3 to 8) (size 9 to 14) (size 15 to 20)
#    0.000    0.400    0.000    8.400    8.400    3.200 
#    0.000    0.000    0.000    0.000    0.000    0.000 
#    0.000    0.000    0.000    0.000    0.000    0.000 
#
# Total GULP energy -56019.935146 kJ/mol
# GULP energy per Si atom -5601.993515 kJ/mol
# Density = 2.339385 g / cm^3
# Si number density = 23.447216 Si / 1000 Ang^3
#
#
#
# Elastic Constant Matrix: (Units=GPa)
#
#
# Indices 1 2 3 4 5 6 
#
# 1 90.3906 25.7861 -0.3697 0.0000 -9.6181 0.0000
# 2 25.7861 76.6439 12.8519 0.0000 -9.1135 0.0000
# 3 -0.3697 12.8519 95.8719 0.0000 -5.7194 0.0000
# 4 0.0000 0.0000 0.0000 5.1993 0.0000 -47.1442
# 5 -9.6181 -9.1135 -5.7194 0.0000 31.5570 0.0000
# 6 0.0000 0.0000 0.0000 -47.1442 0.0000 -30.9849
#
#
#
# Elastic Compliance Matrix: (Units=1/GPa)
#
#
# Indices 1 2 3 4 5 6 
#
# 1 0.012505 -0.004001 0.000751 0.000000 0.002792 0.000000
# 2 -0.004001 0.015037 -0.001865 0.000000 0.002785 0.000000
# 3 0.000751 -0.001865 0.010782 0.000000 0.001644 0.000000
# 4 0.000000 0.000000 0.000000 0.012999 0.000000 -0.019778
# 5 0.002792 0.002785 0.001644 0.000000 0.033642 0.000000
# 6 0.000000 0.000000 0.000000 -0.019778 0.000000 -0.002181
#
#
# Mechanical properties :
#
#
# Convention : Reuss Voigt Hill
#
# Bulk Modulus (GPa) = 35.59526 37.71592 36.65559
# Shear Modulus (GPa) = 48.83876 16.13016 32.48446
#
# Velocity S-wave (km/s) = 4.56886 2.62570 3.72617
# Velocity P-wave (km/s) = 6.56099 5.03118 5.84634
#
# Compressibility (1/GPa) = 0.02809363
#
# Stress axis : x y z
#
# Youngs Moduli (GPa) = 79.97028 66.50093 92.75062
#
# Poissons Ratio (x) = 0.26607 -0.06967
# Poissons Ratio (y) = 0.31996 0.17299
# Poissons Ratio (z) = -0.06007 0.12403
#
# Static dielectric constant tensor:
#      x y z
#    x 1.904470 0.000000 -0.001580 
#    y 0.000000 1.854860 0.000000 
#    z -0.001580 0.000000 1.826850 
# 
# From -- ./inp_files/537.got.cif
#   From: 2010.05.17/outbox.cif.g08.bks.cpg/sg8_1_cif.got.tgz:537.got - 2010.06.03 19:46:02.
