data_PCOD9133667
_publ_section_title
;
Structure prediction by ZEFSAII (Michael W. Deem and Ramdas Pophale) SiO2 
 PCOD9133667
Probable space group: C M
;
_chemical_formula_sum "Si O2"
_cell_formula_units_Z 16
_cell_length_a 21.000000
_cell_length_b 9.000000
_cell_length_c 27.000000
_cell_angle_alpha 90.000000
_cell_angle_beta 160.000000
_cell_angle_gamma 90.000000
_cell_volume 1745.328791
_symmetry_space_group_name_H-M "C M"
_symmetry_group_IT_number 8
_symmetry_cell_setting 'monoclinic'
loop_
_space_group_symop_operation_xyz
x,y,z
x,-y,z
1/2+x,1/2+y,z
1/2+x,1/2-y,z
loop_
_atom_site_type_symbol
_atom_site_label
_atom_site_fract_x
_atom_site_fract_y
_atom_site_fract_z
Si Si1 0.409060 0.679580 0.275660
Si Si2 0.719816 0.669148 0.313144
Si Si3 0.878211 0.322940 0.793472
Si Si4 0.524724 0.321954 0.469178
Si Si5 0.558664 0.830289 0.285608
Si Si6 0.174176 0.168133 0.942745
Si Si7 0.333426 0.330267 0.969639
Si Si8 0.995340 0.820597 0.980366
O O1 0.398038 0.500000 0.263512
O O2 0.514994 0.720695 0.404215
O O3 0.508398 0.746244 0.299655
O O4 0.200662 0.746834 0.128268
O O5 0.783114 0.500000 0.365692
O O6 0.699687 0.746194 0.351912
O O7 0.522093 0.665735 0.140195
O O8 0.852709 0.756247 0.373360
O O9 0.874902 0.500000 0.799899
O O10 0.704495 0.278553 0.632234
O O11 0.053164 0.277927 0.887652
O O12 0.890375 0.238683 0.854785
O O13 0.513690 0.500000 0.461837
O O14 0.616873 0.000000 0.338232
O O15 0.371145 0.836935 0.115352
O O16 0.098257 0.000000 0.887495
O O17 0.201201 0.227188 0.906505
O O18 0.260815 0.500000 0.914090
O O19 0.391115 0.283256 0.956089
O O20 0.014575 0.000000 0.992707
#
# Coordination Sequence:
#
# PCOD9133667 Si02
#       8
#     4   4   4   4   4   4   4   4
#     4  11  21  35  58  85 113 147 189 235 280 332
#     4  10  19  34  57  84 113 148 188 230 281 336
#     4  11  23  39  58  81 115 155 190 230 280 337
#     4  10  23  40  57  82 116 152 190 231 281 336
#     4  10  20  34  55  84 117 146 183 237 282 328
#     4  10  20  34  55  83 114 146 186 232 280 333
#     4   9  19  34  55  83 114 144 181 231 283 332
#     4  11  21  36  57  86 116 144 187 236 281 332
#
# _framework density 9.1673270000000002
#
# number of rings (size 3 to 8) (size 9 to 14) (size 15 to 20)
#    0.000    1.750    2.500    2.250    0.000    4.000 
#    0.000    1.250    0.000    1.500    0.000    0.000 
#    0.000    0.000    0.000    0.000    0.000    0.000 
#
# Total GULP energy -89252.349272 kJ/mol
# GULP energy per Si atom -5578.271830 kJ/mol
# Density = 0.914646 g / cm^3
# Si number density = 9.167327 Si / 1000 Ang^3
#
#
#
# Elastic Constant Matrix: (Units=GPa)
#
#
# Indices 1 2 3 4 5 6 
#
# 1 175.7409 42.3710 16.3425 0.0003 -33.2345 -0.0003
# 2 42.3710 14.4286 22.1117 -0.0050 -28.7511 0.0033
# 3 16.3425 22.1117 27.6143 -0.0081 -22.2999 0.0057
# 4 0.0003 -0.0050 -0.0081 13.0654 -0.0021 -4.4896
# 5 -33.2345 -28.7511 -22.2999 -0.0021 20.8714 0.0006
# 6 -0.0003 0.0033 0.0057 -4.4896 0.0006 23.6006
#
#
#
# Elastic Compliance Matrix: (Units=1/GPa)
#
#
# Indices 1 2 3 4 5 6 
#
# 1 0.013308 -0.013971 0.035593 0.000022 0.039975 -0.000003
# 2 -0.013971 -0.007687 -0.088159 -0.000074 -0.127029 0.000011
# 3 0.035593 -0.088159 0.243766 0.000141 0.195685 -0.000025
# 4 0.000022 -0.000074 0.000141 0.081891 0.000091 0.015578
# 5 0.039975 -0.127029 0.195685 0.000091 0.145658 -0.000016
# 6 -0.000003 0.000011 -0.000025 0.015578 -0.000016 0.045335
#
#
# Mechanical properties :
#
#
# Convention : Reuss Voigt Hill
#
# Bulk Modulus (GPa) = 8.59745 42.15936 25.37840
# Shear Modulus (GPa) = 7.20339 20.63804 13.92072
#
# Velocity S-wave (km/s) = 1.98428 3.35868 2.75845
# Velocity P-wave (km/s) = 3.15423 6.17133 4.90074
#
# Compressibility (1/GPa) = 0.11631354
#
# Stress axis : x y z
#
# Youngs Moduli (GPa) = 75.14040 -130.08874 4.10230
#
# Poissons Ratio (x) = -1.81747 -0.14601
# Poissons Ratio (y) = 1.04979 0.36165
# Poissons Ratio (z) = -2.67445 -11.46843
#
# Static dielectric constant tensor:
#      x y z
#    x 1.607190 0.000000 0.009700 
#    y 0.000000 1.631260 0.000000 
#    z 0.009700 0.000000 1.653460 
# 
# From -- ./inp_files/23691.got.cif
#   From: 2010.05.17/outbox.ucp.g08.bks.cvg/sg8_12_cif.got.tgz:23691.got - 2010.06.11 13:00:03.
