data_PCOD9133334
_publ_section_title
;
Structure prediction by ZEFSAII (Michael W. Deem and Ramdas Pophale) SiO2 
 PCOD9133334
Probable space group: C M
;
_chemical_formula_sum "Si O2"
_cell_formula_units_Z 20
_cell_length_a 11.380218
_cell_length_b 14.237821
_cell_length_c 7.464917
_cell_angle_alpha 90.000000
_cell_angle_beta 41.088068
_cell_angle_gamma 90.000000
_cell_volume 794.929733
_symmetry_space_group_name_H-M "C M"
_symmetry_group_IT_number 8
_symmetry_cell_setting 'monoclinic'
loop_
_space_group_symop_operation_xyz
x,y,z
x,-y,z
1/2+x,1/2+y,z
1/2+x,1/2-y,z
loop_
_atom_site_type_symbol
_atom_site_label
_atom_site_fract_x
_atom_site_fract_y
_atom_site_fract_z
Si Si1 0.981300 0.110734 0.592180
Si Si2 0.845647 0.702840 0.161142
Si Si3 0.461522 0.893072 0.688604
Si Si4 0.588106 0.889049 0.167081
Si Si5 0.377267 0.396921 0.295271
O O1 0.915331 0.193578 0.130649
O O2 0.942790 0.116431 0.422693
O O3 0.145710 0.177185 0.455927
O O4 0.023524 0.000000 0.580243
O O5 0.794828 0.864639 0.902257
O O6 0.977675 0.636302 0.120359
O O7 0.850832 0.669807 0.950670
O O8 0.489271 0.851601 0.457945
O O9 0.661912 0.899980 0.536909
O O10 0.387890 0.000000 0.766930
O O11 0.589005 0.000000 0.194427
O O12 0.440082 0.500000 0.157449
#
# Coordination Sequence:
#
# PCOD9133334 Si02
#       5
#     4   4   4   4   4
#     4  10  22  46  78 112 150 193 244 305 368 439
#     4  12  24  44  80 109 146 198 258 292 361 447
#     4  10  22  46  75 106 150 193 235 303 373 429
#     4  10  22  45  76 113 157 193 235 308 380 432
#     4  10  24  47  71 106 155 195 238 308 372 425
#
# _framework density 25.159458000000001
#
# number of rings (size 3 to 8) (size 9 to 14) (size 15 to 20)
#    0.000    1.600    2.000    1.800    2.800    1.600 
#    7.200    0.000    0.000    1.200    0.000    0.000 
#    0.000    0.000    0.000    0.000    0.000    0.000 
#
# Total GULP energy -56011.701316 kJ/mol
# GULP energy per Si atom -5601.170132 kJ/mol
# Density = 2.510219 g / cm^3
# Si number density = 25.159458 Si / 1000 Ang^3
#
#
#
# Elastic Constant Matrix: (Units=GPa)
#
#
# Indices 1 2 3 4 5 6 
#
# 1 40.2203 -0.5624 6.2251 0.0000 7.7763 0.0002
# 2 -0.5624 99.2986 49.0532 0.0003 18.0485 0.0000
# 3 6.2251 49.0532 138.3491 0.0000 23.6250 0.0000
# 4 0.0000 0.0003 0.0000 0.3378 0.0000 8.6288
# 5 7.7763 18.0485 23.6250 0.0000 39.6385 -0.0002
# 6 0.0002 0.0000 0.0000 8.6288 -0.0002 30.8469
#
#
#
# Elastic Compliance Matrix: (Units=1/GPa)
#
#
# Indices 1 2 3 4 5 6 
#
# 1 0.026036 0.001508 -0.000798 0.000000 -0.005319 0.000000
# 2 0.001508 0.012701 -0.003933 0.000001 -0.003735 0.000000
# 3 -0.000798 -0.003933 0.009269 -0.000001 -0.003577 0.000000
# 4 0.000000 0.000001 -0.000001 -0.481716 0.000001 0.134751
# 5 -0.005319 -0.003735 -0.003577 0.000001 0.030104 0.000000
# 6 0.000000 0.000000 0.000000 0.134751 0.000000 -0.005276
#
#
# Mechanical properties :
#
#
# Convention : Reuss Voigt Hill
#
# Bulk Modulus (GPa) = 24.06124 43.03329 33.54727
# Shear Modulus (GPa) = -12.86729 29.04147 8.08709
#
# Velocity S-wave (km/s) = -2.26393 3.40118 1.79480
# Velocity P-wave (km/s) = 1.65843 5.70661 4.20213
#
# Compressibility (1/GPa) = 0.04156061
#
# Stress axis : x y z
#
# Youngs Moduli (GPa) = 38.40831 78.73325 107.88075
#
# Poissons Ratio (x) = -0.11877 0.08610
# Poissons Ratio (y) = -0.05794 0.42434
# Poissons Ratio (z) = 0.03065 0.30969
#
# Static dielectric constant tensor:
#      x y z
#    x 1.904980 0.000000 0.018530 
#    y 0.000000 2.017040 0.000000 
#    z 0.018530 0.000000 1.996580 
# 
# From -- ./inp_files/6234.got.cif
#   From: 2010.05.17/outbox.cif.g08.bks.cpg/sg8_4_cif.got.tgz:6234.got - 2010.06.03 19:46:02.
