data_PCOD9133261
_publ_section_title
;
Structure prediction by ZEFSAII (Michael W. Deem and Ramdas Pophale) SiO2 
 PCOD9133261
Probable space group: C M
;
_chemical_formula_sum "Si O2"
_cell_formula_units_Z 28
_cell_length_a 12.300212
_cell_length_b 21.494417
_cell_length_c 6.895545
_cell_angle_alpha 90.000000
_cell_angle_beta 38.162114
_cell_angle_gamma 90.000000
_cell_volume 1126.463342
_symmetry_space_group_name_H-M "C M"
_symmetry_group_IT_number 8
_symmetry_cell_setting 'monoclinic'
loop_
_space_group_symop_operation_xyz
x,y,z
x,-y,z
1/2+x,1/2+y,z
1/2+x,1/2-y,z
loop_
_atom_site_type_symbol
_atom_site_label
_atom_site_fract_x
_atom_site_fract_y
_atom_site_fract_z
Si Si1 0.489530 0.931988 0.378730
Si Si2 0.921749 0.866834 0.173323
Si Si3 0.183681 0.069117 0.503614
Si Si4 0.785874 0.865527 0.778056
Si Si5 0.553721 0.820865 0.535575
Si Si6 0.473499 0.776105 0.071750
Si Si7 0.629487 0.690504 0.426768
O O1 0.367140 0.931772 0.361234
O O2 0.444433 0.871116 0.569411
O O3 0.470708 0.000000 0.499914
O O4 0.688196 0.920337 0.027315
O O5 0.887902 0.887060 0.442053
O O6 0.726858 0.857771 0.359298
O O7 0.996588 0.796371 0.080582
O O8 0.043888 0.908053 0.863871
O O9 0.195594 0.119038 0.313941
O O10 0.140226 0.000000 0.498034
O O11 0.923211 0.828639 0.718875
O O12 0.626588 0.819324 0.939135
O O13 0.608949 0.757106 0.348076
O O14 0.466192 0.793441 0.852223
O O15 0.266955 0.790132 0.407916
#
# Coordination Sequence:
#
# PCOD9133261 Si02
#       7
#     4   4   4   4   4   4   4
#     4  11  26  46  68 102 145 193 236 287 357 422
#     4  10  23  42  65 103 134 182 233 289 349 413
#     4  11  24  46  70  97 145 190 233 292 350 423
#     4  11  25  39  69 100 137 186 220 297 346 411
#     4  10  23  40  68  99 138 178 234 291 344 413
#     4  10  22  42  62 103 145 167 230 296 339 418
#     4  11  23  39  66 104 130 182 232 276 357 410
#
# _framework density 24.856559000000001
#
# number of rings (size 3 to 8) (size 9 to 14) (size 15 to 20)
#    0.000    1.429    2.857    0.857    8.000    2.857 
#    0.000    2.857    0.000    0.000    0.000    0.000 
#    0.000    0.000    0.000    0.000    0.000    0.000 
#
# Total GULP energy -78030.926512 kJ/mol
# GULP energy per Si atom -5573.637608 kJ/mol
# Density = 2.479998 g / cm^3
# Si number density = 24.856559 Si / 1000 Ang^3
#
#
#
# Elastic Constant Matrix: (Units=GPa)
#
#
# Indices 1 2 3 4 5 6 
#
# 1 69.9398 28.9706 11.4048 0.0000 -11.4578 0.0000
# 2 28.9706 174.6523 -3.9495 0.0000 -2.7522 0.0000
# 3 11.4048 -3.9495 79.2235 0.0000 6.2146 0.0000
# 4 0.0000 0.0000 0.0000 29.2885 0.0000 5.3447
# 5 -11.4578 -2.7522 6.2146 0.0000 50.6021 0.0000
# 6 0.0000 0.0000 0.0000 5.3447 0.0000 30.6684
#
#
#
# Elastic Compliance Matrix: (Units=1/GPa)
#
#
# Indices 1 2 3 4 5 6 
#
# 1 0.016543 -0.002746 -0.002828 0.000000 0.003944 0.000000
# 2 -0.002746 0.006192 0.000733 0.000000 -0.000375 0.000000
# 3 -0.002828 0.000733 0.013241 0.000000 -0.002227 0.000000
# 4 0.000000 0.000000 0.000000 0.035265 0.000000 -0.006146
# 5 0.003944 -0.000375 -0.002227 0.000000 0.020908 0.000000
# 6 0.000000 0.000000 0.000000 -0.006146 0.000000 0.033678
#
#
# Mechanical properties :
#
#
# Convention : Reuss Voigt Hill
#
# Bulk Modulus (GPa) = 38.03011 44.07416 41.05213
# Shear Modulus (GPa) = 34.65703 41.27111 37.96407
#
# Velocity S-wave (km/s) = 3.73806 4.07919 3.91234
# Velocity P-wave (km/s) = 5.82785 6.32109 6.07948
#
# Compressibility (1/GPa) = 0.02629496
#
# Stress axis : x y z
#
# Youngs Moduli (GPa) = 60.45013 161.50390 75.52414
#
# Poissons Ratio (x) = 0.44346 0.21356
# Poissons Ratio (y) = 0.16598 -0.05539
# Poissons Ratio (z) = 0.17093 -0.11844
#
# Static dielectric constant tensor:
#      x y z
#    x 2.004500 0.000000 0.068050 
#    y 0.000000 1.970850 0.000000 
#    z 0.068050 0.000000 2.173110 
# 
# From -- ./inp_files/13743.got.cif
#   From: 2010.05.17/outbox.cif.g08.bks.cpg/sg8_7_cif.got.tgz:13743.got - 2010.06.03 19:46:02.
