data_PCOD9133038
_publ_section_title
;
Structure prediction by ZEFSAII (Michael W. Deem and Ramdas Pophale) SiO2 
 PCOD9133038
Probable space group: C M
;
_chemical_formula_sum "Si O2"
_cell_formula_units_Z 24
_cell_length_a 11.102715
_cell_length_b 23.905291
_cell_length_c 8.574067
_cell_angle_alpha 90.000000
_cell_angle_beta 28.475965
_cell_angle_gamma 90.000000
_cell_volume 1085.018880
_symmetry_space_group_name_H-M "C M"
_symmetry_group_IT_number 8
_symmetry_cell_setting 'monoclinic'
loop_
_space_group_symop_operation_xyz
x,y,z
x,-y,z
1/2+x,1/2+y,z
1/2+x,1/2-y,z
loop_
_atom_site_type_symbol
_atom_site_label
_atom_site_fract_x
_atom_site_fract_y
_atom_site_fract_z
Si Si1 0.917440 0.334560 0.832930
Si Si2 0.946224 0.437886 0.586675
Si Si3 0.306313 0.563667 0.868923
Si Si4 0.454566 0.710438 0.155147
Si Si5 0.516130 0.162487 0.064084
Si Si6 0.126632 0.876113 0.733143
O O1 0.005339 0.391194 0.645944
O O2 0.160717 0.292769 0.542229
O O3 0.658699 0.315435 0.043812
O O4 0.870953 0.346045 0.067156
O O5 0.940917 0.500000 0.657263
O O6 0.682886 0.418928 0.808227
O O7 0.128548 0.437293 0.227368
O O8 0.318751 0.500000 0.795314
O O9 0.214762 0.611721 0.854937
O O10 0.557623 0.586774 0.662846
O O11 0.571065 0.771629 0.994427
O O12 0.453720 0.672492 0.999174
O O13 0.368131 0.157190 0.395843
#
# Coordination Sequence:
#
# PCOD9133038 Si02
#       6
#     4   4   4   4   4   4
#     4  11  25  43  65 100 132 169 217 273 328 380
#     4   9  19  39  65  91 126 173 223 265 317 391
#     4  10  21  40  65  92 127 173 221 264 322 390
#     4  11  25  43  66  95 134 175 218 261 328 397
#     4  11  26  38  66  95 135 165 215 276 331 381
#     4  10  21  41  65  95 125 177 220 265 322 389
#
# _framework density 22.119429
#
# number of rings (size 3 to 8) (size 9 to 14) (size 15 to 20)
#    0.000    1.667    1.667    1.500    7.000    1.333 
#    0.000    0.000    0.000    0.000    0.000    0.000 
#    0.000    0.000    0.000    0.000    0.000    0.000 
#
# Total GULP energy -66808.326428 kJ/mol
# GULP energy per Si atom -5567.360536 kJ/mol
# Density = 2.206908 g / cm^3
# Si number density = 22.119429 Si / 1000 Ang^3
#
#
#
# Elastic Constant Matrix: (Units=GPa)
#
#
# Indices 1 2 3 4 5 6 
#
# 1 82.6734 37.8046 -2.4943 0.0000 1.5977 0.0000
# 2 37.8046 143.8133 -7.1416 0.0000 5.7806 0.0000
# 3 -2.4943 -7.1416 26.7865 0.0000 -1.1074 0.0000
# 4 0.0000 0.0000 0.0000 1.3521 0.0000 2.3162
# 5 1.5977 5.7806 -1.1074 0.0000 23.3178 0.0000
# 6 0.0000 0.0000 0.0000 2.3162 0.0000 29.7280
#
#
#
# Elastic Compliance Matrix: (Units=1/GPa)
#
#
# Indices 1 2 3 4 5 6 
#
# 1 0.013751 -0.003598 0.000320 0.000000 -0.000035 0.000000
# 2 -0.003598 0.008053 0.001743 0.000000 -0.001667 0.000000
# 3 0.000320 0.001743 0.037882 0.000000 0.001345 0.000000
# 4 0.000000 0.000000 0.000000 0.853545 0.000000 -0.066503
# 5 -0.000035 -0.001667 0.001345 0.000000 0.043365 0.000000
# 6 0.000000 0.000000 0.000000 -0.066503 0.000000 0.038820
#
#
# Mechanical properties :
#
#
# Convention : Reuss Voigt Hill
#
# Bulk Modulus (GPa) = 17.66251 34.40118 26.03185
# Shear Modulus (GPa) = 4.91469 25.88654 15.40061
#
# Velocity S-wave (km/s) = 1.49222 3.42469 2.64151
# Velocity P-wave (km/s) = 3.31230 5.58786 4.59323
#
# Compressibility (1/GPa) = 0.05661709
#
# Stress axis : x y z
#
# Youngs Moduli (GPa) = 72.72109 124.18179 26.39751
#
# Poissons Ratio (x) = 0.44675 -0.00844
# Poissons Ratio (y) = 0.26161 -0.04601
# Poissons Ratio (z) = -0.02326 -0.21645
#
# Static dielectric constant tensor:
#      x y z
#    x 1.861710 0.000000 -0.060740 
#    y 0.000000 1.831330 0.000000 
#    z -0.060740 0.000000 1.913900 
# 
# From -- ./inp_files/1572.got.cif
#   From: 2010.05.17/outbox.cif.g08.bks.cpg/sg8_1_cif.got.tgz:1572.got - 2010.06.03 19:46:02.
