data_PCOD9133861
_publ_section_title
;
Structure prediction by ZEFSAII (Michael W. Deem and Ramdas Pophale) SiO2 
 PCOD9133861
Probable space group: C C
;
_chemical_formula_sum "Si O2"
_cell_formula_units_Z 28
_cell_length_a 6.542509
_cell_length_b 18.429963
_cell_length_c 9.636312
_cell_angle_alpha 90.000000
_cell_angle_beta 108.216208
_cell_angle_gamma 90.000000
_cell_volume 1103.697507
_symmetry_space_group_name_H-M "C C"
_symmetry_group_IT_number 9
_symmetry_cell_setting 'monoclinic'
loop_
_space_group_symop_operation_xyz
x,y,z
x,-y,1/2+z
1/2+x,1/2+y,z
1/2+x,1/2-y,1/2+z
loop_
_atom_site_type_symbol
_atom_site_label
_atom_site_fract_x
_atom_site_fract_y
_atom_site_fract_z
Si Si1 0.022650 0.248200 0.728990
Si Si2 0.548554 0.740350 0.038724
Si Si3 0.356468 0.864233 0.170756
Si Si4 0.528480 0.406081 0.670620
Si Si5 0.020438 0.543075 0.934523
Si Si6 0.589757 0.513636 0.453133
Si Si7 0.550977 0.910323 0.753386
O O1 0.185135 0.190331 0.701753
O O2 0.124545 0.327412 0.778373
O O3 0.808871 0.258616 0.591581
O O4 0.955648 0.223389 0.868375
O O5 0.471516 0.817959 0.076097
O O6 0.471459 0.676639 0.125043
O O7 0.525166 0.894646 0.319140
O O8 0.230588 0.931765 0.076861
O O9 0.466893 0.459291 0.530221
O O10 0.476581 0.437598 0.811583
O O11 0.789790 0.405616 0.715027
O O12 0.760997 0.533860 0.903125
O O13 0.100956 0.467882 0.884576
O O14 0.092879 0.562735 0.104750
#
# Coordination Sequence:
#
# PCOD9133861 Si02
#       7
#     4   4   4   4   4   4   4
#     4  11  25  42  66 102 142 173 226 285 342 404
#     4  11  25  42  66 102 142 173 226 285 342 404
#     4  12  22  38  74  94 134 180 226 276 350 390
#     4   9  18  33  59  90 124 167 226 265 321 398
#     4  10  17  33  62  95 118 175 229 264 320 410
#     4  10  17  33  62  95 118 175 229 264 320 410
#     4   9  18  33  59  90 124 167 226 265 321 398
#
# _framework density 25.369268999999999
#
# number of rings (size 3 to 8) (size 9 to 14) (size 15 to 20)
#    0.000    1.714    4.286    5.143    0.000    4.571 
#    0.000    0.000    3.143    5.143    0.000    0.000 
#    0.000    0.000    0.000    0.000    0.000    0.000 
#
# Total GULP energy -78402.502744 kJ/mol
# GULP energy per Si atom -5600.178767 kJ/mol
# Density = 2.531153 g / cm^3
# Si number density = 25.369269 Si / 1000 Ang^3
#
#
#
# Elastic Constant Matrix: (Units=GPa)
#
#
# Indices 1 2 3 4 5 6 
#
# 1 39.8194 23.0657 12.9877 0.0000 -12.4914 0.0000
# 2 23.0657 112.4918 18.7103 0.0000 -2.4168 0.0000
# 3 12.9877 18.7103 114.5598 0.0000 -0.7176 0.0000
# 4 0.0000 0.0000 0.0000 47.2330 0.0000 -12.4231
# 5 -12.4914 -2.4168 -0.7176 0.0000 53.4910 0.0000
# 6 0.0000 0.0000 0.0000 -12.4231 0.0000 43.3792
#
#
#
# Elastic Compliance Matrix: (Units=1/GPa)
#
#
# Indices 1 2 3 4 5 6 
#
# 1 0.031588 -0.005897 -0.002574 0.000000 0.007076 0.000000
# 2 -0.005897 0.010247 -0.001011 0.000000 -0.000928 0.000000
# 3 -0.002574 -0.001011 0.009183 0.000000 -0.000524 0.000000
# 4 0.000000 0.000000 0.000000 0.022896 0.000000 0.006557
# 5 0.007076 -0.000928 -0.000524 0.000000 0.020298 0.000000
# 6 0.000000 0.000000 0.000000 0.006557 0.000000 0.024930
#
#
# Mechanical properties :
#
#
# Convention : Reuss Voigt Hill
#
# Bulk Modulus (GPa) = 31.19648 41.82203 36.50926
# Shear Modulus (GPa) = 33.60428 42.96113 38.28270
#
# Velocity S-wave (km/s) = 3.64346 4.11960 3.88882
# Velocity P-wave (km/s) = 5.47936 6.25693 5.88101
#
# Compressibility (1/GPa) = 0.03205490
#
# Stress axis : x y z
#
# Youngs Moduli (GPa) = 31.65726 97.59098 108.90077
#
# Poissons Ratio (x) = 0.57548 0.28029
# Poissons Ratio (y) = 0.18668 0.11008
# Poissons Ratio (z) = 0.08148 0.09865
#
# Static dielectric constant tensor:
#      x y z
#    x 2.131290 0.000000 0.022720 
#    y 0.000000 1.943060 0.000000 
#    z 0.022720 0.000000 1.944900 
# 
# From -- ./inp_files/5403.got.cif
#   From: 2010.05.17/outbox.cif.g08.bks.cpg/sg9_3_cif.got.tgz:5403.got - 2010.06.03 20:04:27.
