data_PCOD9133073
_publ_section_title
;
Structure prediction by ZEFSAII (Michael W. Deem and Ramdas Pophale) SiO2 
 PCOD9133073
Probable space group: C M
;
_chemical_formula_sum "Si O2"
_cell_formula_units_Z 32
_cell_length_a 12.597175
_cell_length_b 18.343896
_cell_length_c 14.198913
_cell_angle_alpha 90.000000
_cell_angle_beta 151.320049
_cell_angle_gamma 90.000000
_cell_volume 1574.655501
_symmetry_space_group_name_H-M "C M"
_symmetry_group_IT_number 8
_symmetry_cell_setting 'monoclinic'
loop_
_space_group_symop_operation_xyz
x,y,z
x,-y,z
1/2+x,1/2+y,z
1/2+x,1/2-y,z
loop_
_atom_site_type_symbol
_atom_site_label
_atom_site_fract_x
_atom_site_fract_y
_atom_site_fract_z
Si Si1 0.479520 0.240497 0.905100
Si Si2 0.885570 0.664739 0.234482
Si Si3 0.381573 0.298137 0.626962
Si Si4 0.044963 0.417532 0.003973
Si Si5 0.900871 0.084573 0.139060
Si Si6 0.676286 0.830884 0.796854
Si Si7 0.378311 0.086238 0.430433
Si Si8 0.246382 0.083441 0.943080
O O1 0.373943 0.276249 0.730917
O O2 0.376066 0.282754 0.912532
O O3 0.737762 0.262528 0.108186
O O4 0.436584 0.154483 0.874624
O O5 0.868960 0.631077 0.325890
O O6 0.138763 0.680412 0.407140
O O7 0.791192 0.608880 0.083913
O O8 0.479024 0.226806 0.654029
O O9 0.558785 0.363271 0.755824
O O10 0.973409 0.500000 0.918965
O O11 0.297960 0.411082 0.164096
O O12 0.969964 0.411269 0.054074
O O13 0.753050 0.132966 0.953711
O O14 0.873021 0.000000 0.088453
O O15 0.157410 0.101371 0.320497
O O16 0.591548 0.890398 0.656817
O O17 0.384607 0.000000 0.414816
O O18 0.171902 0.000000 0.882022
#
# Coordination Sequence:
#
# PCOD9133073 Si02
#       8
#     4   4   4   4   4   4   4   4
#     4  11  22  41  64  90 123 166 210 252 313 370
#     4  11  24  41  64  95 127 165 205 260 312 371
#     4  11  24  40  63  95 125 161 211 258 309 372
#     4  10  21  41  66  89 123 167 213 259 308 373
#     4  10  22  41  63  90 127 168 205 257 316 365
#     4  12  22  39  65  92 124 164 209 256 308 376
#     4  11  24  40  62  97 131 163 207 258 315 376
#     4  10  23  43  65  90 124 170 210 254 313 369
#
# _framework density 20.321905000000001
#
# number of rings (size 3 to 8) (size 9 to 14) (size 15 to 20)
#    0.000    1.250    5.000    0.750    1.750    2.000 
#    0.000    1.250    0.000    5.250    0.000    0.000 
#    0.000    0.000    0.000    0.000    0.000    0.000 
#
# Total GULP energy -89250.506161 kJ/mol
# GULP energy per Si atom -5578.156635 kJ/mol
# Density = 2.027565 g / cm^3
# Si number density = 20.321905 Si / 1000 Ang^3
#
#
#
# Elastic Constant Matrix: (Units=GPa)
#
#
# Indices 1 2 3 4 5 6 
#
# 1 70.3750 17.3402 2.6213 -0.0001 13.2848 -0.0001
# 2 17.3402 113.2941 20.7067 -0.0001 1.7097 0.0000
# 3 2.6213 20.7067 62.0949 -0.0007 10.8792 -0.0003
# 4 -0.0001 -0.0001 -0.0007 21.3011 -0.0002 6.3509
# 5 13.2848 1.7097 10.8792 -0.0002 25.3124 -0.0001
# 6 -0.0001 0.0000 -0.0003 6.3509 -0.0001 31.5357
#
#
#
# Elastic Compliance Matrix: (Units=1/GPa)
#
#
# Indices 1 2 3 4 5 6 
#
# 1 0.016571 -0.002732 0.001842 0.000000 -0.009304 0.000000
# 2 -0.002732 0.009864 -0.003578 0.000000 0.002306 0.000000
# 3 0.001842 -0.003578 0.018759 0.000001 -0.008788 0.000000
# 4 0.000000 0.000000 0.000001 0.049945 0.000000 -0.010058
# 5 -0.009304 0.002306 -0.008788 0.000000 0.048011 0.000000
# 6 0.000000 0.000000 0.000000 -0.010058 0.000000 0.033736
#
#
# Mechanical properties :
#
#
# Convention : Reuss Voigt Hill
#
# Bulk Modulus (GPa) = 27.58115 36.34450 31.96282
# Shear Modulus (GPa) = 25.26431 29.30289 27.28360
#
# Velocity S-wave (km/s) = 3.52974 3.80140 3.66809
# Velocity P-wave (km/s) = 5.49669 6.09842 5.80536
#
# Compressibility (1/GPa) = 0.03625665
#
# Stress axis : x y z
#
# Youngs Moduli (GPa) = 60.34801 101.37935 53.30660
#
# Poissons Ratio (x) = 0.27701 -0.09818
# Poissons Ratio (y) = 0.16490 0.19073
# Poissons Ratio (z) = -0.11114 0.36273
#
# Static dielectric constant tensor:
#      x y z
#    x 1.752490 0.000000 0.044880 
#    y 0.000000 1.728790 0.000000 
#    z 0.044880 0.000000 1.677770 
# 
# From -- ./inp_files/26252.got.cif
#   From: 2010.05.17/outbox.cif.g08.bks.cpg/sg8_14_cif.got.tgz:26252.got - 2010.06.03 19:46:02.
