data_PCOD9133675
_publ_section_title
;
Structure prediction by ZEFSAII (Michael W. Deem and Ramdas Pophale) SiO2 
 PCOD9133675
Probable space group: C M
;
_chemical_formula_sum "Si O2"
_cell_formula_units_Z 16
_cell_length_a 30.000000
_cell_length_b 9.000000
_cell_length_c 12.000000
_cell_angle_alpha 90.000000
_cell_angle_beta 150.000000
_cell_angle_gamma 90.000000
_cell_volume 1620.000000
_symmetry_space_group_name_H-M "C M"
_symmetry_group_IT_number 8
_symmetry_cell_setting 'monoclinic'
loop_
_space_group_symop_operation_xyz
x,y,z
x,-y,z
1/2+x,1/2+y,z
1/2+x,1/2-y,z
loop_
_atom_site_type_symbol
_atom_site_label
_atom_site_fract_x
_atom_site_fract_y
_atom_site_fract_z
Si Si1 0.892190 0.679845 0.802280
Si Si2 0.676631 0.175991 0.715734
Si Si3 0.599411 0.674467 0.935868
Si Si4 0.581647 0.821134 0.132828
Si Si5 0.813950 0.674360 0.395188
Si Si6 0.522593 0.821482 0.545439
Si Si7 0.234371 0.821349 0.609652
Si Si8 0.349143 0.324904 0.238745
O O1 0.887705 0.500000 0.791070
O O2 0.850282 0.728663 0.593047
O O3 0.832196 0.726947 0.776905
O O4 0.995772 0.718925 0.022054
O O5 0.583661 0.221526 0.572047
O O6 0.705729 0.259850 0.667435
O O7 0.671511 0.000000 0.678845
O O8 0.752548 0.196829 0.974077
O O9 0.574779 0.500000 0.887356
O O10 0.567636 0.760120 0.977643
O O11 0.706894 0.683654 0.166151
O O12 0.562812 0.749536 0.744799
O O13 0.666481 0.742955 0.370957
O O14 0.591382 0.000000 0.151454
O O15 0.838853 0.500000 0.436217
O O16 0.848806 0.763049 0.363787
O O17 0.422249 0.762060 0.324838
O O18 0.524961 0.000000 0.559470
O O19 0.230364 0.000000 0.601736
O O20 0.368998 0.500000 0.282009
#
# Coordination Sequence:
#
# PCOD9133675 Si02
#       8
#     4   4   4   4   4   4   4   4
#     4   9  20  39  60  86 119 157 195 238 293 360
#     4  10  24  44  62  85 120 158 203 254 303 361
#     4  11  21  36  62  94 126 158 201 251 301 360
#     4  11  22  38  63  91 123 161 201 244 302 365
#     4  10  19  36  62  89 124 161 197 241 301 366
#     4  11  23  41  63  89 124 163 202 245 305 369
#     4  11  23  42  64  86 117 157 206 255 302 356
#     4  11  23  40  62  92 125 155 201 254 301 359
#
# _framework density 9.8765429999999999
#
# number of rings (size 3 to 8) (size 9 to 14) (size 15 to 20)
#    0.000    1.500    2.500    2.625    0.000    4.500 
#    0.000    6.875    0.000    0.000    0.000    0.000 
#    0.000    0.000    0.000    0.000    0.000    0.000 
#
# Total GULP energy -89424.555154 kJ/mol
# GULP energy per Si atom -5589.034697 kJ/mol
# Density = 0.985406 g / cm^3
# Si number density = 9.876543 Si / 1000 Ang^3
#
#
#
# Elastic Constant Matrix: (Units=GPa)
#
#
# Indices 1 2 3 4 5 6 
#
# 1 155.9516 45.5438 8.3603 0.0000 18.0731 0.0000
# 2 45.5438 68.9976 6.2335 0.0000 6.6142 0.0000
# 3 8.3603 6.2335 10.4902 0.0000 16.1177 0.0000
# 4 0.0000 0.0000 0.0000 29.5434 0.0000 -4.2833
# 5 18.0731 6.6142 16.1177 0.0000 34.5187 0.0000
# 6 0.0000 0.0000 0.0000 -4.2833 0.0000 36.7464
#
#
#
# Elastic Compliance Matrix: (Units=1/GPa)
#
#
# Indices 1 2 3 4 5 6 
#
# 1 0.008412 -0.005508 0.006067 0.000000 -0.006182 0.000000
# 2 -0.005508 0.019136 -0.020449 0.000000 0.008765 0.000000
# 3 0.006067 -0.020449 0.359195 0.000000 -0.166976 0.000000
# 4 0.000000 0.000000 0.000000 0.034430 0.000000 0.004013
# 5 -0.006182 0.008765 -0.166976 0.000000 0.108493 0.000000
# 6 0.000000 0.000000 0.000000 0.004013 0.000000 0.027681
#
#
# Mechanical properties :
#
#
# Convention : Reuss Voigt Hill
#
# Bulk Modulus (GPa) = 2.88215 39.52384 21.20300
# Shear Modulus (GPa) = 7.01476 31.84847 19.43161
#
# Velocity S-wave (km/s) = 1.88651 4.01974 3.13984
# Velocity P-wave (km/s) = 2.49149 6.44956 4.88898
#
# Compressibility (1/GPa) = 0.34696269
#
# Stress axis : x y z
#
# Youngs Moduli (GPa) = 118.87833 52.25706 2.78400
#
# Poissons Ratio (x) = 0.28783 -0.01689
# Poissons Ratio (y) = 0.65479 0.05693
# Poissons Ratio (z) = -0.72120 1.06860
#
# Static dielectric constant tensor:
#      x y z
#    x 1.682910 0.000000 0.028760 
#    y 0.000000 1.661060 0.000000 
#    z 0.028760 0.000000 1.709550 
# 
# From -- ./inp_files/21345.got.cif
#   From: 2010.05.17/outbox.ucp.g08.bks.cvg/sg8_11_cif.got.tgz:21345.got - 2010.06.11 13:00:03.
