data_PCOD9133662
_publ_section_title
;
Structure prediction by ZEFSAII (Michael W. Deem and Ramdas Pophale) SiO2 
 PCOD9133662
Probable space group: C M
;
_chemical_formula_sum "Si O2"
_cell_formula_units_Z 16
_cell_length_a 18.000000
_cell_length_b 9.000000
_cell_length_c 30.000000
_cell_angle_alpha 90.000000
_cell_angle_beta 20.000000
_cell_angle_gamma 90.000000
_cell_volume 1662.217897
_symmetry_space_group_name_H-M "C M"
_symmetry_group_IT_number 8
_symmetry_cell_setting 'monoclinic'
loop_
_space_group_symop_operation_xyz
x,y,z
x,-y,z
1/2+x,1/2+y,z
1/2+x,1/2-y,z
loop_
_atom_site_type_symbol
_atom_site_label
_atom_site_fract_x
_atom_site_fract_y
_atom_site_fract_z
Si Si1 0.306050 0.333678 0.038180
Si Si2 0.949110 0.828187 0.189065
Si Si3 0.538496 0.321004 0.547091
Si Si4 0.675386 0.320951 0.569034
Si Si5 0.600515 0.666622 0.785251
Si Si6 0.685065 0.175111 0.878060
Si Si7 0.508286 0.677217 0.455502
Si Si8 0.753031 0.670777 0.930104
O O1 0.242517 0.500000 0.088652
O O2 0.099096 0.231523 0.144869
O O3 0.426522 0.345894 0.922750
O O4 0.486672 0.262342 0.967663
O O5 0.738186 0.726536 0.305082
O O6 0.091569 0.821892 0.063447
O O7 0.888088 0.000000 0.230730
O O8 0.527433 0.500000 0.554302
O O9 0.689229 0.282686 0.506813
O O10 0.544197 0.282241 0.489295
O O11 0.312345 0.241708 0.685776
O O12 0.706606 0.500000 0.554227
O O13 0.425144 0.286482 0.723956
O O14 0.829477 0.248975 0.521405
O O15 0.642869 0.500000 0.743789
O O16 0.491236 0.775203 0.811115
O O17 0.654779 0.000000 0.887978
O O18 0.682331 0.219336 0.931268
O O19 0.474210 0.500000 0.474210
O O20 0.759587 0.500000 0.910928
#
# Coordination Sequence:
#
# PCOD9133662 Si02
#       8
#     4   4   4   4   4   4   4   4
#     4  10  20  35  58  86 119 153 189 239 294 351
#     4  10  22  42  63  82 112 158 204 247 298 357
#     4  10  21  39  61  87 121 164 203 245 305 368
#     4  10  22  40  62  89 125 163 200 245 302 370
#     4  10  19  32  55  86 117 150 191 241 293 352
#     4  11  21  35  59  91 123 154 194 244 299 360
#     4  11  24  41  63  89 119 160 209 259 305 357
#     4  10  21  36  57  84 116 156 196 242 304 363
#
# _framework density 9.6256930000000001
#
# number of rings (size 3 to 8) (size 9 to 14) (size 15 to 20)
#    0.000    1.750    1.250    3.000    0.000    7.000 
#    2.250    0.000    0.000    0.000    0.000    0.000 
#    0.000    0.000    0.000    0.000    0.000    0.000 
#
# Total GULP energy -89076.173352 kJ/mol
# GULP energy per Si atom -5567.260835 kJ/mol
# Density = 0.960378 g / cm^3
# Si number density = 9.625693 Si / 1000 Ang^3
#
#
#
# Elastic Constant Matrix: (Units=GPa)
#
#
# Indices 1 2 3 4 5 6 
#
# 1 122.3145 32.6528 24.5722 -0.0139 -15.4135 -0.0004
# 2 32.6528 34.2719 9.0596 0.0093 -1.9899 -0.0036
# 3 24.5722 9.0596 35.2250 -0.0148 -15.3093 -0.0011
# 4 -0.0139 0.0093 -0.0148 21.6111 0.0092 -5.6551
# 5 -15.4135 -1.9899 -15.3093 0.0092 26.5097 -0.0030
# 6 -0.0004 -0.0036 -0.0011 -5.6551 -0.0030 38.7426
#
#
#
# Elastic Compliance Matrix: (Units=1/GPa)
#
#
# Indices 1 2 3 4 5 6 
#
# 1 0.012281 -0.010365 -0.004187 0.000008 0.003945 0.000000
# 2 -0.010365 0.040243 -0.005909 -0.000025 -0.006418 -0.000001
# 3 -0.004187 -0.005909 0.042160 0.000021 0.021470 0.000005
# 4 0.000008 -0.000025 0.000021 0.048110 -0.000001 0.007023
# 5 0.003945 -0.006418 0.021470 -0.000001 0.051932 0.000004
# 6 0.000000 -0.000001 0.000005 0.007023 0.000004 0.026836
#
#
# Mechanical properties :
#
#
# Convention : Reuss Voigt Hill
#
# Bulk Modulus (GPa) = 18.60037 36.04230 27.32134
# Shear Modulus (GPa) = 17.83130 25.74111 21.78621
#
# Velocity S-wave (km/s) = 3.04671 3.66061 3.36768
# Velocity P-wave (km/s) = 4.69675 6.05222 5.41704
#
# Compressibility (1/GPa) = 0.05376236
#
# Stress axis : x y z
#
# Youngs Moduli (GPa) = 81.42796 24.84903 23.71900
#
# Poissons Ratio (x) = 0.25756 0.09930
# Poissons Ratio (y) = 0.84399 0.14016
# Poissons Ratio (z) = 0.34092 0.14684
#
# Static dielectric constant tensor:
#      x y z
#    x 1.713980 -0.000010 0.026000 
#    y -0.000010 1.665980 0.000010 
#    z 0.026000 0.000010 1.689440 
# 
# From -- ./inp_files/33404.got.cif
#   From: 2010.05.17/outbox.ucp.g08.bks.cvg/sg8_17_cif.got.tgz:33404.got - 2010.06.11 13:00:03.
