data_PCOD9133930
_publ_section_title
;
Structure prediction by ZEFSAII (Michael W. Deem and Ramdas Pophale) SiO2 
 PCOD9133930
Probable space group: C C
;
_chemical_formula_sum "Si O2"
_cell_formula_units_Z 32
_cell_length_a 30.356239
_cell_length_b 8.964843
_cell_length_c 5.578669
_cell_angle_alpha 90.000000
_cell_angle_beta 67.510556
_cell_angle_gamma 90.000000
_cell_volume 1402.715919
_symmetry_space_group_name_H-M "C C"
_symmetry_group_IT_number 9
_symmetry_cell_setting 'monoclinic'
loop_
_space_group_symop_operation_xyz
x,y,z
x,-y,1/2+z
1/2+x,1/2+y,z
1/2+x,1/2-y,1/2+z
loop_
_atom_site_type_symbol
_atom_site_label
_atom_site_fract_x
_atom_site_fract_y
_atom_site_fract_z
Si Si1 0.581050 0.805167 0.505950
Si Si2 0.830213 0.074008 0.010724
Si Si3 0.267307 0.007859 0.669185
Si Si4 0.046971 0.358394 0.077227
Si Si5 0.723963 0.835825 0.752955
Si Si6 0.688345 0.241979 0.826977
Si Si7 0.937094 0.352531 0.369996
Si Si8 0.401226 0.817762 0.944608
O O1 0.560452 0.767281 0.287346
O O2 0.632390 0.728913 0.423612
O O3 0.578392 0.988764 0.504083
O O4 0.553529 0.774874 0.811431
O O5 0.850744 0.238695 0.012117
O O6 0.845328 0.019301 0.714952
O O7 0.772952 0.073897 0.133317
O O8 0.240343 0.163299 0.724823
O O9 0.294769 0.998895 0.861928
O O10 0.226358 0.878584 0.752268
O O11 0.991734 0.402054 0.221692
O O12 0.695016 0.841711 0.566006
O O13 0.699504 0.850313 0.062214
O O14 0.930460 0.275659 0.641828
O O15 0.905693 0.503504 0.445739
O O16 0.921579 0.267186 0.161145
#
# Coordination Sequence:
#
# PCOD9133930 Si02
#       8
#     4   4   4   4   4   4   4   4
#     4  10  18  30  48  82 118 156 189 231 288 359
#     4  12  26  45  59  86 122 163 211 256 318 368
#     4   8  16  32  54  76  99 137 194 234 292 335
#     4  10  19  33  53  88 126 154 184 248 308 355
#     4  10  21  40  55  78 108 160 199 260 296 346
#     4  10  19  35  55  83 113 151 204 238 301 353
#     4  10  19  38  64  99 125 152 197 254 327 363
#     4  10  20  37  62  92 119 159 194 251 308 381
#
# _framework density 22.812887
#
# number of rings (size 3 to 8) (size 9 to 14) (size 15 to 20)
#    0.000    2.000    0.000    6.000    0.000    0.000 
#   27.000    0.000    0.000    0.000    0.000   89.250 
#    0.000    0.000    0.000    0.000    0.000    0.000 
#
# Total GULP energy -89185.895040 kJ/mol
# GULP energy per Si atom -5574.118440 kJ/mol
# Density = 2.276096 g / cm^3
# Si number density = 22.812887 Si / 1000 Ang^3
#
#
#
# Elastic Constant Matrix: (Units=GPa)
#
#
# Indices 1 2 3 4 5 6 
#
# 1 81.4970 4.7352 35.2380 0.0000 20.4948 0.0000
# 2 4.7352 40.5461 -3.9865 0.0000 8.2082 0.0000
# 3 35.2380 -3.9865 142.2208 0.0000 51.9624 0.0000
# 4 0.0000 0.0000 0.0000 -66.3508 0.0000 -27.7852
# 5 20.4948 8.2082 51.9624 0.0000 59.3889 0.0000
# 6 0.0000 0.0000 0.0000 -27.7852 0.0000 -3.1041
#
#
#
# Elastic Compliance Matrix: (Units=1/GPa)
#
#
# Indices 1 2 3 4 5 6 
#
# 1 0.014098 -0.001442 -0.002688 0.000000 -0.002314 0.000000
# 2 -0.001442 0.026379 0.003303 0.000000 -0.006038 0.000000
# 3 -0.002688 0.003303 0.011197 0.000000 -0.009326 0.000000
# 4 0.000000 0.000000 0.000000 0.005484 0.000000 -0.049085
# 5 -0.002314 -0.006038 -0.009326 0.000000 0.026631 0.000000
# 6 0.000000 0.000000 0.000000 -0.049085 0.000000 0.117215
#
#
# Mechanical properties :
#
#
# Convention : Reuss Voigt Hill
#
# Bulk Modulus (GPa) = 19.99239 37.35972 28.67606
# Shear Modulus (GPa) = 22.79644 13.20527 18.00085
#
# Velocity S-wave (km/s) = 3.16457 2.40854 2.81208
# Velocity P-wave (km/s) = 4.70482 4.91395 4.81052
#
# Compressibility (1/GPa) = 0.05001902
#
# Stress axis : x y z
#
# Youngs Moduli (GPa) = 70.92992 37.90924 89.30723
#
# Poissons Ratio (x) = 0.05468 0.24007
# Poissons Ratio (y) = 0.10231 -0.29496
# Poissons Ratio (z) = 0.19067 -0.12521
#
# Static dielectric constant tensor:
#      x y z
#    x 1.850000 0.000000 0.066020 
#    y 0.000000 1.862100 0.000000 
#    z 0.066020 0.000000 1.936310 
# 
# From -- ./inp_files/3455.got.cif
#   From: 2010.05.17/outbox.cif.g08.bks.cpg/sg9_2_cif.got.tgz:3455.got - 2010.06.03 20:04:27.
