data_PCOD9133249
_publ_section_title
;
Structure prediction by ZEFSAII (Michael W. Deem and Ramdas Pophale) SiO2 
 PCOD9133249
Probable space group: C M
;
_chemical_formula_sum "Si O2"
_cell_formula_units_Z 26
_cell_length_a 13.229226
_cell_length_b 12.223183
_cell_length_c 8.904188
_cell_angle_alpha 90.000000
_cell_angle_beta 127.987849
_cell_angle_gamma 90.000000
_cell_volume 1134.794331
_symmetry_space_group_name_H-M "C M"
_symmetry_group_IT_number 8
_symmetry_cell_setting 'monoclinic'
loop_
_space_group_symop_operation_xyz
x,y,z
x,-y,z
1/2+x,1/2+y,z
1/2+x,1/2-y,z
loop_
_atom_site_type_symbol
_atom_site_label
_atom_site_fract_x
_atom_site_fract_y
_atom_site_fract_z
Si Si1 0.435630 0.500000 0.926671
Si Si2 0.206593 0.746510 0.560645
Si Si3 0.291340 0.747261 0.320949
Si Si4 0.036172 0.373723 0.640013
Si Si5 0.834941 0.376362 0.931555
Si Si6 0.091672 0.177286 0.908049
Si Si7 0.948840 0.176848 0.202013
O O1 0.478283 0.595940 0.844399
O O2 0.418136 0.593913 0.042519
O O3 0.260875 0.699920 0.455617
O O4 0.305557 0.818443 0.746633
O O5 0.143816 0.657337 0.614012
O O6 0.090562 0.826350 0.401304
O O7 0.398511 0.841227 0.444774
O O8 0.351821 0.666893 0.253372
O O9 0.166181 0.798880 0.131164
O O10 0.043870 0.500000 0.686861
O O11 0.056965 0.290439 0.795749
O O12 0.881138 0.500000 0.958746
O O13 0.698807 0.374674 0.895772
O O14 0.925953 0.298312 0.112603
#
# Coordination Sequence:
#
# PCOD9133249 Si02
#       7
#     2   4   4   4   4   4   4
#     4  12  22  42  70  96 136 182 208 290 324 404
#     4  10  22  41  66  98 132 171 222 271 331 387
#     4  10  22  43  66  95 129 176 227 263 325 400
#     4  10  24  45  68 100 136 169 224 282 326 397
#     4  10  22  42  68  99 128 173 227 271 319 404
#     4  10  22  42  71  96 130 179 222 265 338 391
#     4  10  24  41  66 100 133 169 227 274 326 388
#
# _framework density 22.911639999999998
#
# number of rings (size 3 to 8) (size 9 to 14) (size 15 to 20)
#    0.000    1.846    2.308    0.000    4.308    4.308 
#   13.846    0.000    0.000    0.000    0.000    0.000 
#    0.000    0.000    0.000    0.000    0.000    0.000 
#
# Total GULP energy -72453.365224 kJ/mol
# GULP energy per Si atom -5573.335786 kJ/mol
# Density = 2.285949 g / cm^3
# Si number density = 22.911640 Si / 1000 Ang^3
#
#
#
# Elastic Constant Matrix: (Units=GPa)
#
#
# Indices 1 2 3 4 5 6 
#
# 1 95.0953 33.4712 30.8743 0.0000 -32.3389 0.0000
# 2 33.4712 167.9041 50.7408 0.0000 -16.6888 0.0000
# 3 30.8743 50.7408 125.9791 0.0000 -14.1437 0.0000
# 4 0.0000 0.0000 0.0000 75.9004 0.0000 -42.8367
# 5 -32.3389 -16.6888 -14.1437 0.0000 34.2561 0.0000
# 6 0.0000 0.0000 0.0000 -42.8367 0.0000 29.1573
#
#
#
# Elastic Compliance Matrix: (Units=1/GPa)
#
#
# Indices 1 2 3 4 5 6 
#
# 1 0.016361 -0.001288 -0.001916 0.000000 0.014027 0.000000
# 2 -0.001288 0.007057 -0.002388 0.000000 0.001236 0.000000
# 3 -0.001916 -0.002388 0.009475 0.000000 0.000940 0.000000
# 4 0.000000 0.000000 0.000000 0.077123 0.000000 0.113306
# 5 0.014027 0.001236 0.000940 0.000000 0.043424 0.000000
# 6 0.000000 0.000000 0.000000 0.113306 0.000000 0.200762
#
#
# Mechanical properties :
#
#
# Convention : Reuss Voigt Hill
#
# Bulk Modulus (GPa) = 46.06465 68.79455 57.42960
# Shear Modulus (GPa) = 13.41840 46.12224 29.77032
#
# Velocity S-wave (km/s) = 2.42266 4.49157 3.60857
# Velocity P-wave (km/s) = 5.28911 7.54918 6.51785
#
# Compressibility (1/GPa) = 0.02170862
#
# Stress axis : x y z
#
# Youngs Moduli (GPa) = 61.11925 141.70174 105.54445
#
# Poissons Ratio (x) = 0.18256 0.20223
# Poissons Ratio (y) = 0.07874 0.25203
# Poissons Ratio (z) = 0.11711 0.33837
#
# Static dielectric constant tensor:
#      x y z
#    x 1.944300 0.000000 0.021170 
#    y 0.000000 1.775430 0.000000 
#    z 0.021170 0.000000 1.847770 
# 
# From -- ./inp_files/12696.got.cif
#   From: 2010.05.17/outbox.cif.g08.bks.cpg/sg8_7_cif.got.tgz:12696.got - 2010.06.03 19:46:02.
