data_PCOD9133027
_publ_section_title
;
Structure prediction by ZEFSAII (Michael W. Deem and Ramdas Pophale) SiO2 
 PCOD9133027
Probable space group: C M
;
_chemical_formula_sum "Si O2"
_cell_formula_units_Z 28
_cell_length_a 14.295595
_cell_length_b 19.389591
_cell_length_c 5.486315
_cell_angle_alpha 90.000000
_cell_angle_beta 63.980873
_cell_angle_gamma 90.000000
_cell_volume 1366.598907
_symmetry_space_group_name_H-M "C M"
_symmetry_group_IT_number 8
_symmetry_cell_setting 'monoclinic'
loop_
_space_group_symop_operation_xyz
x,y,z
x,-y,z
1/2+x,1/2+y,z
1/2+x,1/2-y,z
loop_
_atom_site_type_symbol
_atom_site_label
_atom_site_fract_x
_atom_site_fract_y
_atom_site_fract_z
Si Si1 0.030860 0.319545 0.773200
Si Si2 0.409349 0.612613 0.422101
Si Si3 0.165127 0.707392 0.218344
Si Si4 0.678837 0.079605 0.839082
Si Si5 0.857737 0.743538 0.304298
Si Si6 0.527043 0.422733 0.795156
Si Si7 0.175688 0.804866 0.800250
O O1 0.051682 0.308534 0.463846
O O2 0.082201 0.392490 0.787018
O O3 0.111322 0.260560 0.771831
O O4 0.926437 0.299565 0.033985
O O5 0.290575 0.587075 0.581368
O O6 0.416775 0.695020 0.374288
O O7 0.467383 0.595391 0.611135
O O8 0.455701 0.581536 0.119709
O O9 0.268086 0.714011 0.264139
O O10 0.185038 0.639022 0.036674
O O11 0.167376 0.783374 0.091060
O O12 0.665154 0.000000 0.930562
O O13 0.793392 0.698745 0.571730
O O14 0.566665 0.500000 0.721990
O O15 0.618824 0.370467 0.758472
#
# Coordination Sequence:
#
# PCOD9133027 Si02
#       7
#     4   4   4   4   4   4   4
#     4  10  22  39  63  93 130 172 217 277 328 395
#     4  12  24  42  68 101 136 175 219 282 341 404
#     4  10  21  40  62  98 126 175 226 277 336 385
#     4  11  23  39  60  96 137 172 216 267 340 410
#     4  11  22  39  66  98 125 169 230 280 330 391
#     4  12  27  43  65 100 140 180 221 275 344 408
#     4  10  23  38  65  92 127 173 217 280 327 393
#
# _framework density 20.488823
#
# number of rings (size 3 to 8) (size 9 to 14) (size 15 to 20)
#    0.000    1.143    5.714    2.143    4.000    2.857 
#    0.000    0.714    0.000    0.857    0.000    0.000 
#    0.000    0.000    0.000    0.000    0.000    0.000 
#
# Total GULP energy -77992.834585 kJ/mol
# GULP energy per Si atom -5570.916756 kJ/mol
# Density = 2.044219 g / cm^3
# Si number density = 20.488823 Si / 1000 Ang^3
#
#
#
# Elastic Constant Matrix: (Units=GPa)
#
#
# Indices 1 2 3 4 5 6 
#
# 1 55.5803 50.1560 33.0997 0.0000 0.3102 0.0000
# 2 50.1560 127.4930 25.6280 0.0000 4.9825 0.0000
# 3 33.0997 25.6280 115.1166 0.0000 -13.1553 0.0000
# 4 0.0000 0.0000 0.0000 8.0727 0.0000 -5.2839
# 5 0.3102 4.9825 -13.1553 0.0000 37.2306 0.0000
# 6 0.0000 0.0000 0.0000 -5.2839 0.0000 4.2595
#
#
#
# Elastic Compliance Matrix: (Units=1/GPa)
#
#
# Indices 1 2 3 4 5 6 
#
# 1 0.032277 -0.011262 -0.006911 0.000000 -0.001204 0.000000
# 2 -0.011262 0.012260 0.000346 0.000000 -0.001425 0.000000
# 3 -0.006911 0.000346 0.011044 0.000000 0.003914 0.000000
# 4 0.000000 0.000000 0.000000 0.658697 0.000000 0.817101
# 5 -0.001204 -0.001425 0.003914 0.000000 0.028443 0.000000
# 6 0.000000 0.000000 0.000000 0.817101 0.000000 1.248366
#
#
# Mechanical properties :
#
#
# Convention : Reuss Voigt Hill
#
# Bulk Modulus (GPa) = 50.18155 57.32856 53.75506
# Shear Modulus (GPa) = 2.45896 22.53297 12.49597
#
# Velocity S-wave (km/s) = 1.09670 3.31987 2.47228
# Velocity P-wave (km/s) = 5.11361 6.53732 5.86880
#
# Compressibility (1/GPa) = 0.01992764
#
# Stress axis : x y z
#
# Youngs Moduli (GPa) = 30.98183 81.56578 90.54459
#
# Poissons Ratio (x) = 0.91856 0.62577
# Poissons Ratio (y) = 0.34890 -0.03131
# Poissons Ratio (z) = 0.21412 -0.02821
#
# Static dielectric constant tensor:
#      x y z
#    x 1.823700 0.000000 0.158000 
#    y 0.000000 1.716010 0.000000 
#    z 0.158000 0.000000 2.062740 
# 
# From -- ./inp_files/4089.got.cif
#   From: 2010.05.17/outbox.cif.g08.bks.cpg/sg8_3_cif.got.tgz:4089.got - 2010.06.03 19:46:02.
