data_PCOD9133686
_publ_section_title
;
Structure prediction by ZEFSAII (Michael W. Deem and Ramdas Pophale) SiO2 
 PCOD9133686
Probable space group: C M
;
_chemical_formula_sum "Si O2"
_cell_formula_units_Z 16
_cell_length_a 21.000000
_cell_length_b 9.000000
_cell_length_c 12.000000
_cell_angle_alpha 90.000000
_cell_angle_beta 50.000000
_cell_angle_gamma 90.000000
_cell_volume 1737.388797
_symmetry_space_group_name_H-M "C M"
_symmetry_group_IT_number 8
_symmetry_cell_setting 'monoclinic'
loop_
_space_group_symop_operation_xyz
x,y,z
x,-y,z
1/2+x,1/2+y,z
1/2+x,1/2-y,z
loop_
_atom_site_type_symbol
_atom_site_label
_atom_site_fract_x
_atom_site_fract_y
_atom_site_fract_z
Si Si1 0.453170 0.322143 0.004230
Si Si2 0.251177 0.822468 0.627088
Si Si3 0.567749 0.678414 0.238359
Si Si4 0.223251 0.177976 0.916734
Si Si5 0.138846 0.679997 0.378996
Si Si6 0.417343 0.177412 0.288903
Si Si7 0.794970 0.320191 0.079714
Si Si8 0.595199 0.822560 0.686895
O O1 0.462753 0.500000 0.009603
O O2 0.432539 0.243694 0.147119
O O3 0.373982 0.276058 0.021042
O O4 0.528581 0.258715 0.843078
O O5 0.252910 0.775646 0.758397
O O6 0.330739 0.808058 0.455164
O O7 0.181431 0.724446 0.646299
O O8 0.230307 0.000000 0.650466
O O9 0.577197 0.500000 0.244336
O O10 0.583076 0.763149 0.337877
O O11 0.479711 0.728058 0.293767
O O12 0.631913 0.723697 0.065888
O O13 0.221823 0.000000 0.910880
O O14 0.275255 0.211327 0.971144
O O15 0.149393 0.500000 0.362824
O O16 0.223963 0.764180 0.246477
O O17 0.103996 0.716026 0.543164
O O18 0.435481 0.000000 0.264232
O O19 0.804822 0.500000 0.080417
O O20 0.580367 0.000000 0.708277
#
# Coordination Sequence:
#
# PCOD9133686 Si02
#       8
#     4   4   4   4   4   4   4   4
#     4  12  25  40  59  83 115 153 194 242 296 352
#     4  10  21  38  60  85 115 151 190 235 289 347
#     4  10  20  36  60  87 117 155 197 240 286 339
#     4   8  17  35  58  83 111 147 187 229 281 337
#     4  10  21  38  60  86 118 155 195 239 289 346
#     4  11  23  38  59  87 118 154 196 240 288 344
#     4  10  20  37  61  87 118 153 191 237 289 346
#     4  11  24  40  59  84 114 150 194 244 294 345
#
# _framework density 9.2092220000000005
#
# number of rings (size 3 to 8) (size 9 to 14) (size 15 to 20)
#    0.000    1.750    0.000    5.250    0.000    7.000 
#    0.000    5.625    0.000    0.000    0.000    0.000 
#    0.000    0.000    0.000    0.000    0.000    0.000 
#
# Total GULP energy -89072.082114 kJ/mol
# GULP energy per Si atom -5567.005132 kJ/mol
# Density = 0.918826 g / cm^3
# Si number density = 9.209222 Si / 1000 Ang^3
#
#
#
# Elastic Constant Matrix: (Units=GPa)
#
#
# Indices 1 2 3 4 5 6 
#
# 1 48.8021 8.4484 41.0482 0.0000 11.1533 0.0000
# 2 8.4484 75.0795 40.0449 0.0000 12.8238 0.0000
# 3 41.0482 40.0449 156.3176 0.0000 35.9182 0.0000
# 4 0.0000 0.0000 0.0000 34.7677 0.0000 2.8817
# 5 11.1533 12.8238 35.9182 0.0000 30.0397 0.0000
# 6 0.0000 0.0000 0.0000 2.8817 0.0000 30.0459
#
#
#
# Elastic Compliance Matrix: (Units=1/GPa)
#
#
# Indices 1 2 3 4 5 6 
#
# 1 0.026454 0.000969 -0.006678 0.000000 -0.002251 0.000000
# 2 0.000969 0.015607 -0.003639 0.000000 -0.002672 0.000000
# 3 -0.006678 -0.003639 0.011246 0.000000 -0.009414 0.000000
# 4 0.000000 0.000000 0.000000 0.028993 0.000000 -0.002781
# 5 -0.002251 -0.002672 -0.009414 0.000000 0.046522 0.000000
# 6 0.000000 0.000000 0.000000 -0.002781 0.000000 0.033549
#
#
# Mechanical properties :
#
#
# Convention : Reuss Voigt Hill
#
# Bulk Modulus (GPa) = 28.89060 51.03136 39.96098
# Shear Modulus (GPa) = 25.95997 31.68118 28.82057
#
# Velocity S-wave (km/s) = 3.75834 4.15188 3.96000
# Velocity P-wave (km/s) = 5.87820 7.12397 6.53086
#
# Compressibility (1/GPa) = 0.03461334
#
# Stress axis : x y z
#
# Youngs Moduli (GPa) = 37.80079 64.07248 88.91932
#
# Poissons Ratio (x) = -0.06212 0.59379
# Poissons Ratio (y) = -0.03665 0.32357
# Poissons Ratio (z) = 0.25243 0.23316
#
# Static dielectric constant tensor:
#      x y z
#    x 1.711350 0.000000 -0.029700 
#    y 0.000000 1.609750 0.000000 
#    z -0.029700 0.000000 1.644480 
# 
# From -- ./inp_files/23852.got.cif
#   From: 2010.05.17/outbox.ucp.g08.bks.cvg/sg8_12_cif.got.tgz:23852.got - 2010.06.11 13:00:03.
