data_PCOD9133219
_publ_section_title
;
Structure prediction by ZEFSAII (Michael W. Deem and Ramdas Pophale) SiO2 
 PCOD9133219
Probable space group: C M
;
_chemical_formula_sum "Si O2"
_cell_formula_units_Z 32
_cell_length_a 11.257873
_cell_length_b 19.480170
_cell_length_c 13.927299
_cell_angle_alpha 90.000000
_cell_angle_beta 149.518364
_cell_angle_gamma 90.000000
_cell_volume 1549.346181
_symmetry_space_group_name_H-M "C M"
_symmetry_group_IT_number 8
_symmetry_cell_setting 'monoclinic'
loop_
_space_group_symop_operation_xyz
x,y,z
x,-y,z
1/2+x,1/2+y,z
1/2+x,1/2-y,z
loop_
_atom_site_type_symbol
_atom_site_label
_atom_site_fract_x
_atom_site_fract_y
_atom_site_fract_z
Si Si1 0.029540 0.923258 0.455830
Si Si2 0.717487 0.420289 0.292712
Si Si3 0.857995 0.328155 0.557531
Si Si4 0.748001 0.168474 0.985510
Si Si5 0.576875 0.862049 0.073145
Si Si6 0.085321 0.079435 0.723463
Si Si7 0.069739 0.421118 0.363881
Si Si8 0.589723 0.213959 0.258589
O O1 0.164248 0.864230 0.491258
O O2 0.046275 0.911320 0.581429
O O3 0.761384 0.919486 0.234798
O O4 0.124876 0.000000 0.502874
O O5 0.683931 0.500000 0.293901
O O6 0.872713 0.381199 0.479894
O O7 0.860033 0.416205 0.293240
O O8 0.467557 0.381902 0.118511
O O9 0.772417 0.256647 0.451005
O O10 0.088243 0.322743 0.781464
O O11 0.603609 0.143493 0.977489
O O12 0.860590 0.239757 0.096753
O O13 0.658832 0.797289 0.195204
O O14 0.306113 0.875952 0.907343
O O15 0.829077 0.090882 0.590086
O O16 0.149221 0.000000 0.783938
O O17 0.076038 0.500000 0.330669
O O18 0.045120 0.360832 0.270335
#
# Coordination Sequence:
#
# PCOD9133219 Si02
#       8
#     4   4   4   4   4   4   4   4
#     4  11  21  39  68 100 137 172 216 279 334 386
#     4  10  23  45  70  98 137 181 225 271 328 399
#     4  11  24  44  66 100 136 181 216 276 338 397
#     4  11  26  43  66 103 134 175 227 275 336 393
#     4  12  23  42  67 101 130 172 224 278 335 388
#     4  10  22  40  67 101 132 170 220 278 335 391
#     4  10  23  47  69  92 132 180 223 271 332 398
#     4  11  26  42  68  95 136 181 217 278 333 402
#
# _framework density 20.653873000000001
#
# number of rings (size 3 to 8) (size 9 to 14) (size 15 to 20)
#    0.000    1.250    5.000    0.750    5.250    2.000 
#    4.500    0.000    0.000    0.000    0.000    0.000 
#    0.000    0.000    0.000    0.000    0.000    0.000 
#
# Total GULP energy -89315.311965 kJ/mol
# GULP energy per Si atom -5582.206998 kJ/mol
# Density = 2.060686 g / cm^3
# Si number density = 20.653873 Si / 1000 Ang^3
#
#
#
# Elastic Constant Matrix: (Units=GPa)
#
#
# Indices 1 2 3 4 5 6 
#
# 1 70.9795 38.2479 27.1291 -0.0001 2.7540 -0.0001
# 2 38.2479 115.4362 53.9119 0.0003 -2.3056 0.0003
# 3 27.1291 53.9119 141.0978 -0.0003 -15.4935 -0.0009
# 4 -0.0001 0.0003 -0.0003 19.8955 -0.0002 -6.7201
# 5 2.7540 -2.3056 -15.4935 -0.0002 32.7506 -0.0004
# 6 -0.0001 0.0003 -0.0009 -6.7201 -0.0004 28.3880
#
#
#
# Elastic Compliance Matrix: (Units=1/GPa)
#
#
# Indices 1 2 3 4 5 6 
#
# 1 0.017587 -0.005069 -0.001736 0.000000 -0.002657 0.000000
# 2 -0.005069 0.012053 -0.003682 0.000000 -0.000467 0.000000
# 3 -0.001736 -0.003682 0.009298 0.000000 0.004286 0.000000
# 4 0.000000 0.000000 0.000000 0.054631 0.000001 0.012932
# 5 -0.002657 -0.000467 0.004286 0.000001 0.032752 0.000001
# 6 0.000000 0.000000 0.000000 0.012932 0.000001 0.038287
#
#
# Mechanical properties :
#
#
# Convention : Reuss Voigt Hill
#
# Bulk Modulus (GPa) = 55.66920 62.89904 59.28412
# Shear Modulus (GPa) = 26.10005 30.08846 28.09426
#
# Velocity S-wave (km/s) = 3.55870 3.82094 3.69215
# Velocity P-wave (km/s) = 6.62553 7.07008 6.85141
#
# Compressibility (1/GPa) = 0.01796326
#
# Stress axis : x y z
#
# Youngs Moduli (GPa) = 56.86031 82.96978 107.54433
#
# Poissons Ratio (x) = 0.42060 0.18673
# Poissons Ratio (y) = 0.28824 0.39595
# Poissons Ratio (z) = 0.09873 0.30547
#
# Static dielectric constant tensor:
#      x y z
#    x 1.770840 0.000000 0.000780 
#    y 0.000000 1.766360 0.000000 
#    z 0.000780 0.000000 1.734910 
# 
# From -- ./inp_files/26289.got.cif
#   From: 2010.05.17/outbox.cif.g08.bks.cpg/sg8_14_cif.got.tgz:26289.got - 2010.06.03 19:46:02.
