data_PCOD9133701
_publ_section_title
;
Structure prediction by ZEFSAII (Michael W. Deem and Ramdas Pophale) SiO2 
 PCOD9133701
Probable space group: C M
;
_chemical_formula_sum "Si O2"
_cell_formula_units_Z 16
_cell_length_a 24.000000
_cell_length_b 9.000000
_cell_length_c 15.000000
_cell_angle_alpha 90.000000
_cell_angle_beta 150.000000
_cell_angle_gamma 90.000000
_cell_volume 1620.000000
_symmetry_space_group_name_H-M "C M"
_symmetry_group_IT_number 8
_symmetry_cell_setting 'monoclinic'
loop_
_space_group_symop_operation_xyz
x,y,z
x,-y,z
1/2+x,1/2+y,z
1/2+x,1/2-y,z
loop_
_atom_site_type_symbol
_atom_site_label
_atom_site_fract_x
_atom_site_fract_y
_atom_site_fract_z
Si Si1 0.329850 0.323076 0.918270
Si Si2 0.123452 0.322058 0.027262
Si Si3 0.492862 0.677144 0.293560
Si Si4 0.695412 0.821248 0.468148
Si Si5 0.780198 0.180365 0.396384
Si Si6 0.910812 0.677967 0.858784
Si Si7 0.092650 0.178815 0.612876
Si Si8 0.533207 0.679356 0.731368
O O1 0.325194 0.500000 0.897180
O O2 0.410554 0.249341 0.956660
O O3 0.208203 0.252234 0.742961
O O4 0.378173 0.292714 0.083691
O O5 0.128617 0.500000 0.021935
O O6 0.016980 0.290894 0.943550
O O7 0.111474 0.245350 0.915784
O O8 0.228120 0.271128 0.230973
O O9 0.513569 0.500000 0.314434
O O10 0.588461 0.760585 0.370979
O O11 0.502841 0.715176 0.411570
O O12 0.705635 0.777885 0.378143
O O13 0.803462 0.750138 0.663754
O O14 0.699273 0.000000 0.479621
O O15 0.907519 0.228646 0.581679
O O16 0.780240 0.000000 0.395047
O O17 0.900004 0.500000 0.851719
O O18 0.061066 0.225672 0.669013
O O19 0.105893 0.000000 0.632362
O O20 0.536682 0.500000 0.739365
#
# Coordination Sequence:
#
# PCOD9133701 Si02
#       8
#     4   4   4   4   4   4   4   4
#     4  11  23  38  60  89 116 150 195 240 286 343
#     4  10  21  37  59  86 116 152 189 231 287 343
#     4  10  22  39  58  85 118 152 189 233 291 350
#     4  11  20  34  60  89 116 150 191 234 285 348
#     4   9  19  36  58  84 115 150 188 228 282 348
#     4  11  21  35  57  86 122 156 186 232 294 346
#     4  10  22  40  60  81 113 156 193 238 297 344
#     4  10  21  39  60  82 112 152 197 240 286 336
#
# _framework density 9.8765429999999999
#
# number of rings (size 3 to 8) (size 9 to 14) (size 15 to 20)
#    0.000    1.750    2.500    1.875    0.000    4.000 
#    0.000    4.375    0.000    0.000    0.000    0.000 
#    0.000    0.000    0.000    0.000    0.000    0.000 
#
# Total GULP energy -89340.986685 kJ/mol
# GULP energy per Si atom -5583.811668 kJ/mol
# Density = 0.985406 g / cm^3
# Si number density = 9.876543 Si / 1000 Ang^3
#
#
#
# Elastic Constant Matrix: (Units=GPa)
#
#
# Indices 1 2 3 4 5 6 
#
# 1 84.9162 12.2208 11.7706 0.0000 -39.4442 0.0000
# 2 12.2208 12.7930 9.2718 0.0000 -12.4399 0.0000
# 3 11.7706 9.2718 78.0280 0.0000 -38.3273 0.0000
# 4 0.0000 0.0000 0.0000 22.4825 0.0000 -7.5938
# 5 -39.4442 -12.4399 -38.3273 0.0000 36.8559 0.0000
# 6 0.0000 0.0000 0.0000 -7.5938 0.0000 26.4371
#
#
#
# Elastic Compliance Matrix: (Units=1/GPa)
#
#
# Indices 1 2 3 4 5 6 
#
# 1 0.054218 0.025660 0.044008 0.000000 0.112452 0.000000
# 2 0.025660 0.133469 0.032476 0.000000 0.106285 0.000000
# 3 0.044008 0.032476 0.063038 0.000000 0.123615 0.000000
# 4 0.000000 0.000000 0.000000 0.049258 0.000000 0.014149
# 5 0.112452 0.106285 0.123615 0.000000 0.311907 0.000000
# 6 0.000000 0.000000 0.000000 0.014149 0.000000 0.041890
#
#
# Mechanical properties :
#
#
# Convention : Reuss Voigt Hill
#
# Bulk Modulus (GPa) = 2.19773 26.91818 14.55796
# Shear Modulus (GPa) = 8.31723 26.65336 17.48529
#
# Velocity S-wave (km/s) = 2.05420 3.67730 2.97845
# Velocity P-wave (km/s) = 2.59641 5.62912 4.38340
#
# Compressibility (1/GPa) = 0.45501523
#
# Stress axis : x y z
#
# Youngs Moduli (GPa) = 18.44399 7.49236 15.86351
#
# Poissons Ratio (x) = -0.19226 -0.69813
# Poissons Ratio (y) = -0.47328 -0.51519
# Poissons Ratio (z) = -0.81169 -0.24333
#
# Static dielectric constant tensor:
#      x y z
#    x 1.684870 0.000000 -0.028440 
#    y 0.000000 1.659900 0.000000 
#    z -0.028440 0.000000 1.720650 
# 
# From -- ./inp_files/26521.got.cif
#   From: 2010.05.17/outbox.ucp.g08.bks.cvg/sg8_14_cif.got.tgz:26521.got - 2010.06.11 13:00:03.
