data_PCOD9133386
_publ_section_title
;
Structure prediction by ZEFSAII (Michael W. Deem and Ramdas Pophale) SiO2 
 PCOD9133386
Probable space group: C M
;
_chemical_formula_sum "Si O2"
_cell_formula_units_Z 26
_cell_length_a 9.848732
_cell_length_b 7.538480
_cell_length_c 17.053743
_cell_angle_alpha 90.000000
_cell_angle_beta 52.849592
_cell_angle_gamma 90.000000
_cell_volume 1009.185452
_symmetry_space_group_name_H-M "C M"
_symmetry_group_IT_number 8
_symmetry_cell_setting 'monoclinic'
loop_
_space_group_symop_operation_xyz
x,y,z
x,-y,z
1/2+x,1/2+y,z
1/2+x,1/2-y,z
loop_
_atom_site_type_symbol
_atom_site_label
_atom_site_fract_x
_atom_site_fract_y
_atom_site_fract_z
Si Si1 0.113150 0.699026 0.622060
Si Si2 0.367886 0.000000 0.524992
Si Si3 0.373040 0.293107 0.935907
Si Si4 0.747388 0.213539 0.818063
Si Si5 0.977164 0.214046 0.235522
Si Si6 0.353357 0.292818 0.116399
Si Si7 0.617277 0.706136 0.436344
O O1 0.165534 0.500000 0.624428
O O2 0.243070 0.845757 0.605834
O O3 0.615613 0.773863 0.527002
O O4 0.920317 0.726810 0.716689
O O5 0.486921 0.842993 0.443745
O O6 0.328133 0.500000 0.958349
O O7 0.571282 0.277936 0.842969
O O8 0.261075 0.220426 0.903764
O O9 0.364154 0.210940 0.025789
O O10 0.745296 0.000000 0.818209
O O11 0.964424 0.278822 0.149352
O O12 0.806710 0.277464 0.337124
O O13 0.155225 0.275620 0.208754
O O14 0.975315 0.000000 0.237705
O O15 0.397289 0.500000 0.094472
O O16 0.567107 0.500000 0.450444
#
# Coordination Sequence:
#
# PCOD9133386 Si02
#       7
#     4   2   4   4   4   4   4
#     4  12  26  46  71 102 142 186 232 293 347 420
#     4  12  26  48  72 100 140 184 236 288 356 410
#     4  10  23  43  67  97 136 179 230 289 348 412
#     4  11  24  42  67 101 137 180 234 285 346 420
#     4  11  24  42  67 101 137 180 234 285 346 420
#     4  10  23  43  67  97 136 179 230 289 348 412
#     4  12  26  46  71 102 142 186 232 293 347 420
#
# _framework density 25.763349999999999
#
# number of rings (size 3 to 8) (size 9 to 14) (size 15 to 20)
#    0.000    0.923    3.077    2.308    4.308    3.077 
#    0.000    0.000    0.000    0.000    0.000    0.000 
#    0.000    0.000    0.000    0.000    0.000    0.000 
#
# Total GULP energy -72597.486377 kJ/mol
# GULP energy per Si atom -5584.422029 kJ/mol
# Density = 2.570471 g / cm^3
# Si number density = 25.763350 Si / 1000 Ang^3
#
#
#
# Elastic Constant Matrix: (Units=GPa)
#
#
# Indices 1 2 3 4 5 6 
#
# 1 92.7027 -10.1504 -1.8457 0.0000 -4.7309 0.0000
# 2 -10.1504 165.5945 -1.0711 0.0000 -13.3291 0.0000
# 3 -1.8457 -1.0711 101.8197 0.0000 -8.3131 0.0000
# 4 0.0000 0.0000 0.0000 27.6226 0.0000 -12.9984
# 5 -4.7309 -13.3291 -8.3131 0.0000 49.2483 0.0000
# 6 0.0000 0.0000 0.0000 -12.9984 0.0000 15.8301
#
#
#
# Elastic Compliance Matrix: (Units=1/GPa)
#
#
# Indices 1 2 3 4 5 6 
#
# 1 0.010946 0.000779 0.000314 0.000000 0.001315 0.000000
# 2 0.000779 0.006233 0.000227 0.000000 0.001800 0.000000
# 3 0.000314 0.000227 0.009974 0.000000 0.001775 0.000000
# 4 0.000000 0.000000 0.000000 0.058999 0.000000 0.048446
# 5 0.001315 0.001800 0.001775 0.000000 0.021218 0.000000
# 6 0.000000 0.000000 0.000000 0.048446 0.000000 0.102951
#
#
# Mechanical properties :
#
#
# Convention : Reuss Voigt Hill
#
# Bulk Modulus (GPa) = 33.56598 37.10915 35.33757
# Shear Modulus (GPa) = 22.97652 43.41914 33.19783
#
# Velocity S-wave (km/s) = 2.98959 4.10970 3.59356
# Velocity P-wave (km/s) = 4.99737 6.07903 5.56455
#
# Compressibility (1/GPa) = 0.02979207
#
# Stress axis : x y z
#
# Youngs Moduli (GPa) = 91.35898 160.43784 100.25777
#
# Poissons Ratio (x) = -0.12496 -0.03148
# Poissons Ratio (y) = -0.07115 -0.02272
# Poissons Ratio (z) = -0.02869 -0.03636
#
# Static dielectric constant tensor:
#      x y z
#    x 2.133630 0.000000 0.080510 
#    y 0.000000 1.962900 0.000000 
#    z 0.080510 0.000000 2.051000 
# 
# From -- ./inp_files/30453.got.cif
#   From: 2010.05.17/outbox.cif.g08.bks.cpg/sg8_16_cif.got.tgz:30453.got - 2010.06.03 19:46:02.
