data_PCOD9133218
_publ_section_title
;
Structure prediction by ZEFSAII (Michael W. Deem and Ramdas Pophale) SiO2 
 PCOD9133218
Probable space group: C M
;
_chemical_formula_sum "Si O2"
_cell_formula_units_Z 26
_cell_length_a 14.818227
_cell_length_b 10.384664
_cell_length_c 14.629754
_cell_angle_alpha 90.000000
_cell_angle_beta 37.138302
_cell_angle_gamma 90.000000
_cell_volume 1359.178233
_symmetry_space_group_name_H-M "C M"
_symmetry_group_IT_number 8
_symmetry_cell_setting 'monoclinic'
loop_
_space_group_symop_operation_xyz
x,y,z
x,-y,z
1/2+x,1/2+y,z
1/2+x,1/2-y,z
loop_
_atom_site_type_symbol
_atom_site_label
_atom_site_fract_x
_atom_site_fract_y
_atom_site_fract_z
Si Si1 0.687510 0.851098 0.295470
Si Si2 0.662300 0.348884 0.637136
Si Si3 0.373427 0.252204 0.313054
Si Si4 0.070652 0.500000 0.107253
Si Si5 0.672095 0.357623 0.151556
Si Si6 0.825546 0.780161 0.872310
Si Si7 0.359537 0.152324 0.649302
O O1 0.807437 0.819907 0.276650
O O2 0.707014 0.753972 0.196018
O O3 0.522545 0.830908 0.471569
O O4 0.696527 0.000000 0.256888
O O5 0.697842 0.500000 0.596454
O O6 0.741273 0.271501 0.492059
O O7 0.485839 0.329870 0.776345
O O8 0.736363 0.310101 0.673455
O O9 0.447803 0.114982 0.229015
O O10 0.502069 0.336768 0.256417
O O11 0.198438 0.387807 0.984294
O O12 0.694094 0.500000 0.172701
O O13 0.773962 0.334565 0.980737
O O14 0.841894 0.732257 0.755567
O O15 0.343311 0.000000 0.682527
#
# Coordination Sequence:
#
# PCOD9133218 Si02
#       7
#     4   4   4   2   4   4   4
#     4  11  24  42  72 101 131 175 229 278 336 404
#     4  11  21  39  69  99 127 179 225 275 337 399
#     4  11  22  42  69  97 136 176 224 276 342 398
#     4  10  24  38  66  98 136 176 222 274 338 402
#     4  11  26  44  66  98 139 176 224 282 336 404
#     4  11  23  42  65  96 139 177 220 283 342 396
#     4  10  22  40  66  97 129 170 228 277 332 401
#
# _framework density 19.129206
#
# number of rings (size 3 to 8) (size 9 to 14) (size 15 to 20)
#    0.000    1.231    4.615    0.923    5.385    2.462 
#    1.385    3.077    1.692    0.000    0.000    0.000 
#    0.000    0.000    0.000    0.000    0.000    0.000 
#
# Total GULP energy -72383.453006 kJ/mol
# GULP energy per Si atom -5567.957924 kJ/mol
# Density = 1.908567 g / cm^3
# Si number density = 19.129206 Si / 1000 Ang^3
#
#
#
# Elastic Constant Matrix: (Units=GPa)
#
#
# Indices 1 2 3 4 5 6 
#
# 1 71.1378 17.8363 7.0288 0.0000 9.8508 0.0000
# 2 17.8363 107.2302 24.8726 0.0000 14.1141 0.0000
# 3 7.0288 24.8726 64.2879 0.0000 -1.9606 0.0000
# 4 0.0000 0.0000 0.0000 32.2117 0.0000 -3.1982
# 5 9.8508 14.1141 -1.9606 0.0000 22.9672 0.0000
# 6 0.0000 0.0000 0.0000 -3.1982 0.0000 20.1270
#
#
#
# Elastic Compliance Matrix: (Units=1/GPa)
#
#
# Indices 1 2 3 4 5 6 
#
# 1 0.015359 -0.001499 -0.001276 0.000000 -0.005775 0.000000
# 2 -0.001499 0.011516 -0.004500 0.000000 -0.006818 0.000000
# 3 -0.001276 -0.004500 0.017582 0.000000 0.004813 0.000000
# 4 0.000000 0.000000 0.000000 0.031542 0.000000 0.005012
# 5 -0.005775 -0.006818 0.004813 0.000000 0.050619 0.000000
# 6 0.000000 0.000000 0.000000 0.005012 0.000000 0.050481
#
#
# Mechanical properties :
#
#
# Convention : Reuss Voigt Hill
#
# Bulk Modulus (GPa) = 33.43428 38.01458 35.72443
# Shear Modulus (GPa) = 24.79957 27.92238 26.36098
#
# Velocity S-wave (km/s) = 3.60450 3.82471 3.71624
# Velocity P-wave (km/s) = 5.90248 6.27855 6.09342
#
# Compressibility (1/GPa) = 0.02990943
#
# Stress axis : x y z
#
# Youngs Moduli (GPa) = 65.10941 86.83424 56.87581
#
# Poissons Ratio (x) = 0.13014 0.07255
# Poissons Ratio (y) = 0.09758 0.25592
# Poissons Ratio (z) = 0.08305 0.39072
#
# Static dielectric constant tensor:
#      x y z
#    x 1.664080 0.000000 0.002580 
#    y 0.000000 1.661500 0.000000 
#    z 0.002580 0.000000 1.634680 
# 
# From -- ./inp_files/12587.got.cif
#   From: 2010.05.17/outbox.cif.g08.bks.cpg/sg8_7_cif.got.tgz:12587.got - 2010.06.03 19:46:02.
