data_PCOD9133848
_publ_section_title
;
Structure prediction by ZEFSAII (Michael W. Deem and Ramdas Pophale) SiO2 
 PCOD9133848
Probable space group: C C
;
_chemical_formula_sum "Si O2"
_cell_formula_units_Z 32
_cell_length_a 15.429061
_cell_length_b 18.216523
_cell_length_c 9.341764
_cell_angle_alpha 90.000000
_cell_angle_beta 149.103752
_cell_angle_gamma 90.000000
_cell_volume 1348.222861
_symmetry_space_group_name_H-M "C C"
_symmetry_group_IT_number 9
_symmetry_cell_setting 'monoclinic'
loop_
_space_group_symop_operation_xyz
x,y,z
x,-y,1/2+z
1/2+x,1/2+y,z
1/2+x,1/2-y,1/2+z
loop_
_atom_site_type_symbol
_atom_site_label
_atom_site_fract_x
_atom_site_fract_y
_atom_site_fract_z
Si Si1 0.936270 0.032009 0.382810
Si Si2 0.477674 0.651923 0.203888
Si Si3 0.320010 0.067253 0.597420
Si Si4 0.453693 0.641646 0.649483
Si Si5 0.237102 0.066805 0.172376
Si Si6 0.451268 0.152679 0.045677
Si Si7 0.664440 0.247027 0.158974
Si Si8 0.740505 0.108037 0.627439
O O1 0.969170 0.066944 0.582603
O O2 0.919726 0.098097 0.248746
O O3 0.780058 0.978145 0.185933
O O4 0.090631 0.983071 0.542149
O O5 0.641539 0.611850 0.365329
O O6 0.539554 0.730568 0.353052
O O7 0.322267 0.650489 0.875092
O O8 0.360500 0.074781 0.485884
O O9 0.304858 0.985346 0.641407
O O10 0.442926 0.105846 0.888037
O O11 0.315661 0.688527 0.360311
O O12 0.345500 0.635759 0.639778
O O13 0.647078 0.641568 0.987171
O O14 0.559242 0.222927 0.146941
O O15 0.547596 0.120394 0.315945
O O16 0.264240 0.176642 0.822317
#
# Coordination Sequence:
#
# PCOD9133848 Si02
#       8
#     4   4   4   4   4   4   4   4
#     4  10  17  32  60  89 117 158 203 246 315 380
#     4  10  19  35  62  87 120 164 210 246 308 385
#     4  10  19  36  60  91 125 161 204 258 318 376
#     4  10  18  33  60  86 117 164 207 246 303 380
#     4  10  17  33  59  92 121 161 205 253 315 379
#     4  10  23  42  61  87 129 167 208 267 314 372
#     4  10  22  41  61  85 122 174 209 249 310 372
#     4  10  19  36  59  89 117 157 204 265 315 360
#
# _framework density 23.734949
#
# number of rings (size 3 to 8) (size 9 to 14) (size 15 to 20)
#    0.000    2.000    3.750    2.250    0.000    0.000 
#    9.000    2.500    0.000    0.000    0.000    0.000 
#    0.000    0.000    0.000    0.000    0.000    0.000 
#
# Total GULP energy -89109.736190 kJ/mol
# GULP energy per Si atom -5569.358512 kJ/mol
# Density = 2.368093 g / cm^3
# Si number density = 23.734949 Si / 1000 Ang^3
#
#
#
# Elastic Constant Matrix: (Units=GPa)
#
#
# Indices 1 2 3 4 5 6 
#
# 1 32.2352 12.8605 16.9363 0.0000 -5.9512 0.0000
# 2 12.8605 49.6604 47.1459 0.0000 -9.3162 0.0000
# 3 16.9363 47.1459 171.1850 0.0000 -24.2055 0.0000
# 4 0.0000 0.0000 0.0000 8.5965 0.0000 -6.5227
# 5 -5.9512 -9.3162 -24.2055 0.0000 29.4120 0.0000
# 6 0.0000 0.0000 0.0000 -6.5227 0.0000 17.4481
#
#
#
# Elastic Compliance Matrix: (Units=1/GPa)
#
#
# Indices 1 2 3 4 5 6 
#
# 1 0.035227 -0.007580 -0.000825 0.000000 0.004048 0.000000
# 2 -0.007580 0.029099 -0.006991 0.000000 0.001930 0.000000
# 3 -0.000825 -0.006991 0.008501 0.000000 0.004615 0.000000
# 4 0.000000 0.000000 0.000000 0.162388 0.000000 0.060706
# 5 0.004048 0.001930 0.004615 0.000000 0.039228 0.000000
# 6 0.000000 0.000000 0.000000 0.060706 0.000000 0.080007
#
#
# Mechanical properties :
#
#
# Convention : Reuss Voigt Hill
#
# Bulk Modulus (GPa) = 23.79008 45.21842 34.50425
# Shear Modulus (GPa) = 12.52333 22.83385 17.67859
#
# Velocity S-wave (km/s) = 2.29952 3.10503 2.73212
# Velocity P-wave (km/s) = 4.13465 5.65223 4.95192
#
# Compressibility (1/GPa) = 0.04203433
#
# Stress axis : x y z
#
# Youngs Moduli (GPa) = 28.38740 34.36537 117.62873
#
# Poissons Ratio (x) = 0.26048 0.09708
# Poissons Ratio (y) = 0.21517 0.82239
# Poissons Ratio (z) = 0.02343 0.24026
#
# Static dielectric constant tensor:
#      x y z
#    x 1.894410 0.000000 0.002470 
#    y 0.000000 2.092620 0.000000 
#    z 0.002470 0.000000 2.032160 
# 
# From -- ./inp_files/11054.got.cif
#   From: 2010.05.17/outbox.cif.g08.bks.cpg/sg9_6_cif.got.tgz:11054.got - 2010.06.03 20:04:27.
