data_PCOD9133136
_publ_section_title
;
Structure prediction by ZEFSAII (Michael W. Deem and Ramdas Pophale) SiO2 
 PCOD9133136
Probable space group: C M
;
_chemical_formula_sum "Si O2"
_cell_formula_units_Z 32
_cell_length_a 23.176248
_cell_length_b 13.805630
_cell_length_c 15.796397
_cell_angle_alpha 90.000000
_cell_angle_beta 20.176163
_cell_angle_gamma 90.000000
_cell_volume 1743.252592
_symmetry_space_group_name_H-M "C M"
_symmetry_group_IT_number 8
_symmetry_cell_setting 'monoclinic'
loop_
_space_group_symop_operation_xyz
x,y,z
x,-y,z
1/2+x,1/2+y,z
1/2+x,1/2-y,z
loop_
_atom_site_type_symbol
_atom_site_label
_atom_site_fract_x
_atom_site_fract_y
_atom_site_fract_z
Si Si1 0.121010 0.109862 0.885500
Si Si2 0.944841 0.889572 0.892262
Si Si3 0.493952 0.882919 0.611514
Si Si4 0.625404 0.611202 0.078053
Si Si5 0.818448 0.793175 0.230973
Si Si6 0.913617 0.292080 0.387618
Si Si7 0.838390 0.388433 0.315098
Si Si8 0.126958 0.613483 0.239562
O O1 0.233880 0.182378 0.675272
O O2 0.152686 0.000000 0.811358
O O3 0.167266 0.114943 0.920132
O O4 0.927192 0.136529 0.141413
O O5 0.139438 0.888378 0.606727
O O6 0.900441 0.000000 0.982643
O O7 0.895048 0.815162 0.033491
O O8 0.825472 0.871378 0.976738
O O9 0.624643 0.825597 0.490842
O O10 0.549248 0.859904 0.438280
O O11 0.512421 0.000000 0.597046
O O12 0.296900 0.859902 0.889970
O O13 0.587744 0.500000 0.151208
O O14 0.468445 0.680931 0.306961
O O15 0.854327 0.685862 0.215399
O O16 0.922216 0.342256 0.283621
O O17 0.044295 0.335702 0.274465
O O18 0.890937 0.500000 0.229206
O O19 0.093303 0.500000 0.275330
#
# Coordination Sequence:
#
# PCOD9133136 Si02
#       8
#     4   4   4   4   4   4   4   4
#     4  11  20  36  59  83 111 146 192 235 271 326
#     4   9  19  36  57  82 110 142 187 239 276 322
#     4   9  18  35  59  87 111 140 186 240 281 324
#     4  10  22  38  55  83 118 147 186 234 279 334
#     4  11  20  34  58  85 112 147 185 231 285 329
#     4  12  21  34  59  84 113 151 186 226 286 331
#     4  11  23  36  53  83 119 150 187 230 279 336
#     4   9  17  31  56  85 108 139 189 235 275 322
#
# _framework density 18.356490999999998
#
# number of rings (size 3 to 8) (size 9 to 14) (size 15 to 20)
#    0.000    1.750    3.750    3.000    1.750    0.000 
#    0.000    0.625    0.000    5.250    0.000    0.000 
#    0.000    0.000    0.000    0.000    0.000    0.000 
#
# Total GULP energy -89196.644487 kJ/mol
# GULP energy per Si atom -5574.790280 kJ/mol
# Density = 1.831471 g / cm^3
# Si number density = 18.356491 Si / 1000 Ang^3
#
#
#
# Elastic Constant Matrix: (Units=GPa)
#
#
# Indices 1 2 3 4 5 6 
#
# 1 82.6112 42.0770 20.6682 0.0000 -26.3577 0.0000
# 2 42.0770 113.4284 46.0962 -0.0001 -6.1866 0.0000
# 3 20.6682 46.0962 61.0074 -0.0001 -19.6870 0.0000
# 4 0.0000 -0.0001 -0.0001 28.5075 0.0000 -0.1752
# 5 -26.3577 -6.1866 -19.6870 0.0000 31.9728 0.0000
# 6 0.0000 0.0000 0.0000 -0.1752 0.0000 28.8209
#
#
#
# Elastic Compliance Matrix: (Units=1/GPa)
#
#
# Indices 1 2 3 4 5 6 
#
# 1 0.021756 -0.009530 0.006268 0.000000 0.019951 0.000000
# 2 -0.009530 0.017393 -0.014180 0.000000 -0.013222 0.000000
# 3 0.006268 -0.014180 0.032153 0.000000 0.022221 0.000000
# 4 0.000000 0.000000 0.000000 0.035080 0.000000 0.000213
# 5 0.019951 -0.013222 0.022221 0.000000 0.058848 0.000000
# 6 0.000000 0.000000 0.000000 0.000213 0.000000 0.034698
#
#
# Mechanical properties :
#
#
# Convention : Reuss Voigt Hill
#
# Bulk Modulus (GPa) = 27.45866 52.74775 40.10320
# Shear Modulus (GPa) = 20.24711 27.74060 23.99386
#
# Velocity S-wave (km/s) = 3.32474 3.89165 3.61931
# Velocity P-wave (km/s) = 5.45248 6.99935 6.27377
#
# Compressibility (1/GPa) = 0.03641839
#
# Stress axis : x y z
#
# Youngs Moduli (GPa) = 45.96449 57.49598 31.10173
#
# Poissons Ratio (x) = 0.54791 -0.19494
# Poissons Ratio (y) = 0.43802 0.44101
# Poissons Ratio (z) = -0.28810 0.81527
#
# Static dielectric constant tensor:
#      x y z
#    x 1.648170 0.000000 -0.025380 
#    y 0.000000 1.648810 0.000000 
#    z -0.025380 0.000000 1.669030 
# 
# From -- ./inp_files/29222.got.cif
#   From: 2010.05.17/outbox.cif.g08.bks.cpg/sg8_15_cif.got.tgz:29222.got - 2010.06.03 19:46:02.
