data_PCOD9133241
_publ_section_title
;
Structure prediction by ZEFSAII (Michael W. Deem and Ramdas Pophale) SiO2 
 PCOD9133241
Probable space group: C M
;
_chemical_formula_sum "Si O2"
_cell_formula_units_Z 32
_cell_length_a 24.876154
_cell_length_b 8.975348
_cell_length_c 24.114709
_cell_angle_alpha 90.000000
_cell_angle_beta 17.709989
_cell_angle_gamma 90.000000
_cell_volume 1637.851590
_symmetry_space_group_name_H-M "C M"
_symmetry_group_IT_number 8
_symmetry_cell_setting 'monoclinic'
loop_
_space_group_symop_operation_xyz
x,y,z
x,-y,z
1/2+x,1/2+y,z
1/2+x,1/2-y,z
loop_
_atom_site_type_symbol
_atom_site_label
_atom_site_fract_x
_atom_site_fract_y
_atom_site_fract_z
Si Si1 0.713980 0.823042 0.176850
Si Si2 0.865338 0.677800 0.792304
Si Si3 0.839710 0.828530 0.411681
Si Si4 0.262438 0.828201 0.015198
Si Si5 0.528952 0.821675 0.931257
Si Si6 0.717926 0.675797 0.420000
Si Si7 0.027853 0.177411 0.049397
Si Si8 0.329702 0.678989 0.546031
O O1 0.785326 0.773717 0.046082
O O2 0.515002 0.759266 0.376311
O O3 0.713288 0.000000 0.183067
O O4 0.844310 0.748288 0.092861
O O5 0.896388 0.500000 0.758219
O O6 0.018627 0.766404 0.611262
O O7 0.859224 0.716604 0.863592
O O8 0.677747 0.707741 0.948112
O O9 0.779692 0.725383 0.420802
O O10 0.773262 0.784960 0.538209
O O11 0.052871 0.827492 0.207061
O O12 0.785739 0.000000 0.452741
O O13 0.310502 0.000000 0.981884
O O14 0.679166 0.784951 0.738211
O O15 0.514045 0.000000 0.948817
O O16 0.576609 0.754321 0.943850
O O17 0.730477 0.500000 0.400850
O O18 0.845439 0.757388 0.251549
O O19 0.014877 0.000000 0.055123
O O20 0.360881 0.500000 0.515871
#
# Coordination Sequence:
#
# PCOD9133241 Si02
#       8
#     4   4   4   4   4   4   4   4
#     4  11  23  38  60  94 131 165 202 255 310 366
#     4  10  22  41  65  89 119 164 212 256 309 372
#     4   9  17  36  62  89 122 164 209 251 304 369
#     4   9  18  37  63  89 122 166 208 253 309 368
#     4  11  24  43  67  93 122 165 212 258 307 369
#     4  12  25  38  59  94 130 164 202 255 312 370
#     4  11  24  46  68  89 120 164 213 262 309 365
#     4   9  21  41  64  89 122 166 210 254 308 369
#
# _framework density 19.537789
#
# number of rings (size 3 to 8) (size 9 to 14) (size 15 to 20)
#    0.000    1.750    1.250    3.750    1.750    5.500 
#    0.000    2.500    0.000    0.000    0.000    0.000 
#    0.000    0.000    0.000    0.000    0.000    0.000 
#
# Total GULP energy -89450.630579 kJ/mol
# GULP energy per Si atom -5590.664411 kJ/mol
# Density = 1.949332 g / cm^3
# Si number density = 19.537789 Si / 1000 Ang^3
#
#
#
# Elastic Constant Matrix: (Units=GPa)
#
#
# Indices 1 2 3 4 5 6 
#
# 1 54.3920 19.7771 8.1786 0.0002 15.7451 -0.0002
# 2 19.7771 56.4392 29.1662 -0.0043 5.5548 0.0024
# 3 8.1786 29.1662 71.7947 -0.0021 20.9260 0.0009
# 4 0.0002 -0.0043 -0.0021 18.3801 0.0013 6.2674
# 5 15.7451 5.5548 20.9260 0.0013 30.0738 -0.0003
# 6 -0.0002 0.0024 0.0009 6.2674 -0.0003 28.1264
#
#
#
# Elastic Compliance Matrix: (Units=1/GPa)
#
#
# Indices 1 2 3 4 5 6 
#
# 1 0.025900 -0.010597 0.005941 -0.000001 -0.015737 0.000001
# 2 -0.010597 0.026946 -0.012426 0.000005 0.009218 -0.000003
# 3 0.005941 -0.012426 0.023254 0.000001 -0.016996 0.000000
# 4 -0.000001 0.000005 0.000001 0.058881 -0.000003 -0.013120
# 5 -0.015737 0.009218 -0.016996 -0.000003 0.051614 0.000001
# 6 0.000001 -0.000003 0.000000 -0.013120 0.000001 0.038477
#
#
# Mechanical properties :
#
#
# Convention : Reuss Voigt Hill
#
# Bulk Modulus (GPa) = 23.84595 32.98554 28.41574
# Shear Modulus (GPa) = 18.30064 23.68298 20.99181
#
# Velocity S-wave (km/s) = 3.06384 3.48539 3.28139
# Velocity P-wave (km/s) = 4.97471 5.75472 5.37887
#
# Compressibility (1/GPa) = 0.04193585
#
# Stress axis : x y z
#
# Youngs Moduli (GPa) = 38.60954 37.11137 43.00421
#
# Poissons Ratio (x) = 0.39328 -0.25551
# Poissons Ratio (y) = 0.40916 0.53437
# Poissons Ratio (z) = -0.22940 0.46115
#
# Static dielectric constant tensor:
#      x y z
#    x 1.675880 0.000000 -0.000140 
#    y 0.000000 1.644260 0.000000 
#    z -0.000140 0.000000 1.689300 
# 
# From -- ./inp_files/32408.got.cif
#   From: 2010.05.17/outbox.cif.g08.bks.cpg/sg8_17_cif.got.tgz:32408.got - 2010.06.03 19:46:02.
