data_PCOD9133298
_publ_section_title
;
Structure prediction by ZEFSAII (Michael W. Deem and Ramdas Pophale) SiO2 
 PCOD9133298
Probable space group: C M
;
_chemical_formula_sum "Si O2"
_cell_formula_units_Z 16
_cell_length_a 5.362632
_cell_length_b 18.213061
_cell_length_c 7.451408
_cell_angle_alpha 90.000000
_cell_angle_beta 63.983561
_cell_angle_gamma 90.000000
_cell_volume 654.031509
_symmetry_space_group_name_H-M "C M"
_symmetry_group_IT_number 8
_symmetry_cell_setting 'monoclinic'
loop_
_space_group_symop_operation_xyz
x,y,z
x,-y,z
1/2+x,1/2+y,z
1/2+x,1/2-y,z
loop_
_atom_site_type_symbol
_atom_site_label
_atom_site_fract_x
_atom_site_fract_y
_atom_site_fract_z
Si Si1 0.297880 0.357721 0.452710
Si Si2 0.678972 0.587669 0.656470
Si Si3 0.735592 0.920835 0.108176
Si Si4 0.482912 0.228685 0.133387
O O1 0.351672 0.413693 0.271634
O O2 0.361845 0.279475 0.334112
O O3 0.009795 0.356771 0.161844
O O4 0.972615 0.371912 0.595135
O O5 0.727847 0.500000 0.604076
O O6 0.493688 0.624145 0.557598
O O7 0.485458 0.591136 0.892438
O O8 0.296699 0.755971 0.021912
O O9 0.611699 0.000000 0.111563
#
# Coordination Sequence:
#
# PCOD9133298 Si02
#       4
#     4   4   4   4
#     4  11  23  44  68  98 142 180 223 278 335 405
#     4  11  24  42  71 106 136 179 231 279 339 401
#     4  10  23  45  72 102 138 176 224 284 340 401
#     4  10  22  43  65  94 134 175 220 269 330 395
#
# _framework density 24.463653000000001
#
# number of rings (size 3 to 8) (size 9 to 14) (size 15 to 20)
#    0.000    1.500    0.000    5.250    0.000    6.000 
#    0.000   43.750    0.000    0.000    0.000    0.000 
#    0.000    0.000    0.000    0.000    0.000    0.000 
#
# Total GULP energy -44732.908197 kJ/mol
# GULP energy per Si atom -5591.613525 kJ/mol
# Density = 2.440797 g / cm^3
# Si number density = 24.463653 Si / 1000 Ang^3
#
#
#
# Elastic Constant Matrix: (Units=GPa)
#
#
# Indices 1 2 3 4 5 6 
#
# 1 177.5969 41.2026 22.9399 0.0000 -17.5523 0.0000
# 2 41.2026 192.9516 20.9168 0.0000 -28.9309 0.0000
# 3 22.9399 20.9168 122.1153 0.0000 -12.3378 0.0000
# 4 0.0000 0.0000 0.0000 40.0422 0.0000 -11.6786
# 5 -17.5523 -28.9309 -12.3378 0.0000 18.6319 0.0000
# 6 0.0000 0.0000 0.0000 -11.6786 0.0000 37.7048
#
#
#
# Elastic Compliance Matrix: (Units=1/GPa)
#
#
# Indices 1 2 3 4 5 6 
#
# 1 0.006303 -0.000587 -0.000617 0.000000 0.004618 0.000000
# 2 -0.000587 0.006811 -0.000047 0.000000 0.009993 0.000000
# 3 -0.000617 -0.000047 0.008838 0.000000 0.005198 0.000000
# 4 0.000000 0.000000 0.000000 0.027454 0.000000 0.008503
# 5 0.004618 0.009993 0.005198 0.000000 0.076981 0.000000
# 6 0.000000 0.000000 0.000000 0.008503 0.000000 0.029156
#
#
# Mechanical properties :
#
#
# Convention : Reuss Voigt Hill
#
# Bulk Modulus (GPa) = 51.40985 73.64249 62.52617
# Shear Modulus (GPa) = 30.39011 46.44941 38.41976
#
# Velocity S-wave (km/s) = 3.52839 4.36215 3.96723
# Velocity P-wave (km/s) = 6.13676 7.45247 6.82638
#
# Compressibility (1/GPa) = 0.01945152
#
# Stress axis : x y z
#
# Youngs Moduli (GPa) = 158.65592 146.81559 113.14601
#
# Poissons Ratio (x) = 0.08612 0.06981
# Poissons Ratio (y) = 0.09306 0.00531
# Poissons Ratio (z) = 0.09788 0.00689
#
# Static dielectric constant tensor:
#      x y z
#    x 1.994850 0.000000 -0.015330 
#    y 0.000000 1.977290 0.000000 
#    z -0.015330 0.000000 1.929700 
# 
# From -- ./inp_files/1060.got.cif
#   From: 2010.05.17/outbox.cif.g08.bks.cpg/sg8_1_cif.got.tgz:1060.got - 2010.06.03 19:46:02.
