data_PCOD9133830
_publ_section_title
;
Structure prediction by ZEFSAII (Michael W. Deem and Ramdas Pophale) SiO2 
 PCOD9133830
Probable space group: C C
;
_chemical_formula_sum "Si O2"
_cell_formula_units_Z 32
_cell_length_a 8.472885
_cell_length_b 17.597431
_cell_length_c 8.526989
_cell_angle_alpha 90.000000
_cell_angle_beta 87.529971
_cell_angle_gamma 90.000000
_cell_volume 1270.201426
_symmetry_space_group_name_H-M "C C"
_symmetry_group_IT_number 9
_symmetry_cell_setting 'monoclinic'
loop_
_space_group_symop_operation_xyz
x,y,z
x,-y,1/2+z
1/2+x,1/2+y,z
1/2+x,1/2-y,1/2+z
loop_
_atom_site_type_symbol
_atom_site_label
_atom_site_fract_x
_atom_site_fract_y
_atom_site_fract_z
Si Si1 0.415230 0.489853 0.867060
Si Si2 0.618436 0.184668 0.846026
Si Si3 0.515033 0.337307 0.829684
Si Si4 0.189820 0.716495 0.207564
Si Si5 0.342641 0.990079 0.575577
Si Si6 0.261521 0.118356 0.812669
Si Si7 0.065561 0.573577 0.326438
Si Si8 0.895104 0.892128 0.154279
O O1 0.540954 0.426209 0.803805
O O2 0.239309 0.464965 0.814946
O O3 0.460160 0.574162 0.815461
O O4 0.397485 0.469973 0.051064
O O5 0.642662 0.273480 0.798694
O O6 0.443129 0.150683 0.828663
O O7 0.730222 0.138720 0.724535
O O8 0.654252 0.188972 0.031270
O O9 0.369099 0.309348 0.732741
O O10 0.460502 0.336028 0.016757
O O11 0.173737 0.804224 0.260885
O O12 0.090633 0.663578 0.330175
O O13 0.244153 0.932955 0.470386
O O14 0.451389 0.942665 0.687180
O O15 0.255869 0.058080 0.670107
O O16 0.470956 0.035517 0.468686
#
# Coordination Sequence:
#
# PCOD9133830 Si02
#       8
#     4   4   4   4   4   4   4   4
#     4   9  18  31  54  89 120 145 198 250 303 351
#     4  11  20  38  58  86 126 157 197 253 308 367
#     4   8  22  37  52  90 125 153 198 248 306 366
#     4  10  21  35  56  83 126 158 192 249 310 362
#     4  10  19  33  59  85 115 146 202 249 299 351
#     4  10  21  36  57  89 117 152 200 249 299 362
#     4  10  17  30  53  86 111 151 183 247 303 347
#     4  10  20  32  61  86 120 154 200 251 308 350
#
# _framework density 25.192855000000002
#
# number of rings (size 3 to 8) (size 9 to 14) (size 15 to 20)
#    0.750    1.500    1.250    3.000    3.500    0.000 
#    2.250    0.000    2.750    0.000    0.000    0.000 
#    0.000    0.000    0.000    0.000    0.000    0.000 
#
# Total GULP energy -89236.004155 kJ/mol
# GULP energy per Si atom -5577.250260 kJ/mol
# Density = 2.513551 g / cm^3
# Si number density = 25.192855 Si / 1000 Ang^3
#
#
#
# Elastic Constant Matrix: (Units=GPa)
#
#
# Indices 1 2 3 4 5 6 
#
# 1 70.8253 18.6699 70.8244 0.0000 29.8542 0.0000
# 2 18.6699 123.3700 40.9849 0.0000 -7.2026 0.0000
# 3 70.8244 40.9849 191.0065 0.0000 44.1034 0.0000
# 4 0.0000 0.0000 0.0000 29.3356 0.0000 7.7754
# 5 29.8542 -7.2026 44.1034 0.0000 46.8851 0.0000
# 6 0.0000 0.0000 0.0000 7.7754 0.0000 35.7027
#
#
#
# Elastic Compliance Matrix: (Units=1/GPa)
#
#
# Indices 1 2 3 4 5 6 
#
# 1 0.025816 -0.002317 -0.006640 0.000000 -0.010549 0.000000
# 2 -0.002317 0.009553 -0.002389 0.000000 0.005190 0.000000
# 3 -0.006640 -0.002389 0.009349 0.000000 -0.004934 0.000000
# 4 0.000000 0.000000 0.000000 0.036177 0.000000 -0.007879
# 5 -0.010549 0.005190 -0.004934 0.000000 0.033484 0.000000
# 6 0.000000 0.000000 0.000000 -0.007879 0.000000 0.029725
#
#
# Mechanical properties :
#
#
# Convention : Reuss Voigt Hill
#
# Bulk Modulus (GPa) = 45.39908 71.79556 58.59732
# Shear Modulus (GPa) = 28.71297 39.36618 34.03958
#
# Velocity S-wave (km/s) = 3.37965 3.95725 3.67980
# Velocity P-wave (km/s) = 5.76967 7.03136 6.43153
#
# Compressibility (1/GPa) = 0.02202688
#
# Stress axis : x y z
#
# Youngs Moduli (GPa) = 38.73569 104.67869 106.96069
#
# Poissons Ratio (x) = 0.24253 0.71018
# Poissons Ratio (y) = 0.08975 0.25555
# Poissons Ratio (z) = 0.25719 0.25009
#
# Static dielectric constant tensor:
#      x y z
#    x 2.019210 0.000000 0.001090 
#    y 0.000000 2.055270 0.000000 
#    z 0.001090 0.000000 1.983470 
# 
# From -- ./inp_files/7915.got.cif
#   From: 2010.05.17/outbox.cif.g08.bks.cpg/sg9_4_cif.got.tgz:7915.got - 2010.06.03 20:04:27.
