data_PCOD9133200
_publ_section_title
;
Structure prediction by ZEFSAII (Michael W. Deem and Ramdas Pophale) SiO2 
 PCOD9133200
Probable space group: C M
;
_chemical_formula_sum "Si O2"
_cell_formula_units_Z 28
_cell_length_a 27.392164
_cell_length_b 9.634730
_cell_length_c 7.828731
_cell_angle_alpha 90.000000
_cell_angle_beta 39.528884
_cell_angle_gamma 90.000000
_cell_volume 1315.022680
_symmetry_space_group_name_H-M "C M"
_symmetry_group_IT_number 8
_symmetry_cell_setting 'monoclinic'
loop_
_space_group_symop_operation_xyz
x,y,z
x,-y,z
1/2+x,1/2+y,z
1/2+x,1/2-y,z
loop_
_atom_site_type_symbol
_atom_site_label
_atom_site_fract_x
_atom_site_fract_y
_atom_site_fract_z
Si Si1 0.839610 0.855218 0.507280
Si Si2 0.719139 0.662294 0.249494
Si Si3 0.119870 0.327252 0.793574
Si Si4 0.169927 0.731788 0.023765
Si Si5 0.372812 0.341082 0.809930
Si Si6 0.503409 0.148750 0.583668
Si Si7 0.958594 0.652417 0.094809
O O1 0.876208 0.847445 0.595751
O O2 0.880256 0.735922 0.294376
O O3 0.858820 0.000000 0.369334
O O4 0.749795 0.848153 0.783976
O O5 0.721034 0.500000 0.296502
O O6 0.663343 0.758804 0.515108
O O7 0.691406 0.668171 0.125029
O O8 0.801967 0.737917 0.041716
O O9 0.129921 0.500000 0.775663
O O10 0.149661 0.244070 0.879539
O O11 0.028956 0.299140 0.022046
O O12 0.092209 0.659250 0.295831
O O13 0.359530 0.500000 0.905915
O O14 0.451694 0.274867 0.660209
O O15 0.473447 0.000000 0.597286
O O16 0.495171 0.147061 0.809119
O O17 0.937591 0.500000 0.212731
#
# Coordination Sequence:
#
# PCOD9133200 Si02
#       7
#     4   4   4   4   4   4   4
#     4  10  22  40  63  94 130 171 221 278 333 398
#     4  11  25  45  68 101 141 181 226 285 343 406
#     4  11  23  42  71 101 134 182 231 281 343 408
#     4  11  24  43  70 101 135 179 227 278 338 404
#     4  10  23  42  66  94 131 176 227 278 339 406
#     4  11  22  41  68  97 135 178 227 279 336 405
#     4  10  23  41  64  96 134 177 223 277 336 401
#
# _framework density 21.29241
#
# number of rings (size 3 to 8) (size 9 to 14) (size 15 to 20)
#    0.000    1.429    1.429    3.000    2.000    8.571 
#    0.000    0.000    0.000    0.000    0.000    0.000 
#    0.000    0.000    0.000    0.000    0.000    0.000 
#
# Total GULP energy -78000.735576 kJ/mol
# GULP energy per Si atom -5571.481113 kJ/mol
# Density = 2.124395 g / cm^3
# Si number density = 21.292410 Si / 1000 Ang^3
#
#
#
# Elastic Constant Matrix: (Units=GPa)
#
#
# Indices 1 2 3 4 5 6 
#
# 1 93.6120 27.4334 19.5844 0.0000 -9.4056 0.0000
# 2 27.4334 102.7457 55.3163 0.0000 -20.1573 0.0000
# 3 19.5844 55.3163 104.8833 0.0000 -13.7794 0.0000
# 4 0.0000 0.0000 0.0000 -160.5122 0.0000 22.1563
# 5 -9.4056 -20.1573 -13.7794 0.0000 33.0930 0.0000
# 6 0.0000 0.0000 0.0000 22.1563 0.0000 -5.5398
#
#
#
# Elastic Compliance Matrix: (Units=1/GPa)
#
#
# Indices 1 2 3 4 5 6 
#
# 1 0.011700 -0.002449 -0.000690 0.000000 0.001546 0.000000
# 2 -0.002449 0.015163 -0.006789 0.000000 0.005713 0.000000
# 3 -0.000690 -0.006789 0.013408 0.000000 0.001252 0.000000
# 4 0.000000 0.000000 0.000000 -0.013909 0.000000 -0.055627
# 5 0.001546 0.005713 0.001252 0.000000 0.034658 0.000000
# 6 0.000000 0.000000 0.000000 -0.055627 0.000000 -0.402992
#
#
# Mechanical properties :
#
#
# Convention : Reuss Voigt Hill
#
# Bulk Modulus (GPa) = 48.98439 56.21213 52.59826
# Shear Modulus (GPa) = -15.85738 -13.33133 -14.59436
#
# Velocity S-wave (km/s) = -2.73196 -2.50493 -2.62090
# Velocity P-wave (km/s) = 3.61995 4.25337 3.94938
#
# Compressibility (1/GPa) = 0.02041466
#
# Stress axis : x y z
#
# Youngs Moduli (GPa) = 85.47158 65.95211 74.58104
#
# Poissons Ratio (x) = 0.16153 0.05145
# Poissons Ratio (y) = 0.20933 0.50633
# Poissons Ratio (z) = 0.05896 0.44775
#
# Static dielectric constant tensor:
#      x y z
#    x 1.810330 0.000000 0.016620 
#    y 0.000000 1.784160 0.000000 
#    z 0.016620 0.000000 1.742800 
# 
# From -- ./inp_files/17394.got.cif
#   From: 2010.05.17/outbox.cif.g08.bks.cpg/sg8_9_cif.got.tgz:17394.got - 2010.06.03 19:46:02.
