data_PCOD9133975
_publ_section_title
;
Structure prediction by ZEFSAII (Michael W. Deem and Ramdas Pophale) SiO2 
 PCOD9133975
Probable space group: C C
;
_chemical_formula_sum "Si O2"
_cell_formula_units_Z 32
_cell_length_a 15.787548
_cell_length_b 15.004234
_cell_length_c 7.671210
_cell_angle_alpha 90.000000
_cell_angle_beta 135.812879
_cell_angle_gamma 90.000000
_cell_volume 1266.565388
_symmetry_space_group_name_H-M "C C"
_symmetry_group_IT_number 9
_symmetry_cell_setting 'monoclinic'
loop_
_space_group_symop_operation_xyz
x,y,z
x,-y,1/2+z
1/2+x,1/2+y,z
1/2+x,1/2-y,1/2+z
loop_
_atom_site_type_symbol
_atom_site_label
_atom_site_fract_x
_atom_site_fract_y
_atom_site_fract_z
Si Si1 0.338510 0.900257 0.149870
Si Si2 0.598452 0.228886 0.544680
Si Si3 0.064882 0.908890 0.827945
Si Si4 0.373747 0.894279 0.609039
Si Si5 0.064115 0.375652 0.306895
Si Si6 0.695655 0.965391 0.799789
Si Si7 0.824492 0.877886 0.277715
Si Si8 0.595859 0.615278 0.784098
O O1 0.369805 0.881235 0.395735
O O2 0.423487 0.852773 0.135492
O O3 0.375821 0.001966 0.163086
O O4 0.194490 0.888089 0.927628
O O5 0.455329 0.367979 0.555143
O O6 0.617509 0.206557 0.778187
O O7 0.729295 0.200769 0.663332
O O8 0.554721 0.312106 0.364764
O O9 0.065377 0.016915 0.812568
O O10 0.055557 0.882586 0.019416
O O11 0.491658 0.844097 0.852071
O O12 0.241212 0.869955 0.485134
O O13 0.122129 0.392744 0.581667
O O14 0.103187 0.470737 0.273769
O O15 0.764841 0.038194 0.789333
O O16 0.803091 0.911448 0.051878
#
# Coordination Sequence:
#
# PCOD9133975 Si02
#       8
#     4   4   4   4   4   4   4   4
#     4  10  18  34  68 106 138 187 253 294 359 443
#     4  11  23  41  71 102 151 190 241 316 376 416
#     4  10  22  43  74 104 142 197 251 290 363 458
#     4  10  20  38  69 102 142 192 240 313 356 439
#     4  10  18  32  62 107 144 189 237 306 363 438
#     4   9  18  32  58 104 151 182 244 297 364 435
#     4  10  19  37  68 107 141 194 238 303 368 436
#     4  10  24  47  72 104 147 199 250 299 367 447
#
# _framework density 25.265180999999998
#
# number of rings (size 3 to 8) (size 9 to 14) (size 15 to 20)
#    0.000    2.000    0.000    5.250    0.000    1.000 
#    4.500    2.500   19.250    0.000    0.000    0.000 
#    0.000    0.000    0.000    0.000    0.000    0.000 
#
# Total GULP energy -89425.935473 kJ/mol
# GULP energy per Si atom -5589.120967 kJ/mol
# Density = 2.520768 g / cm^3
# Si number density = 25.265181 Si / 1000 Ang^3
#
#
#
# Elastic Constant Matrix: (Units=GPa)
#
#
# Indices 1 2 3 4 5 6 
#
# 1 84.2437 45.6635 47.9245 0.0000 4.7201 0.0000
# 2 45.6635 107.2292 45.7223 0.0000 -4.3256 0.0000
# 3 47.9245 45.7223 129.3760 0.0000 24.8618 0.0000
# 4 0.0000 0.0000 0.0000 15.8602 0.0000 13.4178
# 5 4.7201 -4.3256 24.8618 0.0000 40.2181 0.0000
# 6 0.0000 0.0000 0.0000 13.4178 0.0000 12.3709
#
#
#
# Elastic Compliance Matrix: (Units=1/GPa)
#
#
# Indices 1 2 3 4 5 6 
#
# 1 0.017414 -0.005466 -0.004554 0.000000 0.000183 0.000000
# 2 -0.005466 0.013314 -0.003494 0.000000 0.004233 0.000000
# 3 -0.004554 -0.003494 0.012052 0.000000 -0.007292 0.000000
# 4 0.000000 0.000000 0.000000 0.765071 0.000000 -0.829811
# 5 0.000183 0.004233 -0.007292 0.000000 0.029806 0.000000
# 6 0.000000 0.000000 0.000000 -0.829811 0.000000 0.980864
#
#
# Mechanical properties :
#
#
# Convention : Reuss Voigt Hill
#
# Bulk Modulus (GPa) = 63.48517 66.60774 65.04645
# Shear Modulus (GPa) = 2.70153 25.79242 14.24698
#
# Velocity S-wave (km/s) = 1.03518 3.19857 2.37723
# Velocity P-wave (km/s) = 5.15857 6.32944 5.77376
#
# Compressibility (1/GPa) = 0.01575171
#
# Stress axis : x y z
#
# Youngs Moduli (GPa) = 57.42607 75.10726 82.97160
#
# Poissons Ratio (x) = 0.41057 0.37784
# Poissons Ratio (y) = 0.31392 0.28990
# Poissons Ratio (z) = 0.26151 0.26242
#
# Static dielectric constant tensor:
#      x y z
#    x 2.057740 0.000000 -0.020800 
#    y 0.000000 2.082660 0.000000 
#    z -0.020800 0.000000 2.050520 
# 
# From -- ./inp_files/10832.got.cif
#   From: 2010.05.17/outbox.cif.g08.bks.cpg/sg9_6_cif.got.tgz:10832.got - 2010.06.03 20:04:27.
