data_PCOD9133742
_publ_section_title
;
Structure prediction by ZEFSAII (Michael W. Deem and Ramdas Pophale) SiO2 
 PCOD9133742
Probable space group: C C
;
_chemical_formula_sum "Si O2"
_cell_formula_units_Z 20
_cell_length_a 6.903435
_cell_length_b 21.731144
_cell_length_c 5.449309
_cell_angle_alpha 90.000000
_cell_angle_beta 100.581337
_cell_angle_gamma 90.000000
_cell_volume 803.601371
_symmetry_space_group_name_H-M "C C"
_symmetry_group_IT_number 9
_symmetry_cell_setting 'monoclinic'
loop_
_space_group_symop_operation_xyz
x,y,z
x,-y,1/2+z
1/2+x,1/2+y,z
1/2+x,1/2-y,1/2+z
loop_
_atom_site_type_symbol
_atom_site_label
_atom_site_fract_x
_atom_site_fract_y
_atom_site_fract_z
Si Si1 0.075150 0.527764 0.137020
Si Si2 0.626367 0.157118 0.381416
Si Si3 0.290751 0.223231 0.060836
Si Si4 0.229515 0.160715 0.542828
Si Si5 0.121796 0.019067 0.507821
O O1 0.129061 0.480471 0.366794
O O2 0.153248 0.591460 0.267186
O O3 0.832007 0.519267 0.071772
O O4 0.789739 0.203726 0.515759
O O5 0.465662 0.150756 0.559898
O O6 0.506608 0.196204 0.151272
O O7 0.202484 0.189208 0.804058
O O8 0.182287 0.202503 0.289854
O O9 0.146583 0.092189 0.502337
O O10 0.019872 0.997534 0.237066
#
# Coordination Sequence:
#
# PCOD9133742 Si02
#       5
#     4   4   4   4   4
#     4  10  17  28  50  75 100 123 164 218 258 284
#     4  10  22  34  53  78 109 133 172 207 258 307
#     4  10  22  32  52  72 110 141 168 204 252 308
#     4  10  20  33  50  76 111 131 169 207 256 306
#     4  10  15  27  47  75 100 122 159 218 262 279
#
# _framework density 24.88796
#
# number of rings (size 3 to 8) (size 9 to 14) (size 15 to 20)
#    1.200    0.800    4.000    3.600    2.800    0.000 
#    0.000    0.000    0.000    0.000    0.000   16.800 
#    0.000    0.000    0.000    0.000    0.000    0.000 
#
# Total GULP energy -55796.459300 kJ/mol
# GULP energy per Si atom -5579.645930 kJ/mol
# Density = 2.483131 g / cm^3
# Si number density = 24.887960 Si / 1000 Ang^3
#
#
#
# Elastic Constant Matrix: (Units=GPa)
#
#
# Indices 1 2 3 4 5 6 
#
# 1 56.7046 -3.3324 23.2402 0.0000 -0.9096 0.0000
# 2 -3.3324 123.1659 10.7643 0.0000 6.8888 0.0000
# 3 23.2402 10.7643 169.6960 0.0000 -10.8890 0.0000
# 4 0.0000 0.0000 0.0000 43.3217 0.0000 10.2298
# 5 -0.9096 6.8888 -10.8890 0.0000 30.9618 0.0000
# 6 0.0000 0.0000 0.0000 10.2298 0.0000 21.0784
#
#
#
# Elastic Compliance Matrix: (Units=1/GPa)
#
#
# Indices 1 2 3 4 5 6 
#
# 1 0.018759 0.000770 -0.002653 0.000000 -0.000554 0.000000
# 2 0.000770 0.008325 -0.000768 0.000000 -0.002100 0.000000
# 3 -0.002653 -0.000768 0.006457 0.000000 0.002364 0.000000
# 4 0.000000 0.000000 0.000000 0.026071 0.000000 -0.012653
# 5 -0.000554 -0.002100 0.002364 0.000000 0.033580 0.000000
# 6 0.000000 0.000000 0.000000 -0.012653 0.000000 0.053582
#
#
# Mechanical properties :
#
#
# Convention : Reuss Voigt Hill
#
# Bulk Modulus (GPa) = 35.41367 45.65675 40.53521
# Shear Modulus (GPa) = 30.96184 40.33202 35.64693
#
# Velocity S-wave (km/s) = 3.53093 4.02996 3.78867
# Velocity P-wave (km/s) = 5.55729 6.32763 5.95493
#
# Compressibility (1/GPa) = 0.02823768
#
# Stress axis : x y z
#
# Youngs Moduli (GPa) = 53.30725 120.12650 154.87778
#
# Poissons Ratio (x) = -0.09255 0.41097
# Poissons Ratio (y) = -0.04107 0.11899
# Poissons Ratio (z) = 0.14145 0.09229
#
# Static dielectric constant tensor:
#      x y z
#    x 2.127450 0.000000 0.015270 
#    y 0.000000 1.959390 0.000000 
#    z 0.015270 0.000000 1.946100 
# 
# From -- ./inp_files/549.got.cif
#   From: 2010.05.17/outbox.cif.g08.bks.cpg/sg9_1_cif.got.tgz:549.got - 2010.06.03 20:04:27.
