data_PCOD9133034
_publ_section_title
;
Structure prediction by ZEFSAII (Michael W. Deem and Ramdas Pophale) SiO2 
 PCOD9133034
Probable space group: C M
;
_chemical_formula_sum "Si O2"
_cell_formula_units_Z 26
_cell_length_a 20.030369
_cell_length_b 7.440090
_cell_length_c 13.097337
_cell_angle_alpha 90.000000
_cell_angle_beta 145.226618
_cell_angle_gamma 90.000000
_cell_volume 1113.212050
_symmetry_space_group_name_H-M "C M"
_symmetry_group_IT_number 8
_symmetry_cell_setting 'monoclinic'
loop_
_space_group_symop_operation_xyz
x,y,z
x,-y,z
1/2+x,1/2+y,z
1/2+x,1/2-y,z
loop_
_atom_site_type_symbol
_atom_site_label
_atom_site_fract_x
_atom_site_fract_y
_atom_site_fract_z
Si Si1 0.320060 0.281284 0.471300
Si Si2 0.761083 0.000000 0.013579
Si Si3 0.454763 0.795136 0.187888
Si Si4 0.837429 0.206603 0.720990
Si Si5 0.085959 0.216915 0.759030
Si Si6 0.569573 0.784172 0.113780
Si Si7 0.128188 0.203032 0.583745
O O1 0.317121 0.500000 0.468701
O O2 0.310281 0.219069 0.575841
O O3 0.448659 0.236547 0.594287
O O4 0.202679 0.220931 0.267402
O O5 0.666982 0.159597 0.930413
O O6 0.853784 0.157404 0.090892
O O7 0.521241 0.740468 0.166876
O O8 0.549306 0.793883 0.398566
O O9 0.410671 0.000000 0.119358
O O10 0.761106 0.298350 0.712068
O O11 0.799416 0.000000 0.675347
O O12 0.974282 0.214477 0.915306
O O13 0.122523 0.277738 0.690225
O O14 0.099777 0.000000 0.789459
O O15 0.568847 0.000000 0.106066
O O16 0.082189 0.000000 0.533999
#
# Coordination Sequence:
#
# PCOD9133034 Si02
#       7
#     4   2   4   4   4   4   4
#     4   9  20  45  66  88 132 178 213 269 339 392
#     4  12  24  42  64 100 122 180 230 262 334 396
#     4  11  23  40  65  99 138 170 217 282 329 390
#     4  11  22  38  67  97 129 172 218 274 334 388
#     4  10  24  45  67  93 137 176 219 276 329 397
#     4  10  21  40  64  97 130 172 216 271 336 395
#     4  11  22  40  65  99 130 175 221 273 335 391
#
# _framework density 23.355837999999999
#
# number of rings (size 3 to 8) (size 9 to 14) (size 15 to 20)
#    0.000    1.538    2.308    2.308    5.385    2.462 
#    6.923    0.000    0.000    0.000    0.000    0.000 
#    0.000    0.000    0.000    0.000    0.000    0.000 
#
# Total GULP energy -72435.633755 kJ/mol
# GULP energy per Si atom -5571.971827 kJ/mol
# Density = 2.330268 g / cm^3
# Si number density = 23.355838 Si / 1000 Ang^3
#
#
#
# Elastic Constant Matrix: (Units=GPa)
#
#
# Indices 1 2 3 4 5 6 
#
# 1 40.7757 2.1554 13.2751 0.0000 26.0851 0.0000
# 2 2.1554 111.0683 27.6978 0.0000 18.9883 0.0000
# 3 13.2751 27.6978 95.0415 0.0000 34.3486 0.0000
# 4 0.0000 0.0000 0.0000 32.0682 0.0000 20.5206
# 5 26.0851 18.9883 34.3486 0.0000 46.3917 0.0000
# 6 0.0000 0.0000 0.0000 20.5206 0.0000 26.8559
#
#
#
# Elastic Compliance Matrix: (Units=1/GPa)
#
#
# Indices 1 2 3 4 5 6 
#
# 1 0.039921 0.002911 0.002893 0.000000 -0.025780 0.000000
# 2 0.002911 0.010150 -0.001736 0.000000 -0.004506 0.000000
# 3 0.002893 -0.001736 0.014957 0.000000 -0.011990 0.000000
# 4 0.000000 0.000000 0.000000 0.061019 0.000000 -0.046624
# 5 -0.025780 -0.004506 -0.011990 0.000000 0.046773 0.000000
# 6 0.000000 0.000000 0.000000 -0.046624 0.000000 0.072861
#
#
# Mechanical properties :
#
#
# Convention : Reuss Voigt Hill
#
# Bulk Modulus (GPa) = 13.66807 37.01578 25.34193
# Shear Modulus (GPa) = 19.08884 34.64699 26.86792
#
# Velocity S-wave (km/s) = 2.86196 3.85572 3.39539
# Velocity P-wave (km/s) = 4.09706 5.97538 5.12304
#
# Compressibility (1/GPa) = 0.07316322
#
# Stress axis : x y z
#
# Youngs Moduli (GPa) = 25.04965 98.51931 66.85871
#
# Poissons Ratio (x) = -0.28682 -0.19339
# Poissons Ratio (y) = -0.07293 0.11608
# Poissons Ratio (z) = -0.07246 0.17105
#
# Static dielectric constant tensor:
#      x y z
#    x 1.871110 0.000000 -0.015690 
#    y 0.000000 1.871730 0.000000 
#    z -0.015690 0.000000 1.917860 
# 
# From -- ./inp_files/21435.got.cif
#   From: 2010.05.17/outbox.cif.g08.bks.cpg/sg8_11_cif.got.tgz:21435.got - 2010.06.03 19:46:02.
