data_PCOD9133766
_publ_section_title
;
Structure prediction by ZEFSAII (Michael W. Deem and Ramdas Pophale) SiO2 
 PCOD9133766
Probable space group: C C
;
_chemical_formula_sum "Si O2"
_cell_formula_units_Z 28
_cell_length_a 9.057143
_cell_length_b 27.875810
_cell_length_c 5.370390
_cell_angle_alpha 90.000000
_cell_angle_beta 90.006775
_cell_angle_gamma 90.000000
_cell_volume 1355.890266
_symmetry_space_group_name_H-M "C C"
_symmetry_group_IT_number 9
_symmetry_cell_setting 'monoclinic'
loop_
_space_group_symop_operation_xyz
x,y,z
x,-y,1/2+z
1/2+x,1/2+y,z
1/2+x,1/2-y,1/2+z
loop_
_atom_site_type_symbol
_atom_site_label
_atom_site_fract_x
_atom_site_fract_y
_atom_site_fract_z
Si Si1 0.585810 0.264215 0.034650
Si Si2 0.178416 0.026377 0.553597
Si Si3 0.736223 0.634528 0.547133
Si Si4 0.423492 0.875848 0.543277
Si Si5 0.784859 0.203953 0.704499
Si Si6 0.219533 0.322775 0.705850
Si Si7 0.508857 0.986806 0.534032
O O1 0.633175 0.319105 0.034931
O O2 0.415543 0.262551 0.105222
O O3 0.673997 0.233180 0.237380
O O4 0.643000 0.235688 0.789914
O O5 0.154994 0.083162 0.573662
O O6 0.125625 0.002455 0.296631
O O7 0.358036 0.018711 0.544902
O O8 0.822527 0.632450 0.285081
O O9 0.845366 0.639337 0.785621
O O10 0.577453 0.849960 0.601864
O O11 0.457929 0.932234 0.524084
O O12 0.760406 0.164854 0.487065
O O13 0.830096 0.179345 0.970638
O O14 0.592214 0.002067 0.287201
#
# Coordination Sequence:
#
# PCOD9133766 Si02
#       7
#     4   4   4   4   4   4   4
#     4  10  26  40  62  85 118 162 199 251 289 361
#     4  10  16  32  46  82 122 144 179 252 294 342
#     4  12  22  31  61  86 122 153 197 236 312 351
#     4  12  21  35  56  90 120 157 191 241 310 349
#     4  10  24  42  60  80 122 152 206 243 297 335
#     4  10  25  38  59  83 116 160 196 251 285 362
#     4  10  16  30  50  80 124 142 182 246 299 342
#
# _framework density 20.650639000000002
#
# number of rings (size 3 to 8) (size 9 to 14) (size 15 to 20)
#    0.857    0.571    5.714    1.714    6.000    0.000 
#    0.000    0.000    0.000    0.000    0.000    6.000 
#    0.000    0.000    0.000    0.000    0.000    0.000 
#
# Total GULP energy -77958.909968 kJ/mol
# GULP energy per Si atom -5568.493569 kJ/mol
# Density = 2.060364 g / cm^3
# Si number density = 20.650639 Si / 1000 Ang^3
#
#
#
# Elastic Constant Matrix: (Units=GPa)
#
#
# Indices 1 2 3 4 5 6 
#
# 1 24.1664 -3.9009 24.6981 0.0000 -11.9412 0.0000
# 2 -3.9009 79.2288 6.8465 0.0000 -2.0708 0.0000
# 3 24.6981 6.8465 177.8680 0.0000 6.6055 0.0000
# 4 0.0000 0.0000 0.0000 19.7864 0.0000 5.7344
# 5 -11.9412 -2.0708 6.6055 0.0000 18.3242 0.0000
# 6 0.0000 0.0000 0.0000 5.7344 0.0000 10.0889
#
#
#
# Elastic Compliance Matrix: (Units=1/GPa)
#
#
# Indices 1 2 3 4 5 6 
#
# 1 0.090469 0.007481 -0.015275 0.000000 0.065307 0.000000
# 2 0.007481 0.013331 -0.001813 0.000000 0.007035 0.000000
# 3 -0.015275 -0.001813 0.008301 0.000000 -0.013152 0.000000
# 4 0.000000 0.000000 0.000000 0.060507 0.000000 -0.034392
# 5 0.065307 0.007035 -0.013152 0.000000 0.102667 0.000000
# 6 0.000000 0.000000 0.000000 -0.034392 0.000000 0.118667
#
#
# Mechanical properties :
#
#
# Convention : Reuss Voigt Hill
#
# Bulk Modulus (GPa) = 10.76589 37.39450 24.08019
# Shear Modulus (GPa) = 11.25825 26.54785 18.90305
#
# Velocity S-wave (km/s) = 2.33743 3.58937 3.02880
# Velocity P-wave (km/s) = 3.53687 5.94354 4.89056
#
# Compressibility (1/GPa) = 0.09288596
#
# Stress axis : x y z
#
# Youngs Moduli (GPa) = 11.05354 75.01545 120.46086
#
# Poissons Ratio (x) = -0.56121 1.84009
# Poissons Ratio (y) = -0.08269 0.21842
# Poissons Ratio (z) = 0.16885 0.13602
#
# Static dielectric constant tensor:
#      x y z
#    x 1.736350 0.000000 0.042980 
#    y 0.000000 1.739340 0.000000 
#    z 0.042980 0.000000 1.872540 
# 
# From -- ./inp_files/1149.got.cif
#   From: 2010.05.17/outbox.cif.g08.bks.cpg/sg9_1_cif.got.tgz:1149.got - 2010.06.03 20:04:27.
