data_PCOD9133018
_publ_section_title
;
Structure prediction by ZEFSAII (Michael W. Deem and Ramdas Pophale) SiO2 
 PCOD9133018
Probable space group: C M
;
_chemical_formula_sum "Si O2"
_cell_formula_units_Z 32
_cell_length_a 7.621440
_cell_length_b 29.161512
_cell_length_c 10.309666
_cell_angle_alpha 90.000000
_cell_angle_beta 39.229163
_cell_angle_gamma 90.000000
_cell_volume 1449.104743
_symmetry_space_group_name_H-M "C M"
_symmetry_group_IT_number 8
_symmetry_cell_setting 'monoclinic'
loop_
_space_group_symop_operation_xyz
x,y,z
x,-y,z
1/2+x,1/2+y,z
1/2+x,1/2-y,z
loop_
_atom_site_type_symbol
_atom_site_label
_atom_site_fract_x
_atom_site_fract_y
_atom_site_fract_z
Si Si1 0.814470 0.392817 0.120440
Si Si2 0.377722 0.553463 0.751032
Si Si3 0.596330 0.700627 0.868466
Si Si4 0.548412 0.301446 0.184217
Si Si5 0.495643 0.158738 0.267201
Si Si6 0.878076 0.609613 0.590072
Si Si7 0.458899 0.235165 0.456811
Si Si8 0.326991 0.551311 0.474569
O O1 0.598705 0.434175 0.240877
O O2 0.843528 0.369462 0.244624
O O3 0.680038 0.351717 0.115183
O O4 0.113246 0.413590 0.920532
O O5 0.332585 0.500000 0.815761
O O6 0.632372 0.575826 0.683479
O O7 0.414479 0.553511 0.574718
O O8 0.649969 0.715880 0.985885
O O9 0.749963 0.654279 0.733255
O O10 0.726150 0.739523 0.699929
O O11 0.274453 0.683593 0.054169
O O12 0.597123 0.275044 0.291433
O O13 0.216531 0.293933 0.366535
O O14 0.533741 0.124297 0.367169
O O15 0.322513 0.200833 0.427822
O O16 0.085893 0.585754 0.570870
O O17 0.234924 0.500000 0.497482
#
# Coordination Sequence:
#
# PCOD9133018 Si02
#       8
#     4   4   4   4   4   4   4   4
#     4  12  22  42  68  98 136 182 230 291 350 420
#     4  11  24  42  67 103 140 183 240 293 357 426
#     4  10  21  41  66  98 134 179 230 289 347 420
#     4  11  24  42  67  98 139 181 238 288 352 428
#     4  10  21  39  68  96 132 175 229 283 348 425
#     4  11  21  43  69 100 137 188 237 290 357 422
#     4  10  23  42  63 100 136 177 233 293 354 414
#     4  11  24  41  63  97 140 181 232 293 353 419
#
# _framework density 22.082601
#
# number of rings (size 3 to 8) (size 9 to 14) (size 15 to 20)
#    0.000    1.250    2.500    4.500    0.000    2.000 
#    0.000    2.500    0.000    0.000    0.000    0.000 
#    0.000    0.000    0.000    0.000    0.000    0.000 
#
# Total GULP energy -89219.272233 kJ/mol
# GULP energy per Si atom -5576.204515 kJ/mol
# Density = 2.203234 g / cm^3
# Si number density = 22.082601 Si / 1000 Ang^3
#
#
#
# Elastic Constant Matrix: (Units=GPa)
#
#
# Indices 1 2 3 4 5 6 
#
# 1 77.1678 9.4628 26.1135 0.0000 -1.9977 0.0000
# 2 9.4628 78.3319 24.1332 0.0000 1.3930 0.0000
# 3 26.1135 24.1332 101.6982 0.0000 8.4070 0.0000
# 4 0.0000 0.0000 0.0000 28.8990 0.0000 -0.8937
# 5 -1.9977 1.3930 8.4070 0.0000 39.8840 0.0000
# 6 0.0000 0.0000 0.0000 -0.8937 0.0000 38.6206
#
#
#
# Elastic Compliance Matrix: (Units=1/GPa)
#
#
# Indices 1 2 3 4 5 6 
#
# 1 0.014310 -0.000631 -0.003649 0.000000 0.001508 0.000000
# 2 -0.000631 0.013803 -0.003125 0.000000 0.000145 0.000000
# 3 -0.003649 -0.003125 0.011722 0.000000 -0.002544 0.000000
# 4 0.000000 0.000000 0.000000 0.034628 0.000000 0.000801
# 5 0.001508 0.000145 -0.002544 0.000000 0.025679 0.000000
# 6 0.000000 0.000000 0.000000 0.000801 0.000000 0.025911
#
#
# Mechanical properties :
#
#
# Convention : Reuss Voigt Hill
#
# Bulk Modulus (GPa) = 39.96298 41.84632 40.90465
# Shear Modulus (GPa) = 33.51052 34.64661 34.07857
#
# Velocity S-wave (km/s) = 3.89975 3.96530 3.93266
# Velocity P-wave (km/s) = 6.19788 6.32106 6.25977
#
# Compressibility (1/GPa) = 0.02502316
#
# Stress axis : x y z
#
# Youngs Moduli (GPa) = 69.88040 72.44934 85.30918
#
# Poissons Ratio (x) = 0.04573 0.31132
# Poissons Ratio (y) = 0.04411 0.26662
# Poissons Ratio (z) = 0.25502 0.22643
#
# Static dielectric constant tensor:
#      x y z
#    x 1.881880 0.000000 0.026920 
#    y 0.000000 1.852350 0.000000 
#    z 0.026920 0.000000 1.815490 
# 
# From -- ./inp_files/19463.got.cif
#   From: 2010.05.17/outbox.cif.g08.bks.cpg/sg8_10_cif.got.tgz:19463.got - 2010.06.03 19:46:02.
