data_PCOD9133308
_publ_section_title
;
Structure prediction by ZEFSAII (Michael W. Deem and Ramdas Pophale) SiO2 
 PCOD9133308
Probable space group: C M
;
_chemical_formula_sum "Si O2"
_cell_formula_units_Z 28
_cell_length_a 13.665458
_cell_length_b 19.260725
_cell_length_c 5.197238
_cell_angle_alpha 90.000000
_cell_angle_beta 106.949131
_cell_angle_gamma 90.000000
_cell_volume 1308.529264
_symmetry_space_group_name_H-M "C M"
_symmetry_group_IT_number 8
_symmetry_cell_setting 'monoclinic'
loop_
_space_group_symop_operation_xyz
x,y,z
x,-y,z
1/2+x,1/2+y,z
1/2+x,1/2-y,z
loop_
_atom_site_type_symbol
_atom_site_label
_atom_site_fract_x
_atom_site_fract_y
_atom_site_fract_z
Si Si1 0.498780 0.875576 0.058140
Si Si2 0.376721 0.920708 0.465084
Si Si3 0.682179 0.321752 0.290188
Si Si4 0.004321 0.077638 0.263821
Si Si5 0.896027 0.874008 0.663514
Si Si6 0.173039 0.670067 0.500435
Si Si7 0.541668 0.252208 0.806047
O O1 0.435189 0.905096 0.245735
O O2 0.615928 0.878365 0.246845
O O3 0.452278 0.909187 0.765859
O O4 0.493857 0.792289 0.005447
O O5 0.282443 0.867690 0.390150
O O6 0.340508 0.000000 0.442197
O O7 0.592692 0.364621 0.364895
O O8 0.702536 0.245143 0.410131
O O9 0.631898 0.303242 0.974011
O O10 0.920021 0.084630 0.422092
O O11 0.048126 0.000000 0.303105
O O12 0.955056 0.092710 0.949001
O O13 0.778681 0.865617 0.653967
O O14 0.948493 0.799197 0.643086
O O15 0.092944 0.694678 0.659871
#
# Coordination Sequence:
#
# PCOD9133308 Si02
#       7
#     4   4   4   4   4   4   4
#     4  11  25  44  66  95 138 178 225 268 334 395
#     4  12  26  45  68 100 140 185 222 269 331 412
#     4  10  24  39  71 104 131 173 220 281 346 388
#     4  11  24  46  65  95 137 178 223 269 322 405
#     4  11  25  40  70 100 131 173 221 273 343 391
#     4  11  23  43  71 102 132 170 220 290 338 387
#     4  10  22  43  69 104 136 165 219 290 344 392
#
# _framework density 21.398071000000002
#
# number of rings (size 3 to 8) (size 9 to 14) (size 15 to 20)
#    0.000    1.143    2.857    2.143    8.000    0.000 
#    0.000    7.143    0.000    0.000    0.000    0.000 
#    0.000    0.000    0.000    0.000    0.000    0.000 
#
# Total GULP energy -78079.845652 kJ/mol
# GULP energy per Si atom -5577.131832 kJ/mol
# Density = 2.134937 g / cm^3
# Si number density = 21.398071 Si / 1000 Ang^3
#
#
#
# Elastic Constant Matrix: (Units=GPa)
#
#
# Indices 1 2 3 4 5 6 
#
# 1 35.0992 9.7835 19.9991 0.0000 -3.5414 0.0000
# 2 9.7835 40.5812 14.6380 0.0000 3.5081 0.0000
# 3 19.9991 14.6380 94.6826 0.0000 -17.3547 0.0000
# 4 0.0000 0.0000 0.0000 -35.6683 0.0000 10.8364
# 5 -3.5414 3.5081 -17.3547 0.0000 29.4681 0.0000
# 6 0.0000 0.0000 0.0000 10.8364 0.0000 6.8957
#
#
#
# Elastic Compliance Matrix: (Units=1/GPa)
#
#
# Indices 1 2 3 4 5 6 
#
# 1 0.033704 -0.006092 -0.005943 0.000000 0.001275 0.000000
# 2 -0.006092 0.028231 -0.004291 0.000000 -0.006620 0.000000
# 3 -0.005943 -0.004291 0.013949 0.000000 0.008011 0.000000
# 4 0.000000 0.000000 0.000000 -0.018976 0.000000 0.029821
# 5 0.001275 -0.006620 0.008011 0.000000 0.039595 0.000000
# 6 0.000000 0.000000 0.000000 0.029821 0.000000 0.098156
#
#
# Mechanical properties :
#
#
# Convention : Reuss Voigt Hill
#
# Bulk Modulus (GPa) = 23.13179 28.80045 25.96612
# Shear Modulus (GPa) = 20.68499 8.53525 14.61012
#
# Velocity S-wave (km/s) = 3.11251 1.99936 2.61584
# Velocity P-wave (km/s) = 4.87347 4.33803 4.61352
#
# Compressibility (1/GPa) = 0.04323055
#
# Stress axis : x y z
#
# Youngs Moduli (GPa) = 29.67010 35.42232 71.69043
#
# Poissons Ratio (x) = 0.21579 0.42609
# Poissons Ratio (y) = 0.18075 0.30764
# Poissons Ratio (z) = 0.17634 0.15200
#
# Static dielectric constant tensor:
#      x y z
#    x 1.781610 0.000000 -0.028480 
#    y 0.000000 1.819440 0.000000 
#    z -0.028480 0.000000 1.825530 
# 
# From -- ./inp_files/2960.got.cif
#   From: 2010.05.17/outbox.cif.g08.bks.cpg/sg8_2_cif.got.tgz:2960.got - 2010.06.03 19:46:02.
