data_PCOD9133328
_publ_section_title
;
Structure prediction by ZEFSAII (Michael W. Deem and Ramdas Pophale) SiO2 
 PCOD9133328
Probable space group: C M
;
_chemical_formula_sum "Si O2"
_cell_formula_units_Z 22
_cell_length_a 11.294978
_cell_length_b 13.236213
_cell_length_c 12.269996
_cell_angle_alpha 90.000000
_cell_angle_beta 146.487377
_cell_angle_gamma 90.000000
_cell_volume 1012.809061
_symmetry_space_group_name_H-M "C M"
_symmetry_group_IT_number 8
_symmetry_cell_setting 'monoclinic'
loop_
_space_group_symop_operation_xyz
x,y,z
x,-y,z
1/2+x,1/2+y,z
1/2+x,1/2-y,z
loop_
_atom_site_type_symbol
_atom_site_label
_atom_site_fract_x
_atom_site_fract_y
_atom_site_fract_z
Si Si1 0.185630 0.295764 0.833520
Si Si2 0.513627 0.176216 0.228165
Si Si3 0.480999 0.389727 0.540970
Si Si4 0.752691 0.000000 0.748548
Si Si5 0.774408 0.500000 0.362677
Si Si6 0.228722 0.158907 0.520694
Si Si7 0.200599 0.000000 0.061034
O O1 0.092354 0.203834 0.688733
O O2 0.246367 0.395779 0.812800
O O3 0.976693 0.326375 0.744666
O O4 0.386193 0.253922 0.053712
O O5 0.613463 0.235852 0.406692
O O6 0.339124 0.095522 0.131949
O O7 0.725858 0.129290 0.336239
O O8 0.517203 0.500000 0.620557
O O9 0.591115 0.391622 0.507994
O O10 0.521793 0.000000 0.514393
O O11 0.959299 0.000000 0.830730
O O12 0.735656 0.594753 0.413431
O O13 0.655697 0.500000 0.157073
#
# Coordination Sequence:
#
# PCOD9133328 Si02
#       7
#     4   4   4   2   2   4   2
#     4  10  25  44  67  98 134 175 225 272 331 392
#     4  11  26  42  64 100 134 176 220 269 338 393
#     4  11  24  45  69  99 133 173 222 277 336 391
#     4  10  24  42  66  94 130 174 226 266 322 392
#     4  10  22  45  66  93 126 176 219 277 321 390
#     4  10  23  43  70  92 129 173 225 274 328 388
#     4  12  26  39  66  95 136 174 219 271 331 398
#
# _framework density 21.721765000000001
#
# number of rings (size 3 to 8) (size 9 to 14) (size 15 to 20)
#    0.000    1.455    1.818    1.091   14.000    1.455 
#    0.000    0.000    0.000    0.000    0.000    0.000 
#    0.000    0.000    0.000    0.000    0.000    0.000 
#
# Total GULP energy -61450.395049 kJ/mol
# GULP energy per Si atom -5586.399550 kJ/mol
# Density = 2.167233 g / cm^3
# Si number density = 21.721765 Si / 1000 Ang^3
#
#
#
# Elastic Constant Matrix: (Units=GPa)
#
#
# Indices 1 2 3 4 5 6 
#
# 1 98.4942 26.5272 41.7741 0.0003 30.4991 0.0001
# 2 26.5272 134.7340 42.4110 0.0003 22.3042 0.0002
# 3 41.7741 42.4110 101.3251 0.0010 34.5416 0.0006
# 4 0.0003 0.0003 0.0010 35.9762 0.0005 5.9168
# 5 30.4991 22.3042 34.5416 0.0005 37.9564 0.0002
# 6 0.0001 0.0002 0.0006 5.9168 0.0002 14.9174
#
#
#
# Elastic Compliance Matrix: (Units=1/GPa)
#
#
# Indices 1 2 3 4 5 6 
#
# 1 0.014080 -0.000512 -0.002662 0.000000 -0.008590 0.000000
# 2 -0.000512 0.008742 -0.002663 0.000000 -0.002302 0.000000
# 3 -0.002662 -0.002663 0.015685 0.000000 -0.010569 0.000000
# 4 0.000000 0.000000 0.000000 0.029736 0.000000 -0.011794
# 5 -0.008590 -0.002302 -0.010569 0.000000 0.044220 0.000000
# 6 0.000000 0.000000 0.000000 -0.011794 0.000000 0.071714
#
#
# Mechanical properties :
#
#
# Convention : Reuss Voigt Hill
#
# Bulk Modulus (GPa) = 37.26950 61.77534 49.52242
# Shear Modulus (GPa) = 24.41463 32.69273 28.55368
#
# Velocity S-wave (km/s) = 3.35620 3.88373 3.62956
# Velocity P-wave (km/s) = 5.67571 6.97225 6.35712
#
# Compressibility (1/GPa) = 0.02683159
#
# Stress axis : x y z
#
# Youngs Moduli (GPa) = 71.02364 114.38655 63.75668
#
# Poissons Ratio (x) = 0.05858 0.16973
# Poissons Ratio (y) = 0.03637 0.16980
# Poissons Ratio (z) = 0.18907 0.30465
#
# Static dielectric constant tensor:
#      x y z
#    x 1.762000 0.000000 0.007090 
#    y 0.000000 1.852110 0.000000 
#    z 0.007090 0.000000 1.766900 
# 
# From -- ./inp_files/25981.got.cif
#   From: 2010.05.17/outbox.cif.g08.bks.cpg/sg8_13_cif.got.tgz:25981.got - 2010.06.03 19:46:02.
