data_PCOD9133460
_publ_section_title
;
Structure prediction by ZEFSAII (Michael W. Deem and Ramdas Pophale) SiO2 
 PCOD9133460
Probable space group: C M
;
_chemical_formula_sum "Si O2"
_cell_formula_units_Z 26
_cell_length_a 14.218768
_cell_length_b 15.849064
_cell_length_c 4.769036
_cell_angle_alpha 90.000000
_cell_angle_beta 61.719463
_cell_angle_gamma 90.000000
_cell_volume 946.441513
_symmetry_space_group_name_H-M "C M"
_symmetry_group_IT_number 8
_symmetry_cell_setting 'monoclinic'
loop_
_space_group_symop_operation_xyz
x,y,z
x,-y,z
1/2+x,1/2+y,z
1/2+x,1/2-y,z
loop_
_atom_site_type_symbol
_atom_site_label
_atom_site_fract_x
_atom_site_fract_y
_atom_site_fract_z
Si Si1 0.095700 0.090696 0.061400
Si Si2 0.258942 0.388054 0.714394
Si Si3 0.030953 0.691549 0.535957
Si Si4 0.463308 0.628131 0.760723
Si Si5 0.928923 0.600722 0.153215
Si Si6 0.703379 0.000000 0.256737
Si Si7 0.229276 0.785674 0.495575
O O1 0.064230 0.101403 0.426709
O O2 0.147297 0.000000 0.947133
O O3 0.985421 0.095918 0.039593
O O4 0.162381 0.162615 0.821169
O O5 0.362707 0.411582 0.751823
O O6 0.275511 0.291178 0.611815
O O7 0.174507 0.425856 0.057965
O O8 0.237107 0.429789 0.447947
O O9 0.960547 0.770982 0.753706
O O10 0.147357 0.735837 0.403306
O O11 0.980905 0.660939 0.316866
O O12 0.918006 0.500000 0.230812
O O13 0.814403 0.646912 0.256261
O O14 0.006936 0.613954 0.778174
#
# Coordination Sequence:
#
# PCOD9133460 Si02
#       7
#     4   4   4   4   4   2   4
#     4  11  25  42  69 112 146 183 244 315 370 445
#     4  11  24  44  69 102 148 193 241 304 383 452
#     4  11  26  50  74 114 150 204 258 323 382 468
#     4  11  23  41  71 100 144 194 237 298 385 449
#     4  12  27  52  82 117 157 208 264 326 391 466
#     4  10  26  40  62 106 136 188 242 304 360 454
#     4  11  27  49  81 109 154 211 257 318 388 477
#
# _framework density 27.471323000000002
#
# number of rings (size 3 to 8) (size 9 to 14) (size 15 to 20)
#    0.000    0.923    1.538    4.154    8.615    7.385 
#    8.308    4.615    0.000    0.000    0.000    0.000 
#    0.000    0.000    0.000    0.000    0.000    0.000 
#
# Total GULP energy -72511.438357 kJ/mol
# GULP energy per Si atom -5577.802951 kJ/mol
# Density = 2.740880 g / cm^3
# Si number density = 27.471323 Si / 1000 Ang^3
#
#
#
# Elastic Constant Matrix: (Units=GPa)
#
#
# Indices 1 2 3 4 5 6 
#
# 1 93.7042 40.8682 35.8995 0.0000 0.4774 0.0000
# 2 40.8682 194.8037 0.7158 0.0000 -6.8244 0.0000
# 3 35.8995 0.7158 109.1563 0.0000 24.5254 0.0000
# 4 0.0000 0.0000 0.0000 114.2112 0.0000 -54.0227
# 5 0.4774 -6.8244 24.5254 0.0000 58.0957 0.0000
# 6 0.0000 0.0000 0.0000 -54.0227 0.0000 86.2529
#
#
#
# Elastic Compliance Matrix: (Units=1/GPa)
#
#
# Indices 1 2 3 4 5 6 
#
# 1 0.013754 -0.002811 -0.004867 0.000000 0.001611 0.000000
# 2 -0.002811 0.005733 0.000807 0.000000 0.000356 0.000000
# 3 -0.004867 0.000807 0.011850 0.000000 -0.004868 0.000000
# 4 0.000000 0.000000 0.000000 0.012442 0.000000 0.007793
# 5 0.001611 0.000356 -0.004868 0.000000 0.019297 0.000000
# 6 0.000000 0.000000 0.000000 0.007793 0.000000 0.016475
#
#
# Mechanical properties :
#
#
# Convention : Reuss Voigt Hill
#
# Bulk Modulus (GPa) = 56.83563 61.40348 59.11955
# Shear Modulus (GPa) = 50.42462 73.05733 61.74098
#
# Velocity S-wave (km/s) = 4.28896 5.16254 4.74589
# Velocity P-wave (km/s) = 6.72763 7.61157 7.18321
#
# Compressibility (1/GPa) = 0.01759460
#
# Stress axis : x y z
#
# Youngs Moduli (GPa) = 72.70360 174.43946 84.38575
#
# Poissons Ratio (x) = 0.49039 0.41072
# Poissons Ratio (y) = 0.20439 -0.06810
# Poissons Ratio (z) = 0.35386 -0.14078
#
# Static dielectric constant tensor:
#      x y z
#    x 2.239410 0.000000 -0.140250 
#    y 0.000000 2.156190 0.000000 
#    z -0.140250 0.000000 2.198200 
# 
# From -- ./inp_files/4031.got.cif
#   From: 2010.05.17/outbox.cif.g08.bks.cpg/sg8_3_cif.got.tgz:4031.got - 2010.06.03 19:46:02.
