data_PCOD9133610
_publ_section_title
;
Structure prediction by ZEFSAII (Michael W. Deem and Ramdas Pophale) SiO2 
 PCOD9133610
Probable space group: C M
;
_chemical_formula_sum "Si O2"
_cell_formula_units_Z 20
_cell_length_a 4.741215
_cell_length_b 25.850727
_cell_length_c 5.685341
_cell_angle_alpha 90.000000
_cell_angle_beta 82.103496
_cell_angle_gamma 90.000000
_cell_volume 690.209980
_symmetry_space_group_name_H-M "C M"
_symmetry_group_IT_number 8
_symmetry_cell_setting 'monoclinic'
loop_
_space_group_symop_operation_xyz
x,y,z
x,-y,z
1/2+x,1/2+y,z
1/2+x,1/2-y,z
loop_
_atom_site_type_symbol
_atom_site_label
_atom_site_fract_x
_atom_site_fract_y
_atom_site_fract_z
Si Si1 0.383450 0.249894 0.475460
Si Si2 0.444547 0.000000 0.144686
Si Si3 0.991087 0.000000 0.823857
Si Si4 0.138514 0.912664 0.474980
Si Si5 0.352064 0.663844 0.149063
Si Si6 0.918148 0.664286 0.803898
O O1 0.633176 0.292685 0.474054
O O2 0.202957 0.283468 0.276260
O O3 0.564603 0.217040 0.676218
O O4 0.331540 0.049803 0.295166
O O5 0.779104 0.000000 0.066869
O O6 0.304665 0.000000 0.901379
O O7 0.959060 0.949681 0.667245
O O8 0.340042 0.879003 0.624386
O O9 0.936194 0.880306 0.322779
O O10 0.633880 0.679567 0.975271
O O11 0.133601 0.644842 0.977147
#
# Coordination Sequence:
#
# PCOD9133610 Si02
#       6
#     4   2   2   4   4   4
#     4  12  26  52  74 118 164 210 276 328 388 482
#     4  11  28  55  87 120 159 215 262 343 425 486
#     4  11  28  55  87 120 159 215 262 343 425 486
#     4  11  28  56  82 124 166 204 286 335 404 502
#     4  12  29  51  80 117 164 219 269 332 405 470
#     4  12  29  51  80 117 164 219 269 332 405 470
#
# _framework density 28.976686999999998
#
# number of rings (size 3 to 8) (size 9 to 14) (size 15 to 20)
#    0.000    0.400    2.000    3.600    0.000   17.600 
#    0.000    3.000    0.000    0.000    0.000    0.000 
#    0.000    0.000    0.000    0.000    0.000    0.000 
#
# Total GULP energy -55957.538865 kJ/mol
# GULP energy per Si atom -5595.753886 kJ/mol
# Density = 2.891074 g / cm^3
# Si number density = 28.976687 Si / 1000 Ang^3
#
#
#
# Elastic Constant Matrix: (Units=GPa)
#
#
# Indices 1 2 3 4 5 6 
#
# 1 212.3122 46.8070 50.0803 0.0000 22.3077 0.0000
# 2 46.8070 215.5230 124.3426 0.0000 26.8828 0.0000
# 3 50.0803 124.3426 197.1901 0.0000 16.5208 0.0000
# 4 0.0000 0.0000 0.0000 85.3473 0.0000 0.9577
# 5 22.3077 26.8828 16.5208 0.0000 77.9845 0.0000
# 6 0.0000 0.0000 0.0000 0.9577 0.0000 26.5439
#
#
#
# Elastic Compliance Matrix: (Units=1/GPa)
#
#
# Indices 1 2 3 4 5 6 
#
# 1 0.005145 -0.000437 -0.000937 0.000000 -0.001123 0.000000
# 2 -0.000437 0.007523 -0.004506 0.000000 -0.001514 0.000000
# 3 -0.000937 -0.004506 0.008143 0.000000 0.000097 0.000000
# 4 0.000000 0.000000 0.000000 0.011722 0.000000 -0.000423
# 5 -0.001123 -0.001514 0.000097 0.000000 0.013646 0.000000
# 6 0.000000 0.000000 0.000000 -0.000423 0.000000 0.037689
#
#
# Mechanical properties :
#
#
# Convention : Reuss Voigt Hill
#
# Bulk Modulus (GPa) = 110.48595 118.60944 114.54769
# Shear Modulus (GPa) = 50.68674 64.89481 57.79078
#
# Velocity S-wave (km/s) = 4.18691 4.73752 4.47070
# Velocity P-wave (km/s) = 7.84765 8.42301 8.14042
#
# Compressibility (1/GPa) = 0.00905092
#
# Stress axis : x y z
#
# Youngs Moduli (GPa) = 194.34899 132.91909 122.80813
#
# Poissons Ratio (x) = 0.05803 0.11512
# Poissons Ratio (y) = 0.08485 0.55341
# Poissons Ratio (z) = 0.18218 0.59897
#
# Static dielectric constant tensor:
#      x y z
#    x 0.528580 0.000000 0.953330 
#    y 0.000000 1.897180 0.000000 
#    z 0.953330 0.000000 2.408100 
# 
# From -- ./inp_files/553.got.cif
#   From: 2010.05.17/outbox.cif.g08.bks.cpg/sg8_1_cif.got.tgz:553.got - 2010.06.03 19:46:02.
