data_PCOD9133482
_publ_section_title
;
Structure prediction by ZEFSAII (Michael W. Deem and Ramdas Pophale) SiO2 
 PCOD9133482
Probable space group: C M
;
_chemical_formula_sum "Si O2"
_cell_formula_units_Z 32
_cell_length_a 20.925221
_cell_length_b 8.779847
_cell_length_c 25.720639
_cell_angle_alpha 90.000000
_cell_angle_beta 157.346150
_cell_angle_gamma 90.000000
_cell_volume 1820.049236
_symmetry_space_group_name_H-M "C M"
_symmetry_group_IT_number 8
_symmetry_cell_setting 'monoclinic'
loop_
_space_group_symop_operation_xyz
x,y,z
x,-y,z
1/2+x,1/2+y,z
1/2+x,1/2-y,z
loop_
_atom_site_type_symbol
_atom_site_label
_atom_site_fract_x
_atom_site_fract_y
_atom_site_fract_z
Si Si1 0.864720 0.684899 0.414120
Si Si2 0.385958 0.182082 0.703222
Si Si3 0.120668 0.682971 0.691482
Si Si4 0.030637 0.683840 0.429827
Si Si5 0.187344 0.181988 0.122179
Si Si6 0.023519 0.182789 0.111940
Si Si7 0.422511 0.818484 0.851998
Si Si8 0.165448 0.818965 0.839164
O O1 0.862972 0.500000 0.411845
O O2 0.675165 0.732944 0.262856
O O3 0.959570 0.731675 0.537204
O O4 0.970068 0.731119 0.442272
O O5 0.206293 0.241594 0.550327
O O6 0.408058 0.223420 0.780625
O O7 0.531258 0.253830 0.778288
O O8 0.392213 0.000000 0.703660
O O9 0.122458 0.500000 0.697451
O O10 0.279968 0.734769 0.777891
O O11 0.127454 0.755244 0.753188
O O12 0.046485 0.500000 0.441707
O O13 0.878379 0.723149 0.277263
O O14 0.087114 0.211995 0.100716
O O15 0.179125 0.000000 0.107151
O O16 0.096736 0.269068 0.008014
O O17 0.002429 0.000000 0.100683
O O18 0.850433 0.263170 0.991899
O O19 0.400558 0.000000 0.840402
O O20 0.159445 0.000000 0.834109
#
# Coordination Sequence:
#
# PCOD9133482 Si02
#       8
#     4   4   4   4   4   4   4   4
#     4   8  16  31  57  87 112 142 183 227 277 332
#     4  11  24  40  57  81 114 154 191 231 283 336
#     4  11  20  35  60  86 113 148 187 229 281 338
#     4   9  17  34  57  85 114 145 187 230 276 332
#     4   9  18  32  57  86 114 148 184 228 280 332
#     4   9  17  34  57  83 113 147 185 227 276 335
#     4  11  22  35  55  86 117 144 188 239 277 324
#     4  12  25  39  56  82 115 152 191 235 280 333
#
# _framework density 17.581942000000002
#
# number of rings (size 3 to 8) (size 9 to 14) (size 15 to 20)
#    0.000    2.000    2.500    3.750    0.000    2.000 
#    0.000    4.375    0.000    1.500    0.000    0.000 
#    0.000    0.000    0.000    0.000    0.000    0.000 
#
# Total GULP energy -89313.232324 kJ/mol
# GULP energy per Si atom -5582.077020 kJ/mol
# Density = 1.754192 g / cm^3
# Si number density = 17.581942 Si / 1000 Ang^3
#
#
#
# Elastic Constant Matrix: (Units=GPa)
#
#
# Indices 1 2 3 4 5 6 
#
# 1 86.8531 42.4093 65.9956 0.0008 7.0961 0.0000
# 2 42.4093 53.6721 50.2690 0.0008 5.1018 0.0002
# 3 65.9956 50.2690 163.0937 0.0007 3.9659 0.0001
# 4 0.0008 0.0008 0.0007 25.9966 -0.0004 4.3274
# 5 7.0961 5.1018 3.9659 -0.0004 24.5259 -0.0001
# 6 0.0000 0.0002 0.0001 4.3274 -0.0001 23.2303
#
#
#
# Elastic Compliance Matrix: (Units=1/GPa)
#
#
# Indices 1 2 3 4 5 6 
#
# 1 0.021298 -0.012018 -0.004844 0.000000 -0.002879 0.000000
# 2 -0.012018 0.033404 -0.005370 -0.000001 -0.002603 0.000000
# 3 -0.004844 -0.005370 0.009724 0.000000 0.000946 0.000000
# 4 0.000000 -0.000001 0.000000 0.039698 0.000001 -0.007395
# 5 -0.002879 -0.002603 0.000946 0.000001 0.041995 0.000000
# 6 0.000000 0.000000 0.000000 -0.007395 0.000000 0.044425
#
#
# Mechanical properties :
#
#
# Convention : Reuss Voigt Hill
#
# Bulk Modulus (GPa) = 50.09375 68.99631 59.54503
# Shear Modulus (GPa) = 20.69021 24.41357 22.55189
#
# Velocity S-wave (km/s) = 3.43416 3.73038 3.58533
# Velocity P-wave (km/s) = 6.65417 7.60804 7.14704
#
# Compressibility (1/GPa) = 0.01996257
#
# Stress axis : x y z
#
# Youngs Moduli (GPa) = 46.95300 29.93615 102.84362
#
# Poissons Ratio (x) = 0.35978 0.49816
# Poissons Ratio (y) = 0.56429 0.55222
# Poissons Ratio (z) = 0.22743 0.16074
#
# Static dielectric constant tensor:
#      x y z
#    x 1.568280 0.000000 -0.015810 
#    y 0.000000 1.587270 0.000000 
#    z -0.015810 0.000000 1.612440 
# 
# From -- ./inp_files/33040.got.cif
#   From: 2010.05.17/outbox.cif.g08.bks.cpg/sg8_17_cif.got.tgz:33040.got - 2010.06.03 19:46:02.
