data_PCOD9133453
_publ_section_title
;
Structure prediction by ZEFSAII (Michael W. Deem and Ramdas Pophale) SiO2 
 PCOD9133453
Probable space group: C M
;
_chemical_formula_sum "Si O2"
_cell_formula_units_Z 30
_cell_length_a 15.441263
_cell_length_b 16.005276
_cell_length_c 5.295210
_cell_angle_alpha 90.000000
_cell_angle_beta 118.383415
_cell_angle_gamma 90.000000
_cell_volume 1151.347248
_symmetry_space_group_name_H-M "C M"
_symmetry_group_IT_number 8
_symmetry_cell_setting 'monoclinic'
loop_
_space_group_symop_operation_xyz
x,y,z
x,-y,z
1/2+x,1/2+y,z
1/2+x,1/2-y,z
loop_
_atom_site_type_symbol
_atom_site_label
_atom_site_fract_x
_atom_site_fract_y
_atom_site_fract_z
Si Si1 0.333960 0.590179 0.136990
Si Si2 0.007689 0.000000 0.105832
Si Si3 0.857099 0.366927 0.724507
Si Si4 0.498919 0.235928 0.416348
Si Si5 0.294006 0.148315 0.138828
Si Si6 0.277345 0.676164 0.546622
Si Si7 0.571784 0.901170 0.242389
Si Si8 0.577387 0.325036 0.013870
O O1 0.282350 0.500000 0.086118
O O2 0.382778 0.783774 0.221385
O O3 0.340840 0.626586 0.426551
O O4 0.283896 0.639657 0.838560
O O5 0.941991 0.070096 0.176614
O O6 0.059755 0.076098 0.020695
O O7 0.831074 0.406071 0.422355
O O8 0.816560 0.270955 0.627242
O O9 0.792704 0.397521 0.870201
O O10 0.971283 0.381370 0.948064
O O11 0.087485 0.500000 0.275422
O O12 0.546800 0.143410 0.474956
O O13 0.519847 0.282020 0.704204
O O14 0.189795 0.184712 0.073810
O O15 0.169545 0.648318 0.295442
O O16 0.547253 0.718296 0.239315
#
# Coordination Sequence:
#
# PCOD9133453 Si02
#       8
#     4   2   4   4   4   4   4   4
#     4  10  25  42  70 112 160 204 266 338 419 471
#     4  10  30  48  78 122 166 210 276 356 406 500
#     4  11  26  46  75 114 154 213 269 342 408 496
#     4  11  27  47  78 114 163 215 273 344 409 502
#     4  11  24  46  76 111 149 213 273 324 406 489
#     4  12  24  46  77 109 165 217 269 337 420 505
#     4  11  26  50  80 123 166 217 288 346 416 500
#     4  12  26  52  80 117 163 218 276 337 421 501
#
# _framework density 26.056432000000001
#
# number of rings (size 3 to 8) (size 9 to 14) (size 15 to 20)
#    0.400    0.533    0.000    6.000    7.467    4.800 
#    6.000    7.333    0.000    0.000    0.000    0.000 
#    0.000    0.000    0.000    0.000    0.000    0.000 
#
# Total GULP energy -83537.470781 kJ/mol
# GULP energy per Si atom -5569.164719 kJ/mol
# Density = 2.599713 g / cm^3
# Si number density = 26.056432 Si / 1000 Ang^3
#
#
#
# Elastic Constant Matrix: (Units=GPa)
#
#
# Indices 1 2 3 4 5 6 
#
# 1 185.5027 49.2258 53.8001 0.0000 6.4110 0.0000
# 2 49.2258 183.0055 43.2827 0.0000 2.5042 0.0000
# 3 53.8001 43.2827 131.9905 0.0000 -30.0321 0.0000
# 4 0.0000 0.0000 0.0000 5.2873 0.0000 5.4562
# 5 6.4110 2.5042 -30.0321 0.0000 55.6098 0.0000
# 6 0.0000 0.0000 0.0000 5.4562 0.0000 8.8576
#
#
#
# Elastic Compliance Matrix: (Units=1/GPa)
#
#
# Indices 1 2 3 4 5 6 
#
# 1 0.006575 -0.001066 -0.002841 0.000000 -0.002244 0.000000
# 2 -0.001066 0.006208 -0.001866 0.000000 -0.001165 0.000000
# 3 -0.002841 -0.001866 0.010763 0.000000 0.006224 0.000000
# 4 0.000000 0.000000 0.000000 0.519127 0.000000 -0.319781
# 5 -0.002244 -0.001165 0.006224 0.000000 0.021655 0.000000
# 6 0.000000 0.000000 0.000000 -0.319781 0.000000 0.309882
#
#
# Mechanical properties :
#
#
# Convention : Reuss Voigt Hill
#
# Bulk Modulus (GPa) = 83.33971 88.12399 85.73185
# Shear Modulus (GPa) = 5.61951 37.56362 21.59156
#
# Velocity S-wave (km/s) = 1.47015 3.80099 2.88174
# Velocity P-wave (km/s) = 5.91063 7.29090 6.63675
#
# Compressibility (1/GPa) = 0.01199908
#
# Stress axis : x y z
#
# Youngs Moduli (GPa) = 152.08644 161.07219 92.91455
#
# Poissons Ratio (x) = 0.17169 0.26399
# Poissons Ratio (y) = 0.16212 0.17341
# Poissons Ratio (z) = 0.43211 0.30062
#
# Static dielectric constant tensor:
#      x y z
#    x 2.114780 0.000000 0.025710 
#    y 0.000000 2.143600 0.000000 
#    z 0.025710 0.000000 2.146230 
# 
# From -- ./inp_files/5068.got.cif
#   From: 2010.05.17/outbox.cif.g08.bks.cpg/sg8_3_cif.got.tgz:5068.got - 2010.06.03 19:46:02.
