data_PCOD9133325
_publ_section_title
;
Structure prediction by ZEFSAII (Michael W. Deem and Ramdas Pophale) SiO2 
 PCOD9133325
Probable space group: C M
;
_chemical_formula_sum "Si O2"
_cell_formula_units_Z 26
_cell_length_a 8.799381
_cell_length_b 18.323049
_cell_length_c 7.328799
_cell_angle_alpha 90.000000
_cell_angle_beta 87.445427
_cell_angle_gamma 90.000000
_cell_volume 1180.458896
_symmetry_space_group_name_H-M "C M"
_symmetry_group_IT_number 8
_symmetry_cell_setting 'monoclinic'
loop_
_space_group_symop_operation_xyz
x,y,z
x,-y,z
1/2+x,1/2+y,z
1/2+x,1/2-y,z
loop_
_atom_site_type_symbol
_atom_site_label
_atom_site_fract_x
_atom_site_fract_y
_atom_site_fract_z
Si Si1 0.419500 0.292462 0.513710
Si Si2 0.234205 0.000000 0.393645
Si Si3 0.361520 0.152282 0.943053
Si Si4 0.794830 0.079247 0.405521
Si Si5 0.201918 0.000000 0.954997
Si Si6 0.954524 0.631179 0.354152
Si Si7 0.636966 0.245595 0.770506
Si Si8 0.450276 0.500000 0.681440
O O1 0.401722 0.352173 0.355758
O O2 0.442992 0.211192 0.438872
O O3 0.554175 0.305824 0.648630
O O4 0.263067 0.289025 0.633719
O O5 0.333891 0.928202 0.429564
O O6 0.088013 0.000000 0.528370
O O7 0.196757 0.000000 0.177524
O O8 0.507816 0.187500 0.833408
O O9 0.227003 0.212128 0.924791
O O10 0.293554 0.073316 0.890601
O O11 0.417558 0.141380 0.144486
O O12 0.622110 0.099535 0.378355
O O13 0.841324 0.065349 0.616763
O O14 0.823051 0.000000 0.316118
O O15 0.034915 0.000000 0.869105
#
# Coordination Sequence:
#
# PCOD9133325 Si02
#       8
#     4   2   4   4   2   4   4   2
#     4  11  22  39  65  93 126 170 217 270 323 395
#     4  10  23  41  67 103 131 174 224 276 322 408
#     4  10  24  43  65  96 133 174 216 276 328 397
#     4  10  23  41  64  94 128 166 220 278 324 394
#     4  10  22  44  70 100 132 175 226 266 336 400
#     4  11  23  42  68  93 135 176 219 267 341 392
#     4  10  23  41  60  96 132 165 220 271 317 401
#     4  10  23  39  71  91 135 173 214 282 334 380
#
# _framework density 22.025331000000001
#
# number of rings (size 3 to 8) (size 9 to 14) (size 15 to 20)
#    0.462    1.231    2.308    0.923    8.615    0.000 
#    4.154    1.538    0.000    0.000    0.000    0.000 
#    0.000    0.000    0.000    0.000    0.000    0.000 
#
# Total GULP energy -72485.675088 kJ/mol
# GULP energy per Si atom -5575.821161 kJ/mol
# Density = 2.197520 g / cm^3
# Si number density = 22.025331 Si / 1000 Ang^3
#
#
#
# Elastic Constant Matrix: (Units=GPa)
#
#
# Indices 1 2 3 4 5 6 
#
# 1 96.7112 37.0211 33.9784 0.0000 37.3493 0.0000
# 2 37.0211 134.2777 22.2723 0.0000 11.1982 0.0000
# 3 33.9784 22.2723 78.0765 0.0000 31.3127 0.0000
# 4 0.0000 0.0000 0.0000 21.0503 0.0000 12.0651
# 5 37.3493 11.1982 31.3127 0.0000 39.7310 0.0000
# 6 0.0000 0.0000 0.0000 12.0651 0.0000 38.1149
#
#
#
# Elastic Compliance Matrix: (Units=1/GPa)
#
#
# Indices 1 2 3 4 5 6 
#
# 1 0.017799 -0.003532 -0.000625 0.000000 -0.015244 0.000000
# 2 -0.003532 0.008530 -0.001847 0.000000 0.002372 0.000000
# 3 -0.000625 -0.001847 0.019246 0.000000 -0.014060 0.000000
# 4 0.000000 0.000000 0.000000 0.058035 0.000000 -0.018371
# 5 -0.015244 0.002372 -0.014060 0.000000 0.049911 0.000000
# 6 0.000000 0.000000 0.000000 -0.018371 0.000000 0.032052
#
#
# Mechanical properties :
#
#
# Convention : Reuss Voigt Hill
#
# Bulk Modulus (GPa) = 29.79283 55.06767 42.43025
# Shear Modulus (GPa) = 23.94990 34.16547 29.05768
#
# Velocity S-wave (km/s) = 3.30112 3.94279 3.63614
# Velocity P-wave (km/s) = 5.29961 6.76636 6.07740
#
# Compressibility (1/GPa) = 0.03356512
#
# Stress axis : x y z
#
# Youngs Moduli (GPa) = 56.18338 117.23720 51.96018
#
# Poissons Ratio (x) = 0.41412 0.03246
# Poissons Ratio (y) = 0.19846 0.09599
# Poissons Ratio (z) = 0.03510 0.21659
#
# Static dielectric constant tensor:
#      x y z
#    x 1.800220 0.000000 0.027830 
#    y 0.000000 1.982240 0.000000 
#    z 0.027830 0.000000 1.834670 
# 
# From -- ./inp_files/8314.got.cif
#   From: 2010.05.17/outbox.cif.g08.bks.cpg/sg8_5_cif.got.tgz:8314.got - 2010.06.03 19:46:02.
