data_PCOD9133753
_publ_section_title
;
Structure prediction by ZEFSAII (Michael W. Deem and Ramdas Pophale) SiO2 
 PCOD9133753
Probable space group: C C
;
_chemical_formula_sum "Si O2"
_cell_formula_units_Z 32
_cell_length_a 7.078024
_cell_length_b 32.352264
_cell_length_c 5.341974
_cell_angle_alpha 90.000000
_cell_angle_beta 78.525707
_cell_angle_gamma 90.000000
_cell_volume 1198.811178
_symmetry_space_group_name_H-M "C C"
_symmetry_group_IT_number 9
_symmetry_cell_setting 'monoclinic'
loop_
_space_group_symop_operation_xyz
x,y,z
x,-y,1/2+z
1/2+x,1/2+y,z
1/2+x,1/2-y,1/2+z
loop_
_atom_site_type_symbol
_atom_site_label
_atom_site_fract_x
_atom_site_fract_y
_atom_site_fract_z
Si Si1 0.510480 0.263508 0.840620
Si Si2 0.594184 0.391135 0.079927
Si Si3 0.051670 0.379005 0.897833
Si Si4 0.533678 0.102742 0.906266
Si Si5 0.090693 0.716476 0.348409
Si Si6 0.149717 0.153438 0.066513
Si Si7 0.448819 0.515560 0.692760
Si Si8 0.880678 0.516682 0.072812
O O1 0.302092 0.283671 0.919836
O O2 0.471109 0.233875 0.613484
O O3 0.641591 0.299856 0.679363
O O4 0.569745 0.241314 0.087734
O O5 0.561220 0.357943 0.316247
O O6 0.505939 0.436184 0.160438
O O7 0.831160 0.395109 0.994048
O O8 0.553171 0.373190 0.814317
O O9 0.149265 0.398279 0.631457
O O10 0.039310 0.330969 0.842594
O O11 0.153026 0.388433 0.130442
O O12 0.422994 0.059925 0.933072
O O13 0.369089 0.137837 0.971652
O O14 0.345621 0.497894 0.474616
O O15 0.650801 0.490159 0.654300
O O16 0.950107 0.485436 0.839262
#
# Coordination Sequence:
#
# PCOD9133753 Si02
#       8
#     4   4   4   4   4   4   4   4
#     4  12  28  45  68  94 125 162 213 269 332 384
#     4  10  19  31  56  82 117 164 198 251 316 358
#     4  10  20  35  54  79 116 149 206 241 307 375
#     4  10  19  31  56  82 117 164 198 251 316 358
#     4  12  28  45  68  94 125 162 213 269 332 384
#     4  10  20  35  54  79 116 149 206 241 307 375
#     4  10  16  25  42  75 121 153 192 245 301 359
#     4  10  16  25  42  75 121 153 192 245 301 359
#
# _framework density 26.693111999999999
#
# number of rings (size 3 to 8) (size 9 to 14) (size 15 to 20)
#    0.000    1.500    0.000    9.750   10.500    0.000 
#    0.000    0.000    0.000    0.000    0.000    0.000 
#    0.000   74.000    0.000    0.000    0.000    0.000 
#
# Total GULP energy -89425.297447 kJ/mol
# GULP energy per Si atom -5589.081090 kJ/mol
# Density = 2.663236 g / cm^3
# Si number density = 26.693112 Si / 1000 Ang^3
#
#
#
# Elastic Constant Matrix: (Units=GPa)
#
#
# Indices 1 2 3 4 5 6 
#
# 1 76.2901 18.5370 27.5093 0.0000 2.9507 0.0000
# 2 18.5370 120.8247 24.5316 0.0000 14.0478 0.0000
# 3 27.5093 24.5316 219.5794 0.0000 43.7279 0.0000
# 4 0.0000 0.0000 0.0000 43.1573 0.0000 10.5257
# 5 2.9507 14.0478 43.7279 0.0000 38.0893 0.0000
# 6 0.0000 0.0000 0.0000 10.5257 0.0000 9.2692
#
#
#
# Elastic Compliance Matrix: (Units=1/GPa)
#
#
# Indices 1 2 3 4 5 6 
#
# 1 0.014218 -0.002005 -0.001925 0.000000 0.001849 0.000000
# 2 -0.002005 0.008961 -0.000159 0.000000 -0.002967 0.000000
# 3 -0.001925 -0.000159 0.006186 0.000000 -0.006894 0.000000
# 4 0.000000 0.000000 0.000000 0.032046 0.000000 -0.036390
# 5 0.001849 -0.002967 -0.006894 0.000000 0.035120 0.000000
# 6 0.000000 0.000000 0.000000 -0.036390 0.000000 0.149208
#
#
# Mechanical properties :
#
#
# Convention : Reuss Voigt Hill
#
# Bulk Modulus (GPa) = 47.20129 61.98333 54.59231
# Shear Modulus (GPa) = 19.15854 41.17758 30.16806
#
# Velocity S-wave (km/s) = 2.68196 3.93189 3.36546
# Velocity P-wave (km/s) = 5.22608 6.62451 5.96641
#
# Compressibility (1/GPa) = 0.02118586
#
# Stress axis : x y z
#
# Youngs Moduli (GPa) = 70.33401 111.59001 161.65455
#
# Poissons Ratio (x) = 0.22377 0.31124
# Poissons Ratio (y) = 0.14104 0.02571
# Poissons Ratio (z) = 0.13542 0.01775
#
# Static dielectric constant tensor:
#      x y z
#    x 2.160990 0.000000 0.052660 
#    y 0.000000 2.170080 0.000000 
#    z 0.052660 0.000000 2.269140 
# 
# From -- ./inp_files/1254.got.cif
#   From: 2010.05.17/outbox.cif.g08.bks.cpg/sg9_1_cif.got.tgz:1254.got - 2010.06.03 20:04:27.
