data_PCOD9133305
_publ_section_title
;
Structure prediction by ZEFSAII (Michael W. Deem and Ramdas Pophale) SiO2 
 PCOD9133305
Probable space group: C M
;
_chemical_formula_sum "Si O2"
_cell_formula_units_Z 24
_cell_length_a 14.004604
_cell_length_b 13.822175
_cell_length_c 7.193789
_cell_angle_alpha 90.000000
_cell_angle_beta 49.121801
_cell_angle_gamma 90.000000
_cell_volume 1052.896336
_symmetry_space_group_name_H-M "C M"
_symmetry_group_IT_number 8
_symmetry_cell_setting 'monoclinic'
loop_
_space_group_symop_operation_xyz
x,y,z
x,-y,z
1/2+x,1/2+y,z
1/2+x,1/2-y,z
loop_
_atom_site_type_symbol
_atom_site_label
_atom_site_fract_x
_atom_site_fract_y
_atom_site_fract_z
Si Si1 0.245000 0.896472 0.965030
Si Si2 0.309418 0.311938 0.807607
Si Si3 0.021698 0.199083 0.798751
Si Si4 0.456976 0.388269 0.286200
Si Si5 0.275266 0.106142 0.480660
Si Si6 0.052360 0.387138 0.972535
O O1 0.298991 0.790565 0.929456
O O2 0.260571 0.897582 0.721309
O O3 0.298484 0.000000 0.964736
O O4 0.096792 0.892873 0.195950
O O5 0.422490 0.353017 0.788206
O O6 0.366550 0.321540 0.526516
O O7 0.169411 0.354161 0.955415
O O8 0.163533 0.173292 0.554552
O O9 0.037326 0.314130 0.818978
O O10 0.983409 0.155180 0.049041
O O11 0.409714 0.500000 0.337761
O O12 0.419274 0.124363 0.247090
O O13 0.243796 0.000000 0.447606
O O14 0.070431 0.500000 0.901816
#
# Coordination Sequence:
#
# PCOD9133305 Si02
#       6
#     4   4   4   4   4   4
#     4   9  19  38  65  92 127 177 222 265 328 402
#     4  12  24  41  70 103 136 174 227 286 338 393
#     4  11  24  42  71  99 133 182 230 271 334 413
#     4  10  22  43  67  95 133 173 222 279 333 401
#     4   9  19  41  67  90 130 178 219 269 335 403
#     4  11  24  43  66 101 143 176 220 288 344 392
#
# _framework density 22.794267999999999
#
# number of rings (size 3 to 8) (size 9 to 14) (size 15 to 20)
#    0.000    1.667    3.333    3.000    0.000    4.667 
#    0.000    3.333    0.000    4.000    0.000    0.000 
#    0.000    0.000    0.000    0.000    0.000    0.000 
#
# Total GULP energy -66853.519178 kJ/mol
# GULP energy per Si atom -5571.126598 kJ/mol
# Density = 2.274239 g / cm^3
# Si number density = 22.794268 Si / 1000 Ang^3
#
#
#
# Elastic Constant Matrix: (Units=GPa)
#
#
# Indices 1 2 3 4 5 6 
#
# 1 108.1265 19.9832 33.2884 0.0000 -18.7486 0.0000
# 2 19.9832 112.1559 37.5919 0.0000 -25.0416 0.0000
# 3 33.2884 37.5919 119.5871 0.0000 -31.1966 0.0000
# 4 0.0000 0.0000 0.0000 15.4046 0.0000 -13.3432
# 5 -18.7486 -25.0416 -31.1966 0.0000 34.9651 0.0000
# 6 0.0000 0.0000 0.0000 -13.3432 0.0000 -6.9527
#
#
#
# Elastic Compliance Matrix: (Units=1/GPa)
#
#
# Indices 1 2 3 4 5 6 
#
# 1 0.010534 -0.000437 -0.001829 0.000000 0.003704 0.000000
# 2 -0.000437 0.010925 -0.001737 0.000000 0.006040 0.000000
# 3 -0.001829 -0.001737 0.011518 0.000000 0.008052 0.000000
# 4 0.000000 0.000000 0.000000 0.024383 0.000000 -0.046794
# 5 0.003704 0.006040 0.008052 0.000000 0.042096 0.000000
# 6 0.000000 0.000000 0.000000 -0.046794 0.000000 -0.054024
#
#
# Mechanical properties :
#
#
# Convention : Reuss Voigt Hill
#
# Bulk Modulus (GPa) = 40.04527 57.95518 49.00022
# Shear Modulus (GPa) = 80.95702 25.28381 53.12041
#
# Velocity S-wave (km/s) = 5.96603 3.33411 4.83269
# Velocity P-wave (km/s) = 8.06624 6.34840 7.25832
#
# Compressibility (1/GPa) = 0.02497174
#
# Stress axis : x y z
#
# Youngs Moduli (GPa) = 94.92657 91.53488 86.82389
#
# Poissons Ratio (x) = 0.04000 0.15878
# Poissons Ratio (y) = 0.04148 0.15080
# Poissons Ratio (z) = 0.17360 0.15898
#
# Static dielectric constant tensor:
#      x y z
#    x 1.892810 0.000000 -0.010680 
#    y 0.000000 2.008730 0.000000 
#    z -0.010680 0.000000 1.813830 
# 
# From -- ./inp_files/13192.got.cif
#   From: 2010.05.17/outbox.cif.g08.bks.cpg/sg8_7_cif.got.tgz:13192.got - 2010.06.03 19:46:02.
