data_PCOD9133698
_publ_section_title
;
Structure prediction by ZEFSAII (Michael W. Deem and Ramdas Pophale) SiO2 
 PCOD9133698
Probable space group: C M
;
_chemical_formula_sum "Si O2"
_cell_formula_units_Z 16
_cell_length_a 18.000000
_cell_length_b 15.000000
_cell_length_c 12.000000
_cell_angle_alpha 90.000000
_cell_angle_beta 30.000000
_cell_angle_gamma 90.000000
_cell_volume 1620.000000
_symmetry_space_group_name_H-M "C M"
_symmetry_group_IT_number 8
_symmetry_cell_setting 'monoclinic'
loop_
_space_group_symop_operation_xyz
x,y,z
x,-y,z
1/2+x,1/2+y,z
1/2+x,1/2-y,z
loop_
_atom_site_type_symbol
_atom_site_label
_atom_site_fract_x
_atom_site_fract_y
_atom_site_fract_z
Si Si1 0.082560 0.105998 0.679690
Si Si2 0.319964 0.157633 0.715362
Si Si3 0.408738 0.898569 0.362867
Si Si4 0.902769 0.222688 0.085877
Si Si5 0.623766 0.174198 0.918198
Si Si6 0.065291 0.772804 0.486445
Si Si7 0.998211 0.902883 0.155689
Si Si8 0.923107 0.904434 0.505672
O O1 0.249789 0.119034 0.510514
O O2 0.054861 0.157286 0.600765
O O3 0.057124 0.000000 0.704979
O O4 0.976945 0.156126 0.902798
O O5 0.395944 0.110510 0.511842
O O6 0.232209 0.241188 0.775646
O O7 0.441246 0.193935 0.645259
O O8 0.176328 0.104045 0.942561
O O9 0.448371 0.000000 0.282176
O O10 0.530454 0.834184 0.152425
O O11 0.733930 0.239812 0.272495
O O12 0.925012 0.171330 0.173590
O O13 0.004028 0.311501 0.974929
O O14 0.748165 0.099043 0.759211
O O15 0.020485 0.827865 0.435141
O O16 0.929386 0.896494 0.365722
O O17 0.969892 0.000000 0.140917
O O18 0.985169 0.000000 0.460339
#
# Coordination Sequence:
#
# PCOD9133698 Si02
#       8
#     4   4   4   4   4   4   4   4
#     4  11  23  41  63  90 126 165 206 254 315 374
#     4  10  23  37  63  89 124 159 208 248 307 366
#     4  11  21  39  66  93 121 161 214 261 299 360
#     4  11  23  37  64  92 123 158 207 256 311 363
#     4  10  21  36  63  90 119 156 210 255 297 359
#     4  11  25  38  60  92 129 161 196 254 317 371
#     4  10  21  41  66  86 119 162 207 251 300 371
#     4  10  23  41  61  88 125 162 202 249 310 376
#
# _framework density 9.8765429999999999
#
# number of rings (size 3 to 8) (size 9 to 14) (size 15 to 20)
#    0.000    1.500    3.750    1.500   10.500    1.000 
#    0.000    5.000    0.000    3.000    0.000    0.000 
#    0.000    0.000    0.000    0.000    0.000    0.000 
#
# Total GULP energy -89115.038157 kJ/mol
# GULP energy per Si atom -5569.689885 kJ/mol
# Density = 0.985406 g / cm^3
# Si number density = 9.876543 Si / 1000 Ang^3
#
#
#
# Elastic Constant Matrix: (Units=GPa)
#
#
# Indices 1 2 3 4 5 6 
#
# 1 64.4306 19.8728 25.3005 0.0000 -28.0278 0.0001
# 2 19.8728 54.6425 12.9818 -0.0001 -7.9847 0.0001
# 3 25.3005 12.9818 84.3623 -0.0001 -16.6258 0.0001
# 4 0.0000 -0.0001 -0.0001 17.4853 0.0000 2.8194
# 5 -28.0278 -7.9847 -16.6258 0.0000 32.1733 0.0000
# 6 0.0001 0.0001 0.0001 2.8194 0.0000 25.1457
#
#
#
# Elastic Compliance Matrix: (Units=1/GPa)
#
#
# Indices 1 2 3 4 5 6 
#
# 1 0.027902 -0.006298 -0.003247 0.000000 0.021066 0.000000
# 2 -0.006298 0.020792 -0.001531 0.000000 -0.001118 0.000000
# 3 -0.003247 -0.001531 0.013840 0.000000 0.003943 0.000000
# 4 0.000000 0.000000 0.000000 0.058244 0.000000 -0.006530
# 5 0.021066 -0.001118 0.003943 0.000000 0.051194 0.000000
# 6 0.000000 0.000000 0.000000 -0.006530 0.000000 0.040500
#
#
# Mechanical properties :
#
#
# Convention : Reuss Voigt Hill
#
# Bulk Modulus (GPa) = 24.76364 35.52728 30.14546
# Shear Modulus (GPa) = 20.15444 24.64621 22.40033
#
# Velocity S-wave (km/s) = 3.19771 3.53613 3.37117
# Velocity P-wave (km/s) = 5.11836 5.89042 5.51791
#
# Compressibility (1/GPa) = 0.04038178
#
# Stress axis : x y z
#
# Youngs Moduli (GPa) = 35.83982 48.09621 72.25335
#
# Poissons Ratio (x) = 0.30290 0.23462
# Poissons Ratio (y) = 0.22571 0.11061
# Poissons Ratio (z) = 0.11638 0.07363
#
# Static dielectric constant tensor:
#      x y z
#    x 1.704250 0.000000 0.013020 
#    y 0.000000 1.804540 0.000000 
#    z 0.013020 0.000000 1.708780 
# 
# From -- ./inp_files/23300.got.cif
#   From: 2010.05.17/outbox.ucp.g08.bks.cvg/sg8_12_cif.got.tgz:23300.got - 2010.06.11 13:00:03.
