data_PCOD9133874
_publ_section_title
;
Structure prediction by ZEFSAII (Michael W. Deem and Ramdas Pophale) SiO2 
 PCOD9133874
Probable space group: C C
;
_chemical_formula_sum "Si O2"
_cell_formula_units_Z 28
_cell_length_a 13.617934
_cell_length_b 14.694264
_cell_length_c 8.883961
_cell_angle_alpha 90.000000
_cell_angle_beta 38.361058
_cell_angle_gamma 90.000000
_cell_volume 1103.285640
_symmetry_space_group_name_H-M "C C"
_symmetry_group_IT_number 9
_symmetry_cell_setting 'monoclinic'
loop_
_space_group_symop_operation_xyz
x,y,z
x,-y,1/2+z
1/2+x,1/2+y,z
1/2+x,1/2-y,1/2+z
loop_
_atom_site_type_symbol
_atom_site_label
_atom_site_fract_x
_atom_site_fract_y
_atom_site_fract_z
Si Si1 0.901810 0.505321 0.802720
Si Si2 0.156606 0.301476 0.769581
Si Si3 0.553536 0.610374 0.511633
Si Si4 0.616762 0.083825 0.785545
Si Si5 0.399216 0.544814 0.993726
Si Si6 0.803670 0.376059 0.184793
Si Si7 0.763372 0.236499 0.795920
O O1 0.772116 0.557429 0.860874
O O2 0.002138 0.575381 0.782874
O O3 0.023365 0.458384 0.540968
O O4 0.828298 0.433447 0.004447
O O5 0.286190 0.371580 0.683004
O O6 0.181113 0.203906 0.814220
O O7 0.190679 0.288269 0.548772
O O8 0.979316 0.335790 0.999875
O O9 0.499416 0.521337 0.482556
O O10 0.726524 0.657620 0.305352
O O11 0.437506 0.693514 0.600353
O O12 0.507799 0.588706 0.737088
O O13 0.683156 0.178960 0.759759
O O14 0.767691 0.019745 0.574088
#
# Coordination Sequence:
#
# PCOD9133874 Si02
#       7
#     4   4   4   4   4   4   4
#     4  10  19  37  61  91 116 163 200 250 285 378
#     4  11  20  38  63  93 116 164 200 251 287 379
#     4  10  22  39  65  87 120 156 205 246 298 352
#     4  10  17  34  62  89 113 155 209 241 283 358
#     4  10  19  34  62  88 117 158 201 240 294 363
#     4  11  23  39  68  88 124 154 214 242 309 343
#     4  10  20  37  63  90 116 158 205 246 294 359
#
# _framework density 25.378741999999999
#
# number of rings (size 3 to 8) (size 9 to 14) (size 15 to 20)
#    0.000    1.714    4.286    3.429    0.000    0.000 
#    2.571    2.857    0.000    0.000    0.000    0.000 
#    0.000    0.000    0.000    0.000    0.000    0.000 
#
# Total GULP energy -78430.791476 kJ/mol
# GULP energy per Si atom -5602.199391 kJ/mol
# Density = 2.532098 g / cm^3
# Si number density = 25.378742 Si / 1000 Ang^3
#
#
#
# Elastic Constant Matrix: (Units=GPa)
#
#
# Indices 1 2 3 4 5 6 
#
# 1 128.4547 58.0958 44.0671 0.0000 -5.4429 0.0000
# 2 58.0958 132.0997 30.1132 0.0000 -8.2013 0.0000
# 3 44.0671 30.1132 56.2454 0.0000 -9.7316 0.0000
# 4 0.0000 0.0000 0.0000 33.8308 0.0000 -10.9089
# 5 -5.4429 -8.2013 -9.7316 0.0000 27.4349 0.0000
# 6 0.0000 0.0000 0.0000 -10.9089 0.0000 67.6120
#
#
#
# Elastic Compliance Matrix: (Units=1/GPa)
#
#
# Indices 1 2 3 4 5 6 
#
# 1 0.012005 -0.003609 -0.007722 0.000000 -0.001436 0.000000
# 2 -0.003609 0.009733 -0.002135 0.000000 0.001436 0.000000
# 3 -0.007722 -0.002135 0.026205 0.000000 0.007125 0.000000
# 4 0.000000 0.000000 0.000000 0.031181 0.000000 0.005031
# 5 -0.001436 0.001436 0.007125 0.000000 0.039122 0.000000
# 6 0.000000 0.000000 0.000000 0.005031 0.000000 0.015602
#
#
# Mechanical properties :
#
#
# Convention : Reuss Voigt Hill
#
# Bulk Modulus (GPa) = 47.59309 64.59466 56.09388
# Shear Modulus (GPa) = 29.80014 38.07712 33.93863
#
# Velocity S-wave (km/s) = 3.43040 3.87764 3.66086
# Velocity P-wave (km/s) = 5.87231 6.74950 6.32613
#
# Compressibility (1/GPa) = 0.02101145
#
# Stress axis : x y z
#
# Youngs Moduli (GPa) = 83.29723 102.74398 38.15993
#
# Poissons Ratio (x) = 0.37075 0.29468
# Poissons Ratio (y) = 0.30058 0.08148
# Poissons Ratio (z) = 0.64325 0.21938
#
# Static dielectric constant tensor:
#      x y z
#    x 1.991350 0.000000 -0.030300 
#    y 0.000000 2.010900 0.000000 
#    z -0.030300 0.000000 1.949960 
# 
# From -- ./inp_files/7632.got.cif
#   From: 2010.05.17/outbox.cif.g08.bks.cpg/sg9_4_cif.got.tgz:7632.got - 2010.06.03 20:04:27.
