data_PCOD9133392
_publ_section_title
;
Structure prediction by ZEFSAII (Michael W. Deem and Ramdas Pophale) SiO2 
 PCOD9133392
Probable space group: C M
;
_chemical_formula_sum "Si O2"
_cell_formula_units_Z 20
_cell_length_a 7.721898
_cell_length_b 21.193514
_cell_length_c 5.128380
_cell_angle_alpha 90.000000
_cell_angle_beta 93.702073
_cell_angle_gamma 90.000000
_cell_volume 837.529346
_symmetry_space_group_name_H-M "C M"
_symmetry_group_IT_number 8
_symmetry_cell_setting 'monoclinic'
loop_
_space_group_symop_operation_xyz
x,y,z
x,-y,z
1/2+x,1/2+y,z
1/2+x,1/2-y,z
loop_
_atom_site_type_symbol
_atom_site_label
_atom_site_fract_x
_atom_site_fract_y
_atom_site_fract_z
Si Si1 0.376200 0.067398 0.591380
Si Si2 0.238731 0.618526 0.607481
Si Si3 0.247998 0.172893 0.196171
Si Si4 0.056609 0.068303 0.922918
Si Si5 0.633635 0.811671 0.086098
O O1 0.248570 0.063506 0.821353
O O2 0.320463 0.131252 0.441012
O O3 0.351001 0.000000 0.442352
O O4 0.577938 0.074071 0.671754
O O5 0.418324 0.584340 0.685669
O O6 0.206525 0.639067 0.307568
O O7 0.217703 0.676290 0.811404
O O8 0.925171 0.680209 0.043789
O O9 0.177078 0.243408 0.209636
O O10 0.084113 0.130474 0.094780
O O11 0.010792 0.000000 0.037284
#
# Coordination Sequence:
#
# PCOD9133392 Si02
#       5
#     4   4   4   4   4
#     4  10  23  44  66  96 135 178 223 276 331 395
#     4  11  25  46  68 103 131 178 220 280 329 400
#     4  11  24  43  67  98 136 177 223 278 330 399
#     4  11  24  42  69  98 133 179 223 274 331 397
#     4  11  26  43  72  97 139 174 223 276 337 389
#
# _framework density 23.879763000000001
#
# number of rings (size 3 to 8) (size 9 to 14) (size 15 to 20)
#    0.000    1.200    2.000    2.400    8.400    1.600 
#    0.000    2.000    0.000    0.000    0.000    0.000 
#    0.000    0.000    0.000    0.000    0.000    0.000 
#
# Total GULP energy -55805.160199 kJ/mol
# GULP energy per Si atom -5580.516020 kJ/mol
# Density = 2.382541 g / cm^3
# Si number density = 23.879763 Si / 1000 Ang^3
#
#
#
# Elastic Constant Matrix: (Units=GPa)
#
#
# Indices 1 2 3 4 5 6 
#
# 1 121.2626 19.2693 4.8180 0.0000 19.3245 0.0000
# 2 19.2693 116.1011 -8.3492 0.0000 8.7824 0.0000
# 3 4.8180 -8.3492 40.9851 0.0000 5.8290 0.0000
# 4 0.0000 0.0000 0.0000 24.7336 0.0000 3.0863
# 5 19.3245 8.7824 5.8290 0.0000 36.2767 0.0000
# 6 0.0000 0.0000 0.0000 3.0863 0.0000 9.5001
#
#
#
# Elastic Compliance Matrix: (Units=1/GPa)
#
#
# Indices 1 2 3 4 5 6 
#
# 1 0.009185 -0.001235 -0.000694 0.000000 -0.004482 0.000000
# 2 -0.001235 0.009127 0.002277 0.000000 -0.001917 0.000000
# 3 -0.000694 0.002277 0.025554 0.000000 -0.004288 0.000000
# 4 0.000000 0.000000 0.000000 0.042139 0.000000 -0.013690
# 5 -0.004482 -0.001917 -0.004288 0.000000 0.031107 0.000000
# 6 0.000000 0.000000 0.000000 -0.013690 0.000000 0.109709
#
#
# Mechanical properties :
#
#
# Convention : Reuss Voigt Hill
#
# Bulk Modulus (GPa) = 22.44049 34.42500 28.43274
# Shear Modulus (GPa) = 20.74869 31.60946 26.17908
#
# Velocity S-wave (km/s) = 2.95088 3.64221 3.31461
# Velocity P-wave (km/s) = 4.58562 5.66876 5.15571
#
# Compressibility (1/GPa) = 0.04456231
#
# Stress axis : x y z
#
# Youngs Moduli (GPa) = 108.87672 109.56494 39.13218
#
# Poissons Ratio (x) = 0.13534 0.02715
# Poissons Ratio (y) = 0.13449 -0.08911
# Poissons Ratio (z) = 0.07555 -0.24950
#
# Static dielectric constant tensor:
#      x y z
#    x 1.908950 0.000000 -0.010850 
#    y 0.000000 1.978740 0.000000 
#    z -0.010850 0.000000 1.934350 
# 
# From -- ./inp_files/1411.got.cif
#   From: 2010.05.17/outbox.cif.g08.bks.cpg/sg8_1_cif.got.tgz:1411.got - 2010.06.03 19:46:02.
