data_PCOD9133500
_publ_section_title
;
Structure prediction by ZEFSAII (Michael W. Deem and Ramdas Pophale) SiO2 
 PCOD9133500
Probable space group: C M
;
_chemical_formula_sum "Si O2"
_cell_formula_units_Z 32
_cell_length_a 13.509179
_cell_length_b 18.255814
_cell_length_c 11.090984
_cell_angle_alpha 90.000000
_cell_angle_beta 34.815298
_cell_angle_gamma 90.000000
_cell_volume 1561.655471
_symmetry_space_group_name_H-M "C M"
_symmetry_group_IT_number 8
_symmetry_cell_setting 'monoclinic'
loop_
_space_group_symop_operation_xyz
x,y,z
x,-y,z
1/2+x,1/2+y,z
1/2+x,1/2-y,z
loop_
_atom_site_type_symbol
_atom_site_label
_atom_site_fract_x
_atom_site_fract_y
_atom_site_fract_z
Si Si1 0.691150 0.912682 0.158700
Si Si2 0.400952 0.190860 0.544435
Si Si3 0.535511 0.340409 0.794837
Si Si4 0.035503 0.840409 0.303155
Si Si5 0.672266 0.588264 0.412236
Si Si6 0.079875 0.411571 0.004626
Si Si7 0.691151 0.912682 0.628003
Si Si8 0.900951 0.309139 0.822674
O O1 0.537881 0.873806 0.383858
O O2 0.667622 0.887981 0.041583
O O3 0.676468 0.000000 0.178895
O O4 0.879883 0.885886 0.009808
O O5 0.209816 0.166201 0.697143
O O6 0.462174 0.259789 0.404223
O O7 0.403876 0.212598 0.680631
O O8 0.587066 0.379329 0.617452
O O9 0.462182 0.259787 0.840436
O O10 0.087061 0.879334 0.377424
O O11 0.879880 0.885884 0.399427
O O12 0.209810 0.833795 0.052241
O O13 0.656581 0.500000 0.427927
O O14 0.876746 0.608414 0.207753
O O15 0.087446 0.500000 0.997055
O O16 0.167629 0.387980 0.792169
O O17 0.537873 0.873809 0.709397
O O18 0.676477 0.000000 0.637167
#
# Coordination Sequence:
#
# PCOD9133500 Si02
#       8
#     4   4   4   4   4   4   4   4
#     4  11  24  43  69 102 138 182 229 279 337 399
#     4  12  27  45  68 102 138 180 224 275 341 413
#     4  12  24  44  70 100 138 179 227 282 338 402
#     4  12  24  44  70 100 138 179 227 282 338 402
#     4  11  21  39  73 108 134 169 227 291 339 388
#     4   9  19  37  67 102 135 169 219 283 334 384
#     4  11  24  43  69 102 138 182 229 279 337 399
#     4  12  27  45  68 102 138 180 224 275 341 413
#
# _framework density 20.491074999999999
#
# number of rings (size 3 to 8) (size 9 to 14) (size 15 to 20)
#    0.000    0.750    6.250    1.500    0.000    3.500 
#    2.250    0.000    0.000    0.000    0.000    0.000 
#    0.000    0.000    0.000    0.000    0.000    0.000 
#
# Total GULP energy -89536.953646 kJ/mol
# GULP energy per Si atom -5596.059603 kJ/mol
# Density = 2.044444 g / cm^3
# Si number density = 20.491075 Si / 1000 Ang^3
#
#
#
# Elastic Constant Matrix: (Units=GPa)
#
#
# Indices 1 2 3 4 5 6 
#
# 1 28.6341 -1.4745 17.2301 -0.0031 -18.5588 0.0056
# 2 -1.4745 89.6210 13.7024 -0.0060 -18.0037 0.0048
# 3 17.2301 13.7024 76.1699 -0.0122 -37.8502 0.0085
# 4 -0.0031 -0.0060 -0.0122 32.2821 0.0046 -8.3633
# 5 -18.5588 -18.0037 -37.8502 0.0046 36.4055 -0.0027
# 6 0.0056 0.0048 0.0085 -8.3633 -0.0027 25.2307
#
#
#
# Elastic Compliance Matrix: (Units=1/GPa)
#
#
# Indices 1 2 3 4 5 6 
#
# 1 0.056935 0.007778 0.004253 0.000000 0.037293 -0.000011
# 2 0.007778 0.013557 0.002283 0.000001 0.013043 -0.000003
# 3 0.004253 0.002283 0.027710 0.000005 0.032107 -0.000006
# 4 0.000000 0.000001 0.000005 0.033887 0.000003 0.011233
# 5 0.037293 0.013043 0.032107 0.000003 0.086311 -0.000011
# 6 -0.000011 -0.000003 -0.000006 0.011233 -0.000011 0.043358
#
#
# Mechanical properties :
#
#
# Convention : Reuss Voigt Hill
#
# Bulk Modulus (GPa) = 7.88444 28.14902 18.01673
# Shear Modulus (GPa) = 18.15492 29.78147 23.96820
#
# Velocity S-wave (km/s) = 2.97979 3.81647 3.42378
# Velocity P-wave (km/s) = 3.96169 5.76087 4.94381
#
# Compressibility (1/GPa) = 0.12683203
#
# Stress axis : x y z
#
# Youngs Moduli (GPa) = 17.56377 73.76132 36.08748
#
# Poissons Ratio (x) = -0.57372 -0.15349
# Poissons Ratio (y) = -0.13661 -0.08240
# Poissons Ratio (z) = -0.07470 -0.16841
#
# Static dielectric constant tensor:
#      x y z
#    x 1.720570 0.000000 -0.002440 
#    y 0.000000 1.707760 0.000000 
#    z -0.002440 0.000000 1.722630 
# 
# From -- ./inp_files/22410.got.cif
#   From: 2010.05.17/outbox.cif.g08.bks.cpg/sg8_12_cif.got.tgz:22410.got - 2010.06.03 19:46:02.
