data_PCOD9133385
_publ_section_title
;
Structure prediction by ZEFSAII (Michael W. Deem and Ramdas Pophale) SiO2 
 PCOD9133385
Probable space group: C M
;
_chemical_formula_sum "Si O2"
_cell_formula_units_Z 18
_cell_length_a 6.071564
_cell_length_b 16.126187
_cell_length_c 8.709342
_cell_angle_alpha 90.000000
_cell_angle_beta 121.769681
_cell_angle_gamma 90.000000
_cell_volume 724.976811
_symmetry_space_group_name_H-M "C M"
_symmetry_group_IT_number 8
_symmetry_cell_setting 'monoclinic'
loop_
_space_group_symop_operation_xyz
x,y,z
x,-y,z
1/2+x,1/2+y,z
1/2+x,1/2-y,z
loop_
_atom_site_type_symbol
_atom_site_label
_atom_site_fract_x
_atom_site_fract_y
_atom_site_fract_z
Si Si1 0.990700 0.718894 0.010530
Si Si2 0.469666 0.000000 0.370966
Si Si3 0.127770 0.905024 0.743906
Si Si4 0.417119 0.500000 0.153893
Si Si5 0.822602 0.858850 0.362607
Si Si6 0.222257 0.500000 0.765537
O O1 0.708248 0.757674 0.959921
O O2 0.165331 0.715502 0.228877
O O3 0.878267 0.630325 0.916980
O O4 0.620918 0.918470 0.375819
O O5 0.482816 0.000000 0.560485
O O6 0.201040 0.000000 0.185664
O O7 0.044392 0.846823 0.570864
O O8 0.894424 0.919105 0.779995
O O9 0.151057 0.000000 0.695133
O O10 0.413435 0.418253 0.257358
O O11 0.215354 0.500000 0.943632
#
# Coordination Sequence:
#
# PCOD9133385 Si02
#       6
#     4   2   4   2   4   2
#     4  12  30  49  71 105 151 198 235 288 367 440
#     4   9  19  37  62 106 134 169 229 300 359 403
#     4   9  21  47  74 104 139 183 243 304 353 419
#     4  11  19  33  70 105 132 171 228 308 349 407
#     4  10  23  43  67 103 139 181 240 294 360 417
#     4   8  18  34  70 107 134 170 227 308 354 402
#
# _framework density 24.828379999999999
#
# number of rings (size 3 to 8) (size 9 to 14) (size 15 to 20)
#    0.667    1.333    2.222    1.333    9.333    3.556 
#    4.000    1.111    0.000    0.000    0.000    0.000 
#    0.000    0.000    0.000    0.000    0.000    0.000 
#
# Total GULP energy -50131.471376 kJ/mol
# GULP energy per Si atom -5570.163486 kJ/mol
# Density = 2.477187 g / cm^3
# Si number density = 24.828380 Si / 1000 Ang^3
#
#
#
# Elastic Constant Matrix: (Units=GPa)
#
#
# Indices 1 2 3 4 5 6 
#
# 1 106.4977 32.0432 8.7407 0.0000 -5.1279 0.0000
# 2 32.0432 27.6823 1.4857 0.0000 3.1149 0.0000
# 3 8.7407 1.4857 107.7997 0.0000 -3.9322 0.0000
# 4 0.0000 0.0000 0.0000 32.3972 0.0000 19.2948
# 5 -5.1279 3.1149 -3.9322 0.0000 35.4114 0.0000
# 6 0.0000 0.0000 0.0000 19.2948 0.0000 14.9044
#
#
#
# Elastic Compliance Matrix: (Units=1/GPa)
#
#
# Indices 1 2 3 4 5 6 
#
# 1 0.014949 -0.017667 -0.000836 0.000000 0.003626 0.000000
# 2 -0.017667 0.057406 0.000365 0.000000 -0.007567 0.000000
# 3 -0.000836 0.000365 0.009372 0.000000 0.000887 0.000000
# 4 0.000000 0.000000 0.000000 0.134797 0.000000 -0.174504
# 5 0.003626 -0.007567 0.000887 0.000000 0.029529 0.000000
# 6 0.000000 0.000000 0.000000 -0.174504 0.000000 0.293004
#
#
# Mechanical properties :
#
#
# Convention : Reuss Voigt Hill
#
# Bulk Modulus (GPa) = 22.00191 36.27988 29.14090
# Shear Modulus (GPa) = 8.46767 29.85660 19.16214
#
# Velocity S-wave (km/s) = 1.84875 3.47150 2.78111
# Velocity P-wave (km/s) = 3.66579 5.54188 4.69842
#
# Compressibility (1/GPa) = 0.04545059
#
# Stress axis : x y z
#
# Youngs Moduli (GPa) = 66.89548 17.41981 106.70523
#
# Poissons Ratio (x) = 0.30775 0.08924
# Poissons Ratio (y) = 1.18182 -0.03897
# Poissons Ratio (z) = 0.05595 -0.00636
#
# Static dielectric constant tensor:
#      x y z
#    x 2.076350 0.000000 -0.047700 
#    y 0.000000 1.971970 0.000000 
#    z -0.047700 0.000000 1.938660 
# 
# From -- ./inp_files/6671.got.cif
#   From: 2010.05.17/outbox.cif.g08.bks.cpg/sg8_4_cif.got.tgz:6671.got - 2010.06.03 19:46:02.
