data_PCOD9133064
_publ_section_title
;
Structure prediction by ZEFSAII (Michael W. Deem and Ramdas Pophale) SiO2 
 PCOD9133064
Probable space group: C M
;
_chemical_formula_sum "Si O2"
_cell_formula_units_Z 32
_cell_length_a 15.610169
_cell_length_b 17.513293
_cell_length_c 11.999992
_cell_angle_alpha 90.000000
_cell_angle_beta 27.297320
_cell_angle_gamma 90.000000
_cell_volume 1504.520089
_symmetry_space_group_name_H-M "C M"
_symmetry_group_IT_number 8
_symmetry_cell_setting 'monoclinic'
loop_
_space_group_symop_operation_xyz
x,y,z
x,-y,z
1/2+x,1/2+y,z
1/2+x,1/2-y,z
loop_
_atom_site_type_symbol
_atom_site_label
_atom_site_fract_x
_atom_site_fract_y
_atom_site_fract_z
Si Si1 0.109460 0.587426 0.398220
Si Si2 0.136315 0.144334 0.680193
Si Si3 0.589244 0.677691 0.180225
Si Si4 0.514716 0.414470 0.044930
Si Si5 0.734883 0.154180 0.036913
Si Si6 0.928403 0.589251 0.831390
Si Si7 0.996769 0.589796 0.126087
Si Si8 0.666384 0.182217 0.723805
O O1 0.096107 0.500000 0.374373
O O2 0.305261 0.594357 0.238277
O O3 0.113035 0.641648 0.289315
O O4 0.953702 0.601797 0.669924
O O5 0.312318 0.124206 0.399535
O O6 0.125197 0.230124 0.741703
O O7 0.137871 0.094118 0.790969
O O8 0.946028 0.135811 0.829065
O O9 0.551495 0.644948 0.100243
O O10 0.692293 0.759097 0.051269
O O11 0.389903 0.679242 0.471388
O O12 0.727785 0.623651 0.089533
O O13 0.535152 0.500000 0.067901
O O14 0.660113 0.098603 0.028484
O O15 0.942806 0.500000 0.836987
O O16 0.089865 0.633085 0.708896
O O17 0.971224 0.500000 0.125580
O O18 0.060298 0.644038 0.950668
#
# Coordination Sequence:
#
# PCOD9133064 Si02
#       8
#     4   4   4   4   4   4   4   4
#     4   9  20  40  68  98 134 172 223 292 347 401
#     4  11  25  47  73 101 140 191 242 293 357 424
#     4  12  24  42  68 107 138 187 235 294 358 426
#     4  10  21  40  70 101 135 174 230 293 347 410
#     4  11  24  44  70 105 141 184 238 293 353 430
#     4  11  24  42  69 103 139 183 236 297 357 416
#     4  12  28  47  74 108 150 193 237 296 364 436
#     4  12  26  48  70 101 147 190 239 290 357 435
#
# _framework density 21.269238999999999
#
# number of rings (size 3 to 8) (size 9 to 14) (size 15 to 20)
#    0.000    1.000    3.750    2.250    1.750    5.000 
#    0.000    0.000    0.000    0.000    0.000    0.000 
#    0.000    0.000    0.000    0.000    0.000    0.000 
#
# Total GULP energy -89447.069444 kJ/mol
# GULP energy per Si atom -5590.441840 kJ/mol
# Density = 2.122083 g / cm^3
# Si number density = 21.269239 Si / 1000 Ang^3
#
#
#
# Elastic Constant Matrix: (Units=GPa)
#
#
# Indices 1 2 3 4 5 6 
#
# 1 53.8904 32.1528 13.8960 -0.0008 4.9082 0.0004
# 2 32.1528 92.1974 5.8132 0.0049 7.8401 -0.0013
# 3 13.8960 5.8132 84.4300 0.0077 -2.4377 0.0006
# 4 -0.0008 0.0049 0.0077 7.3906 -0.0033 18.0493
# 5 4.9082 7.8401 -2.4377 -0.0033 28.2640 0.0036
# 6 0.0004 -0.0013 0.0006 18.0493 0.0036 28.4024
#
#
#
# Elastic Compliance Matrix: (Units=1/GPa)
#
#
# Indices 1 2 3 4 5 6 
#
# 1 0.024535 -0.008136 -0.003545 -0.000021 -0.002309 0.000013
# 2 -0.008136 0.013869 0.000315 0.000025 -0.002407 -0.000015
# 3 -0.003545 0.000315 0.012452 0.000021 0.001602 -0.000014
# 4 -0.000021 0.000025 0.000021 -0.245132 -0.000050 0.155778
# 5 -0.002309 -0.002407 0.001602 -0.000050 0.036588 0.000027
# 6 0.000013 -0.000015 -0.000014 0.155778 0.000027 -0.063786
#
#
# Mechanical properties :
#
#
# Convention : Reuss Voigt Hill
#
# Bulk Modulus (GPa) = 35.55782 37.13797 36.34790
# Shear Modulus (GPa) = -26.40356 24.72179 -0.84088
#
# Velocity S-wave (km/s) = -3.52717 3.41299 -0.62945
# Velocity P-wave (km/s) = 0.40788 5.74718 4.07409
#
# Compressibility (1/GPa) = 0.02812321
#
# Stress axis : x y z
#
# Youngs Moduli (GPa) = 40.75814 72.10537 80.30773
#
# Poissons Ratio (x) = 0.58668 0.28466
# Poissons Ratio (y) = 0.33162 -0.02528
# Poissons Ratio (z) = 0.14447 -0.02270
#
# Static dielectric constant tensor:
#      x y z
#    x 1.753660 0.000000 0.003310 
#    y 0.000000 1.771630 0.000010 
#    z 0.003310 0.000010 1.813530 
# 
# From -- ./inp_files/22382.got.cif
#   From: 2010.05.17/outbox.cif.g08.bks.cpg/sg8_12_cif.got.tgz:22382.got - 2010.06.03 19:46:02.
