data_PCOD9133894
_publ_section_title
;
Structure prediction by ZEFSAII (Michael W. Deem and Ramdas Pophale) SiO2 
 PCOD9133894
Probable space group: C C
;
_chemical_formula_sum "Si O2"
_cell_formula_units_Z 28
_cell_length_a 15.429456
_cell_length_b 17.256596
_cell_length_c 7.727270
_cell_angle_alpha 90.000000
_cell_angle_beta 36.257953
_cell_angle_gamma 90.000000
_cell_volume 1216.827461
_symmetry_space_group_name_H-M "C C"
_symmetry_group_IT_number 9
_symmetry_cell_setting 'monoclinic'
loop_
_space_group_symop_operation_xyz
x,y,z
x,-y,1/2+z
1/2+x,1/2+y,z
1/2+x,1/2-y,1/2+z
loop_
_atom_site_type_symbol
_atom_site_label
_atom_site_fract_x
_atom_site_fract_y
_atom_site_fract_z
Si Si1 0.726160 0.228844 0.120570
Si Si2 0.941045 0.098165 0.810439
Si Si3 0.552168 0.868461 0.170647
Si Si4 0.824839 0.604533 0.511551
Si Si5 0.758767 0.437728 0.726226
Si Si6 0.638700 0.846235 0.417851
Si Si7 0.786754 0.005115 0.777079
O O1 0.605699 0.185734 0.429969
O O2 0.738283 0.315747 0.167373
O O3 0.878574 0.184268 0.920325
O O4 0.701739 0.217431 0.952202
O O5 0.094291 0.091836 0.468570
O O6 0.819051 0.049006 0.903790
O O7 0.928456 0.049044 0.007154
O O8 0.384642 0.894821 0.415278
O O9 0.586158 0.829266 0.305301
O O10 0.649695 0.946985 0.006587
O O11 0.769391 0.530120 0.700306
O O12 0.802757 0.582528 0.348631
O O13 0.997512 0.620495 0.247671
O O14 0.751755 0.918096 0.220021
#
# Coordination Sequence:
#
# PCOD9133894 Si02
#       7
#     4   4   4   4   4   4   4
#     4  10  25  44  70  97 140 182 229 289 353 406
#     4  10  21  37  64  99 135 172 222 293 341 400
#     4  10  21  42  72 100 129 191 233 276 348 423
#     4  11  25  44  69 101 138 184 227 294 344 411
#     4  11  24  42  70 101 138 176 238 284 350 408
#     4  10  21  41  70  98 135 178 239 280 333 428
#     4  10  17  36  65  96 129 177 232 274 335 418
#
# _framework density 23.010657999999999
#
# number of rings (size 3 to 8) (size 9 to 14) (size 15 to 20)
#    0.000    1.714    2.857    0.857    4.000    0.000 
#    2.571    5.714    0.000    0.000    0.000    0.000 
#    0.000    0.000    0.000    0.000    0.000    0.000 
#
# Total GULP energy -78139.631291 kJ/mol
# GULP energy per Si atom -5581.402235 kJ/mol
# Density = 2.295828 g / cm^3
# Si number density = 23.010658 Si / 1000 Ang^3
#
#
#
# Elastic Constant Matrix: (Units=GPa)
#
#
# Indices 1 2 3 4 5 6 
#
# 1 40.1461 18.5997 13.7717 -0.0001 4.6957 0.0000
# 2 18.5997 122.7758 49.1497 -0.0003 -3.0458 -0.0001
# 3 13.7717 49.1497 120.5038 -0.0002 -18.0221 -0.0001
# 4 -0.0001 -0.0003 -0.0002 204.4900 0.0002 26.0043
# 5 4.6957 -3.0458 -18.0221 0.0002 28.4509 0.0001
# 6 0.0000 -0.0001 -0.0001 26.0043 0.0001 31.4479
#
#
#
# Elastic Compliance Matrix: (Units=1/GPa)
#
#
# Indices 1 2 3 4 5 6 
#
# 1 0.028230 -0.003280 -0.002914 0.000000 -0.006856 0.000000
# 2 -0.003280 0.010184 -0.003905 0.000000 -0.000842 0.000000
# 3 -0.002914 -0.003905 0.011304 0.000000 0.007224 0.000000
# 4 0.000000 0.000000 0.000000 0.005465 0.000000 -0.004519
# 5 -0.006856 -0.000842 0.007224 0.000000 0.040766 0.000000
# 6 0.000000 0.000000 0.000000 -0.004519 0.000000 0.035535
#
#
# Mechanical properties :
#
#
# Convention : Reuss Voigt Hill
#
# Bulk Modulus (GPa) = 33.87402 49.60754 41.74078
# Shear Modulus (GPa) = 30.95542 66.33808 48.64675
#
# Velocity S-wave (km/s) = 3.67176 5.37512 4.60292
# Velocity P-wave (km/s) = 5.72091 7.75421 6.81383
#
# Compressibility (1/GPa) = 0.02952115
#
# Stress axis : x y z
#
# Youngs Moduli (GPa) = 35.42304 98.19159 88.46056
#
# Poissons Ratio (x) = 0.32211 0.25775
# Poissons Ratio (y) = 0.11620 0.34542
# Poissons Ratio (z) = 0.10321 0.38342
#
# Static dielectric constant tensor:
#      x y z
#    x 1.986700 0.000000 0.038530 
#    y 0.000000 1.128750 0.000000 
#    z 0.038530 0.000000 2.055280 
# 
# From -- ./inp_files/5392.got.cif
#   From: 2010.05.17/outbox.cif.g08.bks.cpg/sg9_3_cif.got.tgz:5392.got - 2010.06.03 20:04:27.
