data_PCOD9133402
_publ_section_title
;
Structure prediction by ZEFSAII (Michael W. Deem and Ramdas Pophale) SiO2 
 PCOD9133402
Probable space group: C M
;
_chemical_formula_sum "Si O2"
_cell_formula_units_Z 32
_cell_length_a 10.095396
_cell_length_b 24.018418
_cell_length_c 7.268987
_cell_angle_alpha 90.000000
_cell_angle_beta 48.602374
_cell_angle_gamma 90.000000
_cell_volume 1322.157182
_symmetry_space_group_name_H-M "C M"
_symmetry_group_IT_number 8
_symmetry_cell_setting 'monoclinic'
loop_
_space_group_symop_operation_xyz
x,y,z
x,-y,z
1/2+x,1/2+y,z
1/2+x,1/2-y,z
loop_
_atom_site_type_symbol
_atom_site_label
_atom_site_fract_x
_atom_site_fract_y
_atom_site_fract_z
Si Si1 0.970320 0.561285 0.502350
Si Si2 0.369657 0.291766 0.214217
Si Si3 0.567531 0.433604 0.418035
Si Si4 0.462530 0.106743 0.128682
Si Si5 0.450544 0.646396 0.812919
Si Si6 0.728885 0.882354 0.547179
Si Si7 0.755635 0.750677 0.941724
Si Si8 0.321416 0.171130 0.567508
O O1 0.913169 0.500000 0.609368
O O2 0.012409 0.563180 0.244982
O O3 0.821881 0.609263 0.655716
O O4 0.130525 0.582724 0.478105
O O5 0.557426 0.271848 0.112296
O O6 0.947734 0.338764 0.276852
O O7 0.306191 0.250059 0.112150
O O8 0.394850 0.349411 0.074372
O O9 0.572701 0.500000 0.397749
O O10 0.766721 0.408721 0.232426
O O11 0.424143 0.405863 0.414225
O O12 0.742615 0.183727 0.485310
O O13 0.598548 0.108657 0.839982
O O14 0.490330 0.588216 0.685087
O O15 0.632641 0.681583 0.650498
O O16 0.810559 0.813899 0.841410
O O17 0.857889 0.713221 0.697090
#
# Coordination Sequence:
#
# PCOD9133402 Si02
#       8
#     4   4   4   4   4   4   4   4
#     4  10  23  44  76 117 161 209 264 327 400 483
#     4   9  22  43  77 110 154 210 268 328 412 480
#     4  11  24  46  79 118 161 216 269 328 405 491
#     4   9  24  47  75 110 165 216 262 332 404 485
#     4   8  19  39  75 113 152 199 265 331 390 471
#     4  12  26  47  75 116 165 208 268 339 404 481
#     4   9  18  43  80 112 157 211 265 337 407 472
#     4   8  18  41  74 112 150 215 265 316 404 471
#
# _framework density 24.202873
#
# number of rings (size 3 to 8) (size 9 to 14) (size 15 to 20)
#    1.500    1.000    0.000    0.750    1.750    5.000 
#    0.000    3.125   11.000    0.750    0.000    0.000 
#    0.000    0.000    0.000    0.000    0.000    0.000 
#
# Total GULP energy -89168.257942 kJ/mol
# GULP energy per Si atom -5573.016121 kJ/mol
# Density = 2.414779 g / cm^3
# Si number density = 24.202873 Si / 1000 Ang^3
#
#
#
# Elastic Constant Matrix: (Units=GPa)
#
#
# Indices 1 2 3 4 5 6 
#
# 1 193.7939 51.6584 61.8410 0.0000 -11.9143 0.0000
# 2 51.6584 110.6010 66.7504 0.0000 -9.0963 0.0000
# 3 61.8410 66.7504 71.6926 0.0000 -3.1512 0.0000
# 4 0.0000 0.0000 0.0000 19.1186 0.0000 -2.6716
# 5 -11.9143 -9.0963 -3.1512 0.0000 25.8740 0.0000
# 6 0.0000 0.0000 0.0000 -2.6716 0.0000 24.2028
#
#
#
# Elastic Compliance Matrix: (Units=1/GPa)
#
#
# Indices 1 2 3 4 5 6 
#
# 1 0.007366 0.001273 -0.007410 0.000000 0.002937 0.000000
# 2 0.001273 0.021507 -0.020877 0.000000 0.005605 0.000000
# 3 -0.007410 -0.020877 0.039517 0.000000 -0.005939 0.000000
# 4 0.000000 0.000000 0.000000 0.053125 0.000000 0.005864
# 5 0.002937 0.005605 -0.005939 0.000000 0.041248 0.000000
# 6 0.000000 0.000000 0.000000 0.005864 0.000000 0.041965
#
#
# Mechanical properties :
#
#
# Convention : Reuss Voigt Hill
#
# Bulk Modulus (GPa) = 69.62338 81.84301 75.73320
# Shear Modulus (GPa) = 18.97222 26.89494 22.93358
#
# Velocity S-wave (km/s) = 2.80283 3.33713 3.08158
# Velocity P-wave (km/s) = 6.26925 6.98122 6.63479
#
# Compressibility (1/GPa) = 0.01436299
#
# Stress axis : x y z
#
# Youngs Moduli (GPa) = 135.76064 46.49557 25.30550
#
# Poissons Ratio (x) = -0.05921 0.18752
# Poissons Ratio (y) = -0.17288 0.52830
# Poissons Ratio (z) = 1.00602 0.97068
#
# Static dielectric constant tensor:
#      x y z
#    x 1.963190 0.000000 0.015370 
#    y 0.000000 1.950670 0.000000 
#    z 0.015370 0.000000 2.006550 
# 
# From -- ./inp_files/9161.got.cif
#   From: 2010.05.17/outbox.cif.g08.bks.cpg/sg8_5_cif.got.tgz:9161.got - 2010.06.03 19:46:02.
