data_PCOD9133632
_publ_section_title
;
Structure prediction by ZEFSAII (Michael W. Deem and Ramdas Pophale) SiO2 
 PCOD9133632
Probable space group: C M
;
_chemical_formula_sum "Si O2"
_cell_formula_units_Z 20
_cell_length_a 6.280124
_cell_length_b 23.498088
_cell_length_c 7.450300
_cell_angle_alpha 90.000000
_cell_angle_beta 136.731751
_cell_angle_gamma 90.000000
_cell_volume 753.577765
_symmetry_space_group_name_H-M "C M"
_symmetry_group_IT_number 8
_symmetry_cell_setting 'monoclinic'
loop_
_space_group_symop_operation_xyz
x,y,z
x,-y,z
1/2+x,1/2+y,z
1/2+x,1/2-y,z
loop_
_atom_site_type_symbol
_atom_site_label
_atom_site_fract_x
_atom_site_fract_y
_atom_site_fract_z
Si Si1 0.753290 0.117908 0.865500
Si Si2 0.018172 0.118901 0.402220
Si Si3 0.649579 0.229803 0.270445
Si Si4 0.226714 0.265400 0.682696
Si Si5 0.552080 0.500000 0.927915
Si Si6 0.278326 0.500000 0.378377
O O1 0.381801 0.114822 0.674031
O O2 0.805398 0.167960 0.756184
O O3 0.877147 0.056593 0.883842
O O4 0.964102 0.135786 0.162961
O O5 0.825558 0.168012 0.382034
O O6 0.856046 0.057783 0.322724
O O7 0.421384 0.232747 0.314557
O O8 0.894426 0.259429 0.598219
O O9 0.412940 0.230333 0.955619
O O10 0.511001 0.500000 0.689210
O O11 0.913640 0.500000 0.206167
#
# Coordination Sequence:
#
# PCOD9133632 Si02
#       6
#     4   4   4   4   2   2
#     4  12  25  45  70 101 138 181 229 285 346 411
#     4  12  25  45  70 101 138 181 229 285 346 411
#     4  12  25  43  68 101 139 183 230 282 341 410
#     4  12  25  43  68 101 139 183 230 282 341 410
#     4  12  26  46  70 100 134 178 230 286 345 410
#     4  12  26  46  70 100 134 178 230 286 345 410
#
# _framework density 26.54006
#
# number of rings (size 3 to 8) (size 9 to 14) (size 15 to 20)
#    0.000    0.000    0.000   12.000    0.000    3.200 
#    0.000    0.000    0.000    0.000    0.000    0.000 
#    0.000    0.000    0.000    0.000    0.000    0.000 
#
# Total GULP energy -55927.953337 kJ/mol
# GULP energy per Si atom -5592.795334 kJ/mol
# Density = 2.647965 g / cm^3
# Si number density = 26.540060 Si / 1000 Ang^3
#
#
#
# Elastic Constant Matrix: (Units=GPa)
#
#
# Indices 1 2 3 4 5 6 
#
# 1 183.2215 71.8352 74.9561 0.0000 -24.5749 0.0000
# 2 71.8352 191.5254 8.0712 0.0000 -4.0287 0.0000
# 3 74.9561 8.0712 169.6262 0.0000 -7.3489 0.0000
# 4 0.0000 0.0000 0.0000 41.1137 0.0000 -4.8085
# 5 -24.5749 -4.0287 -7.3489 0.0000 97.7634 0.0000
# 6 0.0000 0.0000 0.0000 -4.8085 0.0000 55.3900
#
#
#
# Elastic Compliance Matrix: (Units=1/GPa)
#
#
# Indices 1 2 3 4 5 6 
#
# 1 0.008224 -0.002905 -0.003422 0.000000 0.001690 0.000000
# 2 -0.002905 0.006261 0.000968 0.000000 -0.000399 0.000000
# 3 -0.003422 0.000968 0.007350 0.000000 -0.000268 0.000000
# 4 0.000000 0.000000 0.000000 0.024572 0.000000 0.002133
# 5 0.001690 -0.000399 -0.000268 0.000000 0.010617 0.000000
# 6 0.000000 0.000000 0.000000 0.002133 0.000000 0.018239
#
#
# Mechanical properties :
#
#
# Convention : Reuss Voigt Hill
#
# Bulk Modulus (GPa) = 89.94905 94.89978 92.42441
# Shear Modulus (GPa) = 55.74968 64.82078 60.28523
#
# Velocity S-wave (km/s) = 4.58819 4.94740 4.77118
# Velocity P-wave (km/s) = 7.87617 8.27469 8.07789
#
# Compressibility (1/GPa) = 0.01111741
#
# Stress axis : x y z
#
# Youngs Moduli (GPa) = 121.60270 159.70715 136.05472
#
# Poissons Ratio (x) = 0.46389 0.46564
# Poissons Ratio (y) = 0.35321 -0.13174
# Poissons Ratio (z) = 0.41618 -0.15464
#
# Static dielectric constant tensor:
#      x y z
#    x 2.081980 0.000000 -0.014080 
#    y 0.000000 2.055560 0.000000 
#    z -0.014080 0.000000 2.171330 
# 
# From -- ./inp_files/9055.got.cif
#   From: 2010.05.17/outbox.cif.g08.bks.cpg/sg8_5_cif.got.tgz:9055.got - 2010.06.03 19:46:02.
