data_PCOD9133301
_publ_section_title
;
Structure prediction by ZEFSAII (Michael W. Deem and Ramdas Pophale) SiO2 
 PCOD9133301
Probable space group: C M
;
_chemical_formula_sum "Si O2"
_cell_formula_units_Z 28
_cell_length_a 9.895510
_cell_length_b 26.290342
_cell_length_c 5.163560
_cell_angle_alpha 90.000000
_cell_angle_beta 63.163719
_cell_angle_gamma 90.000000
_cell_volume 1198.656110
_symmetry_space_group_name_H-M "C M"
_symmetry_group_IT_number 8
_symmetry_cell_setting 'monoclinic'
loop_
_space_group_symop_operation_xyz
x,y,z
x,-y,z
1/2+x,1/2+y,z
1/2+x,1/2-y,z
loop_
_atom_site_type_symbol
_atom_site_label
_atom_site_fract_x
_atom_site_fract_y
_atom_site_fract_z
Si Si1 0.105510 0.790405 0.067790
Si Si2 0.723558 0.605497 0.698843
Si Si3 0.223923 0.405881 0.620393
Si Si4 0.906180 0.000000 0.673650
Si Si5 0.112554 0.000000 0.995687
Si Si6 0.295814 0.705585 0.081912
Si Si7 0.569299 0.124507 0.273117
Si Si8 0.995554 0.143770 0.545221
O O1 0.232450 0.747857 0.940346
O O2 0.937631 0.773205 0.122919
O O3 0.085593 0.806017 0.385611
O O4 0.161247 0.844099 0.899784
O O5 0.612497 0.602921 0.546108
O O6 0.891957 0.618103 0.466265
O O7 0.705067 0.552360 0.865566
O O8 0.298364 0.452591 0.705868
O O9 0.144994 0.414626 0.413962
O O10 0.377489 0.373309 0.428893
O O11 0.109557 0.382412 0.934094
O O12 0.036699 0.000000 0.341808
O O13 0.978249 0.000000 0.895968
O O14 0.141743 0.678175 0.313163
O O15 0.378362 0.659526 0.865079
#
# Coordination Sequence:
#
# PCOD9133301 Si02
#       8
#     4   4   4   2   2   4   4   4
#     4  11  24  43  69  97 142 185 243 292 357 429
#     4  11  27  44  69 105 142 189 237 302 357 424
#     4  11  23  45  70 101 136 185 231 296 343 429
#     4  12  24  42  80 102 136 185 249 286 364 416
#     4  12  26  44  76 106 140 189 243 296 358 424
#     4  10  25  40  65 100 135 189 236 291 357 430
#     4  11  26  45  69 101 150 180 234 295 363 415
#     4  10  22  43  66  94 137 183 240 285 352 425
#
# _framework density 23.359496
#
# number of rings (size 3 to 8) (size 9 to 14) (size 15 to 20)
#    0.000    1.143    2.857    1.714    8.000    3.429 
#    0.000    0.000    0.000    0.000    0.000    0.000 
#    0.000    0.000    0.000    0.000    0.000    0.000 
#
# Total GULP energy -78065.488787 kJ/mol
# GULP energy per Si atom -5576.106342 kJ/mol
# Density = 2.330633 g / cm^3
# Si number density = 23.359496 Si / 1000 Ang^3
#
#
#
# Elastic Constant Matrix: (Units=GPa)
#
#
# Indices 1 2 3 4 5 6 
#
# 1 105.0929 46.9020 47.6480 0.0000 -23.7704 0.0000
# 2 46.9020 93.1469 17.2445 0.0000 -18.0178 0.0000
# 3 47.6480 17.2445 90.2144 0.0000 -12.6389 0.0000
# 4 0.0000 0.0000 0.0000 22.4702 0.0000 4.4652
# 5 -23.7704 -18.0178 -12.6389 0.0000 40.5069 0.0000
# 6 0.0000 0.0000 0.0000 4.4652 0.0000 31.3633
#
#
#
# Elastic Compliance Matrix: (Units=1/GPa)
#
#
# Indices 1 2 3 4 5 6 
#
# 1 0.016407 -0.006068 -0.006834 0.000000 0.004796 0.000000
# 2 -0.006068 0.014211 0.000915 0.000000 0.003046 0.000000
# 3 -0.006834 0.000915 0.014655 0.000000 0.000970 0.000000
# 4 0.000000 0.000000 0.000000 0.045799 0.000000 -0.006520
# 5 0.004796 0.003046 0.000970 0.000000 0.029159 0.000000
# 6 0.000000 0.000000 0.000000 -0.006520 0.000000 0.032813
#
#
# Mechanical properties :
#
#
# Convention : Reuss Voigt Hill
#
# Bulk Modulus (GPa) = 46.94940 56.89369 51.92154
# Shear Modulus (GPa) = 27.15674 30.64539 28.90107
#
# Velocity S-wave (km/s) = 3.41333 3.62595 3.52124
# Velocity P-wave (km/s) = 5.97300 6.47600 6.22958
#
# Compressibility (1/GPa) = 0.02129953
#
# Stress axis : x y z
#
# Youngs Moduli (GPa) = 60.95051 70.36804 68.23705
#
# Poissons Ratio (x) = 0.42702 0.46630
# Poissons Ratio (y) = 0.36987 -0.06246
# Poissons Ratio (z) = 0.41651 -0.06441
#
# Static dielectric constant tensor:
#      x y z
#    x 1.919240 0.000000 0.052180 
#    y 0.000000 2.017420 0.000000 
#    z 0.052180 0.000000 1.944540 
# 
# From -- ./inp_files/1929.got.cif
#   From: 2010.05.17/outbox.cif.g08.bks.cpg/sg8_1_cif.got.tgz:1929.got - 2010.06.03 19:46:02.
