data_PCOD9133787
_publ_section_title
;
Structure prediction by ZEFSAII (Michael W. Deem and Ramdas Pophale) SiO2 
 PCOD9133787
Probable space group: C C
;
_chemical_formula_sum "Si O2"
_cell_formula_units_Z 28
_cell_length_a 10.080917
_cell_length_b 19.106720
_cell_length_c 7.275737
_cell_angle_alpha 90.000000
_cell_angle_beta 121.441533
_cell_angle_gamma 90.000000
_cell_volume 1195.639412
_symmetry_space_group_name_H-M "C C"
_symmetry_group_IT_number 9
_symmetry_cell_setting 'monoclinic'
loop_
_space_group_symop_operation_xyz
x,y,z
x,-y,1/2+z
1/2+x,1/2+y,z
1/2+x,1/2-y,1/2+z
loop_
_atom_site_type_symbol
_atom_site_label
_atom_site_fract_x
_atom_site_fract_y
_atom_site_fract_z
Si Si1 0.030780 0.718339 0.834670
Si Si2 0.199464 0.225149 0.097348
Si Si3 0.493024 0.373759 0.790342
Si Si4 0.673717 0.095052 0.152823
Si Si5 0.409341 0.349180 0.296876
Si Si6 0.121049 0.444356 0.006752
Si Si7 0.831367 0.621589 0.487435
O O1 0.100574 0.731098 0.680204
O O2 0.012448 0.796596 0.889558
O O3 0.876893 0.673210 0.687001
O O4 0.137456 0.668748 0.033312
O O5 0.314519 0.286787 0.124870
O O6 0.297326 0.170673 0.288006
O O7 0.086724 0.178652 0.888957
O O8 0.359599 0.411996 0.805052
O O9 0.431036 0.358308 0.536828
O O10 0.661343 0.410653 0.904278
O O11 0.588741 0.088070 0.284370
O O12 0.625740 0.027944 0.999888
O O13 0.293567 0.414748 0.178957
O O14 0.981444 0.423275 0.042461
#
# Coordination Sequence:
#
# PCOD9133787 Si02
#       7
#     4   4   4   4   4   4   4
#     4  10  17  37  65  93 123 168 202 256 316 382
#     4  10  16  32  69  91 124 158 209 251 303 380
#     4  10  20  39  70  96 123 164 208 266 308 384
#     4  12  25  44  63  88 132 171 216 253 328 368
#     4  10  17  34  61  93 120 165 207 244 315 369
#     4  12  25  42  62  91 128 177 207 263 312 392
#     4  10  18  36  64  98 118 161 213 249 320 367
#
# _framework density 23.418434000000001
#
# number of rings (size 3 to 8) (size 9 to 14) (size 15 to 20)
#    0.000    1.714    5.714    2.571    0.000    0.000 
#    5.143   11.429    0.000    0.000    0.000    0.000 
#    0.000    0.000    0.000    0.000    0.000    0.000 
#
# Total GULP energy -77947.956651 kJ/mol
# GULP energy per Si atom -5567.711189 kJ/mol
# Density = 2.336513 g / cm^3
# Si number density = 23.418434 Si / 1000 Ang^3
#
#
#
# Elastic Constant Matrix: (Units=GPa)
#
#
# Indices 1 2 3 4 5 6 
#
# 1 91.5944 9.2792 38.0455 0.0000 17.0601 0.0000
# 2 9.2792 42.3605 12.4733 0.0000 18.6081 0.0000
# 3 38.0455 12.4733 85.1423 0.0000 17.3846 0.0000
# 4 0.0000 0.0000 0.0000 27.6104 0.0000 6.3876
# 5 17.0601 18.6081 17.3846 0.0000 21.0145 0.0000
# 6 0.0000 0.0000 0.0000 6.3876 0.0000 0.9149
#
#
#
# Elastic Compliance Matrix: (Units=1/GPa)
#
#
# Indices 1 2 3 4 5 6 
#
# 1 0.014547 0.002733 -0.004807 0.000000 -0.010253 0.000000
# 2 0.002733 0.039329 0.000699 0.000000 -0.037622 0.000000
# 3 -0.004807 0.000699 0.015787 0.000000 -0.009776 0.000000
# 4 0.000000 0.000000 0.000000 -0.058875 0.000000 0.411037
# 5 -0.010253 -0.037622 -0.009776 0.000000 0.097311 0.000000
# 6 0.000000 0.000000 0.000000 0.411037 0.000000 -1.776696
#
#
# Mechanical properties :
#
#
# Convention : Reuss Voigt Hill
#
# Bulk Modulus (GPa) = 14.94496 37.63259 26.28877
# Shear Modulus (GPa) = -3.04221 20.52789 8.74284
#
# Velocity S-wave (km/s) = -1.14100 2.96390 1.93428
# Velocity P-wave (km/s) = 2.15864 5.27423 4.02972
#
# Compressibility (1/GPa) = 0.06691217
#
# Stress axis : x y z
#
# Youngs Moduli (GPa) = 68.74120 25.42643 63.34361
#
# Poissons Ratio (x) = -0.06948 0.30451
# Poissons Ratio (y) = -0.18785 -0.04428
# Poissons Ratio (z) = 0.33046 -0.01777
#
# Static dielectric constant tensor:
#      x y z
#    x 2.008970 0.000000 0.023430 
#    y 0.000000 1.881200 0.000000 
#    z 0.023430 0.000000 1.945560 
# 
# From -- ./inp_files/8240.got.cif
#   From: 2010.05.17/outbox.cif.g08.bks.cpg/sg9_5_cif.got.tgz:8240.got - 2010.06.03 20:04:27.
