data_PCOD9133843
_publ_section_title
;
Structure prediction by ZEFSAII (Michael W. Deem and Ramdas Pophale) SiO2 
 PCOD9133843
Probable space group: C C
;
_chemical_formula_sum "Si O2"
_cell_formula_units_Z 32
_cell_length_a 15.286413
_cell_length_b 10.118244
_cell_length_c 11.155269
_cell_angle_alpha 90.000000
_cell_angle_beta 48.577508
_cell_angle_gamma 90.000000
_cell_volume 1293.796570
_symmetry_space_group_name_H-M "C C"
_symmetry_group_IT_number 9
_symmetry_cell_setting 'monoclinic'
loop_
_space_group_symop_operation_xyz
x,y,z
x,-y,1/2+z
1/2+x,1/2+y,z
1/2+x,1/2-y,1/2+z
loop_
_atom_site_type_symbol
_atom_site_label
_atom_site_fract_x
_atom_site_fract_y
_atom_site_fract_z
Si Si1 0.281690 0.735497 0.556200
Si Si2 0.546128 0.452565 0.957338
Si Si3 0.806980 0.046862 0.090204
Si Si4 0.459840 0.890512 0.064946
Si Si5 0.920504 0.137822 0.207137
Si Si6 0.839394 0.302133 0.928484
Si Si7 0.734432 0.449348 0.422101
Si Si8 0.975559 0.323901 0.562046
O O1 0.238851 0.591360 0.640551
O O2 0.374831 0.685488 0.373091
O O3 0.205104 0.840204 0.550313
O O4 0.356829 0.808909 0.590012
O O5 0.446085 0.508629 0.962393
O O6 0.487652 0.499662 0.137856
O O7 0.664295 0.530416 0.862083
O O8 0.555949 0.296116 0.943847
O O9 0.807947 0.115692 0.220873
O O10 0.786209 0.159603 0.011552
O O11 0.503753 0.748933 0.071265
O O12 0.404816 0.859965 0.985764
O O13 0.362303 0.918318 0.254983
O O14 0.526092 0.029279 0.002240
O O15 0.742427 0.407682 0.976758
O O16 0.931850 0.296300 0.736174
#
# Coordination Sequence:
#
# PCOD9133843 Si02
#       8
#     4   4   4   4   4   4   4   4
#     4  10  17  32  54  81 105 147 185 222 266 339
#     4   9  19  36  53  88 109 136 183 237 277 314
#     4   8  18  32  54  74 105 147 185 212 266 337
#     4   9  18  35  55  77 106 151 185 218 268 343
#     4   8  17  32  52  77 107 142 187 216 269 334
#     4  10  18  35  54  78 108 150 185 219 267 341
#     4  10  20  34  56  86 110 135 183 239 283 308
#     4  10  19  32  54  81 108 146 189 219 270 336
#
# _framework density 24.733408000000001
#
# number of rings (size 3 to 8) (size 9 to 14) (size 15 to 20)
#    0.750    2.000    1.250    0.750    0.000    0.000 
#    6.750    1.250    0.000    0.000   22.750    0.000 
#    0.000    0.000    0.000    0.000    0.000    0.000 
#
# Total GULP energy -89093.674977 kJ/mol
# GULP energy per Si atom -5568.354686 kJ/mol
# Density = 2.467711 g / cm^3
# Si number density = 24.733408 Si / 1000 Ang^3
#
#
#
# Elastic Constant Matrix: (Units=GPa)
#
#
# Indices 1 2 3 4 5 6 
#
# 1 47.4852 34.9030 3.3678 0.0000 13.9126 0.0000
# 2 34.9030 187.5284 17.0014 0.0000 6.0541 0.0000
# 3 3.3678 17.0014 68.6983 0.0000 22.6082 0.0000
# 4 0.0000 0.0000 0.0000 29.1938 0.0000 10.8896
# 5 13.9126 6.0541 22.6082 0.0000 25.0152 0.0000
# 6 0.0000 0.0000 0.0000 10.8896 0.0000 24.3774
#
#
#
# Elastic Compliance Matrix: (Units=1/GPa)
#
#
# Indices 1 2 3 4 5 6 
#
# 1 0.031463 -0.005790 0.007384 0.000000 -0.022771 0.000000
# 2 -0.005790 0.006521 -0.002662 0.000000 0.004048 0.000000
# 3 0.007384 -0.002662 0.022763 0.000000 -0.024036 0.000000
# 4 0.000000 0.000000 0.000000 0.041103 0.000000 -0.018361
# 5 -0.022771 0.004048 -0.024036 0.000000 0.073383 0.000000
# 6 0.000000 0.000000 0.000000 -0.018361 0.000000 0.049223
#
#
# Mechanical properties :
#
#
# Convention : Reuss Voigt Hill
#
# Bulk Modulus (GPa) = 17.06157 46.02847 31.54502
# Shear Modulus (GPa) = 20.31447 32.27993 26.29720
#
# Velocity S-wave (km/s) = 2.86901 3.61656 3.26425
# Velocity P-wave (km/s) = 4.22943 6.00746 5.19508
#
# Compressibility (1/GPa) = 0.05861126
#
# Stress axis : x y z
#
# Youngs Moduli (GPa) = 31.78315 153.35347 43.93057
#
# Poissons Ratio (x) = 0.88796 -0.32440
# Poissons Ratio (y) = 0.18403 0.11695
# Poissons Ratio (z) = -0.23470 0.40825
#
# Static dielectric constant tensor:
#      x y z
#    x 2.060310 0.000000 -0.027600 
#    y 0.000000 2.128870 0.000000 
#    z -0.027600 0.000000 1.992370 
# 
# From -- ./inp_files/18086.got.cif
#   From: 2010.05.17/outbox.cif.g08.bks.cpg/sg9_10_cif.got.tgz:18086.got - 2010.06.03 20:04:27.
