data_PCOD9133238
_publ_section_title
;
Structure prediction by ZEFSAII (Michael W. Deem and Ramdas Pophale) SiO2 
 PCOD9133238
Probable space group: C M
;
_chemical_formula_sum "Si O2"
_cell_formula_units_Z 32
_cell_length_a 14.889924
_cell_length_b 8.723537
_cell_length_c 26.783344
_cell_angle_alpha 90.000000
_cell_angle_beta 155.463029
_cell_angle_gamma 90.000000
_cell_volume 1444.745138
_symmetry_space_group_name_H-M "C M"
_symmetry_group_IT_number 8
_symmetry_cell_setting 'monoclinic'
loop_
_space_group_symop_operation_xyz
x,y,z
x,-y,z
1/2+x,1/2+y,z
1/2+x,1/2-y,z
loop_
_atom_site_type_symbol
_atom_site_label
_atom_site_fract_x
_atom_site_fract_y
_atom_site_fract_z
Si Si1 0.921970 0.180805 0.188520
Si Si2 0.260331 0.178938 0.697294
Si Si3 0.332590 0.820498 0.246242
Si Si4 0.900377 0.183691 0.438801
Si Si5 0.702062 0.181441 0.505622
Si Si6 0.679448 0.182457 0.755548
Si Si7 0.716142 0.179924 0.882892
Si Si8 0.425180 0.179254 0.086117
O O1 0.810055 0.267409 0.177981
O O2 0.846793 0.232201 0.095645
O O3 0.174494 0.229296 0.319932
O O4 0.897755 0.000000 0.182543
O O5 0.456589 0.191764 0.757615
O O6 0.039003 0.224835 0.558183
O O7 0.309153 0.272786 0.771777
O O8 0.242215 0.000000 0.702040
O O9 0.576509 0.799485 0.389584
O O10 0.173804 0.724888 0.201188
O O11 0.279329 0.000000 0.224374
O O12 0.057261 0.230412 0.472855
O O13 0.862354 0.000000 0.419759
O O14 0.944021 0.243236 0.628675
O O15 0.701928 0.000000 0.517002
O O16 0.774437 0.234573 0.856857
O O17 0.656040 0.000000 0.747228
O O18 0.774391 0.000000 0.917819
O O19 0.812142 0.270595 0.977751
O O20 0.403433 0.000000 0.084152
#
# Coordination Sequence:
#
# PCOD9133238 Si02
#       8
#     4   4   4   4   4   4   4   4
#     4  12  25  42  65  96 130 169 210 258 317 380
#     4  10  22  41  64  92 127 167 206 254 313 371
#     4  11  24  43  66  95 129 168 211 261 316 376
#     4  11  21  38  64  94 130 168 207 255 313 376
#     4  11  22  37  63  95 129 167 206 254 314 376
#     4  11  23  40  64  94 127 166 207 256 313 372
#     4  10  23  45  65  86 124 169 211 262 317 370
#     4  12  26  44  67  94 124 166 214 266 319 375
#
# _framework density 22.149234
#
# number of rings (size 3 to 8) (size 9 to 14) (size 15 to 20)
#    0.000    1.000    2.500    4.500    0.000    8.000 
#    0.000    2.500    0.000    0.000    0.000    0.000 
#    0.000    0.000    0.000    0.000    0.000    0.000 
#
# Total GULP energy -89552.771569 kJ/mol
# GULP energy per Si atom -5597.048223 kJ/mol
# Density = 2.209882 g / cm^3
# Si number density = 22.149234 Si / 1000 Ang^3
#
#
#
# Elastic Constant Matrix: (Units=GPa)
#
#
# Indices 1 2 3 4 5 6 
#
# 1 67.0028 -8.1655 -2.1363 0.0001 -30.1242 0.0001
# 2 -8.1655 56.1856 13.7191 0.0004 -15.2935 0.0001
# 3 -2.1363 13.7191 78.7868 0.0042 -26.6264 0.0005
# 4 0.0001 0.0004 0.0042 30.5736 0.0005 -1.9858
# 5 -30.1242 -15.2935 -26.6264 0.0005 38.9423 0.0000
# 6 0.0001 0.0001 0.0005 -1.9858 0.0000 34.5249
#
#
#
# Elastic Compliance Matrix: (Units=1/GPa)
#
#
# Indices 1 2 3 4 5 6 
#
# 1 0.035559 0.013349 0.012625 -0.000003 0.041382 0.000000
# 2 0.013349 0.025010 0.003663 -0.000001 0.022653 0.000000
# 3 0.012625 0.003663 0.021047 -0.000003 0.025595 -0.000001
# 4 -0.000003 -0.000001 -0.000003 0.032831 -0.000005 0.001888
# 5 0.041382 0.022653 0.025595 -0.000005 0.084087 -0.000001
# 6 0.000000 0.000000 -0.000001 0.001888 -0.000001 0.029073
#
#
# Mechanical properties :
#
#
# Convention : Reuss Voigt Hill
#
# Bulk Modulus (GPa) = 7.09773 23.20109 15.14941
# Shear Modulus (GPa) = 23.22370 34.04536 28.63453
#
# Velocity S-wave (km/s) = 3.24158 3.92483 3.59945
# Velocity P-wave (km/s) = 4.14993 5.57106 4.91216
#
# Compressibility (1/GPa) = 0.14089009
#
# Stress axis : x y z
#
# Youngs Moduli (GPa) = 28.12194 39.98419 47.51244
#
# Poissons Ratio (x) = -0.53376 -0.59984
# Poissons Ratio (y) = -0.37541 -0.17402
# Poissons Ratio (z) = -0.35504 -0.14645
#
# Static dielectric constant tensor:
#      x y z
#    x 1.818190 0.000000 -0.000330 
#    y 0.000000 1.740650 0.000000 
#    z -0.000330 0.000000 1.845330 
# 
# From -- ./inp_files/28178.got.cif
#   From: 2010.05.17/outbox.cif.g08.bks.cpg/sg8_15_cif.got.tgz:28178.got - 2010.06.03 19:46:02.
