data_PCOD9133618
_publ_section_title
;
Structure prediction by ZEFSAII (Michael W. Deem and Ramdas Pophale) SiO2 
 PCOD9133618
Probable space group: C M
;
_chemical_formula_sum "Si O2"
_cell_formula_units_Z 24
_cell_length_a 12.379765
_cell_length_b 19.205803
_cell_length_c 4.974979
_cell_angle_alpha 90.000000
_cell_angle_beta 78.751080
_cell_angle_gamma 90.000000
_cell_volume 1160.143444
_symmetry_space_group_name_H-M "C M"
_symmetry_group_IT_number 8
_symmetry_cell_setting 'monoclinic'
loop_
_space_group_symop_operation_xyz
x,y,z
x,-y,z
1/2+x,1/2+y,z
1/2+x,1/2-y,z
loop_
_atom_site_type_symbol
_atom_site_label
_atom_site_fract_x
_atom_site_fract_y
_atom_site_fract_z
Si Si1 0.305040 0.878498 0.677340
Si Si2 0.758149 0.784653 0.653215
Si Si3 0.983463 0.161816 0.309954
Si Si4 0.444624 0.919842 0.116909
Si Si5 0.614068 0.804798 0.221281
Si Si6 0.562355 0.419297 0.779894
O O1 0.286696 0.797094 0.627564
O O2 0.349858 0.914720 0.388295
O O3 0.187954 0.910171 0.817859
O O4 0.393905 0.889393 0.868100
O O5 0.864216 0.825159 0.495182
O O6 0.657169 0.802414 0.504414
O O7 0.718853 0.800349 0.973199
O O8 0.040128 0.235761 0.216125
O O9 0.052336 0.121959 0.505584
O O10 0.985508 0.116437 0.039785
O O11 0.542670 0.871663 0.178794
O O12 0.477110 0.000000 0.061567
O O13 0.536128 0.500000 0.755600
#
# Coordination Sequence:
#
# PCOD9133618 Si02
#       6
#     4   4   4   4   4   4
#     4  12  23  42  70 100 136 168 221 288 339 400
#     4  12  25  43  69 102 126 172 233 273 322 395
#     4  12  24  43  69  98 133 178 224 276 330 405
#     4  12  26  43  67 102 138 177 219 278 348 400
#     4  12  24  44  69  97 135 175 223 275 326 399
#     4  12  25  43  66 101 139 174 218 278 346 401
#
# _framework density 20.687096
#
# number of rings (size 3 to 8) (size 9 to 14) (size 15 to 20)
#    0.000    0.000    5.000    6.000    2.333    0.000 
#    0.000    5.000    0.000    0.000    0.000    0.000 
#    0.000    0.000    0.000    0.000    0.000    0.000 
#
# Total GULP energy -67205.592996 kJ/mol
# GULP energy per Si atom -5600.466083 kJ/mol
# Density = 2.064001 g / cm^3
# Si number density = 20.687096 Si / 1000 Ang^3
#
#
#
# Elastic Constant Matrix: (Units=GPa)
#
#
# Indices 1 2 3 4 5 6 
#
# 1 55.1487 52.5295 0.9232 0.0000 7.0603 0.0000
# 2 52.5295 122.6147 7.8225 0.0000 8.5527 0.0000
# 3 0.9232 7.8225 81.9943 0.0000 1.1948 0.0000
# 4 0.0000 0.0000 0.0000 47.9428 0.0000 -26.9028
# 5 7.0603 8.5527 1.1948 0.0000 52.0938 0.0000
# 6 0.0000 0.0000 0.0000 -26.9028 0.0000 22.6276
#
#
#
# Elastic Compliance Matrix: (Units=1/GPa)
#
#
# Indices 1 2 3 4 5 6 
#
# 1 0.030916 -0.013162 0.000937 0.000000 -0.002051 0.000000
# 2 -0.013162 0.013902 -0.001171 0.000000 -0.000472 0.000000
# 3 0.000937 -0.001171 0.012300 0.000000 -0.000217 0.000000
# 4 0.000000 0.000000 0.000000 0.062668 0.000000 0.074509
# 5 -0.002051 -0.000472 -0.000217 0.000000 0.019557 0.000000
# 6 0.000000 0.000000 0.000000 0.074509 0.000000 0.132780
#
#
# Mechanical properties :
#
#
# Convention : Reuss Voigt Hill
#
# Bulk Modulus (GPa) = 32.97330 42.47868 37.72599
# Shear Modulus (GPa) = 16.18001 37.76500 26.97250
#
# Velocity S-wave (km/s) = 2.79969 4.27726 3.61478
# Velocity P-wave (km/s) = 5.14050 6.70610 5.97480
#
# Compressibility (1/GPa) = 0.03032757
#
# Stress axis : x y z
#
# Youngs Moduli (GPa) = 32.34559 71.93300 81.29871
#
# Poissons Ratio (x) = 0.94675 -0.07621
# Poissons Ratio (y) = 0.42572 0.09522
# Poissons Ratio (z) = -0.03032 0.08425
#
# Static dielectric constant tensor:
#      x y z
#    x 1.742980 0.000000 -0.001380 
#    y 0.000000 1.685810 0.000000 
#    z -0.001380 0.000000 1.718520 
# 
# From -- ./inp_files/2672.got.cif
#   From: 2010.05.17/outbox.cif.g08.bks.cpg/sg8_2_cif.got.tgz:2672.got - 2010.06.03 19:46:02.
