data_PCOD9133972
_publ_section_title
;
Structure prediction by ZEFSAII (Michael W. Deem and Ramdas Pophale) SiO2 
 PCOD9133972
Probable space group: C C
;
_chemical_formula_sum "Si O2"
_cell_formula_units_Z 32
_cell_length_a 14.365186
_cell_length_b 19.881326
_cell_length_c 5.597826
_cell_angle_alpha 90.000000
_cell_angle_beta 129.000143
_cell_angle_gamma 90.000000
_cell_volume 1242.446543
_symmetry_space_group_name_H-M "C C"
_symmetry_group_IT_number 9
_symmetry_cell_setting 'monoclinic'
loop_
_space_group_symop_operation_xyz
x,y,z
x,-y,1/2+z
1/2+x,1/2+y,z
1/2+x,1/2-y,1/2+z
loop_
_atom_site_type_symbol
_atom_site_label
_atom_site_fract_x
_atom_site_fract_y
_atom_site_fract_z
Si Si1 0.569730 0.391431 0.334700
Si Si2 0.654562 0.965488 0.067038
Si Si3 0.383729 0.015758 0.576383
Si Si4 0.744220 0.693697 0.833065
Si Si5 0.669412 0.820016 0.952992
Si Si6 0.944556 0.336149 0.283789
Si Si7 0.953581 0.016397 0.323067
Si Si8 0.535465 0.725796 0.116544
O O1 0.914353 0.405435 0.106705
O O2 0.496341 0.410605 0.975711
O O3 0.505308 0.338060 0.402692
O O4 0.692979 0.358231 0.447277
O O5 0.702967 0.889883 0.124147
O O6 0.684652 0.005558 0.874532
O O7 0.506655 0.971963 0.809315
O O8 0.321408 0.007760 0.733229
O O9 0.063444 0.037034 0.959662
O O10 0.758228 0.766589 0.977476
O O11 0.859689 0.671592 0.875741
O O12 0.638445 0.701940 0.466919
O O13 0.595299 0.778220 0.029065
O O14 0.579826 0.841049 0.595306
O O15 0.941144 0.268938 0.118384
O O16 0.894301 0.011991 0.969059
#
# Coordination Sequence:
#
# PCOD9133972 Si02
#       8
#     4   4   4   4   4   4   4   4
#     4   9  18  36  54  84 117 156 205 250 308 366
#     4  10  18  32  60  90 115 156 199 249 308 372
#     4  10  19  35  56  87 124 160 199 246 304 379
#     4  10  23  38  55  89 125 164 210 255 301 381
#     4  10  21  38  60  84 124 165 204 252 311 374
#     4  11  22  38  59  86 128 166 209 254 314 371
#     4   8  16  30  56  78 111 151 198 250 298 359
#     4  10  21  37  60  84 120 166 210 256 306 372
#
# _framework density 25.755635000000002
#
# number of rings (size 3 to 8) (size 9 to 14) (size 15 to 20)
#    0.750    1.500    2.500    2.250    1.750    2.000 
#    2.250    0.000    0.000    0.000    3.250    0.000 
#    0.000    0.000    0.000    0.000    0.000    0.000 
#
# Total GULP energy -89430.762162 kJ/mol
# GULP energy per Si atom -5589.422635 kJ/mol
# Density = 2.569701 g / cm^3
# Si number density = 25.755635 Si / 1000 Ang^3
#
#
#
# Elastic Constant Matrix: (Units=GPa)
#
#
# Indices 1 2 3 4 5 6 
#
# 1 106.5846 31.2621 24.3409 0.0000 -27.2367 0.0000
# 2 31.2621 128.0182 39.0302 0.0000 -7.5673 0.0000
# 3 24.3409 39.0302 133.5838 0.0000 -27.7050 0.0000
# 4 0.0000 0.0000 0.0000 37.0981 0.0000 -22.1016
# 5 -27.2367 -7.5673 -27.7050 0.0000 40.8160 0.0000
# 6 0.0000 0.0000 0.0000 -22.1016 0.0000 40.4836
#
#
#
# Elastic Compliance Matrix: (Units=1/GPa)
#
#
# Indices 1 2 3 4 5 6 
#
# 1 0.012053 -0.002531 0.000133 0.000000 0.007664 0.000000
# 2 -0.002531 0.009107 -0.002560 0.000000 -0.001738 0.000000
# 3 0.000133 -0.002560 0.009462 0.000000 0.006036 0.000000
# 4 0.000000 0.000000 0.000000 0.039949 0.000000 0.021810
# 5 0.007664 -0.001738 0.006036 0.000000 0.033389 0.000000
# 6 0.000000 0.000000 0.000000 0.021810 0.000000 0.036608
#
#
# Mechanical properties :
#
#
# Convention : Reuss Voigt Hill
#
# Bulk Modulus (GPa) = 48.29772 61.93922 55.11847
# Shear Modulus (GPa) = 31.76898 41.91641 36.84270
#
# Velocity S-wave (km/s) = 3.51590 4.03856 3.78626
# Velocity P-wave (km/s) = 5.93928 6.77109 6.36878
#
# Compressibility (1/GPa) = 0.02070491
#
# Stress axis : x y z
#
# Youngs Moduli (GPa) = 82.96999 109.80292 105.68883
#
# Poissons Ratio (x) = 0.27788 -0.01402
# Poissons Ratio (y) = 0.20997 0.27059
# Poissons Ratio (z) = -0.01101 0.28113
#
# Static dielectric constant tensor:
#      x y z
#    x 2.045800 0.000000 0.024800 
#    y 0.000000 2.001850 0.000000 
#    z 0.024800 0.000000 2.072570 
# 
# From -- ./inp_files/2662.got.cif
#   From: 2010.05.17/outbox.cif.g08.bks.cpg/sg9_2_cif.got.tgz:2662.got - 2010.06.03 20:04:27.
