data_PCOD9133077
_publ_section_title
;
Structure prediction by ZEFSAII (Michael W. Deem and Ramdas Pophale) SiO2 
 PCOD9133077
Probable space group: C M
;
_chemical_formula_sum "Si O2"
_cell_formula_units_Z 26
_cell_length_a 19.686767
_cell_length_b 7.510992
_cell_length_c 14.648596
_cell_angle_alpha 90.000000
_cell_angle_beta 148.553794
_cell_angle_gamma 90.000000
_cell_volume 1130.021515
_symmetry_space_group_name_H-M "C M"
_symmetry_group_IT_number 8
_symmetry_cell_setting 'monoclinic'
loop_
_space_group_symop_operation_xyz
x,y,z
x,-y,z
1/2+x,1/2+y,z
1/2+x,1/2-y,z
loop_
_atom_site_type_symbol
_atom_site_label
_atom_site_fract_x
_atom_site_fract_y
_atom_site_fract_z
Si Si1 0.816800 0.714599 0.893350
Si Si2 0.642814 0.713162 0.532550
Si Si3 0.021812 0.000000 0.127288
Si Si4 0.353016 0.796035 0.142748
Si Si5 0.660547 0.205417 0.079480
Si Si6 0.213988 0.293267 0.342873
Si Si7 0.388989 0.784489 0.693440
O O1 0.843365 0.500000 0.917330
O O2 0.685062 0.749557 0.686027
O O3 0.928046 0.839721 0.979113
O O4 0.821724 0.773793 0.005257
O O5 0.632674 0.500000 0.513417
O O6 0.504956 0.786247 0.341983
O O7 0.766717 0.773771 0.615033
O O8 0.116601 0.843243 0.279469
O O9 0.270186 0.710762 0.128294
O O10 0.311704 0.000000 0.092994
O O11 0.708856 0.276587 0.232377
O O12 0.632114 0.000000 0.066871
O O13 0.527008 0.284302 0.887639
O O14 0.174991 0.500000 0.305932
O O15 0.353247 0.273886 0.550251
O O16 0.392916 0.000000 0.699874
#
# Coordination Sequence:
#
# PCOD9133077 Si02
#       7
#     4   4   2   4   4   4   4
#     4  10  24  43  64  98 136 176 221 280 333 399
#     4  10  22  42  67  96 135 173 221 275 340 395
#     4  12  22  38  72  94 136 172 228 266 350 380
#     4  11  25  42  66  98 136 177 229 274 329 403
#     4  10  24  45  68  93 137 182 222 273 340 399
#     4  11  24  42  65  99 135 176 221 280 335 400
#     4  10  21  41  68 100 130 175 225 277 333 399
#
# _framework density 23.008409
#
# number of rings (size 3 to 8) (size 9 to 14) (size 15 to 20)
#    0.000    1.538    0.769    2.769    6.462    6.154 
#    2.769    4.615    0.000    0.000    0.000    0.000 
#    0.000    0.000    0.000    0.000    0.000    0.000 
#
# Total GULP energy -72376.068088 kJ/mol
# GULP energy per Si atom -5567.389853 kJ/mol
# Density = 2.295604 g / cm^3
# Si number density = 23.008409 Si / 1000 Ang^3
#
#
#
# Elastic Constant Matrix: (Units=GPa)
#
#
# Indices 1 2 3 4 5 6 
#
# 1 85.0933 6.1046 83.0041 0.0000 -14.1407 0.0000
# 2 6.1046 104.4598 11.2176 0.0000 -1.3602 0.0000
# 3 83.0041 11.2176 179.5401 0.0000 -35.4672 0.0000
# 4 0.0000 0.0000 0.0000 30.9703 0.0000 6.4575
# 5 -14.1407 -1.3602 -35.4672 0.0000 34.0509 0.0000
# 6 0.0000 0.0000 0.0000 6.4575 0.0000 -0.7701
#
#
#
# Elastic Compliance Matrix: (Units=1/GPa)
#
#
# Indices 1 2 3 4 5 6 
#
# 1 0.021494 -0.000176 -0.010279 0.000000 -0.001788 0.000000
# 2 -0.000176 0.009642 -0.000579 0.000000 -0.000290 0.000000
# 3 -0.010279 -0.000579 0.011974 0.000000 0.008180 0.000000
# 4 0.000000 0.000000 0.000000 0.011749 0.000000 0.098513
# 5 -0.001788 -0.000290 0.008180 0.000000 0.037134 0.000000
# 6 0.000000 0.000000 0.000000 0.098513 0.000000 -0.472472
#
#
# Mechanical properties :
#
#
# Convention : Reuss Voigt Hill
#
# Bulk Modulus (GPa) = 47.52134 63.30508 55.41321
# Shear Modulus (GPa) = -14.22889 30.76800 8.26955
#
# Velocity S-wave (km/s) = -2.48951 3.66081 1.89788
# Velocity P-wave (km/s) = 3.52636 6.74109 5.37948
#
# Compressibility (1/GPa) = 0.02104318
#
# Stress axis : x y z
#
# Youngs Moduli (GPa) = 46.52412 103.71643 83.51296
#
# Poissons Ratio (x) = 0.01821 0.85845
# Poissons Ratio (y) = 0.00817 0.04832
# Poissons Ratio (z) = 0.47823 0.06001
#
# Static dielectric constant tensor:
#      x y z
#    x 1.975610 0.000000 -0.066220 
#    y 0.000000 1.866290 0.000000 
#    z -0.066220 0.000000 1.916460 
# 
# From -- ./inp_files/27798.got.cif
#   From: 2010.05.17/outbox.cif.g08.bks.cpg/sg8_14_cif.got.tgz:27798.got - 2010.06.03 19:46:02.
