data_PCOD9133813
_publ_section_title
;
Structure prediction by ZEFSAII (Michael W. Deem and Ramdas Pophale) SiO2 
 PCOD9133813
Probable space group: C C
;
_chemical_formula_sum "Si O2"
_cell_formula_units_Z 32
_cell_length_a 6.660635
_cell_length_b 12.594102
_cell_length_c 22.807804
_cell_angle_alpha 90.000000
_cell_angle_beta 132.445830
_cell_angle_gamma 90.000000
_cell_volume 1411.799709
_symmetry_space_group_name_H-M "C C"
_symmetry_group_IT_number 9
_symmetry_cell_setting 'monoclinic'
loop_
_space_group_symop_operation_xyz
x,y,z
x,-y,1/2+z
1/2+x,1/2+y,z
1/2+x,1/2-y,1/2+z
loop_
_atom_site_type_symbol
_atom_site_label
_atom_site_fract_x
_atom_site_fract_y
_atom_site_fract_z
Si Si1 0.231730 0.039835 0.724500
Si Si2 0.258720 0.602258 0.082763
Si Si3 0.791435 0.909026 0.457624
Si Si4 0.685447 0.893353 0.873924
Si Si5 0.747792 0.696240 0.374494
Si Si6 0.961166 0.727179 0.702635
Si Si7 0.056633 0.184026 0.797776
Si Si8 0.258287 0.968965 0.420788
O O1 0.346482 0.111877 0.694899
O O2 0.150886 0.119920 0.760287
O O3 0.465129 0.959380 0.792341
O O4 0.958454 0.978517 0.654219
O O5 0.260498 0.707542 0.121808
O O6 0.390765 0.613377 0.043348
O O7 0.949253 0.561723 0.012808
O O8 0.796200 0.802994 0.420648
O O9 0.482010 0.941430 0.413462
O O10 0.883056 0.014071 0.439154
O O11 0.529448 0.839009 0.898241
O O12 0.746351 0.785362 0.849799
O O13 0.536072 0.715703 0.279417
O O14 0.680235 0.590800 0.398552
O O15 0.250571 0.723616 0.727135
O O16 0.030161 0.110055 0.851224
#
# Coordination Sequence:
#
# PCOD9133813 Si02
#       8
#     4   4   4   4   4   4   4   4
#     4  12  21  45  64  95 140 171 206 290 336 377
#     4  10  22  42  61  96 145 165 214 287 336 382
#     4   9  19  38  64  90 134 170 210 276 325 381
#     4  10  20  38  63  96 123 170 221 267 325 393
#     4  10  16  38  66  87 126 170 219 265 309 395
#     4  11  23  39  69 100 128 168 234 271 318 406
#     4  11  21  42  72  93 129 178 229 265 330 402
#     4   9  20  38  61  93 129 176 209 265 337 376
#
# _framework density 22.666105000000002
#
# number of rings (size 3 to 8) (size 9 to 14) (size 15 to 20)
#    0.750    1.000    6.250    0.000    0.000    2.000 
#    6.750    0.000    5.500    0.000    0.000    0.000 
#    0.000    0.000    0.000    0.000    0.000    0.000 
#
# Total GULP energy -89214.053450 kJ/mol
# GULP energy per Si atom -5575.878341 kJ/mol
# Density = 2.261452 g / cm^3
# Si number density = 22.666105 Si / 1000 Ang^3
#
#
#
# Elastic Constant Matrix: (Units=GPa)
#
#
# Indices 1 2 3 4 5 6 
#
# 1 37.6469 35.9967 10.7339 0.0000 -13.0006 0.0000
# 2 35.9967 162.7321 19.7817 0.0000 -24.2022 0.0000
# 3 10.7339 19.7817 60.3193 0.0000 -14.3508 0.0000
# 4 0.0000 0.0000 0.0000 28.1356 0.0000 -10.5210
# 5 -13.0006 -24.2022 -14.3508 0.0000 32.0349 0.0000
# 6 0.0000 0.0000 0.0000 -10.5210 0.0000 50.4614
#
#
#
# Elastic Compliance Matrix: (Units=1/GPa)
#
#
# Indices 1 2 3 4 5 6 
#
# 1 0.036463 -0.006468 -0.002249 0.000000 0.008903 0.000000
# 2 -0.006468 0.008142 -0.000761 0.000000 0.003185 0.000000
# 3 -0.002249 -0.000761 0.018887 0.000000 0.006973 0.000000
# 4 0.000000 0.000000 0.000000 0.038547 0.000000 0.008037
# 5 0.008903 0.003185 0.006973 0.000000 0.040359 0.000000
# 6 0.000000 0.000000 0.000000 0.008037 0.000000 0.021493
#
#
# Mechanical properties :
#
#
# Convention : Reuss Voigt Hill
#
# Bulk Modulus (GPa) = 22.45411 43.74699 33.10055
# Shear Modulus (GPa) = 25.29151 35.07213 30.18182
#
# Velocity S-wave (km/s) = 3.34403 3.93789 3.65305
# Velocity P-wave (km/s) = 4.98377 6.32602 5.69458
#
# Compressibility (1/GPa) = 0.04453527
#
# Stress axis : x y z
#
# Youngs Moduli (GPa) = 27.42495 122.81814 52.94549
#
# Poissons Ratio (x) = 0.79441 0.11908
# Poissons Ratio (y) = 0.17739 0.04031
# Poissons Ratio (z) = 0.06168 0.09351
#
# Static dielectric constant tensor:
#      x y z
#    x 2.025570 0.000000 0.012180 
#    y 0.000000 1.907960 0.000000 
#    z 0.012180 0.000000 1.831570 
# 
# From -- ./inp_files/37174.got.cif
#   From: 2010.05.17/outbox.cif.g08.bks.cpg/sg9_19_cif.got.tgz:37174.got - 2010.06.03 20:04:27.
