data_PCOD9133167
_publ_section_title
;
Structure prediction by ZEFSAII (Michael W. Deem and Ramdas Pophale) SiO2 
 PCOD9133167
Probable space group: C M
;
_chemical_formula_sum "Si O2"
_cell_formula_units_Z 24
_cell_length_a 12.026580
_cell_length_b 23.250449
_cell_length_c 7.671609
_cell_angle_alpha 90.000000
_cell_angle_beta 151.243970
_cell_angle_gamma 90.000000
_cell_volume 1031.996409
_symmetry_space_group_name_H-M "C M"
_symmetry_group_IT_number 8
_symmetry_cell_setting 'monoclinic'
loop_
_space_group_symop_operation_xyz
x,y,z
x,-y,z
1/2+x,1/2+y,z
1/2+x,1/2-y,z
loop_
_atom_site_type_symbol
_atom_site_label
_atom_site_fract_x
_atom_site_fract_y
_atom_site_fract_z
Si Si1 0.685430 0.653781 0.805000
Si Si2 0.542418 0.066670 0.707870
Si Si3 0.529116 0.564293 0.831047
Si Si4 0.912992 0.338687 0.775136
Si Si5 0.341559 0.273847 0.542457
Si Si6 0.717209 0.857291 0.648451
O O1 0.547988 0.597443 0.675242
O O2 0.704927 0.660303 0.626304
O O3 0.568785 0.704481 0.754504
O O4 0.949863 0.646573 0.226302
O O5 0.488120 0.098935 0.814254
O O6 0.700412 0.111567 0.813849
O O7 0.623894 0.000000 0.828401
O O8 0.288198 0.064300 0.266980
O O9 0.446609 0.500000 0.697021
O O10 0.361655 0.598679 0.728270
O O11 0.834146 0.294746 0.517160
O O12 0.132932 0.305791 0.157998
O O13 0.317988 0.296296 0.712249
#
# Coordination Sequence:
#
# PCOD9133167 Si02
#       6
#     4   4   4   4   4   4
#     4   9  21  40  57  89 124 163 207 256 316 369
#     4  10  22  39  62  94 131 170 212 261 315 377
#     4   9  18  36  65  93 125 168 211 253 309 380
#     4  11  25  39  63  94 128 169 210 269 319 381
#     4  10  24  40  62  93 125 169 212 261 323 375
#     4   9  19  38  63  89 122 165 212 256 308 374
#
# _framework density 23.255894000000001
#
# number of rings (size 3 to 8) (size 9 to 14) (size 15 to 20)
#    0.000    2.333    0.000    0.500    9.333    4.000 
#    0.000    9.167    0.000    0.000    0.000    0.000 
#    0.000    0.000    0.000    0.000    0.000    0.000 
#
# Total GULP energy -66969.345701 kJ/mol
# GULP energy per Si atom -5580.778808 kJ/mol
# Density = 2.320296 g / cm^3
# Si number density = 23.255894 Si / 1000 Ang^3
#
#
#
# Elastic Constant Matrix: (Units=GPa)
#
#
# Indices 1 2 3 4 5 6 
#
# 1 114.4946 25.1205 4.4262 0.0000 27.7750 0.0000
# 2 25.1205 86.1054 3.9742 0.0000 1.7311 0.0000
# 3 4.4262 3.9742 65.7531 0.0000 14.6932 0.0000
# 4 0.0000 0.0000 0.0000 26.2906 0.0000 2.9718
# 5 27.7750 1.7311 14.6932 0.0000 32.3001 0.0000
# 6 0.0000 0.0000 0.0000 2.9718 0.0000 19.7285
#
#
#
# Elastic Compliance Matrix: (Units=1/GPa)
#
#
# Indices 1 2 3 4 5 6 
#
# 1 0.012089 -0.003391 0.001863 0.000000 -0.011061 0.000000
# 2 -0.003391 0.012600 -0.001151 0.000000 0.002764 0.000000
# 3 0.001863 -0.001151 0.017250 0.000000 -0.009387 0.000000
# 4 0.000000 0.000000 0.000000 0.038695 0.000000 -0.005829
# 5 -0.011061 0.002764 -0.009387 0.000000 0.044593 0.000000
# 6 0.000000 0.000000 0.000000 -0.005829 0.000000 0.051566
#
#
# Mechanical properties :
#
#
# Convention : Reuss Voigt Hill
#
# Bulk Modulus (GPa) = 27.33531 37.04389 32.18960
# Shear Modulus (GPa) = 25.72726 31.18597 28.45662
#
# Velocity S-wave (km/s) = 3.32967 3.66593 3.50184
# Velocity P-wave (km/s) = 5.15383 5.82083 5.49746
#
# Compressibility (1/GPa) = 0.03658272
#
# Stress axis : x y z
#
# Youngs Moduli (GPa) = 82.71816 79.36265 57.97014
#
# Poissons Ratio (x) = 0.26908 -0.10799
# Poissons Ratio (y) = 0.28046 0.06672
# Poissons Ratio (z) = -0.15410 0.09134
#
# Static dielectric constant tensor:
#      x y z
#    x 1.911860 0.000000 -0.067250 
#    y 0.000000 1.861080 0.000000 
#    z -0.067250 0.000000 1.919450 
# 
# From -- ./inp_files/1623.got.cif
#   From: 2010.05.17/outbox.cif.g08.bks.cpg/sg8_1_cif.got.tgz:1623.got - 2010.06.03 19:46:02.
