data_PCOD9133112
_publ_section_title
;
Structure prediction by ZEFSAII (Michael W. Deem and Ramdas Pophale) SiO2 
 PCOD9133112
Probable space group: C M
;
_chemical_formula_sum "Si O2"
_cell_formula_units_Z 30
_cell_length_a 14.536540
_cell_length_b 16.680564
_cell_length_c 11.721127
_cell_angle_alpha 90.000000
_cell_angle_beta 29.023602
_cell_angle_gamma 90.000000
_cell_volume 1378.906970
_symmetry_space_group_name_H-M "C M"
_symmetry_group_IT_number 8
_symmetry_cell_setting 'monoclinic'
loop_
_space_group_symop_operation_xyz
x,y,z
x,-y,z
1/2+x,1/2+y,z
1/2+x,1/2-y,z
loop_
_atom_site_type_symbol
_atom_site_label
_atom_site_fract_x
_atom_site_fract_y
_atom_site_fract_z
Si Si1 0.488950 0.500000 0.799330
Si Si2 0.532789 0.094535 0.418975
Si Si3 0.803006 0.090207 0.406581
Si Si4 0.295736 0.194600 0.520792
Si Si5 0.544467 0.346388 0.322136
Si Si6 0.039827 0.157062 0.596514
Si Si7 0.446632 0.355747 0.018062
Si Si8 0.411991 0.168897 0.779127
O O1 0.469416 0.573289 0.725746
O O2 0.511206 0.431793 0.875455
O O3 0.411870 0.117721 0.440576
O O4 0.724004 0.148362 0.223661
O O5 0.410065 0.119825 0.662102
O O6 0.584299 0.000000 0.360116
O O7 0.936712 0.128487 0.163374
O O8 0.613209 0.142398 0.613929
O O9 0.906933 0.088907 0.413862
O O10 0.755423 0.000000 0.420285
O O11 0.438540 0.265929 0.393842
O O12 0.229466 0.179782 0.463321
O O13 0.102036 0.207260 0.805832
O O14 0.565434 0.349385 0.434188
O O15 0.745743 0.353186 0.043602
O O16 0.910205 0.235740 0.758039
#
# Coordination Sequence:
#
# PCOD9133112 Si02
#       8
#     2   4   4   4   4   4   4   4
#     4  10  22  42  70  98 136 192 212 296 360 404
#     4  11  23  41  75 110 135 178 243 302 355 413
#     4  11  24  45  74 109 136 185 241 293 358 420
#     4  11  25  42  69 103 134 186 237 282 359 423
#     4  12  27  46  70 101 143 194 230 295 357 432
#     4  11  26  47  66 101 147 179 236 294 355 423
#     4  10  21  43  74 101 140 171 235 308 346 405
#     4  11  24  46  72 103 141 181 241 300 351 419
#
# _framework density 21.756361999999999
#
# number of rings (size 3 to 8) (size 9 to 14) (size 15 to 20)
#    0.000    1.067    4.000    2.000    8.400    2.133 
#    4.800    0.000    0.000    0.000    0.000    0.000 
#    0.000    0.000    0.000    0.000    0.000    0.000 
#
# Total GULP energy -83507.980208 kJ/mol
# GULP energy per Si atom -5567.198681 kJ/mol
# Density = 2.170684 g / cm^3
# Si number density = 21.756362 Si / 1000 Ang^3
#
#
#
# Elastic Constant Matrix: (Units=GPa)
#
#
# Indices 1 2 3 4 5 6 
#
# 1 154.3629 4.9467 20.2594 0.0055 9.7331 -0.0027
# 2 4.9467 81.9480 4.3119 0.0143 -0.6589 -0.0108
# 3 20.2594 4.3119 77.2243 -0.0012 -8.8318 0.0015
# 4 0.0055 0.0143 -0.0012 28.3693 -0.0081 9.0876
# 5 9.7331 -0.6589 -8.8318 -0.0081 22.4758 0.0083
# 6 -0.0027 -0.0108 0.0015 9.0876 0.0083 20.5536
#
#
#
# Elastic Compliance Matrix: (Units=1/GPa)
#
#
# Indices 1 2 3 4 5 6 
#
# 1 0.007037 -0.000337 -0.002280 -0.000004 -0.003953 0.000004
# 2 -0.000337 0.012255 -0.000564 -0.000009 0.000284 0.000010
# 3 -0.002280 -0.000564 0.014334 0.000005 0.006603 -0.000007
# 4 -0.000004 -0.000009 0.000005 0.041066 0.000025 -0.018157
# 5 -0.003953 0.000284 0.006603 0.000025 0.048807 -0.000031
# 6 0.000004 0.000010 -0.000007 -0.018157 -0.000031 0.056681
#
#
# Mechanical properties :
#
#
# Convention : Reuss Voigt Hill
#
# Bulk Modulus (GPa) = 36.67425 41.39680 39.03553
# Shear Modulus (GPa) = 25.55859 33.21421 29.38640
#
# Velocity S-wave (km/s) = 3.43120 3.91147 3.67918
# Velocity P-wave (km/s) = 5.70885 6.28237 6.00246
#
# Compressibility (1/GPa) = 0.02726709
#
# Stress axis : x y z
#
# Youngs Moduli (GPa) = 142.09646 81.59857 69.76443
#
# Poissons Ratio (x) = 0.02747 0.15903
# Poissons Ratio (y) = 0.04784 0.03931
# Poissons Ratio (z) = 0.32392 0.04598
#
# Static dielectric constant tensor:
#      x y z
#    x 1.835140 0.000000 -0.028170 
#    y 0.000000 1.878060 0.000000 
#    z -0.028170 0.000000 1.819430 
# 
# From -- ./inp_files/22348.got.cif
#   From: 2010.05.17/outbox.cif.g08.bks.cpg/sg8_12_cif.got.tgz:22348.got - 2010.06.03 19:46:02.
