data_PCOD9133394
_publ_section_title
;
Structure prediction by ZEFSAII (Michael W. Deem and Ramdas Pophale) SiO2 
 PCOD9133394
Probable space group: C M
;
_chemical_formula_sum "Si O2"
_cell_formula_units_Z 28
_cell_length_a 8.163742
_cell_length_b 31.291015
_cell_length_c 5.067030
_cell_angle_alpha 90.000000
_cell_angle_beta 67.409768
_cell_angle_gamma 90.000000
_cell_volume 1195.071287
_symmetry_space_group_name_H-M "C M"
_symmetry_group_IT_number 8
_symmetry_cell_setting 'monoclinic'
loop_
_space_group_symop_operation_xyz
x,y,z
x,-y,z
1/2+x,1/2+y,z
1/2+x,1/2-y,z
loop_
_atom_site_type_symbol
_atom_site_label
_atom_site_fract_x
_atom_site_fract_y
_atom_site_fract_z
Si Si1 0.750000 0.547472 0.233280
Si Si2 0.469146 0.877398 0.338615
Si Si3 0.303733 0.790980 0.486189
Si Si4 0.053854 0.546176 0.657547
Si Si5 0.853823 0.858689 0.100098
Si Si6 0.392972 0.413934 0.599055
Si Si7 0.076010 0.777747 0.114362
O O1 0.791666 0.500000 0.331673
O O2 0.829579 0.593899 0.266535
O O3 0.542014 0.554209 0.395589
O O4 0.855867 0.543824 0.894428
O O5 0.368791 0.837917 0.532989
O O6 0.548202 0.915096 0.464584
O O7 0.651143 0.856730 0.115082
O O8 0.212034 0.768553 0.792534
O O9 0.176010 0.795636 0.311346
O O10 0.466068 0.762671 0.281934
O O11 0.104277 0.500000 0.517736
O O12 0.209537 0.560095 0.762413
O O13 0.866105 0.878962 0.384927
O O14 0.948480 0.890134 0.832825
O O15 0.943513 0.812843 0.072411
#
# Coordination Sequence:
#
# PCOD9133394 Si02
#       7
#     4   4   4   4   4   4   4
#     4  11  23  41  67  99 137 187 241 293 356 426
#     4  11  24  43  70 102 139 192 231 303 355 435
#     4  12  28  46  79 101 152 181 252 289 379 428
#     4  10  23  44  67 102 145 189 243 300 358 425
#     4  11  24  44  71  99 144 177 239 289 363 417
#     4  11  24  43  68 102 139 190 232 298 350 427
#     4  12  26  49  70 113 136 196 232 312 355 448
#
# _framework density 23.429565
#
# number of rings (size 3 to 8) (size 9 to 14) (size 15 to 20)
#    0.000    0.857    1.429    5.143    6.000    1.143 
#    0.000    1.429    0.000    0.000    0.000    0.000 
#    0.000    0.000    0.000    0.000    0.000    0.000 
#
# Total GULP energy -78080.583615 kJ/mol
# GULP energy per Si atom -5577.184544 kJ/mol
# Density = 2.337624 g / cm^3
# Si number density = 23.429565 Si / 1000 Ang^3
#
#
#
# Elastic Constant Matrix: (Units=GPa)
#
#
# Indices 1 2 3 4 5 6 
#
# 1 31.6571 7.1164 2.0727 0.0000 -6.5661 0.0000
# 2 7.1164 135.3911 22.6957 0.0000 -4.6406 0.0000
# 3 2.0727 22.6957 100.2956 0.0000 -8.9569 0.0000
# 4 0.0000 0.0000 0.0000 29.9511 0.0000 1.9197
# 5 -6.5661 -4.6406 -8.9569 0.0000 31.3884 0.0000
# 6 0.0000 0.0000 0.0000 1.9197 0.0000 17.5213
#
#
#
# Elastic Compliance Matrix: (Units=1/GPa)
#
#
# Indices 1 2 3 4 5 6 
#
# 1 0.033337 -0.001564 0.000274 0.000000 0.006821 0.000000
# 2 -0.001564 0.007764 -0.001694 0.000000 0.000337 0.000000
# 3 0.000274 -0.001694 0.010601 0.000000 0.002832 0.000000
# 4 0.000000 0.000000 0.000000 0.033624 0.000000 -0.003684
# 5 0.006821 0.000337 0.002832 0.000000 0.034144 0.000000
# 6 0.000000 0.000000 0.000000 -0.003684 0.000000 0.057477
#
#
# Mechanical properties :
#
#
# Convention : Reuss Voigt Hill
#
# Bulk Modulus (GPa) = 21.86624 36.79039 29.32831
# Shear Modulus (GPa) = 25.23215 31.46944 28.35079
#
# Velocity S-wave (km/s) = 3.28523 3.66888 3.48234
# Velocity P-wave (km/s) = 4.87271 5.80381 5.35852
#
# Compressibility (1/GPa) = 0.04573260
#
# Stress axis : x y z
#
# Youngs Moduli (GPa) = 29.99678 128.80240 94.32898
#
# Poissons Ratio (x) = 0.20150 -0.02587
# Poissons Ratio (y) = 0.04693 0.15983
# Poissons Ratio (z) = -0.00823 0.21825
#
# Static dielectric constant tensor:
#      x y z
#    x 2.018550 0.000000 -0.031330 
#    y 0.000000 1.895160 0.000000 
#    z -0.031330 0.000000 1.922940 
# 
# From -- ./inp_files/1950.got.cif
#   From: 2010.05.17/outbox.cif.g08.bks.cpg/sg8_1_cif.got.tgz:1950.got - 2010.06.03 19:46:02.
