data_PCOD9133484
_publ_section_title
;
Structure prediction by ZEFSAII (Michael W. Deem and Ramdas Pophale) SiO2 
 PCOD9133484
Probable space group: C M
;
_chemical_formula_sum "Si O2"
_cell_formula_units_Z 32
_cell_length_a 12.525408
_cell_length_b 14.755992
_cell_length_c 8.469723
_cell_angle_alpha 90.000000
_cell_angle_beta 96.531679
_cell_angle_gamma 90.000000
_cell_volume 1555.254100
_symmetry_space_group_name_H-M "C M"
_symmetry_group_IT_number 8
_symmetry_cell_setting 'monoclinic'
loop_
_space_group_symop_operation_xyz
x,y,z
x,-y,z
1/2+x,1/2+y,z
1/2+x,1/2-y,z
loop_
_atom_site_type_symbol
_atom_site_label
_atom_site_fract_x
_atom_site_fract_y
_atom_site_fract_z
Si Si1 0.408310 0.676027 0.914410
Si Si2 0.207984 0.276660 0.433105
Si Si3 0.727257 0.603843 0.650282
Si Si4 0.637711 0.604533 0.977834
Si Si5 0.194608 0.605145 0.746016
Si Si6 0.514067 0.893783 0.359587
Si Si7 0.964985 0.335338 0.709999
Si Si8 0.826573 0.298586 0.179436
O O1 0.511686 0.618897 0.978989
O O2 0.298927 0.621495 0.869169
O O3 0.438583 0.734218 0.762887
O O4 0.382534 0.747382 0.046111
O O5 0.197786 0.176398 0.509869
O O6 0.219327 0.340432 0.588638
O O7 0.108466 0.324396 0.326202
O O8 0.304673 0.265932 0.326116
O O9 0.705785 0.500000 0.599640
O O10 0.664289 0.627180 0.799671
O O11 0.853191 0.612460 0.720325
O O12 0.667027 0.500000 0.006022
O O13 0.711992 0.664816 0.101893
O O14 0.181647 0.500000 0.707873
O O15 0.081073 0.637895 0.801804
O O16 0.486251 0.858266 0.530805
O O17 0.406392 0.878470 0.242919
O O18 0.544126 0.000000 0.364904
#
# Coordination Sequence:
#
# PCOD9133484 Si02
#       8
#     4   4   4   4   4   4   4   4
#     4  12  23  42  63  93 128 170 205 256 316 375
#     4  11  22  40  62  95 126 162 201 265 314 370
#     4  11  21  39  67  96 123 161 215 268 312 365
#     4  11  24  41  61  90 125 163 212 261 308 370
#     4  11  23  42  69  96 124 163 209 264 317 370
#     4  11  23  40  64  93 125 163 210 263 311 368
#     4  11  20  39  65  93 124 156 210 263 307 361
#     4  12  23  41  61  88 125 174 208 252 307 373
#
# _framework density 20.575416000000001
#
# number of rings (size 3 to 8) (size 9 to 14) (size 15 to 20)
#    0.000    0.750    3.750    6.000    0.000    0.500 
#    0.000    3.750    0.000    0.750    0.000    0.000 
#    0.000    0.000    0.000    0.000    0.000    0.000 
#
# Total GULP energy -89294.423640 kJ/mol
# GULP energy per Si atom -5580.901478 kJ/mol
# Density = 2.052859 g / cm^3
# Si number density = 20.575416 Si / 1000 Ang^3
#
#
#
# Elastic Constant Matrix: (Units=GPa)
#
#
# Indices 1 2 3 4 5 6 
#
# 1 138.8414 33.3211 21.1052 0.0000 12.5627 0.0000
# 2 33.3211 89.9563 18.6146 0.0000 -0.4951 0.0000
# 3 21.1052 18.6146 29.5408 0.0000 2.0271 0.0000
# 4 0.0000 0.0000 0.0000 1.0487 0.0000 8.9593
# 5 12.5627 -0.4951 2.0271 0.0000 21.0634 0.0000
# 6 0.0000 0.0000 0.0000 8.9593 0.0000 31.6162
#
#
#
# Elastic Compliance Matrix: (Units=1/GPa)
#
#
# Indices 1 2 3 4 5 6 
#
# 1 0.008910 -0.002392 -0.004520 0.000000 -0.004936 0.000000
# 2 -0.002392 0.013450 -0.006932 0.000000 0.002410 0.000000
# 3 -0.004520 -0.006932 0.041549 0.000000 -0.001466 0.000000
# 4 0.000000 0.000000 0.000000 -0.671085 0.000000 0.190171
# 5 -0.004936 0.002410 -0.001466 0.000000 0.050617 0.000000
# 6 0.000000 0.000000 0.000000 0.190171 0.000000 -0.022261
#
#
# Mechanical properties :
#
#
# Convention : Reuss Voigt Hill
#
# Bulk Modulus (GPa) = 27.60743 44.93559 36.27151
# Shear Modulus (GPa) = -9.27543 23.09885 6.91171
#
# Velocity S-wave (km/s) = -2.12551 3.35422 1.83480
# Velocity P-wave (km/s) = 2.72453 6.07354 4.70696
#
# Compressibility (1/GPa) = 0.03622213
#
# Stress axis : x y z
#
# Youngs Moduli (GPa) = 112.23048 74.34785 24.06805
#
# Poissons Ratio (x) = 0.17787 0.10878
# Poissons Ratio (y) = 0.26850 0.16683
# Poissons Ratio (z) = 0.50724 0.51535
#
# Static dielectric constant tensor:
#      x y z
#    x 1.796180 0.000000 0.026860 
#    y 0.000000 1.729180 0.000000 
#    z 0.026860 0.000000 1.761610 
# 
# From -- ./inp_files/10743.got.cif
#   From: 2010.05.17/outbox.cif.g08.bks.cpg/sg8_6_cif.got.tgz:10743.got - 2010.06.03 19:46:02.
