data_PCOD9133556
_publ_section_title
;
Structure prediction by ZEFSAII (Michael W. Deem and Ramdas Pophale) SiO2 
 PCOD9133556
Probable space group: C M
;
_chemical_formula_sum "Si O2"
_cell_formula_units_Z 22
_cell_length_a 15.285814
_cell_length_b 12.448269
_cell_length_c 12.565355
_cell_angle_alpha 90.000000
_cell_angle_beta 154.907980
_cell_angle_gamma 90.000000
_cell_volume 1013.942253
_symmetry_space_group_name_H-M "C M"
_symmetry_group_IT_number 8
_symmetry_cell_setting 'monoclinic'
loop_
_space_group_symop_operation_xyz
x,y,z
x,-y,z
1/2+x,1/2+y,z
1/2+x,1/2-y,z
loop_
_atom_site_type_symbol
_atom_site_label
_atom_site_fract_x
_atom_site_fract_y
_atom_site_fract_z
Si Si1 0.163720 0.731433 0.359380
Si Si2 0.798749 0.124084 0.888396
Si Si3 0.764992 0.000000 0.402650
Si Si4 0.071275 0.000000 0.587082
Si Si5 0.494726 0.261880 0.408891
Si Si6 0.089421 0.316008 0.871934
Si Si7 0.479019 0.000000 0.906247
O O1 0.166169 0.604877 0.343449
O O2 0.103216 0.753994 0.414005
O O3 0.402129 0.760231 0.605006
O O4 0.003168 0.800397 0.112075
O O5 0.619446 0.180285 0.621527
O O6 0.723014 0.126046 0.927908
O O7 0.837273 0.000000 0.899882
O O8 0.010556 0.000000 0.646499
O O9 0.696045 0.000000 0.203938
O O10 0.009106 0.116580 0.469167
O O11 0.311055 0.000000 0.813608
O O12 0.251021 0.243658 0.116381
O O13 0.979352 0.397892 0.830601
#
# Coordination Sequence:
#
# PCOD9133556 Si02
#       7
#     4   4   2   2   4   4   2
#     4  11  27  44  70 105 143 188 240 298 361 425
#     4  11  26  45  71 106 148 187 236 297 365 435
#     4  12  26  46  67 105 144 184 249 294 360 416
#     4  12  22  42  76  99 133 190 245 291 339 428
#     4  11  24  44  71 104 143 189 238 293 361 427
#     4  11  23  42  69 105 136 183 244 292 355 425
#     4  12  22  40  75  98 135 188 238 297 347 420
#
# _framework density 21.697486999999999
#
# number of rings (size 3 to 8) (size 9 to 14) (size 15 to 20)
#    0.000    0.727    4.545    2.182    6.364    1.455 
#    1.636    0.000    0.000    0.000    0.000    0.000 
#    0.000    0.000    0.000    0.000    0.000    0.000 
#
# Total GULP energy -61359.593841 kJ/mol
# GULP energy per Si atom -5578.144895 kJ/mol
# Density = 2.164810 g / cm^3
# Si number density = 21.697487 Si / 1000 Ang^3
#
#
#
# Elastic Constant Matrix: (Units=GPa)
#
#
# Indices 1 2 3 4 5 6 
#
# 1 60.4036 23.3422 15.7622 0.0006 11.6628 0.0001
# 2 23.3422 149.3445 71.6626 0.0002 11.9151 0.0000
# 3 15.7622 71.6626 146.5193 0.0005 6.0766 -0.0002
# 4 0.0006 0.0002 0.0005 76.1672 0.0005 9.7734
# 5 11.6628 11.9151 6.0766 0.0005 30.7018 0.0000
# 6 0.0001 0.0000 -0.0002 9.7734 0.0000 33.3936
#
#
#
# Elastic Compliance Matrix: (Units=1/GPa)
#
#
# Indices 1 2 3 4 5 6 
#
# 1 0.018744 -0.002081 -0.000743 0.000000 -0.006166 0.000000
# 2 -0.002081 0.009186 -0.004188 0.000000 -0.001945 0.000000
# 3 -0.000743 -0.004188 0.008948 0.000000 0.000137 0.000000
# 4 0.000000 0.000000 0.000000 0.013641 0.000000 -0.003992
# 5 -0.006166 -0.001945 0.000137 0.000000 0.035641 0.000000
# 6 0.000000 0.000000 0.000000 -0.003992 0.000000 0.031114
#
#
# Mechanical properties :
#
#
# Convention : Reuss Voigt Hill
#
# Bulk Modulus (GPa) = 43.75790 64.20015 53.97903
# Shear Modulus (GPa) = 35.99255 44.41921 40.20588
#
# Velocity S-wave (km/s) = 4.07730 4.52951 4.30934
# Velocity P-wave (km/s) = 6.50975 7.55038 7.04930
#
# Compressibility (1/GPa) = 0.02285302
#
# Stress axis : x y z
#
# Youngs Moduli (GPa) = 53.35076 108.85841 111.75906
#
# Poissons Ratio (x) = 0.22657 0.08301
# Poissons Ratio (y) = 0.11104 0.46809
# Poissons Ratio (z) = 0.03963 0.45594
#
# Static dielectric constant tensor:
#      x y z
#    x 1.781870 0.000000 0.033160 
#    y 0.000000 1.586070 0.000000 
#    z 0.033160 0.000000 1.863290 
# 
# From -- ./inp_files/21962.got.cif
#   From: 2010.05.17/outbox.cif.g08.bks.cpg/sg8_11_cif.got.tgz:21962.got - 2010.06.03 19:46:02.
