data_PCOD9133920
_publ_section_title
;
Structure prediction by ZEFSAII (Michael W. Deem and Ramdas Pophale) SiO2 
 PCOD9133920
Probable space group: C C
;
_chemical_formula_sum "Si O2"
_cell_formula_units_Z 24
_cell_length_a 26.734883
_cell_length_b 8.880559
_cell_length_c 5.603971
_cell_angle_alpha 90.000000
_cell_angle_beta 128.967463
_cell_angle_gamma 90.000000
_cell_volume 1034.467054
_symmetry_space_group_name_H-M "C C"
_symmetry_group_IT_number 9
_symmetry_cell_setting 'monoclinic'
loop_
_space_group_symop_operation_xyz
x,y,z
x,-y,1/2+z
1/2+x,1/2+y,z
1/2+x,1/2-y,1/2+z
loop_
_atom_site_type_symbol
_atom_site_label
_atom_site_fract_x
_atom_site_fract_y
_atom_site_fract_z
Si Si1 0.632840 0.749751 0.744350
Si Si2 0.523669 0.485124 0.916886
Si Si3 0.771310 0.342969 0.659475
Si Si4 0.452558 0.913723 0.703356
Si Si5 0.596768 0.793466 0.136132
Si Si6 0.319975 0.189916 0.805475
O O1 0.562736 0.670304 0.534090
O O2 0.632976 0.830109 0.489287
O O3 0.694263 0.640672 0.928456
O O4 0.633024 0.830012 0.000447
O O5 0.487895 0.500004 0.059556
O O6 0.579697 0.613610 0.084987
O O7 0.804140 0.508173 0.757940
O O8 0.791297 0.261091 0.473691
O O9 0.791336 0.261074 0.965250
O O10 0.396643 0.789501 0.535588
O O11 0.442544 0.000007 0.423320
O O12 0.526177 0.864359 0.924232
#
# Coordination Sequence:
#
# PCOD9133920 Si02
#       6
#     4   4   4   4   4   4
#     4  10  19  31  49  78 109 131 159 216 278 324
#     4   8  16  27  42  66  97 125 152 191 263 302
#     4  10  18  28  49  73 102 130 161 202 268 331
#     4  12  21  38  50  68 109 148 194 212 239 309
#     4  10  21  31  48  72 101 147 173 206 258 314
#     4  10  19  29  46  75  94 147 161 201 262 314
#
# _framework density 23.200351000000001
#
# number of rings (size 3 to 8) (size 9 to 14) (size 15 to 20)
#    0.000    2.000    3.333    2.000   14.000    0.000 
#    0.000    0.000    0.000    0.000    0.000    0.000 
#    0.000   80.000    0.000    0.000    0.000    0.000 
#
# Total GULP energy -66886.647063 kJ/mol
# GULP energy per Si atom -5573.887255 kJ/mol
# Density = 2.314755 g / cm^3
# Si number density = 23.200351 Si / 1000 Ang^3
#
#
#
# Elastic Constant Matrix: (Units=GPa)
#
#
# Indices 1 2 3 4 5 6 
#
# 1 234.4161 -2.2620 -8.7894 0.0000 -56.6732 0.0000
# 2 -2.2620 30.6089 -1.1412 0.0000 -10.0146 0.0000
# 3 -8.7894 -1.1412 249.0395 0.0000 -52.6070 0.0000
# 4 0.0000 0.0000 0.0000 2.5256 0.0000 11.7819
# 5 -56.6732 -10.0146 -52.6070 0.0000 78.8346 0.0000
# 6 0.0000 0.0000 0.0000 11.7819 0.0000 3.6064
#
#
#
# Elastic Compliance Matrix: (Units=1/GPa)
#
#
# Indices 1 2 3 4 5 6 
#
# 1 0.005579 0.002145 0.001294 0.000000 0.005147 0.000000
# 2 0.002145 0.035247 0.001756 0.000000 0.007191 0.000000
# 3 0.001294 0.001756 0.005020 0.000000 0.004504 0.000000
# 4 0.000000 0.000000 0.000000 -0.027805 0.000000 0.090836
# 5 0.005147 0.007191 0.004504 0.000000 0.020304 0.000000
# 6 0.000000 0.000000 0.000000 0.090836 0.000000 -0.019472
#
#
# Mechanical properties :
#
#
# Convention : Reuss Voigt Hill
#
# Bulk Modulus (GPa) = 17.78208 54.40882 36.09545
# Shear Modulus (GPa) = 183.62114 52.07711 117.84913
#
# Velocity S-wave (km/s) = 8.90605 4.74293 7.13488
# Velocity P-wave (km/s) = 10.65073 7.31413 9.13604
#
# Compressibility (1/GPa) = 0.05623639
#
# Stress axis : x y z
#
# Youngs Moduli (GPa) = 179.22865 28.37123 199.18470
#
# Poissons Ratio (x) = -0.06084 -0.25774
# Poissons Ratio (y) = -0.38436 -0.34982
# Poissons Ratio (z) = -0.23192 -0.04983
#
# Static dielectric constant tensor:
#      x y z
#    x 1.685490 0.000000 0.112450 
#    y 0.000000 1.909960 0.000000 
#    z 0.112450 0.000000 1.676630 
# 
# From -- ./inp_files/2310.got.cif
#   From: 2010.05.17/outbox.cif.g08.bks.cpg/sg9_2_cif.got.tgz:2310.got - 2010.06.03 20:04:27.
