data_PCOD9133400
_publ_section_title
;
Structure prediction by ZEFSAII (Michael W. Deem and Ramdas Pophale) SiO2 
 PCOD9133400
Probable space group: C M
;
_chemical_formula_sum "Si O2"
_cell_formula_units_Z 20
_cell_length_a 9.214677
_cell_length_b 16.147547
_cell_length_c 8.140366
_cell_angle_alpha 90.000000
_cell_angle_beta 124.147206
_cell_angle_gamma 90.000000
_cell_volume 1002.420901
_symmetry_space_group_name_H-M "C M"
_symmetry_group_IT_number 8
_symmetry_cell_setting 'monoclinic'
loop_
_space_group_symop_operation_xyz
x,y,z
x,-y,z
1/2+x,1/2+y,z
1/2+x,1/2-y,z
loop_
_atom_site_type_symbol
_atom_site_label
_atom_site_fract_x
_atom_site_fract_y
_atom_site_fract_z
Si Si1 0.477730 0.167803 0.122920
Si Si2 0.239597 0.671787 0.986259
Si Si3 0.808409 0.500000 0.881948
Si Si4 0.431140 0.500000 0.744693
Si Si5 0.842920 0.500000 0.519252
Si Si6 0.458746 0.500000 0.133067
Si Si7 0.118090 0.628402 0.560423
O O1 0.361014 0.248595 0.067819
O O2 0.601572 0.177463 0.044519
O O3 0.581880 0.164962 0.360047
O O4 0.373546 0.082026 0.019544
O O5 0.341740 0.583638 0.075799
O O6 0.153736 0.676898 0.750856
O O7 0.597121 0.500000 0.732758
O O8 0.879116 0.500000 0.738649
O O9 0.296337 0.575721 0.648933
O O10 0.515291 0.500000 0.978869
O O11 0.635748 0.500000 0.351847
O O12 0.945480 0.575778 0.499813
#
# Coordination Sequence:
#
# PCOD9133400 Si02
#       7
#     4   4   2   2   2   2   4
#     4  12  27  45  72 101 141 182 229 284 345 405
#     4  11  27  46  68 104 136 183 233 285 334 415
#     4  12  24  43  72 105 138 177 237 278 344 410
#     4   9  21  40  69 100 125 182 226 278 332 411
#     4  11  22  41  74 103 133 186 229 283 339 413
#     4  10  23  44  71  92 142 179 232 275 345 396
#     4  10  23  46  68  95 144 180 227 279 347 396
#
# _framework density 19.951699999999999
#
# number of rings (size 3 to 8) (size 9 to 14) (size 15 to 20)
#    0.000    1.200    2.000    3.600   11.200    3.200 
#    0.000    0.000    0.000    0.000    0.000    0.000 
#    0.000    0.000    0.000    0.000    0.000    0.000 
#
# Total GULP energy -55798.371590 kJ/mol
# GULP energy per Si atom -5579.837159 kJ/mol
# Density = 1.990629 g / cm^3
# Si number density = 19.951700 Si / 1000 Ang^3
#
#
#
# Elastic Constant Matrix: (Units=GPa)
#
#
# Indices 1 2 3 4 5 6 
#
# 1 134.0315 45.4406 40.8118 0.0000 -3.7010 0.0000
# 2 45.4406 117.6761 47.5096 0.0000 0.7193 0.0000
# 3 40.8118 47.5096 161.1415 0.0000 -19.2779 0.0000
# 4 0.0000 0.0000 0.0000 16.7911 0.0000 0.3731
# 5 -3.7010 0.7193 -19.2779 0.0000 30.1832 0.0000
# 6 0.0000 0.0000 0.0000 0.3731 0.0000 18.2465
#
#
#
# Elastic Compliance Matrix: (Units=1/GPa)
#
#
# Indices 1 2 3 4 5 6 
#
# 1 0.008857 -0.002872 -0.001363 0.000000 0.000284 0.000000
# 2 -0.002872 0.010716 -0.002712 0.000000 -0.002340 0.000000
# 3 -0.001363 -0.002712 0.007945 0.000000 0.004972 0.000000
# 4 0.000000 0.000000 0.000000 0.059583 0.000000 -0.001218
# 5 0.000284 -0.002340 0.004972 0.000000 0.036397 0.000000
# 6 0.000000 0.000000 0.000000 -0.001218 0.000000 0.054830
#
#
# Mechanical properties :
#
#
# Convention : Reuss Voigt Hill
#
# Bulk Modulus (GPa) = 73.39011 75.59701 74.49356
# Shear Modulus (GPa) = 25.41125 31.64996 28.53061
#
# Velocity S-wave (km/s) = 3.57268 3.98720 3.78562
# Velocity P-wave (km/s) = 7.34047 7.69215 7.51837
#
# Compressibility (1/GPa) = 0.01362581
#
# Stress axis : x y z
#
# Youngs Moduli (GPa) = 112.90097 93.31750 125.86169
#
# Poissons Ratio (x) = 0.26800 0.17149
# Poissons Ratio (y) = 0.32424 0.34134
# Poissons Ratio (z) = 0.15383 0.25308
#
# Static dielectric constant tensor:
#      x y z
#    x 1.676830 0.000000 0.011800 
#    y 0.000000 1.657650 0.000000 
#    z 0.011800 0.000000 1.711940 
# 
# From -- ./inp_files/8100.got.cif
#   From: 2010.05.17/outbox.cif.g08.bks.cpg/sg8_5_cif.got.tgz:8100.got - 2010.06.03 19:46:02.
