data_PCOD9133719
_publ_section_title
;
Structure prediction by ZEFSAII (Michael W. Deem and Ramdas Pophale) SiO2 
 PCOD9133719
Probable space group: C C
;
_chemical_formula_sum "Si O2"
_cell_formula_units_Z 32
_cell_length_a 10.146800
_cell_length_b 17.240447
_cell_length_c 9.759562
_cell_angle_alpha 90.000000
_cell_angle_beta 60.830304
_cell_angle_gamma 90.000000
_cell_volume 1490.773700
_symmetry_space_group_name_H-M "C C"
_symmetry_group_IT_number 9
_symmetry_cell_setting 'monoclinic'
loop_
_space_group_symop_operation_xyz
x,y,z
x,-y,1/2+z
1/2+x,1/2+y,z
1/2+x,1/2-y,1/2+z
loop_
_atom_site_type_symbol
_atom_site_label
_atom_site_fract_x
_atom_site_fract_y
_atom_site_fract_z
Si Si1 0.558980 0.516102 0.477300
Si Si2 0.845938 0.255072 0.545192
Si Si3 0.088670 0.843682 0.789313
Si Si4 0.553876 0.663308 0.921535
Si Si5 0.589327 0.854791 0.580935
Si Si6 0.319283 0.112930 0.398302
Si Si7 0.798931 0.734388 0.639838
Si Si8 0.854851 0.123101 0.763938
O O1 0.555064 0.564440 0.333574
O O2 0.546176 0.425484 0.468391
O O3 0.721898 0.535631 0.460995
O O4 0.433899 0.555632 0.637073
O O5 0.698695 0.310862 0.616157
O O6 0.809076 0.189366 0.678731
O O7 0.934941 0.204349 0.386172
O O8 0.978435 0.310088 0.534865
O O9 0.201531 0.835472 0.865793
O O10 0.716243 0.700646 0.813354
O O11 0.475248 0.660737 0.808742
O O12 0.448628 0.715371 0.069320
O O13 0.475086 0.898922 0.739929
O O14 0.681962 0.792376 0.623289
O O15 0.712932 0.900605 0.429537
O O16 0.338786 0.160664 0.525464
#
# Coordination Sequence:
#
# PCOD9133719 Si02
#       8
#     4   4   4   4   4   4   4   4
#     4   9  19  29  40  70 104 129 156 196 263 293
#     4  10  11  20  38  64  83 116 154 184 225 281
#     4   8  14  20  36  58  91 115 146 188 228 281
#     4  11  19  30  49  73 103 127 165 210 246 297
#     4  10  13  22  42  66  88 125 155 196 236 283
#     4   9  15  25  41  65  97 125 159 191 247 299
#     4  11  16  28  49  74  97 125 169 205 247 287
#     4  10  17  26  45  68  99 130 154 202 250 291
#
# _framework density 21.465364000000001
#
# number of rings (size 3 to 8) (size 9 to 14) (size 15 to 20)
#    0.750    1.500    6.250    1.500    0.000    0.000 
#    0.000    1.250    0.000    0.000    0.000    3.500 
#    0.000    0.000    0.000    0.000    0.000    0.000 
#
# Total GULP energy -89155.967884 kJ/mol
# GULP energy per Si atom -5572.247993 kJ/mol
# Density = 2.141651 g / cm^3
# Si number density = 21.465364 Si / 1000 Ang^3
#
#
#
# Elastic Constant Matrix: (Units=GPa)
#
#
# Indices 1 2 3 4 5 6 
#
# 1 37.7457 5.9209 25.3689 0.0000 -5.8951 0.0000
# 2 5.9209 67.3993 65.5981 0.0000 -2.9321 0.0000
# 3 25.3689 65.5981 194.5342 0.0000 -23.9978 0.0000
# 4 0.0000 0.0000 0.0000 19.9885 0.0000 -4.9402
# 5 -5.8951 -2.9321 -23.9978 0.0000 30.3792 0.0000
# 6 0.0000 0.0000 0.0000 -4.9402 0.0000 9.5358
#
#
#
# Elastic Compliance Matrix: (Units=1/GPa)
#
#
# Indices 1 2 3 4 5 6 
#
# 1 0.029362 0.001400 -0.003968 0.000000 0.002698 0.000000
# 2 0.001400 0.022636 -0.008324 0.000000 -0.004119 0.000000
# 3 -0.003968 -0.008324 0.009164 0.000000 0.005665 0.000000
# 4 0.000000 0.000000 0.000000 0.057375 0.000000 0.029724
# 5 0.002698 -0.004119 0.005665 0.000000 0.037519 0.000000
# 6 0.000000 0.000000 0.000000 0.029724 0.000000 0.120267
#
#
# Mechanical properties :
#
#
# Convention : Reuss Voigt Hill
#
# Bulk Modulus (GPa) = 25.39482 54.82833 40.11158
# Shear Modulus (GPa) = 16.06518 25.50012 20.78265
#
# Velocity S-wave (km/s) = 2.73870 3.45043 3.11496
# Velocity P-wave (km/s) = 4.67514 6.43988 5.62712
#
# Compressibility (1/GPa) = 0.03937811
#
# Stress axis : x y z
#
# Youngs Moduli (GPa) = 34.05763 44.17743 109.12651
#
# Poissons Ratio (x) = -0.06186 0.43306
# Poissons Ratio (y) = -0.04769 0.90834
# Poissons Ratio (z) = 0.13516 0.36772
#
# Static dielectric constant tensor:
#      x y z
#    x 1.841630 0.000000 0.038000 
#    y 0.000000 1.755220 0.000000 
#    z 0.038000 0.000000 1.838010 
# 
# From -- ./inp_files/25969.got.cif
#   From: 2010.05.17/outbox.cif.g08.bks.cpg/sg9_13_cif.got.tgz:25969.got - 2010.06.03 20:04:27.
