data_PCOD9133546
_publ_section_title
;
Structure prediction by ZEFSAII (Michael W. Deem and Ramdas Pophale) SiO2 
 PCOD9133546
Probable space group: C M
;
_chemical_formula_sum "Si O2"
_cell_formula_units_Z 24
_cell_length_a 18.706352
_cell_length_b 8.654197
_cell_length_c 12.319875
_cell_angle_alpha 90.000000
_cell_angle_beta 40.870799
_cell_angle_gamma 90.000000
_cell_volume 1305.076415
_symmetry_space_group_name_H-M "C M"
_symmetry_group_IT_number 8
_symmetry_cell_setting 'monoclinic'
loop_
_space_group_symop_operation_xyz
x,y,z
x,-y,z
1/2+x,1/2+y,z
1/2+x,1/2-y,z
loop_
_atom_site_type_symbol
_atom_site_label
_atom_site_fract_x
_atom_site_fract_y
_atom_site_fract_z
Si Si1 0.723760 0.317795 0.392260
Si Si2 0.639841 0.816118 0.716908
Si Si3 0.073043 0.679973 0.385307
Si Si4 0.461619 0.685708 0.062745
Si Si5 0.533073 0.681653 0.211314
Si Si6 0.850325 0.682550 0.551852
O O1 0.736399 0.500000 0.395324
O O2 0.676165 0.242845 0.556737
O O3 0.638592 0.282309 0.393736
O O4 0.840104 0.247869 0.222554
O O5 0.728943 0.743902 0.697890
O O6 0.643065 0.000000 0.716686
O O7 0.521946 0.754896 0.889308
O O8 0.097762 0.500000 0.374668
O O9 0.096903 0.726325 0.232051
O O10 0.940601 0.701317 0.543179
O O11 0.458749 0.500000 0.060705
O O12 0.534625 0.729641 0.084883
O O13 0.556025 0.500000 0.194248
O O14 0.408099 0.717922 0.390860
O O15 0.849939 0.500000 0.525831
#
# Coordination Sequence:
#
# PCOD9133546 Si02
#       6
#     4   4   4   4   4   4
#     4  12  23  38  61  86 120 157 196 241 295 353
#     4  12  24  38  60  88 120 155 198 243 293 349
#     4   9  19  34  58  85 115 155 195 235 291 350
#     4  11  23  39  61  88 120 154 196 243 293 348
#     4   9  17  33  58  85 112 146 190 236 287 340
#     4   9  18  34  58  84 113 147 191 236 285 340
#
# _framework density 18.389728999999999
#
# number of rings (size 3 to 8) (size 9 to 14) (size 15 to 20)
#    1.000    0.667    1.667    4.500    0.000    2.000 
#    0.000    1.667    0.000    6.000    0.000    0.000 
#    0.000    0.000    0.000    0.000    0.000    0.000 
#
# Total GULP energy -66819.473610 kJ/mol
# GULP energy per Si atom -5568.289467 kJ/mol
# Density = 1.834787 g / cm^3
# Si number density = 18.389729 Si / 1000 Ang^3
#
#
#
# Elastic Constant Matrix: (Units=GPa)
#
#
# Indices 1 2 3 4 5 6 
#
# 1 88.4915 26.2329 34.4427 0.0000 0.6676 0.0000
# 2 26.2329 67.1146 17.4730 -0.0001 -1.1474 0.0001
# 3 34.4427 17.4730 102.2928 0.0000 -6.1167 0.0000
# 4 0.0000 -0.0001 0.0000 22.5888 0.0000 -4.6544
# 5 0.6676 -1.1474 -6.1167 0.0000 10.8004 0.0000
# 6 0.0000 0.0001 0.0000 -4.6544 0.0000 30.1028
#
#
#
# Elastic Compliance Matrix: (Units=1/GPa)
#
#
# Indices 1 2 3 4 5 6 
#
# 1 0.014346 -0.004558 -0.004279 0.000000 -0.003794 0.000000
# 2 -0.004558 0.017042 -0.001295 0.000000 0.001359 0.000000
# 3 -0.004279 -0.001295 0.011846 0.000000 0.006836 0.000000
# 4 0.000000 0.000000 0.000000 0.045727 0.000000 0.007070
# 5 -0.003794 0.001359 0.006836 0.000000 0.096839 0.000000
# 6 0.000000 0.000000 0.000000 0.007070 0.000000 0.034313
#
#
# Mechanical properties :
#
#
# Convention : Reuss Voigt Hill
#
# Bulk Modulus (GPa) = 43.53394 46.02179 44.77787
# Shear Modulus (GPa) = 20.15859 24.68173 22.42016
#
# Velocity S-wave (km/s) = 3.31446 3.66751 3.49545
# Velocity P-wave (km/s) = 6.19451 6.55853 6.37912
#
# Compressibility (1/GPa) = 0.02297058
#
# Stress axis : x y z
#
# Youngs Moduli (GPa) = 69.70725 58.67881 84.41345
#
# Poissons Ratio (x) = 0.26747 0.36117
# Poissons Ratio (y) = 0.31774 0.10931
# Poissons Ratio (z) = 0.29825 0.07599
#
# Static dielectric constant tensor:
#      x y z
#    x 1.666730 0.000000 0.001680 
#    y 0.000000 1.605830 0.000000 
#    z 0.001680 0.000000 1.639160 
# 
# From -- ./inp_files/21093.got.cif
#   From: 2010.05.17/outbox.cif.g08.bks.cpg/sg8_11_cif.got.tgz:21093.got - 2010.06.03 19:46:02.
