data_PCOD9133559
_publ_section_title
;
Structure prediction by ZEFSAII (Michael W. Deem and Ramdas Pophale) SiO2 
 PCOD9133559
Probable space group: C M
;
_chemical_formula_sum "Si O2"
_cell_formula_units_Z 32
_cell_length_a 11.609540
_cell_length_b 16.904426
_cell_length_c 10.909535
_cell_angle_alpha 90.000000
_cell_angle_beta 37.327009
_cell_angle_gamma 90.000000
_cell_volume 1298.238846
_symmetry_space_group_name_H-M "C M"
_symmetry_group_IT_number 8
_symmetry_cell_setting 'monoclinic'
loop_
_space_group_symop_operation_xyz
x,y,z
x,-y,z
1/2+x,1/2+y,z
1/2+x,1/2-y,z
loop_
_atom_site_type_symbol
_atom_site_label
_atom_site_fract_x
_atom_site_fract_y
_atom_site_fract_z
Si Si1 0.151920 0.410306 0.720820
Si Si2 0.863033 0.864723 0.783311
Si Si3 0.722222 0.314363 0.867287
Si Si4 0.335586 0.660454 0.075765
Si Si5 0.997298 0.908182 0.265428
Si Si6 0.308226 0.095129 0.390516
Si Si7 0.810707 0.662533 0.136049
Si Si8 0.014368 0.591664 0.472778
O O1 0.089265 0.500000 0.747693
O O2 0.266808 0.410051 0.752270
O O3 0.294235 0.384343 0.493134
O O4 0.973082 0.355929 0.899901
O O5 0.797783 0.773776 0.821181
O O6 0.088194 0.879574 0.587699
O O7 0.803519 0.882367 0.973599
O O8 0.903942 0.363643 0.672055
O O9 0.559352 0.322848 0.901164
O O10 0.603118 0.351360 0.080268
O O11 0.246356 0.747624 0.170857
O O12 0.236347 0.609441 0.265454
O O13 0.140521 0.898509 0.259545
O O14 0.993537 0.000000 0.230367
O O15 0.386121 0.144665 0.208569
O O16 0.416785 0.113699 0.425015
O O17 0.323568 0.000000 0.357379
O O18 0.985027 0.500000 0.517789
#
# Coordination Sequence:
#
# PCOD9133559 Si02
#       8
#     4   4   4   4   4   4   4   4
#     4  11  24  43  72 106 137 178 233 287 349 414
#     4  12  23  45  71 103 139 181 231 287 353 412
#     4  12  26  48  70  99 143 187 231 289 349 421
#     4  12  27  46  70 102 140 186 231 290 349 417
#     4  11  25  44  68  99 138 183 230 285 346 410
#     4  11  23  43  75 106 140 182 232 295 350 411
#     4  12  23  44  68 104 140 179 226 288 349 412
#     4  11  27  47  72 103 139 188 240 287 347 419
#
# _framework density 24.648776999999999
#
# number of rings (size 3 to 8) (size 9 to 14) (size 15 to 20)
#    0.000    0.500    5.000    3.375    0.000    4.000 
#    2.250    1.250    0.000    0.000    0.000    0.000 
#    0.000    0.000    0.000    0.000    0.000    0.000 
#
# Total GULP energy -89599.609923 kJ/mol
# GULP energy per Si atom -5599.975620 kJ/mol
# Density = 2.459268 g / cm^3
# Si number density = 24.648777 Si / 1000 Ang^3
#
#
#
# Elastic Constant Matrix: (Units=GPa)
#
#
# Indices 1 2 3 4 5 6 
#
# 1 63.5564 2.0699 5.1510 0.0015 4.5139 0.0103
# 2 2.0699 71.9761 31.5959 0.0173 11.8845 0.0079
# 3 5.1510 31.5959 130.5620 0.0067 15.5234 0.0133
# 4 0.0015 0.0173 0.0067 40.8569 -0.0050 -4.8401
# 5 4.5139 11.8845 15.5234 -0.0050 51.3749 -0.0068
# 6 0.0103 0.0079 0.0133 -4.8401 -0.0068 34.4077
#
#
#
# Elastic Compliance Matrix: (Units=1/GPa)
#
#
# Indices 1 2 3 4 5 6 
#
# 1 0.015862 -0.000046 -0.000467 -0.000001 -0.001242 -0.000005
# 2 -0.000046 0.015874 -0.003530 -0.000007 -0.002601 -0.000004
# 3 -0.000467 -0.003530 0.008744 0.000000 -0.001784 -0.000003
# 4 -0.000001 -0.000007 0.000000 0.024890 0.000005 0.003501
# 5 -0.001242 -0.002601 -0.001784 0.000005 0.020715 0.000006
# 6 -0.000005 -0.000004 -0.000003 0.003501 0.000006 0.029556
#
#
# Mechanical properties :
#
#
# Convention : Reuss Voigt Hill
#
# Bulk Modulus (GPa) = 30.87098 38.19201 34.53150
# Shear Modulus (GPa) = 37.16766 40.47974 38.82370
#
# Velocity S-wave (km/s) = 3.88737 4.05688 3.97303
# Velocity P-wave (km/s) = 5.71843 6.12148 5.92338
#
# Compressibility (1/GPa) = 0.03239289
#
# Stress axis : x y z
#
# Youngs Moduli (GPa) = 63.04533 62.99564 114.36234
#
# Poissons Ratio (x) = 0.00290 0.05340
# Poissons Ratio (y) = 0.00291 0.40375
# Poissons Ratio (z) = 0.02944 0.22240
#
# Static dielectric constant tensor:
#      x y z
#    x 2.080050 0.000000 0.023850 
#    y 0.000000 1.837510 0.000000 
#    z 0.023850 0.000000 1.926170 
# 
# From -- ./inp_files/22393.got.cif
#   From: 2010.05.17/outbox.cif.g08.bks.cpg/sg8_12_cif.got.tgz:22393.got - 2010.06.03 19:46:02.
