data_PCOD9133554
_publ_section_title
;
Structure prediction by ZEFSAII (Michael W. Deem and Ramdas Pophale) SiO2 
 PCOD9133554
Probable space group: C M
;
_chemical_formula_sum "Si O2"
_cell_formula_units_Z 32
_cell_length_a 19.258596
_cell_length_b 8.750438
_cell_length_c 12.009693
_cell_angle_alpha 90.000000
_cell_angle_beta 52.559631
_cell_angle_gamma 90.000000
_cell_volume 1606.939143
_symmetry_space_group_name_H-M "C M"
_symmetry_group_IT_number 8
_symmetry_cell_setting 'monoclinic'
loop_
_space_group_symop_operation_xyz
x,y,z
x,-y,z
1/2+x,1/2+y,z
1/2+x,1/2-y,z
loop_
_atom_site_type_symbol
_atom_site_label
_atom_site_fract_x
_atom_site_fract_y
_atom_site_fract_z
Si Si1 0.319240 0.681485 0.121120
Si Si2 0.636634 0.323091 0.279106
Si Si3 0.851396 0.819028 0.557522
Si Si4 0.999330 0.681926 0.574374
Si Si5 0.152209 0.319456 0.828848
Si Si6 0.375574 0.178686 0.290287
Si Si7 0.000769 0.816020 0.821047
Si Si8 0.556893 0.324359 0.114182
O O1 0.310216 0.500000 0.120251
O O2 0.233102 0.762387 0.159109
O O3 0.324540 0.730970 0.244736
O O4 0.409355 0.725775 0.971412
O O5 0.640353 0.500000 0.310161
O O6 0.587156 0.227673 0.421878
O O7 0.581657 0.313641 0.218886
O O8 0.751651 0.799234 0.693354
O O9 0.859925 0.743661 0.428241
O O10 0.919147 0.744966 0.578019
O O11 0.871034 0.000000 0.530204
O O12 0.993375 0.500000 0.590400
O O13 0.998828 0.758034 0.696336
O O14 0.137590 0.500000 0.860430
O O15 0.082134 0.257124 0.807778
O O16 0.135039 0.226606 0.958594
O O17 0.477131 0.212469 0.166768
O O18 0.355764 0.000000 0.303986
O O19 0.008645 0.000000 0.816477
O O20 0.531159 0.500000 0.114304
#
# Coordination Sequence:
#
# PCOD9133554 Si02
#       8
#     4   4   4   4   4   4   4   4
#     4  11  25  44  68  97 132 173 218 268 326 387
#     4  11  25  44  68  97 132 173 218 269 325 387
#     4  11  25  45  67  96 134 172 217 268 327 388
#     4  12  26  44  68  96 132 173 219 270 325 388
#     4  11  25  43  68  98 131 171 218 270 323 387
#     4  12  24  41  69  98 129 169 219 271 325 385
#     4  11  25  45  68  94 133 175 215 266 327 389
#     4  11  23  42  68  96 131 170 214 270 328 385
#
# _framework density 19.913636
#
# number of rings (size 3 to 8) (size 9 to 14) (size 15 to 20)
#    0.000    0.750    2.500    4.500    3.500    5.000 
#    0.000    0.000    0.000    0.000    0.000    0.000 
#    0.000    0.000    0.000    0.000    0.000    0.000 
#
# Total GULP energy -89528.969907 kJ/mol
# GULP energy per Si atom -5595.560619 kJ/mol
# Density = 1.986831 g / cm^3
# Si number density = 19.913636 Si / 1000 Ang^3
#
#
#
# Elastic Constant Matrix: (Units=GPa)
#
#
# Indices 1 2 3 4 5 6 
#
# 1 46.1450 12.5629 10.1430 0.0000 -6.3673 0.0000
# 2 12.5629 61.3494 20.7782 0.0000 -5.4954 0.0000
# 3 10.1430 20.7782 88.2234 0.0000 9.4464 0.0000
# 4 0.0000 0.0000 0.0000 34.9392 0.0000 0.3535
# 5 -6.3673 -5.4954 9.4464 0.0000 35.1206 0.0000
# 6 0.0000 0.0000 0.0000 0.3535 0.0000 33.3473
#
#
#
# Elastic Compliance Matrix: (Units=1/GPa)
#
#
# Indices 1 2 3 4 5 6 
#
# 1 0.023790 -0.003691 -0.002333 0.000000 0.004363 0.000000
# 2 -0.003691 0.018851 -0.004386 0.000000 0.003460 0.000000
# 3 -0.002333 -0.004386 0.013133 0.000000 -0.004642 0.000000
# 4 0.000000 0.000000 0.000000 0.028624 0.000000 -0.000303
# 5 0.004363 0.003460 -0.004642 0.000000 0.031054 0.000000
# 6 0.000000 0.000000 0.000000 -0.000303 0.000000 0.029991
#
#
# Mechanical properties :
#
#
# Convention : Reuss Voigt Hill
#
# Bulk Modulus (GPa) = 28.60806 31.40955 30.00881
# Shear Modulus (GPa) = 28.10325 30.83034 29.46679
#
# Velocity S-wave (km/s) = 3.76074 3.93899 3.85090
# Velocity P-wave (km/s) = 5.76670 6.04108 5.90548
#
# Compressibility (1/GPa) = 0.03495519
#
# Stress axis : x y z
#
# Youngs Moduli (GPa) = 42.03360 53.04679 76.14359
#
# Poissons Ratio (x) = 0.19578 0.17765
# Poissons Ratio (y) = 0.15513 0.33397
# Poissons Ratio (z) = 0.09807 0.23266
#
# Static dielectric constant tensor:
#      x y z
#    x 1.684890 0.000000 -0.010520 
#    y 0.000000 1.667720 0.000000 
#    z -0.010520 0.000000 1.686330 
# 
# From -- ./inp_files/23848.got.cif
#   From: 2010.05.17/outbox.cif.g08.bks.cpg/sg8_12_cif.got.tgz:23848.got - 2010.06.03 19:46:02.
