data_PCOD9133425
_publ_section_title
;
Structure prediction by ZEFSAII (Michael W. Deem and Ramdas Pophale) SiO2 
 PCOD9133425
Probable space group: C M
;
_chemical_formula_sum "Si O2"
_cell_formula_units_Z 30
_cell_length_a 7.727795
_cell_length_b 31.348234
_cell_length_c 6.455608
_cell_angle_alpha 90.000000
_cell_angle_beta 62.794535
_cell_angle_gamma 90.000000
_cell_volume 1390.879968
_symmetry_space_group_name_H-M "C M"
_symmetry_group_IT_number 8
_symmetry_cell_setting 'monoclinic'
loop_
_space_group_symop_operation_xyz
x,y,z
x,-y,z
1/2+x,1/2+y,z
1/2+x,1/2-y,z
loop_
_atom_site_type_symbol
_atom_site_label
_atom_site_fract_x
_atom_site_fract_y
_atom_site_fract_z
Si Si1 0.578970 0.195409 0.349580
Si Si2 0.406242 0.887200 0.612281
Si Si3 0.320429 0.337977 0.893065
Si Si4 0.938013 0.214257 0.447770
Si Si5 0.627831 0.651564 0.084709
Si Si6 0.116898 0.425029 0.856589
Si Si7 0.714018 0.424762 0.333852
Si Si8 0.917385 0.000000 0.599403
O O1 0.500297 0.147802 0.413649
O O2 0.744750 0.200689 0.431795
O O3 0.439018 0.235072 0.462969
O O4 0.667380 0.195739 0.071511
O O5 0.545451 0.919494 0.657209
O O6 0.257284 0.912267 0.548574
O O7 0.314483 0.858858 0.845905
O O8 0.441859 0.312207 0.656737
O O9 0.216565 0.380059 0.863341
O O10 0.454151 0.351064 0.013928
O O11 0.114071 0.196573 0.208921
O O12 0.620167 0.614862 0.261707
O O13 0.273021 0.462530 0.775672
O O14 0.923514 0.432959 0.104613
O O15 0.563687 0.463113 0.421298
#
# Coordination Sequence:
#
# PCOD9133425 Si02
#       8
#     4   4   4   4   4   4   4   2
#     4  11  26  39  67  98 136 185 231 283 340 405
#     4  11  23  45  70  95 138 186 226 283 351 419
#     4  11  23  46  68  97 143 187 230 283 356 414
#     4  11  25  40  63 103 139 181 240 289 338 401
#     4  10  24  42  70  97 137 184 231 279 352 412
#     4  11  24  46  72 101 139 184 232 288 358 427
#     4  11  25  46  71 105 139 179 235 288 358 426
#     4  12  26  44  76 104 138 176 234 304 348 430
#
# _framework density 21.56908
#
# number of rings (size 3 to 8) (size 9 to 14) (size 15 to 20)
#    0.000    1.067    2.667    2.800    7.467    1.600 
#    0.000    8.000    0.000    0.000    0.000    0.000 
#    0.000    0.000    0.000    0.000    0.000    0.000 
#
# Total GULP energy -83528.410922 kJ/mol
# GULP energy per Si atom -5568.560728 kJ/mol
# Density = 2.151999 g / cm^3
# Si number density = 21.569080 Si / 1000 Ang^3
#
#
#
# Elastic Constant Matrix: (Units=GPa)
#
#
# Indices 1 2 3 4 5 6 
#
# 1 41.2189 16.5284 12.0190 0.0000 7.6424 0.0000
# 2 16.5284 86.5302 24.3490 0.0000 -3.3264 0.0000
# 3 12.0190 24.3490 84.5800 0.0000 0.6921 0.0000
# 4 0.0000 0.0000 0.0000 11.5942 0.0000 -25.5824
# 5 7.6424 -3.3264 0.6921 0.0000 43.7196 0.0000
# 6 0.0000 0.0000 0.0000 -25.5824 0.0000 2.6185
#
#
#
# Elastic Compliance Matrix: (Units=1/GPa)
#
#
# Indices 1 2 3 4 5 6 
#
# 1 0.027895 -0.004815 -0.002535 0.000000 -0.005202 0.000000
# 2 -0.004815 0.013452 -0.003204 0.000000 0.001916 0.000000
# 3 -0.002535 -0.003204 0.013106 0.000000 -0.000008 0.000000
# 4 0.000000 0.000000 0.000000 -0.004196 0.000000 -0.040991
# 5 -0.005202 0.001916 -0.000008 0.000000 0.023928 0.000000
# 6 0.000000 0.000000 0.000000 -0.040991 0.000000 -0.018577
#
#
# Mechanical properties :
#
#
# Convention : Reuss Voigt Hill
#
# Bulk Modulus (GPa) = 29.99002 35.34687 32.66845
# Shear Modulus (GPa) = 56.92741 22.21531 39.57136
#
# Velocity S-wave (km/s) = 5.14299 3.21278 4.28791
# Velocity P-wave (km/s) = 7.01438 5.49417 6.30030
#
# Compressibility (1/GPa) = 0.03334442
#
# Stress axis : x y z
#
# Youngs Moduli (GPa) = 35.84831 74.34072 76.30209
#
# Poissons Ratio (x) = 0.35795 0.19345
# Poissons Ratio (y) = 0.17261 0.24447
# Poissons Ratio (z) = 0.09089 0.23818
#
# Static dielectric constant tensor:
#      x y z
#    x 1.838080 0.000000 -0.032060 
#    y 0.000000 1.809990 0.000000 
#    z -0.032060 0.000000 1.830630 
# 
# From -- ./inp_files/1977.got.cif
#   From: 2010.05.17/outbox.cif.g08.bks.cpg/sg8_1_cif.got.tgz:1977.got - 2010.06.03 19:46:02.
