data_PCOD9133173
_publ_section_title
;
Structure prediction by ZEFSAII (Michael W. Deem and Ramdas Pophale) SiO2 
 PCOD9133173
Probable space group: C M
;
_chemical_formula_sum "Si O2"
_cell_formula_units_Z 32
_cell_length_a 12.966607
_cell_length_b 16.961367
_cell_length_c 11.777152
_cell_angle_alpha 90.000000
_cell_angle_beta 147.404547
_cell_angle_gamma 90.000000
_cell_volume 1395.332213
_symmetry_space_group_name_H-M "C M"
_symmetry_group_IT_number 8
_symmetry_cell_setting 'monoclinic'
loop_
_space_group_symop_operation_xyz
x,y,z
x,-y,z
1/2+x,1/2+y,z
1/2+x,1/2-y,z
loop_
_atom_site_type_symbol
_atom_site_label
_atom_site_fract_x
_atom_site_fract_y
_atom_site_fract_z
Si Si1 0.395220 0.094579 0.961360
Si Si2 0.206084 0.688487 0.105335
Si Si3 0.533818 0.692784 0.594966
Si Si4 0.835178 0.410824 0.156036
Si Si5 0.227226 0.642389 0.762580
Si Si6 0.330315 0.090131 0.407300
Si Si7 0.470930 0.407754 0.180900
Si Si8 0.460206 0.664476 0.774162
O O1 0.185097 0.121577 0.722135
O O2 0.407490 0.000000 0.973128
O O3 0.556040 0.132840 0.031736
O O4 0.417968 0.123636 0.114683
O O5 0.379227 0.705495 0.353909
O O6 0.321178 0.643077 0.113169
O O7 0.080210 0.761731 0.940225
O O8 0.672392 0.767958 0.737879
O O9 0.421981 0.682419 0.608712
O O10 0.908965 0.500000 0.234061
O O11 0.842936 0.376033 0.290725
O O12 0.609489 0.407180 0.919081
O O13 0.049957 0.593407 0.645075
O O14 0.274792 0.642864 0.673942
O O15 0.411090 0.607924 0.995029
O O16 0.190959 0.122337 0.376223
O O17 0.265846 0.000000 0.334619
O O18 0.459201 0.500000 0.202851
#
# Coordination Sequence:
#
# PCOD9133173 Si02
#       8
#     4   4   4   4   4   4   4   4
#     4  10  23  44  66  97 138 181 232 283 342 412
#     4  12  25  45  71 100 139 185 232 287 355 414
#     4  11  26  43  68 100 137 184 232 285 349 415
#     4   9  19  39  64  92 134 172 212 281 336 395
#     4  12  23  42  67  98 136 180 224 285 344 407
#     4  10  22  39  65 101 131 173 226 278 342 411
#     4  11  25  45  69  99 140 182 229 286 348 416
#     4  11  23  43  66 103 135 175 233 289 342 414
#
# _framework density 22.933606999999999
#
# number of rings (size 3 to 8) (size 9 to 14) (size 15 to 20)
#    0.000    1.250    3.750    1.500    1.750    3.500 
#    0.000    1.250    0.000    0.000    0.000    0.000 
#    0.000    0.000    0.000    0.000    0.000    0.000 
#
# Total GULP energy -89240.790727 kJ/mol
# GULP energy per Si atom -5577.549420 kJ/mol
# Density = 2.288141 g / cm^3
# Si number density = 22.933607 Si / 1000 Ang^3
#
#
#
# Elastic Constant Matrix: (Units=GPa)
#
#
# Indices 1 2 3 4 5 6 
#
# 1 139.4498 23.1869 16.0641 0.0000 31.2303 0.0000
# 2 23.1869 82.3155 20.0164 0.0000 6.5837 0.0000
# 3 16.0641 20.0164 52.3335 0.0000 11.6097 0.0000
# 4 0.0000 0.0000 0.0000 21.2898 0.0000 2.6822
# 5 31.2303 6.5837 11.6097 0.0000 45.2101 0.0000
# 6 0.0000 0.0000 0.0000 2.6822 0.0000 15.4541
#
#
#
# Elastic Compliance Matrix: (Units=1/GPa)
#
#
# Indices 1 2 3 4 5 6 
#
# 1 0.008828 -0.001853 -0.000751 0.000000 -0.005635 0.000000
# 2 -0.001853 0.013803 -0.004823 0.000000 0.000509 0.000000
# 3 -0.000751 -0.004823 0.022176 0.000000 -0.004474 0.000000
# 4 0.000000 0.000000 0.000000 0.048021 0.000000 -0.008335
# 5 -0.005635 0.000509 -0.004474 0.000000 0.027087 0.000000
# 6 0.000000 0.000000 0.000000 -0.008335 0.000000 0.066154
#
#
# Mechanical properties :
#
#
# Convention : Reuss Voigt Hill
#
# Bulk Modulus (GPa) = 33.38706 43.62596 38.50651
# Shear Modulus (GPa) = 23.70721 30.71289 27.21005
#
# Velocity S-wave (km/s) = 3.21866 3.66349 3.44825
# Velocity P-wave (km/s) = 5.32942 6.07938 5.71671
#
# Compressibility (1/GPa) = 0.02995173
#
# Stress axis : x y z
#
# Youngs Moduli (GPa) = 113.27927 72.45027 45.09407
#
# Poissons Ratio (x) = 0.13428 0.03385
# Poissons Ratio (y) = 0.20995 0.21750
# Poissons Ratio (z) = 0.08504 0.34944
#
# Static dielectric constant tensor:
#      x y z
#    x 1.876030 0.000000 -0.018530 
#    y 0.000000 1.916980 0.000000 
#    z -0.018530 0.000000 1.866840 
# 
# From -- ./inp_files/20840.got.cif
#   From: 2010.05.17/outbox.cif.g08.bks.cpg/sg8_11_cif.got.tgz:20840.got - 2010.06.03 19:46:02.
