data_PCOD9133209
_publ_section_title
;
Structure prediction by ZEFSAII (Michael W. Deem and Ramdas Pophale) SiO2 
 PCOD9133209
Probable space group: C M
;
_chemical_formula_sum "Si O2"
_cell_formula_units_Z 32
_cell_length_a 11.818616
_cell_length_b 13.678009
_cell_length_c 19.978919
_cell_angle_alpha 90.000000
_cell_angle_beta 151.562815
_cell_angle_gamma 90.000000
_cell_volume 1537.964552
_symmetry_space_group_name_H-M "C M"
_symmetry_group_IT_number 8
_symmetry_cell_setting 'monoclinic'
loop_
_space_group_symop_operation_xyz
x,y,z
x,-y,z
1/2+x,1/2+y,z
1/2+x,1/2-y,z
loop_
_atom_site_type_symbol
_atom_site_label
_atom_site_fract_x
_atom_site_fract_y
_atom_site_fract_z
Si Si1 0.211160 0.705034 0.507290
Si Si2 0.576167 0.117352 0.182184
Si Si3 0.861194 0.117084 0.979019
Si Si4 0.208772 0.883508 0.280555
Si Si5 0.016459 0.115910 0.328066
Si Si6 0.408225 0.385538 0.479186
Si Si7 0.886261 0.740757 0.731056
Si Si8 0.531944 0.382768 0.916914
O O1 0.284726 0.634464 0.485576
O O2 0.397717 0.707815 0.664542
O O3 0.962079 0.667451 0.406834
O O4 0.174231 0.812772 0.456018
O O5 0.743512 0.139534 0.205733
O O6 0.726665 0.145658 0.326097
O O7 0.560704 0.000000 0.176722
O O8 0.304212 0.148731 0.043795
O O9 0.613465 0.172202 0.858482
O O10 0.967534 0.136485 0.960606
O O11 0.825375 0.000000 0.965759
O O12 0.044478 0.146125 0.132713
O O13 0.079764 0.865736 0.284074
O O14 0.246262 0.000000 0.295131
O O15 0.055771 0.000000 0.362659
O O16 0.459454 0.500000 0.496237
O O17 0.648830 0.323892 0.604016
O O18 0.874550 0.820278 0.783858
O O19 0.507581 0.500000 0.893185
#
# Coordination Sequence:
#
# PCOD9133209 Si02
#       8
#     4   4   4   4   4   4   4   4
#     4  12  24  40  64  96 127 166 212 260 313 372
#     4   9  19  41  69  91 118 164 214 262 311 366
#     4  10  23  44  66  92 124 165 212 262 316 374
#     4  10  23  43  67  95 124 161 211 268 318 367
#     4  10  22  40  64  95 129 162 206 261 319 371
#     4  11  23  42  66  94 125 163 210 263 317 371
#     4  12  25  40  62  94 131 170 210 249 315 383
#     4  10  23  44  67  91 126 169 214 259 312 374
#
# _framework density 20.806721
#
# number of rings (size 3 to 8) (size 9 to 14) (size 15 to 20)
#    0.000    1.500    1.250    3.000    1.750    4.500 
#    2.250    3.125    0.000    0.000    0.000    0.000 
#    0.000    0.000    0.000    0.000    0.000    0.000 
#
# Total GULP energy -89482.498362 kJ/mol
# GULP energy per Si atom -5592.656148 kJ/mol
# Density = 2.075936 g / cm^3
# Si number density = 20.806721 Si / 1000 Ang^3
#
#
#
# Elastic Constant Matrix: (Units=GPa)
#
#
# Indices 1 2 3 4 5 6 
#
# 1 92.5486 29.8538 18.6323 0.0005 -16.0670 0.0003
# 2 29.8538 85.3301 32.5266 0.0018 -6.4669 0.0001
# 3 18.6323 32.5266 85.6499 0.0074 -11.9761 0.0011
# 4 0.0005 0.0018 0.0074 34.1985 0.0007 -1.5579
# 5 -16.0670 -6.4669 -11.9761 0.0007 35.5739 -0.0003
# 6 0.0003 0.0001 0.0011 -1.5579 -0.0003 33.6644
#
#
#
# Elastic Compliance Matrix: (Units=1/GPa)
#
#
# Indices 1 2 3 4 5 6 
#
# 1 0.013072 -0.003950 -0.000649 0.000000 0.004968 0.000000
# 2 -0.003950 0.014917 -0.004907 0.000000 -0.000724 0.000000
# 3 -0.000649 -0.004907 0.014182 -0.000003 0.003589 -0.000001
# 4 0.000000 0.000000 -0.000003 0.029303 -0.000001 0.001356
# 5 0.004968 -0.000724 0.003589 -0.000001 0.031431 0.000000
# 6 0.000000 0.000000 -0.000001 0.001356 0.000000 0.029768
#
#
# Mechanical properties :
#
#
# Convention : Reuss Voigt Hill
#
# Bulk Modulus (GPa) = 43.17876 47.28380 45.23128
# Shear Modulus (GPa) = 31.36703 32.85509 32.11106
#
# Velocity S-wave (km/s) = 3.88692 3.97805 3.93275
# Velocity P-wave (km/s) = 6.39856 6.62378 6.51214
#
# Compressibility (1/GPa) = 0.02315954
#
# Stress axis : x y z
#
# Youngs Moduli (GPa) = 76.49794 67.03985 70.51214
#
# Poissons Ratio (x) = 0.26477 0.04578
# Poissons Ratio (y) = 0.30213 0.34599
# Poissons Ratio (z) = 0.04967 0.32895
#
# Static dielectric constant tensor:
#      x y z
#    x 1.734440 0.000000 -0.004510 
#    y 0.000000 1.771040 0.000000 
#    z -0.004510 0.000000 1.700470 
# 
# From -- ./inp_files/28890.got.cif
#   From: 2010.05.17/outbox.cif.g08.bks.cpg/sg8_15_cif.got.tgz:28890.got - 2010.06.03 19:46:02.
