data_PCOD9133659
_publ_section_title
;
Structure prediction by ZEFSAII (Michael W. Deem and Ramdas Pophale) SiO2 
 PCOD9133659
Probable space group: C M
;
_chemical_formula_sum "Si O2"
_cell_formula_units_Z 16
_cell_length_a 27.000000
_cell_length_b 9.000000
_cell_length_c 21.000000
_cell_angle_alpha 90.000000
_cell_angle_beta 160.000000
_cell_angle_gamma 90.000000
_cell_volume 1745.328791
_symmetry_space_group_name_H-M "C M"
_symmetry_group_IT_number 8
_symmetry_cell_setting 'monoclinic'
loop_
_space_group_symop_operation_xyz
x,y,z
x,-y,z
1/2+x,1/2+y,z
1/2+x,1/2-y,z
loop_
_atom_site_type_symbol
_atom_site_label
_atom_site_fract_x
_atom_site_fract_y
_atom_site_fract_z
Si Si1 0.927170 0.319127 0.171670
Si Si2 0.666858 0.678009 0.020388
Si Si3 0.535279 0.178333 0.979941
Si Si4 0.992465 0.319571 0.393450
Si Si5 0.045556 0.679606 0.183649
Si Si6 0.816952 0.179478 0.812041
Si Si7 0.606820 0.321029 0.798798
Si Si8 0.790499 0.179894 0.384665
O O1 0.922058 0.500000 0.167976
O O2 0.982019 0.270804 0.306993
O O3 0.029921 0.277498 0.237977
O O4 0.761727 0.267634 0.959256
O O5 0.657726 0.500000 0.020325
O O6 0.564557 0.765108 0.944692
O O7 0.836364 0.724420 0.233884
O O8 0.620289 0.704365 0.890999
O O9 0.681620 0.222627 0.196187
O O10 0.520074 0.000000 0.965772
O O11 0.398595 0.256769 0.848188
O O12 0.991972 0.500000 0.393705
O O13 0.147480 0.273912 0.609333
O O14 0.030920 0.500000 0.160158
O O15 0.197995 0.720358 0.335725
O O16 0.914161 0.753599 0.986097
O O17 0.823541 0.000000 0.819993
O O18 0.604864 0.500000 0.787781
O O19 0.455399 0.263089 0.587169
O O20 0.799281 0.000000 0.393370
#
# Coordination Sequence:
#
# PCOD9133659 Si02
#       8
#     4   4   4   4   4   4   4   4
#     4   8  14  26  45  68  92 117 149 191 232 270
#     4   9  17  31  51  73  96 121 153 195 238 279
#     4  10  20  33  48  69  98 126 156 195 234 277
#     4   8  16  30  48  72  97 122 157 196 230 272
#     4   9  17  29  46  68  94 120 150 193 236 272
#     4  10  19  32  50  69  94 128 161 192 229 277
#     4   8  14  26  46  70  91 114 151 193 228 270
#     4   8  15  27  42  63  90 118 149 187 227 267
#
# _framework density 9.1673270000000002
#
# number of rings (size 3 to 8) (size 9 to 14) (size 15 to 20)
#    0.000    3.250    0.000    3.000    0.000    2.000 
#    0.000    6.250    0.000   11.250    0.000    0.000 
#    0.000    0.000    0.000    0.000    0.000    0.000 
#
# Total GULP energy -89077.041928 kJ/mol
# GULP energy per Si atom -5567.315120 kJ/mol
# Density = 0.914646 g / cm^3
# Si number density = 9.167327 Si / 1000 Ang^3
#
#
#
# Elastic Constant Matrix: (Units=GPa)
#
#
# Indices 1 2 3 4 5 6 
#
# 1 33.2787 0.3901 -41.7400 0.0000 2.3841 0.0000
# 2 0.3901 17.2532 -6.0242 0.0000 0.0700 0.0000
# 3 -41.7400 -6.0242 42.1189 0.0000 4.2973 0.0000
# 4 0.0000 0.0000 0.0000 18.9362 0.0000 -0.0084
# 5 2.3841 0.0700 4.2973 0.0000 7.5076 0.0000
# 6 0.0000 0.0000 0.0000 -0.0084 0.0000 15.3166
#
#
#
# Elastic Compliance Matrix: (Units=1/GPa)
#
#
# Indices 1 2 3 4 5 6 
#
# 1 -0.059881 -0.022826 -0.068573 0.000000 0.058478 0.000000
# 2 -0.022826 0.052553 -0.016773 0.000000 0.016360 0.000000
# 3 -0.068573 -0.016773 -0.051880 0.000000 0.051628 0.000000
# 4 0.000000 0.000000 0.000000 0.052809 0.000000 0.000029
# 5 0.058478 0.016360 0.051628 0.000000 0.084924 0.000000
# 6 0.000000 0.000000 0.000000 0.000029 0.000000 0.065289
#
#
# Mechanical properties :
#
#
# Convention : Reuss Voigt Hill
#
# Bulk Modulus (GPa) = -3.62906 -0.23302 -1.93104
# Shear Modulus (GPa) = 18.63525 17.68708 18.16117
#
# Velocity S-wave (km/s) = 3.19155 3.10930 3.15070
# Velocity P-wave (km/s) = 3.40554 3.57253 3.49003
#
# Compressibility (1/GPa) = -0.27555351
#
# Stress axis : x y z
#
# Youngs Moduli (GPa) = -16.69988 19.02830 -19.27513
#
# Poissons Ratio (x) = 0.43435 -1.32176
# Poissons Ratio (y) = -0.38120 -0.32331
# Poissons Ratio (z) = -1.14516 0.31917
#
# Static dielectric constant tensor:
#      x y z
#    x 1.650230 0.000000 0.002750 
#    y 0.000000 1.604330 0.000000 
#    z 0.002750 0.000000 1.639490 
# 
# From -- ./inp_files/15838.got.cif
#   From: 2010.05.17/outbox.ucp.g08.bks.cvg/sg8_8_cif.got.tgz:15838.got - 2010.06.11 13:00:03.
