data_PCOD9133492
_publ_section_title
;
Structure prediction by ZEFSAII (Michael W. Deem and Ramdas Pophale) SiO2 
 PCOD9133492
Probable space group: C M
;
_chemical_formula_sum "Si O2"
_cell_formula_units_Z 20
_cell_length_a 7.867731
_cell_length_b 23.215460
_cell_length_c 5.305106
_cell_angle_alpha 90.000000
_cell_angle_beta 59.986239
_cell_angle_gamma 90.000000
_cell_volume 839.056596
_symmetry_space_group_name_H-M "C M"
_symmetry_group_IT_number 8
_symmetry_cell_setting 'monoclinic'
loop_
_space_group_symop_operation_xyz
x,y,z
x,-y,z
1/2+x,1/2+y,z
1/2+x,1/2-y,z
loop_
_atom_site_type_symbol
_atom_site_label
_atom_site_fract_x
_atom_site_fract_y
_atom_site_fract_z
Si Si1 0.915070 0.563614 0.948500
Si Si2 0.763983 0.315426 0.178574
Si Si3 0.323158 0.434664 0.880369
Si Si4 0.986781 0.720897 0.517014
Si Si5 0.760238 0.118612 0.424761
O O1 0.828476 0.500000 0.986661
O O2 0.084743 0.562479 0.037365
O O3 0.058435 0.580534 0.609126
O O4 0.777018 0.617387 0.102077
O O5 0.897723 0.305404 0.327313
O O6 0.562812 0.284358 0.398546
O O7 0.846946 0.283725 0.864518
O O8 0.397815 0.500000 0.811317
O O9 0.370494 0.397686 0.599290
O O10 0.375048 0.402781 0.096741
O O11 0.176432 0.682324 0.451687
#
# Coordination Sequence:
#
# PCOD9133492 Si02
#       5
#     4   4   4   4   4
#     4   8  16  28  48  76 102 129 173 230 266 298
#     4  11  22  37  56  83 111 146 181 224 274 325
#     4   9  14  23  42  68  99 126 159 217 270 294
#     4  11  21  36  54  79 113 145 184 221 269 327
#     4   9  15  26  42  68 101 132 159 210 265 308
#
# _framework density 23.836293000000001
#
# number of rings (size 3 to 8) (size 9 to 14) (size 15 to 20)
#    1.200    1.200    2.000    2.400    0.000    0.000 
#    0.000    0.000    0.000    0.000    0.000   28.000 
#    0.000    0.000    0.000    0.000    0.000    0.000 
#
# Total GULP energy -55791.447942 kJ/mol
# GULP energy per Si atom -5579.144794 kJ/mol
# Density = 2.378204 g / cm^3
# Si number density = 23.836293 Si / 1000 Ang^3
#
#
#
# Elastic Constant Matrix: (Units=GPa)
#
#
# Indices 1 2 3 4 5 6 
#
# 1 60.4395 19.9088 51.6876 0.0000 4.1167 0.0000
# 2 19.9088 136.9088 55.7445 0.0000 -17.1776 0.0000
# 3 51.6876 55.7445 146.0418 0.0000 34.9564 0.0000
# 4 0.0000 0.0000 0.0000 18.9037 0.0000 -0.0385
# 5 4.1167 -17.1776 34.9564 0.0000 30.4898 0.0000
# 6 0.0000 0.0000 0.0000 -0.0385 0.0000 9.2029
#
#
#
# Elastic Compliance Matrix: (Units=1/GPa)
#
#
# Indices 1 2 3 4 5 6 
#
# 1 0.026769 0.004081 -0.014770 0.000000 0.015619 0.000000
# 2 0.004081 0.014223 -0.011935 0.000000 0.021145 0.000000
# 3 -0.014770 -0.011935 0.024480 0.000000 -0.032796 0.000000
# 4 0.000000 0.000000 0.000000 0.052900 0.000000 0.000222
# 5 0.015619 0.021145 -0.032796 0.000000 0.080202 0.000000
# 6 0.000000 0.000000 0.000000 0.000222 0.000000 0.108663
#
#
# Mechanical properties :
#
#
# Convention : Reuss Voigt Hill
#
# Bulk Modulus (GPa) = 49.44508 66.45244 57.94876
# Shear Modulus (GPa) = 13.91876 26.12255 20.02065
#
# Velocity S-wave (km/s) = 2.41909 3.31405 2.90129
# Velocity P-wave (km/s) = 5.34708 6.52557 5.96550
#
# Compressibility (1/GPa) = 0.02022446
#
# Stress axis : x y z
#
# Youngs Moduli (GPa) = 37.35675 70.30854 40.84888
#
# Poissons Ratio (x) = -0.28693 0.60336
# Poissons Ratio (y) = -0.15246 0.48751
# Poissons Ratio (z) = 0.55178 0.83910
#
# Static dielectric constant tensor:
#      x y z
#    x 1.919860 0.000000 -0.006340 
#    y 0.000000 1.905750 0.000000 
#    z -0.006340 0.000000 1.866140 
# 
# From -- ./inp_files/1505.got.cif
#   From: 2010.05.17/outbox.cif.g08.bks.cpg/sg8_1_cif.got.tgz:1505.got - 2010.06.03 19:46:02.
