data_PCOD9133287
_publ_section_title
;
Structure prediction by ZEFSAII (Michael W. Deem and Ramdas Pophale) SiO2 
 PCOD9133287
Probable space group: C M
;
_chemical_formula_sum "Si O2"
_cell_formula_units_Z 32
_cell_length_a 17.405705
_cell_length_b 14.774967
_cell_length_c 12.067462
_cell_angle_alpha 90.000000
_cell_angle_beta 31.301105
_cell_angle_gamma 90.000000
_cell_volume 1612.313099
_symmetry_space_group_name_H-M "C M"
_symmetry_group_IT_number 8
_symmetry_cell_setting 'monoclinic'
loop_
_space_group_symop_operation_xyz
x,y,z
x,-y,z
1/2+x,1/2+y,z
1/2+x,1/2-y,z
loop_
_atom_site_type_symbol
_atom_site_label
_atom_site_fract_x
_atom_site_fract_y
_atom_site_fract_z
Si Si1 0.983770 0.395160 0.997040
Si Si2 0.993668 0.104120 0.709070
Si Si3 0.824517 0.227105 0.093587
Si Si4 0.945793 0.899522 0.129648
Si Si5 0.294684 0.897760 0.697170
Si Si6 0.985969 0.771716 0.503388
Si Si7 0.306304 0.856793 0.430300
Si Si8 0.805148 0.157694 0.521531
O O1 0.943472 0.500000 0.028940
O O2 0.156539 0.381428 0.758004
O O3 0.897232 0.325362 0.024148
O O4 0.937890 0.369270 0.179785
O O5 0.986996 0.156541 0.601331
O O6 0.160715 0.103984 0.551095
O O7 0.943010 0.000000 0.764180
O O8 0.900186 0.166239 0.907243
O O9 0.857037 0.171589 0.165774
O O10 0.652790 0.238928 0.282087
O O11 0.879780 0.900380 0.333638
O O12 0.935468 0.000000 0.091867
O O13 0.119617 0.875682 0.917779
O O14 0.385416 0.818143 0.644520
O O15 0.335880 0.897425 0.515391
O O16 0.317116 0.000000 0.712877
O O17 0.920401 0.819410 0.475798
O O18 0.270860 0.752880 0.503167
#
# Coordination Sequence:
#
# PCOD9133287 Si02
#       8
#     4   4   4   4   4   4   4   4
#     4  12  24  42  70 100 131 174 227 275 326 393
#     4  12  24  43  69  98 132 176 224 270 332 400
#     4  12  24  43  65 101 134 172 221 277 335 388
#     4  11  22  42  72  96 128 177 229 278 328 393
#     4  10  22  42  68  98 130 176 228 275 332 394
#     4  11  27  41  65  96 143 175 209 274 340 399
#     4  11  21  41  72  98 129 173 230 280 321 387
#     4  11  24  44  65  99 141 175 216 273 340 396
#
# _framework density 19.847261
#
# number of rings (size 3 to 8) (size 9 to 14) (size 15 to 20)
#    0.000    0.750    5.000    2.625    1.750    3.000 
#    0.000    0.625    0.000    0.000    0.000    0.000 
#    0.000    0.000    0.000    0.000    0.000    0.000 
#
# Total GULP energy -89412.180339 kJ/mol
# GULP energy per Si atom -5588.261271 kJ/mol
# Density = 1.980209 g / cm^3
# Si number density = 19.847261 Si / 1000 Ang^3
#
#
#
# Elastic Constant Matrix: (Units=GPa)
#
#
# Indices 1 2 3 4 5 6 
#
# 1 73.5132 42.4927 35.0436 0.0001 -9.3192 0.0000
# 2 42.4927 119.4457 19.7223 0.0003 1.7290 -0.0001
# 3 35.0436 19.7223 129.9133 0.0004 9.2629 -0.0001
# 4 0.0001 0.0003 0.0004 243.4338 -0.0001 -53.5494
# 5 -9.3192 1.7290 9.2629 -0.0001 30.6581 0.0000
# 6 0.0000 -0.0001 -0.0001 -53.5494 0.0000 24.3933
#
#
#
# Elastic Compliance Matrix: (Units=1/GPa)
#
#
# Indices 1 2 3 4 5 6 
#
# 1 0.021072 -0.006750 -0.005256 0.000000 0.008374 0.000000
# 2 -0.006750 0.010749 0.000387 0.000000 -0.002775 0.000000
# 3 -0.005256 0.000387 0.009374 0.000000 -0.004452 0.000000
# 4 0.000000 0.000000 0.000000 0.007944 0.000000 0.017439
# 5 0.008374 -0.002775 -0.004452 0.000000 0.036665 0.000000
# 6 0.000000 0.000000 0.000000 0.017439 0.000000 0.079279
#
#
# Mechanical properties :
#
#
# Convention : Reuss Voigt Hill
#
# Bulk Modulus (GPa) = 55.69001 57.48771 56.58886
# Shear Modulus (GPa) = 25.73244 74.73795 50.23519
#
# Velocity S-wave (km/s) = 3.60463 6.14315 5.03645
# Velocity P-wave (km/s) = 6.74127 8.90762 7.89906
#
# Compressibility (1/GPa) = 0.01795654
#
# Stress axis : x y z
#
# Youngs Moduli (GPa) = 47.45694 93.02766 106.67731
#
# Poissons Ratio (x) = 0.62790 0.56074
# Poissons Ratio (y) = 0.32031 -0.04124
# Poissons Ratio (z) = 0.24945 -0.03597
#
# Static dielectric constant tensor:
#      x y z
#    x 1.679660 0.000000 0.023390 
#    y 0.000000 1.709810 0.000000 
#    z 0.023390 0.000000 1.701270 
# 
# From -- ./inp_files/23323.got.cif
#   From: 2010.05.17/outbox.cif.g08.bks.cpg/sg8_12_cif.got.tgz:23323.got - 2010.06.03 19:46:02.
