data_PCOD9133732
_publ_section_title
;
Structure prediction by ZEFSAII (Michael W. Deem and Ramdas Pophale) SiO2 
 PCOD9133732
Probable space group: C C
;
_chemical_formula_sum "Si O2"
_cell_formula_units_Z 32
_cell_length_a 16.755027
_cell_length_b 7.483943
_cell_length_c 11.249567
_cell_angle_alpha 90.000000
_cell_angle_beta 66.270948
_cell_angle_gamma 90.000000
_cell_volume 1291.368386
_symmetry_space_group_name_H-M "C C"
_symmetry_group_IT_number 9
_symmetry_cell_setting 'monoclinic'
loop_
_space_group_symop_operation_xyz
x,y,z
x,-y,1/2+z
1/2+x,1/2+y,z
1/2+x,1/2-y,1/2+z
loop_
_atom_site_type_symbol
_atom_site_label
_atom_site_fract_x
_atom_site_fract_y
_atom_site_fract_z
Si Si1 0.759640 0.263627 0.225860
Si Si2 0.039258 0.274426 0.218817
Si Si3 0.008824 0.763627 0.007067
Si Si4 0.229211 0.725573 0.514107
Si Si5 0.583397 0.864716 0.804232
Si Si6 0.937915 0.359717 0.056283
Si Si7 0.685070 0.864716 0.428691
Si Si8 0.830552 0.859719 0.176642
O O1 0.753258 0.304531 0.371077
O O2 0.662109 0.270071 0.231953
O O3 0.834421 0.365412 0.110452
O O4 0.797152 0.062442 0.194976
O O5 0.050566 0.490602 0.230179
O O6 0.015209 0.195469 0.361849
O O7 0.967190 0.263985 0.160482
O O8 0.134234 0.212408 0.116463
O O9 0.971314 0.562442 0.037949
O O10 0.934046 0.865414 0.122475
O O11 0.106357 0.770070 0.000970
O O12 0.217902 0.509397 0.502745
O O13 0.301279 0.736014 0.572440
O O14 0.634234 0.999998 0.866462
O O15 0.498851 0.778298 0.915954
O O16 0.769616 0.778299 0.316969
#
# Coordination Sequence:
#
# PCOD9133732 Si02
#       8
#     4   4   4   4   4   4   4   4
#     4  10  19  30  50  78  98 129 164 207 248 285
#     4  10  14  30  55  71  89 131 179 193 224 298
#     4  10  19  30  50  78  98 129 164 207 248 285
#     4  10  14  30  55  71  89 131 179 193 224 298
#     4   8  16  29  48  69  95 131 163 190 242 291
#     4  10  18  32  50  76 100 126 168 207 240 296
#     4   8  16  29  48  69  95 131 163 190 242 291
#     4  10  18  32  50  76 100 126 168 207 240 296
#
# _framework density 24.779914000000002
#
# number of rings (size 3 to 8) (size 9 to 14) (size 15 to 20)
#    0.000    3.000    7.500    0.750    0.000    0.000 
#    0.000    6.250    0.000    0.000    0.000    0.000 
#    0.000    0.000    0.000    0.000    0.000    0.000 
#
# Total GULP energy -89216.964476 kJ/mol
# GULP energy per Si atom -5576.060280 kJ/mol
# Density = 2.472351 g / cm^3
# Si number density = 24.779914 Si / 1000 Ang^3
#
#
#
# Elastic Constant Matrix: (Units=GPa)
#
#
# Indices 1 2 3 4 5 6 
#
# 1 90.4674 19.1994 70.8260 0.0000 -34.2505 0.0000
# 2 19.1994 40.0869 25.4140 0.0000 -8.2768 0.0000
# 3 70.8260 25.4140 120.8765 0.0000 -63.4828 0.0000
# 4 0.0000 0.0000 0.0000 11.9443 0.0000 -14.4520
# 5 -34.2505 -8.2768 -63.4828 0.0000 42.7397 0.0000
# 6 0.0000 0.0000 0.0000 -14.4520 0.0000 21.2526
#
#
#
# Elastic Compliance Matrix: (Units=1/GPa)
#
#
# Indices 1 2 3 4 5 6 
#
# 1 0.020915 -0.001777 -0.014821 0.000000 -0.005598 0.000000
# 2 -0.001777 0.031393 -0.014161 0.000000 -0.016377 0.000000
# 3 -0.014821 -0.014161 0.055731 0.000000 0.068160 0.000000
# 4 0.000000 0.000000 0.000000 0.472419 0.000000 0.321250
# 5 -0.005598 -0.016377 0.068160 0.000000 0.116981 0.000000
# 6 0.000000 0.000000 0.000000 0.321250 0.000000 0.265506
#
#
# Mechanical properties :
#
#
# Convention : Reuss Voigt Hill
#
# Bulk Modulus (GPa) = 21.49517 53.58997 37.54257
# Shear Modulus (GPa) = 4.80784 24.25340 14.53062
#
# Velocity S-wave (km/s) = 1.39443 3.13190 2.42417
# Velocity P-wave (km/s) = 3.35944 5.89506 4.79779
#
# Compressibility (1/GPa) = 0.04652207
#
# Stress axis : x y z
#
# Youngs Moduli (GPa) = 47.81324 31.85466 17.94325
#
# Poissons Ratio (x) = 0.05659 0.26594
# Poissons Ratio (y) = 0.08494 0.25409
# Poissons Ratio (z) = 0.70865 0.45108
#
# Static dielectric constant tensor:
#      x y z
#    x 2.068820 0.000000 -0.064970 
#    y 0.000000 2.094200 0.000000 
#    z -0.064970 0.000000 2.106560 
# 
# From -- ./inp_files/19227.got.cif
#   From: 2010.05.17/outbox.cif.g08.bks.cpg/sg9_10_cif.got.tgz:19227.got - 2010.06.03 20:04:27.
