data_PCOD9133369
_publ_section_title
;
Structure prediction by ZEFSAII (Michael W. Deem and Ramdas Pophale) SiO2 
 PCOD9133369
Probable space group: C M
;
_chemical_formula_sum "Si O2"
_cell_formula_units_Z 28
_cell_length_a 5.511239
_cell_length_b 30.505701
_cell_length_c 7.865071
_cell_angle_alpha 90.000000
_cell_angle_beta 57.161152
_cell_angle_gamma 90.000000
_cell_volume 1111.002723
_symmetry_space_group_name_H-M "C M"
_symmetry_group_IT_number 8
_symmetry_cell_setting 'monoclinic'
loop_
_space_group_symop_operation_xyz
x,y,z
x,-y,z
1/2+x,1/2+y,z
1/2+x,1/2-y,z
loop_
_atom_site_type_symbol
_atom_site_label
_atom_site_fract_x
_atom_site_fract_y
_atom_site_fract_z
Si Si1 0.663300 0.857078 0.977200
Si Si2 0.975827 0.231653 0.389650
Si Si3 0.141563 0.645189 0.590596
Si Si4 0.165163 0.000000 0.386539
Si Si5 0.465431 0.000000 0.638426
Si Si6 0.150479 0.094462 0.250803
Si Si7 0.375683 0.263718 0.934516
Si Si8 0.148863 0.088756 0.848083
O O1 0.608240 0.845124 0.803141
O O2 0.829305 0.903537 0.901706
O O3 0.390616 0.868614 0.195866
O O4 0.833647 0.815299 0.982682
O O5 0.715031 0.266573 0.450399
O O6 0.787855 0.187406 0.453170
O O7 0.192345 0.237085 0.146100
O O8 0.364124 0.606662 0.460683
O O9 0.829862 0.624801 0.671182
O O10 0.235350 0.954879 0.263829
O O11 0.811266 0.000000 0.539361
O O12 0.361958 0.000000 0.480690
O O13 0.310108 0.043152 0.770283
O O14 0.115356 0.098198 0.061134
O O15 0.705727 0.250237 0.829450
#
# Coordination Sequence:
#
# PCOD9133369 Si02
#       8
#     4   4   4   2   2   4   4   4
#     4  11  27  44  74 109 150 197 254 316 375 443
#     4  10  23  41  68 100 139 194 243 305 362 436
#     4  11  25  46  71 107 147 195 250 311 373 444
#     4  12  27  49  82 111 150 200 248 302 383 454
#     4  12  27  53  76 113 156 194 248 308 379 450
#     4  11  25  47  76 110 145 199 248 306 376 451
#     4  10  23  44  69 101 145 196 245 309 365 436
#     4  11  27  46  77 108 153 194 248 312 373 454
#
# _framework density 25.202459999999999
#
# number of rings (size 3 to 8) (size 9 to 14) (size 15 to 20)
#    0.000    1.143    1.429    3.000   14.000    2.857 
#    0.000    0.000    0.000    0.000    0.000    0.000 
#    0.000    0.000    0.000    0.000    0.000    0.000 
#
# Total GULP energy -78233.999182 kJ/mol
# GULP energy per Si atom -5588.142799 kJ/mol
# Density = 2.514510 g / cm^3
# Si number density = 25.202460 Si / 1000 Ang^3
#
#
#
# Elastic Constant Matrix: (Units=GPa)
#
#
# Indices 1 2 3 4 5 6 
#
# 1 94.5209 -5.4771 13.3421 0.0000 -8.6926 0.0000
# 2 -5.4771 105.2335 8.9742 0.0000 -2.3761 0.0000
# 3 13.3421 8.9742 89.1457 0.0000 -11.2069 0.0000
# 4 0.0000 0.0000 0.0000 50.7614 0.0000 -4.9912
# 5 -8.6926 -2.3761 -11.2069 0.0000 33.1834 0.0000
# 6 0.0000 0.0000 0.0000 -4.9912 0.0000 32.0879
#
#
#
# Elastic Compliance Matrix: (Units=1/GPa)
#
#
# Indices 1 2 3 4 5 6 
#
# 1 0.011051 0.000752 -0.001419 0.000000 0.002469 0.000000
# 2 0.000752 0.009641 -0.001015 0.000000 0.000545 0.000000
# 3 -0.001419 -0.001015 0.011985 0.000000 0.003603 0.000000
# 4 0.000000 0.000000 0.000000 0.020006 0.000000 0.003112
# 5 0.002469 0.000545 0.003603 0.000000 0.032038 0.000000
# 6 0.000000 0.000000 0.000000 0.003112 0.000000 0.031648
#
#
# Mechanical properties :
#
#
# Convention : Reuss Voigt Hill
#
# Bulk Modulus (GPa) = 34.11484 35.84207 34.97846
# Shear Modulus (GPa) = 38.60893 41.34393 39.97643
#
# Velocity S-wave (km/s) = 3.91826 4.05467 3.98705
# Velocity P-wave (km/s) = 5.83404 6.01440 5.92491
#
# Compressibility (1/GPa) = 0.02931275
#
# Stress axis : x y z
#
# Youngs Moduli (GPa) = 90.49237 103.72763 83.43682
#
# Poissons Ratio (x) = -0.07800 0.11841
# Poissons Ratio (y) = -0.06804 0.08465
# Poissons Ratio (z) = 0.12843 0.10524
#
# Static dielectric constant tensor:
#      x y z
#    x 2.100410 0.000000 0.042360 
#    y 0.000000 1.985570 0.000000 
#    z 0.042360 0.000000 1.941840 
# 
# From -- ./inp_files/7176.got.cif
#   From: 2010.05.17/outbox.cif.g08.bks.cpg/sg8_4_cif.got.tgz:7176.got - 2010.06.03 19:46:02.
