data_PCOD9133084
_publ_section_title
;
Structure prediction by ZEFSAII (Michael W. Deem and Ramdas Pophale) SiO2 
 PCOD9133084
Probable space group: C M
;
_chemical_formula_sum "Si O2"
_cell_formula_units_Z 32
_cell_length_a 14.773297
_cell_length_b 10.280988
_cell_length_c 17.959831
_cell_angle_alpha 90.000000
_cell_angle_beta 33.428007
_cell_angle_gamma 90.000000
_cell_volume 1502.721286
_symmetry_space_group_name_H-M "C M"
_symmetry_group_IT_number 8
_symmetry_cell_setting 'monoclinic'
loop_
_space_group_symop_operation_xyz
x,y,z
x,-y,z
1/2+x,1/2+y,z
1/2+x,1/2-y,z
loop_
_atom_site_type_symbol
_atom_site_label
_atom_site_fract_x
_atom_site_fract_y
_atom_site_fract_z
Si Si1 0.205720 0.351411 0.448680
Si Si2 0.838569 0.347867 0.997952
Si Si3 0.626307 0.855340 0.235319
Si Si4 0.278395 0.218971 0.536954
Si Si5 0.627821 0.782547 0.911083
Si Si6 0.846942 0.651514 0.648856
Si Si7 0.916058 0.140886 0.815799
Si Si8 0.389758 0.350121 0.185949
O O1 0.203689 0.500000 0.425845
O O2 0.253405 0.341699 0.501173
O O3 0.333060 0.289964 0.303314
O O4 0.020616 0.306467 0.563382
O O5 0.796133 0.500000 0.012148
O O6 0.695356 0.262298 0.136860
O O7 0.887067 0.262577 0.891731
O O8 0.994335 0.348198 0.948127
O O9 0.436919 0.846870 0.390392
O O10 0.733049 0.848067 0.238222
O O11 0.656630 0.000000 0.182016
O O12 0.314504 0.237056 0.598602
O O13 0.101888 0.149130 0.657487
O O14 0.706717 0.670067 0.805974
O O15 0.783104 0.854591 0.840677
O O16 0.529183 0.729126 0.049147
O O17 0.852324 0.500000 0.621605
O O18 0.900414 0.000000 0.865467
O O19 0.445164 0.500000 0.154872
#
# Coordination Sequence:
#
# PCOD9133084 Si02
#       8
#     4   4   4   4   4   4   4   4
#     4  10  22  40  62  94 137 178 224 278 331 395
#     4  11  26  46  68  95 137 181 225 278 337 397
#     4  10  21  41  70  99 131 175 229 277 333 398
#     4  12  23  39  68 101 134 173 225 277 331 394
#     4  11  23  42  67  97 133 173 219 276 340 392
#     4  11  21  40  65  94 134 180 226 272 325 402
#     4  12  26  44  68 100 137 176 225 275 334 404
#     4   9  19  38  66  96 129 174 223 275 329 396
#
# _framework density 21.294701
#
# number of rings (size 3 to 8) (size 9 to 14) (size 15 to 20)
#    0.000    1.250    3.750    2.250    1.750    3.000 
#    0.000    0.000    0.000    1.500    0.000    0.000 
#    0.000    0.000    0.000    0.000    0.000    0.000 
#
# Total GULP energy -89234.151309 kJ/mol
# GULP energy per Si atom -5577.134457 kJ/mol
# Density = 2.124623 g / cm^3
# Si number density = 21.294701 Si / 1000 Ang^3
#
#
#
# Elastic Constant Matrix: (Units=GPa)
#
#
# Indices 1 2 3 4 5 6 
#
# 1 81.3711 28.8899 44.8102 0.0000 -17.8844 0.0000
# 2 28.8899 100.8133 44.4230 0.0000 0.9629 0.0000
# 3 44.8102 44.4230 137.4511 0.0000 -4.5628 0.0000
# 4 0.0000 0.0000 0.0000 16.4346 0.0000 10.7336
# 5 -17.8844 0.9629 -4.5628 0.0000 36.7723 0.0000
# 6 0.0000 0.0000 0.0000 10.7336 0.0000 9.4172
#
#
#
# Elastic Compliance Matrix: (Units=1/GPa)
#
#
# Indices 1 2 3 4 5 6 
#
# 1 0.017656 -0.003171 -0.004462 0.000000 0.008117 0.000000
# 2 -0.003171 0.012158 -0.002969 0.000000 -0.002229 0.000000
# 3 -0.004462 -0.002969 0.009660 0.000000 -0.000894 0.000000
# 4 0.000000 0.000000 0.000000 0.238062 0.000000 -0.271340
# 5 0.008117 -0.002229 -0.000894 0.000000 0.031089 0.000000
# 6 0.000000 0.000000 0.000000 -0.271340 0.000000 0.415459
#
#
# Mechanical properties :
#
#
# Convention : Reuss Voigt Hill
#
# Bulk Modulus (GPa) = 54.73691 61.76462 58.25077
# Shear Modulus (GPa) = 6.65443 25.95900 16.30671
#
# Velocity S-wave (km/s) = 1.76966 3.49526 2.77025
# Velocity P-wave (km/s) = 5.47137 6.73474 6.13566
#
# Compressibility (1/GPa) = 0.01826921
#
# Stress axis : x y z
#
# Youngs Moduli (GPa) = 56.63724 82.25122 103.52046
#
# Poissons Ratio (x) = 0.26083 0.46188
# Poissons Ratio (y) = 0.17961 0.30740
# Poissons Ratio (z) = 0.25270 0.24424
#
# Static dielectric constant tensor:
#      x y z
#    x 1.784800 0.000000 -0.016360 
#    y 0.000000 1.748280 0.000000 
#    z -0.016360 0.000000 1.791660 
# 
# From -- ./inp_files/29224.got.cif
#   From: 2010.05.17/outbox.cif.g08.bks.cpg/sg8_15_cif.got.tgz:29224.got - 2010.06.03 19:46:02.
