data_PCOD9133066
_publ_section_title
;
Structure prediction by ZEFSAII (Michael W. Deem and Ramdas Pophale) SiO2 
 PCOD9133066
Probable space group: C M
;
_chemical_formula_sum "Si O2"
_cell_formula_units_Z 24
_cell_length_a 7.533513
_cell_length_b 19.485569
_cell_length_c 9.100159
_cell_angle_alpha 90.000000
_cell_angle_beta 133.897399
_cell_angle_gamma 90.000000
_cell_volume 962.594506
_symmetry_space_group_name_H-M "C M"
_symmetry_group_IT_number 8
_symmetry_cell_setting 'monoclinic'
loop_
_space_group_symop_operation_xyz
x,y,z
x,-y,z
1/2+x,1/2+y,z
1/2+x,1/2-y,z
loop_
_atom_site_type_symbol
_atom_site_label
_atom_site_fract_x
_atom_site_fract_y
_atom_site_fract_z
Si Si1 0.352780 0.386719 0.625000
Si Si2 0.651534 0.078144 0.819065
Si Si3 0.870136 0.354714 0.894989
Si Si4 0.627359 0.749034 0.551356
Si Si5 0.354438 0.077704 0.188374
Si Si6 0.715982 0.360698 0.393349
O O1 0.327284 0.400009 0.785210
O O2 0.625670 0.402152 0.727082
O O3 0.309213 0.305308 0.580003
O O4 0.126696 0.423920 0.418362
O O5 0.610082 0.120938 0.944153
O O6 0.381377 0.088738 0.587181
O O7 0.695720 0.000000 0.881817
O O8 0.791807 0.282344 0.778544
O O9 0.884345 0.365664 0.077344
O O10 0.545790 0.684989 0.401776
O O11 0.406914 0.800481 0.457731
O O12 0.169699 0.100535 0.214371
O O13 0.300005 0.000000 0.105744
#
# Coordination Sequence:
#
# PCOD9133066 Si02
#       6
#     4   4   4   4   4   4
#     4  10  21  41  61  86 122 164 192 248 306 350
#     4   9  19  34  57  86 115 157 203 238 286 354
#     4  11  21  38  63  88 118 161 197 247 304 351
#     4   9  17  35  57  86 118 145 204 235 294 369
#     4  10  22  38  58  90 120 155 205 244 291 356
#     4   9  17  34  56  78 118 150 183 250 285 344
#
# _framework density 24.932615999999999
#
# number of rings (size 3 to 8) (size 9 to 14) (size 15 to 20)
#    0.000    2.667    1.667    2.500    0.000    2.667 
#    6.000    5.000    0.000   10.000    0.000    0.000 
#    0.000    0.000    0.000    0.000    0.000    0.000 
#
# Total GULP energy -66856.773833 kJ/mol
# GULP energy per Si atom -5571.397819 kJ/mol
# Density = 2.487587 g / cm^3
# Si number density = 24.932616 Si / 1000 Ang^3
#
#
#
# Elastic Constant Matrix: (Units=GPa)
#
#
# Indices 1 2 3 4 5 6 
#
# 1 105.0211 -1.5497 3.0461 0.0000 -14.8737 0.0000
# 2 -1.5497 104.0358 17.3687 0.0000 -6.6183 0.0000
# 3 3.0461 17.3687 99.9202 0.0000 -26.0575 0.0000
# 4 0.0000 0.0000 0.0000 29.9816 0.0000 -2.2822
# 5 -14.8737 -6.6183 -26.0575 0.0000 35.2339 0.0000
# 6 0.0000 0.0000 0.0000 -2.2822 0.0000 26.7672
#
#
#
# Elastic Compliance Matrix: (Units=1/GPa)
#
#
# Indices 1 2 3 4 5 6 
#
# 1 0.010218 0.000315 0.000959 0.000000 0.005082 0.000000
# 2 0.000315 0.009924 -0.001504 0.000000 0.000885 0.000000
# 3 0.000959 -0.001504 0.012727 0.000000 0.009534 0.000000
# 4 0.000000 0.000000 0.000000 0.033572 0.000000 0.002862
# 5 0.005082 0.000885 0.009534 0.000000 0.037745 0.000000
# 6 0.000000 0.000000 0.000000 0.002862 0.000000 0.037603
#
#
# Mechanical properties :
#
#
# Convention : Reuss Voigt Hill
#
# Bulk Modulus (GPa) = 30.85442 38.52306 34.68874
# Shear Modulus (GPa) = 32.66885 37.73734 35.20309
#
# Velocity S-wave (km/s) = 3.62371 3.89469 3.76164
# Velocity P-wave (km/s) = 5.46904 5.97572 5.72798
#
# Compressibility (1/GPa) = 0.03241026
#
# Stress axis : x y z
#
# Youngs Moduli (GPa) = 97.86178 100.76434 78.57577
#
# Poissons Ratio (x) = -0.03178 -0.07535
# Poissons Ratio (y) = -0.03087 0.11817
# Poissons Ratio (z) = -0.09385 0.15154
#
# Static dielectric constant tensor:
#      x y z
#    x 2.175190 0.000000 -0.054350 
#    y 0.000000 1.867170 0.000000 
#    z -0.054350 0.000000 2.107730 
# 
# From -- ./inp_files/8589.got.cif
#   From: 2010.05.17/outbox.cif.g08.bks.cpg/sg8_5_cif.got.tgz:8589.got - 2010.06.03 19:46:02.
