data_PCOD9133134
_publ_section_title
;
Structure prediction by ZEFSAII (Michael W. Deem and Ramdas Pophale) SiO2 
 PCOD9133134
Probable space group: C M
;
_chemical_formula_sum "Si O2"
_cell_formula_units_Z 32
_cell_length_a 13.216949
_cell_length_b 13.496892
_cell_length_c 8.019894
_cell_angle_alpha 90.000000
_cell_angle_beta 71.294556
_cell_angle_gamma 90.000000
_cell_volume 1355.083469
_symmetry_space_group_name_H-M "C M"
_symmetry_group_IT_number 8
_symmetry_cell_setting 'monoclinic'
loop_
_space_group_symop_operation_xyz
x,y,z
x,-y,z
1/2+x,1/2+y,z
1/2+x,1/2-y,z
loop_
_atom_site_type_symbol
_atom_site_label
_atom_site_fract_x
_atom_site_fract_y
_atom_site_fract_z
Si Si1 0.065760 0.618880 0.610920
Si Si2 0.039244 0.767881 0.080044
Si Si3 0.219096 0.206441 0.233882
Si Si4 0.204131 0.618256 0.823611
Si Si5 0.236733 0.889042 0.582852
Si Si6 0.472341 0.890932 0.329615
Si Si7 0.834238 0.618509 0.861563
Si Si8 0.354449 0.617355 0.029828
O O1 0.057572 0.500000 0.616905
O O2 0.175384 0.642684 0.647827
O O3 0.058024 0.643687 0.421394
O O4 0.955923 0.654956 0.759284
O O5 0.109081 0.813839 0.190821
O O6 0.953923 0.697272 0.214709
O O7 0.115801 0.683927 0.962356
O O8 0.973789 0.843838 0.002324
O O9 0.204118 0.169063 0.432032
O O10 0.297530 0.144954 0.066224
O O11 0.270687 0.316676 0.181549
O O12 0.184714 0.500000 0.853806
O O13 0.315584 0.635932 0.858968
O O14 0.363166 0.901478 0.486224
O O15 0.245117 0.847603 0.768921
O O16 0.187269 0.000000 0.610388
O O17 0.499938 0.000000 0.246099
O O18 0.835334 0.500000 0.847505
O O19 0.345729 0.500000 0.068627
#
# Coordination Sequence:
#
# PCOD9133134 Si02
#       8
#     4   4   4   4   4   4   4   4
#     4   8  15  29  54  88 115 140 173 231 305 356
#     4  11  21  34  55  85 108 153 201 236 289 343
#     4  11  21  36  59  86 112 163 204 233 292 360
#     4   9  18  34  57  83 111 146 189 238 299 359
#     4   9  18  34  59  90 120 144 179 243 310 358
#     4   9  17  32  56  87 117 137 178 249 308 349
#     4   9  18  33  57  93 125 143 180 250 308 353
#     4  10  22  38  54  78 120 160 197 244 288 342
#
# _framework density 23.614782999999999
#
# number of rings (size 3 to 8) (size 9 to 14) (size 15 to 20)
#    0.000    2.500    1.250    3.000    0.000    1.500 
#    4.500    0.000    0.000    0.750    0.000    0.000 
#    0.000    0.000    0.000    0.000    0.000    0.000 
#
# Total GULP energy -89136.344355 kJ/mol
# GULP energy per Si atom -5571.021522 kJ/mol
# Density = 2.356103 g / cm^3
# Si number density = 23.614783 Si / 1000 Ang^3
#
#
#
# Elastic Constant Matrix: (Units=GPa)
#
#
# Indices 1 2 3 4 5 6 
#
# 1 141.1275 41.3089 33.3876 0.0000 58.3412 0.0000
# 2 41.3089 96.2745 33.6112 0.0000 24.3259 0.0000
# 3 33.3876 33.6112 64.5032 0.0000 39.7132 0.0000
# 4 0.0000 0.0000 0.0000 28.8365 0.0000 10.5526
# 5 58.3412 24.3259 39.7132 0.0000 58.3673 0.0000
# 6 0.0000 0.0000 0.0000 10.5526 0.0000 32.3710
#
#
#
# Elastic Compliance Matrix: (Units=1/GPa)
#
#
# Indices 1 2 3 4 5 6 
#
# 1 0.013035 -0.003304 0.003697 0.000000 -0.014168 0.000000
# 2 -0.003304 0.013597 -0.006745 0.000000 0.002225 0.000000
# 3 0.003697 -0.006745 0.030371 0.000000 -0.021549 0.000000
# 4 0.000000 0.000000 0.000000 0.039376 0.000000 -0.012836
# 5 -0.014168 0.002225 -0.021549 0.000000 0.045030 0.000000
# 6 0.000000 0.000000 0.000000 -0.012836 0.000000 0.035076
#
#
# Mechanical properties :
#
#
# Convention : Reuss Voigt Hill
#
# Bulk Modulus (GPa) = 22.57282 57.61341 40.09312
# Shear Modulus (GPa) = 24.51527 36.82147 30.66837
#
# Velocity S-wave (km/s) = 3.22550 3.95302 3.60765
# Velocity P-wave (km/s) = 4.84266 6.72944 5.86245
#
# Compressibility (1/GPa) = 0.04430107
#
# Stress axis : x y z
#
# Youngs Moduli (GPa) = 76.71567 73.54452 32.92588
#
# Poissons Ratio (x) = 0.24299 -0.12174
# Poissons Ratio (y) = 0.25347 0.22207
# Poissons Ratio (z) = -0.28365 0.49604
#
# Static dielectric constant tensor:
#      x y z
#    x 1.955900 0.000000 0.044900 
#    y 0.000000 1.945840 0.000000 
#    z 0.044900 0.000000 1.999290 
# 
# From -- ./inp_files/13109.got.cif
#   From: 2010.05.17/outbox.cif.g08.bks.cpg/sg8_7_cif.got.tgz:13109.got - 2010.06.03 19:46:02.
