data_PCOD9133665
_publ_section_title
;
Structure prediction by ZEFSAII (Michael W. Deem and Ramdas Pophale) SiO2 
 PCOD9133665
Probable space group: C M
;
_chemical_formula_sum "Si O2"
_cell_formula_units_Z 16
_cell_length_a 21.000000
_cell_length_b 9.000000
_cell_length_c 15.000000
_cell_angle_alpha 90.000000
_cell_angle_beta 140.000000
_cell_angle_gamma 90.000000
_cell_volume 1822.302873
_symmetry_space_group_name_H-M "C M"
_symmetry_group_IT_number 8
_symmetry_cell_setting 'monoclinic'
loop_
_space_group_symop_operation_xyz
x,y,z
x,-y,z
1/2+x,1/2+y,z
1/2+x,1/2-y,z
loop_
_atom_site_type_symbol
_atom_site_label
_atom_site_fract_x
_atom_site_fract_y
_atom_site_fract_z
Si Si1 0.647630 0.821933 0.460030
Si Si2 0.778625 0.821172 0.434108
Si Si3 0.705961 0.820426 0.791446
Si Si4 0.950175 0.676961 0.741013
Si Si5 0.527350 0.680365 0.480443
Si Si6 0.182561 0.679049 0.975745
Si Si7 0.809514 0.680388 0.274923
Si Si8 0.819706 0.677851 0.764350
O O1 0.683226 0.793034 0.396638
O O2 0.558419 0.736891 0.414162
O O3 0.738965 0.759772 0.616042
O O4 0.636202 0.000000 0.458414
O O5 0.875140 0.761603 0.593161
O O6 0.771212 0.741434 0.330173
O O7 0.787500 0.000000 0.432426
O O8 0.609367 0.745940 0.638914
O O9 0.711760 0.788756 0.903629
O O10 0.800261 0.752725 0.839133
O O11 0.699998 0.000000 0.773643
O O12 0.938935 0.500000 0.710257
O O13 0.917729 0.699392 0.809737
O O14 0.065264 0.716517 0.854571
O O15 0.527183 0.500000 0.484457
O O16 0.420067 0.749853 0.385601
O O17 0.192794 0.500000 0.999986
O O18 0.244529 0.760741 0.120509
O O19 0.812574 0.500000 0.278243
O O20 0.801230 0.500000 0.750466
#
# Coordination Sequence:
#
# PCOD9133665 Si02
#       8
#     4   4   4   4   4   4   4   4
#     4   9  17  31  53  82 112 140 174 219 268 316
#     4  10  20  35  58  85 112 142 178 221 267 319
#     4  10  19  33  56  83 110 140 175 219 268 318
#     4   9  18  34  57  82 108 140 178 220 265 314
#     4  11  21  35  58  84 111 142 179 223 268 320
#     4  10  22  39  55  74 104 142 182 224 269 315
#     4  12  25  39  55  76 107 145 185 228 271 320
#     4   9  16  28  50  80 110 139 173 216 264 314
#
# _framework density 8.7800989999999999
#
# number of rings (size 3 to 8) (size 9 to 14) (size 15 to 20)
#    0.000    2.000    0.000    6.000    0.000    4.500 
#    0.000    1.250    0.000    4.500    0.000    0.000 
#    0.000    0.000    0.000    0.000    0.000    0.000 
#
# Total GULP energy -89196.101302 kJ/mol
# GULP energy per Si atom -5574.756331 kJ/mol
# Density = 0.876012 g / cm^3
# Si number density = 8.780099 Si / 1000 Ang^3
#
#
#
# Elastic Constant Matrix: (Units=GPa)
#
#
# Indices 1 2 3 4 5 6 
#
# 1 146.3434 55.3267 45.4229 0.0000 -33.0406 0.0000
# 2 55.3267 129.2268 39.9014 0.0000 -19.1598 0.0000
# 3 45.4229 39.9014 74.4298 0.0000 -26.6914 0.0000
# 4 0.0000 0.0000 0.0000 31.4847 0.0000 -4.3994
# 5 -33.0406 -19.1598 -26.6914 0.0000 25.4828 0.0000
# 6 0.0000 0.0000 0.0000 -4.3994 0.0000 34.6223
#
#
#
# Elastic Compliance Matrix: (Units=1/GPa)
#
#
# Indices 1 2 3 4 5 6 
#
# 1 0.010560 -0.002569 -0.001361 0.000000 0.010335 0.000000
# 2 -0.002569 0.010027 -0.003681 0.000000 0.000353 0.000000
# 3 -0.001361 -0.003681 0.023406 0.000000 0.019983 0.000000
# 4 0.000000 0.000000 0.000000 0.032336 0.000000 0.004109
# 5 0.010335 0.000353 0.019983 0.000000 0.073838 0.000000
# 6 0.000000 0.000000 0.000000 0.004109 0.000000 0.029405
#
#
# Mechanical properties :
#
#
# Convention : Reuss Voigt Hill
#
# Bulk Modulus (GPa) = 34.75796 70.14467 52.45132
# Shear Modulus (GPa) = 24.46363 32.27456 28.36909
#
# Velocity S-wave (km/s) = 3.73651 4.29177 4.02373
# Velocity P-wave (km/s) = 6.20096 8.03685 7.17785
#
# Compressibility (1/GPa) = 0.02877038
#
# Stress axis : x y z
#
# Youngs Moduli (GPa) = 94.69459 99.73050 42.72410
#
# Poissons Ratio (x) = 0.25616 0.05817
# Poissons Ratio (y) = 0.24323 0.15729
# Poissons Ratio (z) = 0.12893 0.36715
#
# Static dielectric constant tensor:
#      x y z
#    x 1.669970 0.000000 0.003470 
#    y 0.000000 1.591330 0.000000 
#    z 0.003470 0.000000 1.565640 
# 
# From -- ./inp_files/27772.got.cif
#   From: 2010.05.17/outbox.ucp.g08.bks.cvg/sg8_14_cif.got.tgz:27772.got - 2010.06.11 13:00:03.
