data_PCOD9133982
_publ_section_title
;
Structure prediction by ZEFSAII (Michael W. Deem and Ramdas Pophale) SiO2 
 PCOD9133982
Probable space group: C C
;
_chemical_formula_sum "Si O2"
_cell_formula_units_Z 28
_cell_length_a 15.862736
_cell_length_b 11.557326
_cell_length_c 8.998973
_cell_angle_alpha 90.000000
_cell_angle_beta 130.473982
_cell_angle_gamma 90.000000
_cell_volume 1254.995830
_symmetry_space_group_name_H-M "C C"
_symmetry_group_IT_number 9
_symmetry_cell_setting 'monoclinic'
loop_
_space_group_symop_operation_xyz
x,y,z
x,-y,1/2+z
1/2+x,1/2+y,z
1/2+x,1/2-y,1/2+z
loop_
_atom_site_type_symbol
_atom_site_label
_atom_site_fract_x
_atom_site_fract_y
_atom_site_fract_z
Si Si1 0.012980 0.374525 0.777880
Si Si2 0.755358 0.367997 0.483454
Si Si3 0.381112 0.339826 0.051874
Si Si4 0.750250 0.583264 0.304073
Si Si5 0.072260 0.157652 0.286316
Si Si6 0.515849 0.100119 0.615040
Si Si7 0.960072 0.998851 0.399679
O O1 0.058261 0.477174 0.726683
O O2 0.883064 0.409398 0.650378
O O3 0.989403 0.247454 0.681036
O O4 0.060288 0.373470 0.998967
O O5 0.772409 0.238561 0.447210
O O6 0.714313 0.453626 0.310283
O O7 0.705776 0.380402 0.590621
O O8 0.393416 0.420688 0.208008
O O9 0.385382 0.415200 0.910809
O O10 0.700475 0.654537 0.384523
O O11 0.882090 0.596152 0.451219
O O12 0.039636 0.291426 0.248743
O O13 0.037129 0.082406 0.387024
O O14 0.014354 0.090316 0.080201
#
# Coordination Sequence:
#
# PCOD9133982 Si02
#       7
#     4   4   4   4   4   4   4
#     4   8  17  31  53  79 104 142 183 223 273 324
#     4   8  17  31  53  79 109 140 179 231 271 322
#     4   9  18  33  53  79 114 149 184 227 278 329
#     4  10  18  33  54  82 113 137 188 229 275 323
#     4  11  21  33  55  84 110 148 182 237 280 325
#     4  10  19  34  56  82 108 144 185 230 281 324
#     4  10  20  33  50  83 114 144 191 225 278 335
#
# _framework density 22.310832999999999
#
# number of rings (size 3 to 8) (size 9 to 14) (size 15 to 20)
#    0.857    1.714    1.429    0.857    2.000    1.143 
#    0.000    0.000    0.000    6.857    0.000    0.000 
#    0.000    0.000    0.000    0.000    0.000    0.000 
#
# Total GULP energy -77974.012155 kJ/mol
# GULP energy per Si atom -5569.572297 kJ/mol
# Density = 2.226005 g / cm^3
# Si number density = 22.310833 Si / 1000 Ang^3
#
#
#
# Elastic Constant Matrix: (Units=GPa)
#
#
# Indices 1 2 3 4 5 6 
#
# 1 44.5559 24.7057 19.5871 0.0000 -22.6498 0.0000
# 2 24.7057 147.5252 30.3353 0.0000 -14.9617 0.0000
# 3 19.5871 30.3353 39.7879 0.0000 -10.6763 0.0000
# 4 0.0000 0.0000 0.0000 29.5229 0.0000 -8.8881
# 5 -22.6498 -14.9617 -10.6763 0.0000 18.1925 0.0000
# 6 0.0000 0.0000 0.0000 -8.8881 0.0000 26.7355
#
#
#
# Elastic Compliance Matrix: (Units=1/GPa)
#
#
# Indices 1 2 3 4 5 6 
#
# 1 0.066047 -0.001105 -0.011692 0.000000 0.074459 0.000000
# 2 -0.001105 0.008258 -0.005103 0.000000 0.002421 0.000000
# 3 -0.011692 -0.005103 0.035307 0.000000 0.001967 0.000000
# 4 0.000000 0.000000 0.000000 0.037639 0.000000 0.012513
# 5 0.074459 0.002421 0.001967 0.000000 0.150815 0.000000
# 6 0.000000 0.000000 0.000000 0.012513 0.000000 0.041563
#
#
# Mechanical properties :
#
#
# Convention : Reuss Voigt Hill
#
# Bulk Modulus (GPa) = 13.54771 42.34725 27.94748
# Shear Modulus (GPa) = 12.49893 25.37292 18.93593
#
# Velocity S-wave (km/s) = 2.36946 3.37597 2.91646
# Velocity P-wave (km/s) = 3.68391 5.84961 4.88821
#
# Compressibility (1/GPa) = 0.07381324
#
# Stress axis : x y z
#
# Youngs Moduli (GPa) = 15.14068 121.08904 28.32275
#
# Poissons Ratio (x) = 0.13382 0.33115
# Poissons Ratio (y) = 0.01673 0.14452
# Poissons Ratio (z) = 0.17703 0.61787
#
# Static dielectric constant tensor:
#      x y z
#    x 1.875790 0.000000 0.033590 
#    y 0.000000 1.858330 0.000000 
#    z 0.033590 0.000000 1.835780 
# 
# From -- ./inp_files/11589.got.cif
#   From: 2010.05.17/outbox.cif.g08.bks.cpg/sg9_6_cif.got.tgz:11589.got - 2010.06.03 20:04:27.
