data_PCOD9133329
_publ_section_title
;
Structure prediction by ZEFSAII (Michael W. Deem and Ramdas Pophale) SiO2 
 PCOD9133329
Probable space group: C M
;
_chemical_formula_sum "Si O2"
_cell_formula_units_Z 28
_cell_length_a 7.725340
_cell_length_b 27.943384
_cell_length_c 4.992531
_cell_angle_alpha 90.000000
_cell_angle_beta 69.885547
_cell_angle_gamma 90.000000
_cell_volume 1012.013831
_symmetry_space_group_name_H-M "C M"
_symmetry_group_IT_number 8
_symmetry_cell_setting 'monoclinic'
loop_
_space_group_symop_operation_xyz
x,y,z
x,-y,z
1/2+x,1/2+y,z
1/2+x,1/2-y,z
loop_
_atom_site_type_symbol
_atom_site_label
_atom_site_fract_x
_atom_site_fract_y
_atom_site_fract_z
Si Si1 0.649080 0.052429 0.288430
Si Si2 0.789632 0.204129 0.261209
Si Si3 0.283807 0.149692 0.739537
Si Si4 0.505087 0.370222 0.482054
Si Si5 0.640297 0.248599 0.893149
Si Si6 0.623253 0.889724 0.825477
Si Si7 0.581438 0.445965 0.064576
O O1 0.642467 0.066811 0.602221
O O2 0.866131 0.051324 0.093319
O O3 0.569577 0.000000 0.290840
O O4 0.551131 0.090168 0.144244
O O5 0.901088 0.157242 0.294261
O O6 0.727834 0.230211 0.568184
O O7 0.624556 0.208049 0.136940
O O8 0.928168 0.233615 0.993953
O O9 0.223309 0.198636 0.909249
O O10 0.494450 0.144560 0.718561
O O11 0.185415 0.154574 0.502651
O O12 0.197446 0.097629 0.872475
O O13 0.328160 0.370086 0.768792
O O14 0.560548 0.424067 0.374497
O O15 0.656684 0.500000 0.007304
#
# Coordination Sequence:
#
# PCOD9133329 Si02
#       7
#     4   4   4   4   4   4   4
#     4  10  22  45  68 103 147 195 258 319 380 460
#     4  12  27  49  77 113 156 202 257 328 399 476
#     4  12  26  48  74 113 156 197 266 327 392 475
#     4  11  25  50  74 107 159 203 259 324 398 464
#     4  12  28  48  77 116 154 201 262 324 400 483
#     4  11  26  41  74 105 143 202 249 313 394 459
#     4  10  23  45  76 107 151 210 263 321 393 465
#
# _framework density 27.667603
#
# number of rings (size 3 to 8) (size 9 to 14) (size 15 to 20)
#    0.000    0.857    2.857    3.000    6.000    2.286 
#    0.000    0.000    0.000    0.000    0.000    0.000 
#    0.000    0.000    0.000    0.000    0.000    0.000 
#
# Total GULP energy -78136.600844 kJ/mol
# GULP energy per Si atom -5581.185775 kJ/mol
# Density = 2.760463 g / cm^3
# Si number density = 27.667603 Si / 1000 Ang^3
#
#
#
# Elastic Constant Matrix: (Units=GPa)
#
#
# Indices 1 2 3 4 5 6 
#
# 1 105.9477 27.4859 18.8693 0.0000 21.9765 0.0000
# 2 27.4859 169.6321 27.0145 0.0000 5.1580 0.0000
# 3 18.8693 27.0145 106.3007 0.0000 23.8480 0.0000
# 4 0.0000 0.0000 0.0000 35.3884 0.0000 -1.6212
# 5 21.9765 5.1580 23.8480 0.0000 43.1895 0.0000
# 6 0.0000 0.0000 0.0000 -1.6212 0.0000 35.3125
#
#
#
# Elastic Compliance Matrix: (Units=1/GPa)
#
#
# Indices 1 2 3 4 5 6 
#
# 1 0.010990 -0.001561 -0.000390 0.000000 -0.005190 0.000000
# 2 -0.001561 0.006366 -0.001539 0.000000 0.000884 0.000000
# 3 -0.000390 -0.001539 0.011165 0.000000 -0.005783 0.000000
# 4 0.000000 0.000000 0.000000 0.028317 0.000000 0.001300
# 5 -0.005190 0.000884 -0.005783 0.000000 0.028882 0.000000
# 6 0.000000 0.000000 0.000000 0.001300 0.000000 0.028378
#
#
# Mechanical properties :
#
#
# Convention : Reuss Voigt Hill
#
# Bulk Modulus (GPa) = 46.42161 58.73553 52.57857
# Shear Modulus (GPa) = 38.98379 43.34547 41.16463
#
# Velocity S-wave (km/s) = 3.75774 3.96239 3.86142
# Velocity P-wave (km/s) = 5.97011 6.49685 6.23905
#
# Compressibility (1/GPa) = 0.02154169
#
# Stress axis : x y z
#
# Youngs Moduli (GPa) = 90.99546 157.07859 89.56612
#
# Poissons Ratio (x) = 0.24517 0.03490
# Poissons Ratio (y) = 0.14202 0.13785
# Poissons Ratio (z) = 0.03546 0.24176
#
# Static dielectric constant tensor:
#      x y z
#    x 2.307110 0.000000 -0.050630 
#    y 0.000000 2.307540 0.000000 
#    z -0.050630 0.000000 2.241940 
# 
# From -- ./inp_files/1864.got.cif
#   From: 2010.05.17/outbox.cif.g08.bks.cpg/sg8_1_cif.got.tgz:1864.got - 2010.06.03 19:46:02.
