data_PCOD9133880
_publ_section_title
;
Structure prediction by ZEFSAII (Michael W. Deem and Ramdas Pophale) SiO2 
 PCOD9133880
Probable space group: C C
;
_chemical_formula_sum "Si O2"
_cell_formula_units_Z 32
_cell_length_a 8.457877
_cell_length_b 16.428877
_cell_length_c 10.826347
_cell_angle_alpha 90.000000
_cell_angle_beta 87.472136
_cell_angle_gamma 90.000000
_cell_volume 1502.894047
_symmetry_space_group_name_H-M "C C"
_symmetry_group_IT_number 9
_symmetry_cell_setting 'monoclinic'
loop_
_space_group_symop_operation_xyz
x,y,z
x,-y,1/2+z
1/2+x,1/2+y,z
1/2+x,1/2-y,1/2+z
loop_
_atom_site_type_symbol
_atom_site_label
_atom_site_fract_x
_atom_site_fract_y
_atom_site_fract_z
Si Si1 0.483700 0.384195 0.895800
Si Si2 0.694679 0.483345 0.050354
Si Si3 0.653171 0.761525 0.500852
Si Si4 0.742966 0.667100 0.721634
Si Si5 0.921277 0.093501 0.137379
Si Si6 0.904059 0.841402 0.362461
Si Si7 0.724285 0.995483 0.814647
Si Si8 0.949469 0.405406 0.425987
O O1 0.480293 0.355880 0.753993
O O2 0.321420 0.437315 0.908088
O O3 0.624109 0.446446 0.925572
O O4 0.522293 0.308522 0.982033
O O5 0.760778 0.410820 0.131035
O O6 0.545148 0.519328 0.126994
O O7 0.816291 0.553625 0.013826
O O8 0.741059 0.742156 0.626192
O O9 0.782370 0.766300 0.385162
O O10 0.565707 0.847364 0.498172
O O11 0.570259 0.671675 0.791389
O O12 0.869911 0.651927 0.824281
O O13 0.755546 0.053555 0.187233
O O14 0.929935 0.132425 0.003942
O O15 0.815278 0.918085 0.304682
O O16 0.550441 0.021199 0.861096
#
# Coordination Sequence:
#
# PCOD9133880 Si02
#       8
#     4   4   4   4   4   4   4   4
#     4   9  20  40  62  89 128 172 218 264 334 394
#     4  11  19  39  68  93 126 171 222 282 325 391
#     4  10  26  41  61  96 141 174 219 265 335 401
#     4  11  23  43  64  94 139 171 222 277 332 391
#     4  10  17  34  68  88 118 172 216 265 321 392
#     4  11  20  40  64  91 127 177 217 266 328 396
#     4   9  20  36  63  94 126 164 223 275 325 389
#     4  11  23  41  64 103 135 167 225 280 332 392
#
# _framework density 21.292254
#
# number of rings (size 3 to 8) (size 9 to 14) (size 15 to 20)
#    0.750    1.000    3.750    0.750    1.750    3.000 
#    0.000    5.000    0.000    0.000    0.000    0.000 
#    0.000    0.000    0.000    0.000    0.000    0.000 
#
# Total GULP energy -89146.398655 kJ/mol
# GULP energy per Si atom -5571.649916 kJ/mol
# Density = 2.124379 g / cm^3
# Si number density = 21.292254 Si / 1000 Ang^3
#
#
#
# Elastic Constant Matrix: (Units=GPa)
#
#
# Indices 1 2 3 4 5 6 
#
# 1 68.0819 31.5988 17.3829 0.0000 2.4336 0.0000
# 2 31.5988 62.4658 32.7640 0.0000 1.1532 0.0000
# 3 17.3829 32.7640 73.5749 0.0000 10.5843 0.0000
# 4 0.0000 0.0000 0.0000 42.3891 0.0000 3.2181
# 5 2.4336 1.1532 10.5843 0.0000 31.7998 0.0000
# 6 0.0000 0.0000 0.0000 3.2181 0.0000 24.5191
#
#
#
# Elastic Compliance Matrix: (Units=1/GPa)
#
#
# Indices 1 2 3 4 5 6 
#
# 1 0.019235 -0.009667 -0.000082 0.000000 -0.001094 0.000000
# 2 -0.009667 0.025930 -0.009699 0.000000 0.003028 0.000000
# 3 -0.000082 -0.009699 0.018778 0.000000 -0.005892 0.000000
# 4 0.000000 0.000000 0.000000 0.023828 0.000000 -0.003127
# 5 -0.001094 0.003028 -0.005892 0.000000 0.033382 0.000000
# 6 0.000000 0.000000 0.000000 -0.003127 0.000000 0.041195
#
#
# Mechanical properties :
#
#
# Convention : Reuss Voigt Hill
#
# Bulk Modulus (GPa) = 39.92495 40.84601 40.38548
# Shear Modulus (GPa) = 23.85588 27.90008 25.87798
#
# Velocity S-wave (km/s) = 3.35087 3.62379 3.49000
# Velocity P-wave (km/s) = 5.81057 6.06088 5.93705
#
# Compressibility (1/GPa) = 0.02504700
#
# Stress axis : x y z
#
# Youngs Moduli (GPa) = 51.98874 38.56550 53.25494
#
# Poissons Ratio (x) = 0.37280 0.00438
# Poissons Ratio (y) = 0.50256 0.51650
# Poissons Ratio (z) = 0.00428 0.37403
#
# Static dielectric constant tensor:
#      x y z
#    x 1.781620 0.000000 0.030710 
#    y 0.000000 1.800670 0.000000 
#    z 0.030710 0.000000 1.776730 
# 
# From -- ./inp_files/15071.got.cif
#   From: 2010.05.17/outbox.cif.g08.bks.cpg/sg9_8_cif.got.tgz:15071.got - 2010.06.03 20:04:27.
