data_PCOD9133067
_publ_section_title
;
Structure prediction by ZEFSAII (Michael W. Deem and Ramdas Pophale) SiO2 
 PCOD9133067
Probable space group: C M
;
_chemical_formula_sum "Si O2"
_cell_formula_units_Z 32
_cell_length_a 15.325642
_cell_length_b 13.359240
_cell_length_c 8.955842
_cell_angle_alpha 90.000000
_cell_angle_beta 118.871137
_cell_angle_gamma 90.000000
_cell_volume 1605.706277
_symmetry_space_group_name_H-M "C M"
_symmetry_group_IT_number 8
_symmetry_cell_setting 'monoclinic'
loop_
_space_group_symop_operation_xyz
x,y,z
x,-y,z
1/2+x,1/2+y,z
1/2+x,1/2-y,z
loop_
_atom_site_type_symbol
_atom_site_label
_atom_site_fract_x
_atom_site_fract_y
_atom_site_fract_z
Si Si1 0.623230 0.609271 0.866340
Si Si2 0.933744 0.220534 0.641015
Si Si3 0.066694 0.689885 0.279102
Si Si4 0.868329 0.715330 0.276672
Si Si5 0.169013 0.885713 0.242724
Si Si6 0.247946 0.616125 0.615153
Si Si7 0.039325 0.613065 0.923284
Si Si8 0.734844 0.186595 0.935456
O O1 0.660953 0.500000 0.854716
O O2 0.514045 0.632638 0.718130
O O3 0.695290 0.699473 0.879339
O O4 0.613282 0.613221 0.037339
O O5 0.934278 0.255349 0.472160
O O6 0.824166 0.182384 0.584502
O O7 0.966209 0.306531 0.785109
O O8 0.111595 0.803193 0.295058
O O9 0.138165 0.639115 0.460652
O O10 0.951721 0.675529 0.231831
O O11 0.070577 0.642972 0.116737
O O12 0.779749 0.648849 0.277917
O O13 0.813257 0.802087 0.135285
O O14 0.171690 0.000000 0.303919
O O15 0.269036 0.500000 0.610674
O O16 0.266306 0.643949 0.802940
O O17 0.000621 0.500000 0.886343
O O18 0.140598 0.623425 0.912286
#
# Coordination Sequence:
#
# PCOD9133067 Si02
#       8
#     4   4   4   4   4   4   4   4
#     4   9  18  37  64  88 120 167 207 254 326 388
#     4  11  21  41  62  93 130 167 216 269 331 394
#     4  12  22  43  66  98 131 172 228 278 332 397
#     4  11  23  41  68  90 132 173 215 276 333 392
#     4  10  21  42  67  94 130 172 215 270 334 394
#     4  12  25  41  64  91 129 177 221 274 338 394
#     4  11  22  40  65  95 133 170 215 276 333 392
#     4  10  21  41  61  95 127 168 218 271 324 391
#
# _framework density 19.928925
#
# number of rings (size 3 to 8) (size 9 to 14) (size 15 to 20)
#    0.000    1.250    5.000    3.375    0.000    1.500 
#    0.000    8.750    0.000    0.000    0.000    0.000 
#    0.000    0.000    0.000    0.000    0.000    0.000 
#
# Total GULP energy -89209.943215 kJ/mol
# GULP energy per Si atom -5575.621451 kJ/mol
# Density = 1.988357 g / cm^3
# Si number density = 19.928925 Si / 1000 Ang^3
#
#
#
# Elastic Constant Matrix: (Units=GPa)
#
#
# Indices 1 2 3 4 5 6 
#
# 1 32.2765 -1.7432 -15.1322 0.0000 -2.6876 0.0000
# 2 -1.7432 100.3540 11.2844 0.0000 -3.0743 0.0000
# 3 -15.1322 11.2844 70.5484 0.0000 6.5437 0.0000
# 4 0.0000 0.0000 0.0000 11.3518 0.0000 -0.1288
# 5 -2.6876 -3.0743 6.5437 0.0000 31.1763 0.0000
# 6 0.0000 0.0000 0.0000 -0.1288 0.0000 1.8101
#
#
#
# Elastic Compliance Matrix: (Units=1/GPa)
#
#
# Indices 1 2 3 4 5 6 
#
# 1 0.034513 -0.000178 0.007299 0.000000 0.001426 0.000000
# 2 -0.000178 0.010206 -0.001797 0.000000 0.001368 0.000000
# 3 0.007299 -0.001797 0.016303 0.000000 -0.002970 0.000000
# 4 0.000000 0.000000 0.000000 0.088163 0.000000 0.006274
# 5 0.001426 0.001368 -0.002970 0.000000 0.032957 0.000000
# 6 0.000000 0.000000 0.000000 0.006274 0.000000 0.552917
#
#
# Mechanical properties :
#
#
# Convention : Reuss Voigt Hill
#
# Bulk Modulus (GPa) = 13.95273 21.33299 17.64286
# Shear Modulus (GPa) = 6.68180 22.78561 14.73370
#
# Velocity S-wave (km/s) = 1.83306 3.38501 2.72198
# Velocity P-wave (km/s) = 3.39066 5.09955 4.33024
#
# Compressibility (1/GPa) = 0.07167057
#
# Stress axis : x y z
#
# Youngs Moduli (GPa) = 28.97422 97.98470 61.33741
#
# Poissons Ratio (x) = 0.01740 -0.44771
# Poissons Ratio (y) = 0.00514 0.11025
# Poissons Ratio (z) = -0.21149 0.17612
#
# Static dielectric constant tensor:
#      x y z
#    x 1.697100 0.000000 0.031430 
#    y 0.000000 1.728680 0.000000 
#    z 0.031430 0.000000 1.684450 
# 
# From -- ./inp_files/13289.got.cif
#   From: 2010.05.17/outbox.cif.g08.bks.cpg/sg8_7_cif.got.tgz:13289.got - 2010.06.03 19:46:02.
