data_PCOD9133309
_publ_section_title
;
Structure prediction by ZEFSAII (Michael W. Deem and Ramdas Pophale) SiO2 
 PCOD9133309
Probable space group: C M
;
_chemical_formula_sum "Si O2"
_cell_formula_units_Z 26
_cell_length_a 14.681314
_cell_length_b 7.713970
_cell_length_c 18.346892
_cell_angle_alpha 90.000000
_cell_angle_beta 148.118871
_cell_angle_gamma 90.000000
_cell_volume 1097.412254
_symmetry_space_group_name_H-M "C M"
_symmetry_group_IT_number 8
_symmetry_cell_setting 'monoclinic'
loop_
_space_group_symop_operation_xyz
x,y,z
x,-y,z
1/2+x,1/2+y,z
1/2+x,1/2-y,z
loop_
_atom_site_type_symbol
_atom_site_label
_atom_site_fract_x
_atom_site_fract_y
_atom_site_fract_z
Si Si1 0.455030 0.192078 0.849470
Si Si2 0.106239 0.297702 0.679897
Si Si3 0.831473 0.803496 0.369303
Si Si4 0.366761 0.697355 0.637746
Si Si5 0.002396 0.291871 0.335600
Si Si6 0.329551 0.198591 0.066768
Si Si7 0.537724 0.500000 0.161263
O O1 0.306397 0.266649 0.799384
O O2 0.372833 0.188495 0.713146
O O3 0.501608 0.000000 0.906276
O O4 0.629831 0.295679 0.954860
O O5 0.073582 0.500000 0.666226
O O6 0.986857 0.233251 0.531644
O O7 0.037363 0.207001 0.705723
O O8 0.909692 0.793640 0.341071
O O9 0.686488 0.654755 0.272833
O O10 0.768320 0.000000 0.341633
O O11 0.337373 0.500000 0.643078
O O12 0.205059 0.746143 0.477741
O O13 0.977862 0.500000 0.325381
O O14 0.927201 0.241016 0.207095
O O15 0.388034 0.345614 0.050700
O O16 0.370796 0.000000 0.075348
#
# Coordination Sequence:
#
# PCOD9133309 Si02
#       7
#     4   4   4   4   4   4   2
#     4  12  25  47  70 102 145 191 236 289 355 428
#     4  12  24  43  69 105 142 185 237 296 355 418
#     4  12  24  41  70 106 144 183 235 296 355 418
#     4  11  23  42  72 104 137 184 239 293 356 419
#     4  10  22  43  70 104 139 182 236 293 353 420
#     4  11  25  47  73 101 142 190 235 289 358 426
#     4  12  24  46  68 102 142 182 234 292 354 420
#
# _framework density 23.692101000000001
#
# number of rings (size 3 to 8) (size 9 to 14) (size 15 to 20)
#    0.000    0.615    3.846    4.615    1.077    1.846 
#    2.769    0.000    0.000    0.000    0.000    0.000 
#    0.000    0.000    0.000    0.000    0.000    0.000 
#
# Total GULP energy -72518.039976 kJ/mol
# GULP energy per Si atom -5578.310767 kJ/mol
# Density = 2.363818 g / cm^3
# Si number density = 23.692101 Si / 1000 Ang^3
#
#
#
# Elastic Constant Matrix: (Units=GPa)
#
#
# Indices 1 2 3 4 5 6 
#
# 1 52.5194 7.3594 2.2676 -0.0001 17.2495 -0.0001
# 2 7.3594 142.2391 9.2902 0.0002 17.8973 0.0001
# 3 2.2676 9.2902 73.9660 0.0004 33.6169 0.0002
# 4 -0.0001 0.0002 0.0004 31.3996 0.0000 14.8720
# 5 17.2495 17.8973 33.6169 0.0000 41.4262 0.0000
# 6 -0.0001 0.0001 0.0002 14.8720 0.0000 18.3297
#
#
#
# Elastic Compliance Matrix: (Units=1/GPa)
#
#
# Indices 1 2 3 4 5 6 
#
# 1 0.023599 0.000248 0.005957 0.000000 -0.014768 0.000000
# 2 0.000248 0.007470 0.000900 0.000000 -0.004060 0.000000
# 3 0.005957 0.000900 0.023017 0.000000 -0.021547 0.000000
# 4 0.000000 0.000000 0.000000 0.051725 0.000000 -0.041967
# 5 -0.014768 -0.004060 -0.021547 0.000000 0.049528 0.000000
# 6 0.000000 0.000000 0.000000 -0.041967 0.000000 0.088607
#
#
# Mechanical properties :
#
#
# Convention : Reuss Voigt Hill
#
# Bulk Modulus (GPa) = 14.64223 34.06211 24.35217
# Shear Modulus (GPa) = 19.80189 34.88492 27.34340
#
# Velocity S-wave (km/s) = 2.89416 3.84139 3.40091
# Velocity P-wave (km/s) = 4.16675 5.83808 5.07174
#
# Compressibility (1/GPa) = 0.06829560
#
# Stress axis : x y z
#
# Youngs Moduli (GPa) = 42.37481 133.87352 43.44575
#
# Poissons Ratio (x) = -0.03321 -0.25881
# Poissons Ratio (y) = -0.01051 -0.03909
# Poissons Ratio (z) = -0.25243 -0.12044
#
# Static dielectric constant tensor:
#      x y z
#    x 1.899370 0.000000 0.011020 
#    y 0.000000 1.853490 0.000000 
#    z 0.011020 0.000000 1.925920 
# 
# From -- ./inp_files/30711.got.cif
#   From: 2010.05.17/outbox.cif.g08.bks.cpg/sg8_16_cif.got.tgz:30711.got - 2010.06.03 19:46:02.
