data_PCOD9133006
_publ_section_title
;
Structure prediction by ZEFSAII (Michael W. Deem and Ramdas Pophale) SiO2 
 PCOD9133006
Probable space group: C M
;
_chemical_formula_sum "Si O2"
_cell_formula_units_Z 26
_cell_length_a 8.136557
_cell_length_b 15.266074
_cell_length_c 9.654318
_cell_angle_alpha 90.000000
_cell_angle_beta 107.891378
_cell_angle_gamma 90.000000
_cell_volume 1141.202244
_symmetry_space_group_name_H-M "C M"
_symmetry_group_IT_number 8
_symmetry_cell_setting 'monoclinic'
loop_
_space_group_symop_operation_xyz
x,y,z
x,-y,z
1/2+x,1/2+y,z
1/2+x,1/2-y,z
loop_
_atom_site_type_symbol
_atom_site_label
_atom_site_fract_x
_atom_site_fract_y
_atom_site_fract_z
Si Si1 0.418250 0.865974 0.886260
Si Si2 0.207189 0.300702 0.784241
Si Si3 0.904475 0.179935 0.581715
Si Si4 0.273904 0.156713 0.385187
Si Si5 0.412729 0.399189 0.301149
Si Si6 0.801077 0.500000 0.620936
Si Si7 0.523544 0.100388 0.213037
O O1 0.346983 0.767015 0.877681
O O2 0.610076 0.859546 0.869997
O O3 0.314615 0.923809 0.748510
O O4 0.424122 0.901049 0.042264
O O5 0.295336 0.354505 0.682963
O O6 0.064321 0.235914 0.680091
O O7 0.794233 0.254031 0.474643
O O8 0.945783 0.108669 0.476423
O O9 0.305455 0.077013 0.500360
O O10 0.415141 0.150899 0.300646
O O11 0.077601 0.148451 0.279186
O O12 0.419417 0.500000 0.259671
O O13 0.217753 0.366483 0.231041
O O14 0.545299 0.000000 0.269233
#
# Coordination Sequence:
#
# PCOD9133006 Si02
#       7
#     4   4   4   4   4   2   4
#     4  11  24  43  66  92 134 174 216 269 338 397
#     4  10  21  39  65  91 129 165 220 271 323 390
#     4  11  20  40  63 101 130 167 217 287 322 376
#     4  12  23  42  73  99 132 173 226 273 333 394
#     4  11  24  40  67  99 134 171 225 275 327 392
#     4  12  20  40  76  94 122 184 218 264 340 392
#     4  11  25  44  65  97 139 176 215 275 334 397
#
# _framework density 22.782990000000002
#
# number of rings (size 3 to 8) (size 9 to 14) (size 15 to 20)
#    0.000    0.923    6.923    0.923    0.000    1.231 
#    5.538    0.000    0.000    0.000    0.000    0.000 
#    0.000    0.000    0.000    0.000    0.000    0.000 
#
# Total GULP energy -72386.927765 kJ/mol
# GULP energy per Si atom -5568.225213 kJ/mol
# Density = 2.273113 g / cm^3
# Si number density = 22.782990 Si / 1000 Ang^3
#
#
#
# Elastic Constant Matrix: (Units=GPa)
#
#
# Indices 1 2 3 4 5 6 
#
# 1 111.6656 -6.4511 14.1320 0.0000 -7.8232 0.0000
# 2 -6.4511 54.4807 -6.5373 0.0000 -5.4525 0.0000
# 3 14.1320 -6.5373 81.3713 0.0000 -4.1162 0.0000
# 4 0.0000 0.0000 0.0000 21.1707 0.0000 12.8803
# 5 -7.8232 -5.4525 -4.1162 0.0000 22.3416 0.0000
# 6 0.0000 0.0000 0.0000 12.8803 0.0000 1.8383
#
#
#
# Elastic Compliance Matrix: (Units=1/GPa)
#
#
# Indices 1 2 3 4 5 6 
#
# 1 0.009439 0.001291 -0.001365 0.000000 0.003369 0.000000
# 2 0.001291 0.019244 0.001597 0.000000 0.005443 0.000000
# 3 -0.001365 0.001597 0.012769 0.000000 0.002264 0.000000
# 4 0.000000 0.000000 0.000000 -0.014476 0.000000 0.101431
# 5 0.003369 0.005443 0.002264 0.000000 0.047685 0.000000
# 6 0.000000 0.000000 0.000000 0.101431 0.000000 -0.166718
#
#
# Mechanical properties :
#
#
# Convention : Reuss Voigt Hill
#
# Bulk Modulus (GPa) = 22.47269 27.75608 25.11438
# Shear Modulus (GPa) = -62.28978 25.49505 -18.39737
#
# Velocity S-wave (km/s) = -5.23448 3.34883 -2.84475
# Velocity P-wave (km/s) = 5.16216 5.21173 0.50708
#
# Compressibility (1/GPa) = 0.04449847
#
# Stress axis : x y z
#
# Youngs Moduli (GPa) = 105.94733 51.96320 78.31281
#
# Poissons Ratio (x) = -0.06708 0.10691
# Poissons Ratio (y) = -0.13677 -0.12508
# Poissons Ratio (z) = 0.14463 -0.08300
#
# Static dielectric constant tensor:
#      x y z
#    x 1.928160 0.000000 0.042460 
#    y 0.000000 1.811940 0.000000 
#    z 0.042460 0.000000 1.830370 
# 
# From -- ./inp_files/8300.got.cif
#   From: 2010.05.17/outbox.cif.g08.bks.cpg/sg8_5_cif.got.tgz:8300.got - 2010.06.03 19:46:02.
