data_PCOD9133340
_publ_section_title
;
Structure prediction by ZEFSAII (Michael W. Deem and Ramdas Pophale) SiO2 
 PCOD9133340
Probable space group: C M
;
_chemical_formula_sum "Si O2"
_cell_formula_units_Z 24
_cell_length_a 8.662365
_cell_length_b 17.736913
_cell_length_c 8.219772
_cell_angle_alpha 90.000000
_cell_angle_beta 56.415817
_cell_angle_gamma 90.000000
_cell_volume 1052.102022
_symmetry_space_group_name_H-M "C M"
_symmetry_group_IT_number 8
_symmetry_cell_setting 'monoclinic'
loop_
_space_group_symop_operation_xyz
x,y,z
x,-y,z
1/2+x,1/2+y,z
1/2+x,1/2-y,z
loop_
_atom_site_type_symbol
_atom_site_label
_atom_site_fract_x
_atom_site_fract_y
_atom_site_fract_z
Si Si1 0.081920 0.166402 0.461080
Si Si2 0.619749 0.644700 0.083595
Si Si3 0.960821 0.000000 0.057321
Si Si4 0.737764 0.500000 0.370218
Si Si5 0.644052 0.000000 0.971990
Si Si6 0.371429 0.000000 0.654349
Si Si7 0.517411 0.888201 0.803687
Si Si8 0.211045 0.238613 0.702792
O O1 0.103188 0.192042 0.259078
O O2 0.217174 0.191060 0.531011
O O3 0.890514 0.207980 0.618402
O O4 0.111759 0.075726 0.429496
O O5 0.465142 0.579364 0.152160
O O6 0.649638 0.689902 0.896469
O O7 0.813791 0.602393 0.995651
O O8 0.163501 0.000000 0.852132
O O9 0.796562 0.000000 0.022544
O O10 0.825873 0.500000 0.496512
O O11 0.933185 0.500000 0.159302
O O12 0.658006 0.071005 0.842461
O O13 0.492737 0.929591 0.646529
O O14 0.554776 0.801389 0.768755
#
# Coordination Sequence:
#
# PCOD9133340 Si02
#       8
#     4   4   2   2   2   2   4   4
#     4  12  28  47  75 107 145 193 242 295 363 427
#     4  11  24  49  72 101 150 189 235 300 358 429
#     4  10  23  44  74 107 131 187 242 299 360 419
#     4  12  25  45  73 108 140 183 250 299 345 435
#     4  11  24  41  77 104 136 186 245 295 364 415
#     4   9  22  42  72  95 143 182 229 295 357 417
#     4  10  22  46  68 100 143 187 232 297 362 422
#     4  12  28  46  71 108 147 192 242 290 367 430
#
# _framework density 22.811475999999999
#
# number of rings (size 3 to 8) (size 9 to 14) (size 15 to 20)
#    0.000    1.000    3.333    3.000    7.000    2.000 
#    0.000    0.000    0.000    0.000    0.000    0.000 
#    0.000    0.000    0.000    0.000    0.000    0.000 
#
# Total GULP energy -66843.030427 kJ/mol
# GULP energy per Si atom -5570.252536 kJ/mol
# Density = 2.275956 g / cm^3
# Si number density = 22.811476 Si / 1000 Ang^3
#
#
#
# Elastic Constant Matrix: (Units=GPa)
#
#
# Indices 1 2 3 4 5 6 
#
# 1 136.1777 62.6604 41.0620 0.0000 21.3804 0.0000
# 2 62.6604 122.9753 49.8039 0.0000 15.4583 0.0000
# 3 41.0620 49.8039 97.8149 0.0000 36.3988 0.0000
# 4 0.0000 0.0000 0.0000 11.7031 0.0000 -18.7690
# 5 21.3804 15.4583 36.3988 0.0000 40.2996 0.0000
# 6 0.0000 0.0000 0.0000 -18.7690 0.0000 -31.6288
#
#
#
# Elastic Compliance Matrix: (Units=1/GPa)
#
#
# Indices 1 2 3 4 5 6 
#
# 1 0.010099 -0.004408 -0.000950 0.000000 -0.002809 0.000000
# 2 -0.004408 0.012205 -0.005260 0.000000 0.002408 0.000000
# 3 -0.000950 -0.005260 0.018620 0.000000 -0.014296 0.000000
# 4 0.000000 0.000000 0.000000 0.043781 0.000000 -0.025980
# 5 -0.002809 0.002408 -0.014296 0.000000 0.038294 0.000000
# 6 0.000000 0.000000 0.000000 -0.025980 0.000000 -0.016200
#
#
# Mechanical properties :
#
#
# Convention : Reuss Voigt Hill
#
# Bulk Modulus (GPa) = 50.78952 73.78006 62.28479
# Shear Modulus (GPa) = 37.14748 17.63756 27.39252
#
# Velocity S-wave (km/s) = 4.03979 2.78364 3.46905
# Velocity P-wave (km/s) = 6.63876 6.53798 6.58856
#
# Compressibility (1/GPa) = 0.01968910
#
# Stress axis : x y z
#
# Youngs Moduli (GPa) = 99.01859 81.93082 53.70496
#
# Poissons Ratio (x) = 0.36116 0.05100
# Poissons Ratio (y) = 0.43649 0.28249
# Poissons Ratio (z) = 0.09404 0.43096
#
# Static dielectric constant tensor:
#      x y z
#    x 1.883280 0.000000 0.028630 
#    y 0.000000 1.906970 0.000000 
#    z 0.028630 0.000000 1.937290 
# 
# From -- ./inp_files/8522.got.cif
#   From: 2010.05.17/outbox.cif.g08.bks.cpg/sg8_5_cif.got.tgz:8522.got - 2010.06.03 19:46:02.
