data_PCOD9133757
_publ_section_title
;
Structure prediction by ZEFSAII (Michael W. Deem and Ramdas Pophale) SiO2 
 PCOD9133757
Probable space group: C C
;
_chemical_formula_sum "Si O2"
_cell_formula_units_Z 32
_cell_length_a 29.297991
_cell_length_b 9.792952
_cell_length_c 13.523884
_cell_angle_alpha 90.000000
_cell_angle_beta 159.886467
_cell_angle_gamma 90.000000
_cell_volume 1334.325267
_symmetry_space_group_name_H-M "C C"
_symmetry_group_IT_number 9
_symmetry_cell_setting 'monoclinic'
loop_
_space_group_symop_operation_xyz
x,y,z
x,-y,1/2+z
1/2+x,1/2+y,z
1/2+x,1/2-y,1/2+z
loop_
_atom_site_type_symbol
_atom_site_label
_atom_site_fract_x
_atom_site_fract_y
_atom_site_fract_z
Si Si1 0.066960 0.269321 0.882860
Si Si2 0.620051 0.122420 0.688459
Si Si3 0.947406 0.608026 0.725140
Si Si4 0.929351 0.299687 0.973390
Si Si5 0.160617 0.031330 0.931042
Si Si6 0.220583 0.411997 0.031972
Si Si7 0.770201 0.367363 0.309519
Si Si8 0.582029 0.691361 0.606835
O O1 0.130157 0.393764 0.945996
O O2 0.908867 0.289195 0.574561
O O3 0.139459 0.275366 0.136516
O O4 0.094078 0.132229 0.876456
O O5 0.518178 0.188335 0.558291
O O6 0.547604 0.997261 0.482263
O O7 0.722971 0.049762 0.973049
O O8 0.987103 0.657548 0.696442
O O9 0.818029 0.517025 0.444452
O O10 0.946487 0.741668 0.792490
O O11 0.808549 0.408450 0.711180
O O12 0.862610 0.151089 0.846542
O O13 0.188940 0.889203 0.042756
O O14 0.081790 0.051909 0.668613
O O15 0.148319 0.300326 0.815421
O O16 0.678569 0.313002 0.209531
#
# Coordination Sequence:
#
# PCOD9133757 Si02
#       8
#     4   4   4   4   4   4   4   4
#     4   9  17  29  50  79 105 132 173 212 248 306
#     4  10  16  27  51  77 102 138 173 207 255 305
#     4   9  17  29  50  77 102 133 172 208 249 304
#     4   9  17  30  49  75 107 137 168 211 259 301
#     4   9  18  31  50  79 106 132 172 215 252 303
#     4   9  17  29  49  80 107 131 172 216 252 304
#     4  10  18  32  56  77 100 140 172 205 257 303
#     4   9  18  31  51  78 105 135 172 210 256 306
#
# _framework density 23.982158999999999
#
# number of rings (size 3 to 8) (size 9 to 14) (size 15 to 20)
#    0.000    3.000    0.000    5.250    0.000    2.000 
#    0.000    1.250    0.000   30.000    0.000   14.000 
#    0.000    0.000    0.000    0.000    0.000    0.000 
#
# Total GULP energy -89212.666481 kJ/mol
# GULP energy per Si atom -5575.791655 kJ/mol
# Density = 2.392757 g / cm^3
# Si number density = 23.982159 Si / 1000 Ang^3
#
#
#
# Elastic Constant Matrix: (Units=GPa)
#
#
# Indices 1 2 3 4 5 6 
#
# 1 121.4427 27.1198 35.2553 0.0000 -8.8860 0.0000
# 2 27.1198 33.0571 22.6871 0.0000 9.2043 0.0000
# 3 35.2553 22.6871 71.5160 0.0000 -1.3267 0.0000
# 4 0.0000 0.0000 0.0000 29.5436 0.0000 -3.9886
# 5 -8.8860 9.2043 -1.3267 0.0000 22.1174 0.0000
# 6 0.0000 0.0000 0.0000 -3.9886 0.0000 33.6754
#
#
#
# Elastic Compliance Matrix: (Units=1/GPa)
#
#
# Indices 1 2 3 4 5 6 
#
# 1 0.011990 -0.010803 -0.002313 0.000000 0.009174 0.000000
# 2 -0.010803 0.055888 -0.012930 0.000000 -0.028374 0.000000
# 3 -0.002313 -0.012930 0.019329 0.000000 0.005611 0.000000
# 4 0.000000 0.000000 0.000000 0.034398 0.000000 0.004074
# 5 0.009174 -0.028374 0.005611 0.000000 0.061044 0.000000
# 6 0.000000 0.000000 0.000000 0.004074 0.000000 0.030178
#
#
# Mechanical properties :
#
#
# Convention : Reuss Voigt Hill
#
# Bulk Modulus (GPa) = 28.47892 44.01556 36.24724
# Shear Modulus (GPa) = 18.07511 26.46419 22.26965
#
# Velocity S-wave (km/s) = 2.74832 3.32549 3.05059
# Velocity P-wave (km/s) = 4.68741 5.75661 5.24930
#
# Compressibility (1/GPa) = 0.03511369
#
# Stress axis : x y z
#
# Youngs Moduli (GPa) = 83.40562 17.89307 51.73520
#
# Poissons Ratio (x) = 0.19330 0.11968
# Poissons Ratio (y) = 0.90102 0.66894
# Poissons Ratio (z) = 0.19294 0.23136
#
# Static dielectric constant tensor:
#      x y z
#    x 1.915520 0.000000 -0.045630 
#    y 0.000000 2.025050 0.000000 
#    z -0.045630 0.000000 1.952560 
# 
# From -- ./inp_files/20960.got.cif
#   From: 2010.05.17/outbox.cif.g08.bks.cpg/sg9_11_cif.got.tgz:20960.got - 2010.06.03 20:04:27.
