data_PCOD9133101
_publ_section_title
;
Structure prediction by ZEFSAII (Michael W. Deem and Ramdas Pophale) SiO2 
 PCOD9133101
Probable space group: C M
;
_chemical_formula_sum "Si O2"
_cell_formula_units_Z 20
_cell_length_a 15.130436
_cell_length_b 9.862525
_cell_length_c 19.427580
_cell_angle_alpha 90.000000
_cell_angle_beta 161.535305
_cell_angle_gamma 90.000000
_cell_volume 918.193254
_symmetry_space_group_name_H-M "C M"
_symmetry_group_IT_number 8
_symmetry_cell_setting 'monoclinic'
loop_
_space_group_symop_operation_xyz
x,y,z
x,-y,z
1/2+x,1/2+y,z
1/2+x,1/2-y,z
loop_
_atom_site_type_symbol
_atom_site_label
_atom_site_fract_x
_atom_site_fract_y
_atom_site_fract_z
Si Si1 0.620950 0.650595 0.519210
Si Si2 0.706773 0.842273 0.871501
Si Si3 0.613942 0.650155 0.297265
Si Si4 0.730083 0.230911 0.743661
Si Si5 0.860023 0.656155 0.222903
O O1 0.506381 0.500000 0.422150
O O2 0.693297 0.666448 0.653225
O O3 0.421476 0.764553 0.339429
O O4 0.912008 0.664108 0.692680
O O5 0.724122 0.738352 0.821067
O O6 0.738296 0.000000 0.869472
O O7 0.944424 0.820303 0.103072
O O8 0.527214 0.500000 0.258223
O O9 0.532633 0.762263 0.292870
O O10 0.942112 0.648184 0.525411
O O11 0.034813 0.165101 0.961278
O O12 0.942794 0.500000 0.289685
#
# Coordination Sequence:
#
# PCOD9133101 Si02
#       5
#     4   4   4   4   4
#     4  11  25  47  74 104 140 188 240 288 347 423
#     4  10  21  42  71 102 134 182 237 283 342 417
#     4  11  23  45  74 101 139 193 240 283 345 429
#     4  12  24  43  74 105 136 183 238 290 348 413
#     4  12  26  43  69 110 147 180 231 298 356 412
#
# _framework density 21.781907
#
# number of rings (size 3 to 8) (size 9 to 14) (size 15 to 20)
#    0.000    0.800    4.000    3.600    0.000    5.600 
#    0.000    1.000    0.000    0.000    0.000    0.000 
#    0.000    0.000    0.000    0.000    0.000    0.000 
#
# Total GULP energy -55822.761666 kJ/mol
# GULP energy per Si atom -5582.276167 kJ/mol
# Density = 2.173233 g / cm^3
# Si number density = 21.781907 Si / 1000 Ang^3
#
#
#
# Elastic Constant Matrix: (Units=GPa)
#
#
# Indices 1 2 3 4 5 6 
#
# 1 123.6277 68.6702 30.7222 0.0412 -14.7620 0.0401
# 2 68.6702 138.7906 42.0197 0.0589 -12.8065 -0.0122
# 3 30.7222 42.0197 132.0303 0.0904 -18.9476 0.0294
# 4 0.0412 0.0589 0.0904 20.3791 0.0082 -7.4068
# 5 -14.7620 -12.8065 -18.9476 0.0082 46.2269 0.0197
# 6 0.0401 -0.0122 0.0294 -7.4068 0.0197 22.6210
#
#
#
# Elastic Compliance Matrix: (Units=1/GPa)
#
#
# Indices 1 2 3 4 5 6 
#
# 1 0.011411 -0.005256 -0.000710 -0.000016 0.001897 -0.000029
# 2 -0.005256 0.010462 -0.002052 -0.000005 0.000379 0.000016
# 3 -0.000710 -0.002052 0.008796 -0.000043 0.002810 -0.000028
# 4 -0.000016 -0.000005 -0.000043 0.055699 -0.000042 0.018238
# 5 0.001897 0.000379 0.002810 -0.000042 0.023495 -0.000041
# 6 -0.000029 0.000016 -0.000028 0.018238 -0.000041 0.050178
#
#
# Mechanical properties :
#
#
# Convention : Reuss Voigt Hill
#
# Bulk Modulus (GPa) = 68.34371 75.25252 71.79812
# Shear Modulus (GPa) = 27.63119 34.71451 31.17285
#
# Velocity S-wave (km/s) = 3.56552 3.99649 3.78714
# Velocity P-wave (km/s) = 6.95666 7.47791 7.22198
#
# Compressibility (1/GPa) = 0.01463192
#
# Stress axis : x y z
#
# Youngs Moduli (GPa) = 87.63248 95.58515 113.69178
#
# Poissons Ratio (x) = 0.50239 0.08076
# Poissons Ratio (y) = 0.46059 0.23332
# Poissons Ratio (z) = 0.06225 0.19616
#
# Static dielectric constant tensor:
#      x y z
#    x 1.831290 0.000000 -0.010240 
#    y 0.000000 1.775030 -0.000010 
#    z -0.010240 -0.000010 1.803950 
# 
# From -- ./inp_files/30741.got.cif
#   From: 2010.05.17/outbox.cif.g08.bks.cpg/sg8_16_cif.got.tgz:30741.got - 2010.06.03 19:46:02.
