data_PCOD9133587
_publ_section_title
;
Structure prediction by ZEFSAII (Michael W. Deem and Ramdas Pophale) SiO2 
 PCOD9133587
Probable space group: C M
;
_chemical_formula_sum "Si O2"
_cell_formula_units_Z 28
_cell_length_a 12.795005
_cell_length_b 23.206488
_cell_length_c 5.188631
_cell_angle_alpha 90.000000
_cell_angle_beta 123.328135
_cell_angle_gamma 90.000000
_cell_volume 1287.267184
_symmetry_space_group_name_H-M "C M"
_symmetry_group_IT_number 8
_symmetry_cell_setting 'monoclinic'
loop_
_space_group_symop_operation_xyz
x,y,z
x,-y,z
1/2+x,1/2+y,z
1/2+x,1/2-y,z
loop_
_atom_site_type_symbol
_atom_site_label
_atom_site_fract_x
_atom_site_fract_y
_atom_site_fract_z
Si Si1 0.538360 0.392726 0.828160
Si Si2 0.206417 0.000000 0.215149
Si Si3 0.632013 0.668375 0.435099
Si Si4 0.614810 0.901870 0.679280
Si Si5 0.913804 0.621021 0.788889
Si Si6 0.257497 0.407350 0.371221
Si Si7 0.854648 0.500000 0.928754
Si Si8 0.127799 0.695753 0.356126
O O1 0.586706 0.355589 0.650391
O O2 0.402385 0.418948 0.590673
O O3 0.630990 0.444296 0.023812
O O4 0.539860 0.355125 0.089399
O O5 0.238918 0.000000 0.562472
O O6 0.325019 0.000000 0.189040
O O7 0.773242 0.644573 0.581673
O O8 0.632707 0.736911 0.398048
O O9 0.474538 0.897812 0.598788
O O10 0.672553 0.928206 0.496303
O O11 0.637581 0.834162 0.648849
O O12 0.696046 0.926019 0.022962
O O13 0.916353 0.561100 0.948362
O O14 0.003959 0.668147 0.050421
O O15 0.239896 0.337182 0.359732
#
# Coordination Sequence:
#
# PCOD9133587 Si02
#       8
#     4   2   4   4   4   4   2   4
#     4  12  25  44  66 100 135 183 225 280 352 408
#     4  12  24  48  64 103 137 182 234 286 351 414
#     4  12  27  38  68 105 134 181 226 280 356 410
#     4   9  21  41  65  96 128 179 219 274 337 401
#     4  11  24  46  69 103 139 180 233 292 349 406
#     4   9  21  41  64  91 136 173 220 269 334 412
#     4  12  26  44  72 101 141 178 242 290 343 422
#     4   9  25  42  66 102 138 180 227 283 348 415
#
# _framework density 21.751505999999999
#
# number of rings (size 3 to 8) (size 9 to 14) (size 15 to 20)
#    0.857    0.571    2.857    0.857   10.000    0.000 
#    0.000    3.571    0.000    0.000    0.000    0.000 
#    0.000    0.000    0.000    0.000    0.000    0.000 
#
# Total GULP energy -78016.788428 kJ/mol
# GULP energy per Si atom -5572.627745 kJ/mol
# Density = 2.170200 g / cm^3
# Si number density = 21.751506 Si / 1000 Ang^3
#
#
#
# Elastic Constant Matrix: (Units=GPa)
#
#
# Indices 1 2 3 4 5 6 
#
# 1 66.0663 7.8646 40.5898 0.0000 5.2718 0.0000
# 2 7.8646 118.2970 19.2562 0.0000 0.6434 0.0000
# 3 40.5898 19.2562 120.6461 0.0000 -14.1715 0.0000
# 4 0.0000 0.0000 0.0000 25.7188 0.0000 -10.4513
# 5 5.2718 0.6434 -14.1715 0.0000 37.2036 0.0000
# 6 0.0000 0.0000 0.0000 -10.4513 0.0000 0.3980
#
#
#
# Elastic Compliance Matrix: (Units=1/GPa)
#
#
# Indices 1 2 3 4 5 6 
#
# 1 0.020173 -0.000099 -0.007440 0.000000 -0.005691 0.000000
# 2 -0.000099 0.008697 -0.001435 0.000000 -0.000683 0.000000
# 3 -0.007440 -0.001435 0.011670 0.000000 0.005524 0.000000
# 4 0.000000 0.000000 0.000000 -0.004021 0.000000 -0.105576
# 5 -0.005691 -0.000683 0.005524 0.000000 0.029802 0.000000
# 6 0.000000 0.000000 0.000000 -0.105576 0.000000 -0.259804
#
#
# Mechanical properties :
#
#
# Convention : Reuss Voigt Hill
#
# Bulk Modulus (GPa) = 44.26298 48.93674 46.59986
# Shear Modulus (GPa) = -29.76099 28.48400 -0.63849
#
# Velocity S-wave (km/s) = -3.70297 3.62265 -0.54238
# Velocity P-wave (km/s) = 1.45291 6.32812 4.59108
#
# Compressibility (1/GPa) = 0.02259224
#
# Stress axis : x y z
#
# Youngs Moduli (GPa) = 49.57141 114.97957 85.69300
#
# Poissons Ratio (x) = 0.01140 0.63752
# Poissons Ratio (y) = 0.00492 0.12297
# Poissons Ratio (z) = 0.36879 0.16500
#
# Static dielectric constant tensor:
#      x y z
#    x 1.809850 0.000000 -0.006310 
#    y 0.000000 1.788560 0.000000 
#    z -0.006310 0.000000 1.838070 
# 
# From -- ./inp_files/4255.got.cif
#   From: 2010.05.17/outbox.cif.g08.bks.cpg/sg8_3_cif.got.tgz:4255.got - 2010.06.03 19:46:02.
