data_PCOD9133141
_publ_section_title
;
Structure prediction by ZEFSAII (Michael W. Deem and Ramdas Pophale) SiO2 
 PCOD9133141
Probable space group: C M
;
_chemical_formula_sum "Si O2"
_cell_formula_units_Z 28
_cell_length_a 9.972589
_cell_length_b 9.741597
_cell_length_c 14.746626
_cell_angle_alpha 90.000000
_cell_angle_beta 68.508120
_cell_angle_gamma 90.000000
_cell_volume 1333.008405
_symmetry_space_group_name_H-M "C M"
_symmetry_group_IT_number 8
_symmetry_cell_setting 'monoclinic'
loop_
_space_group_symop_operation_xyz
x,y,z
x,-y,z
1/2+x,1/2+y,z
1/2+x,1/2-y,z
loop_
_atom_site_type_symbol
_atom_site_label
_atom_site_fract_x
_atom_site_fract_y
_atom_site_fract_z
Si Si1 0.619720 0.836389 0.906250
Si Si2 0.988439 0.225740 0.592426
Si Si3 0.459961 0.655113 0.806247
Si Si4 0.713124 0.647955 0.390035
Si Si5 0.436676 0.663452 0.096365
Si Si6 0.269408 0.346991 0.515378
Si Si7 0.158653 0.159726 0.195350
O O1 0.560754 0.768215 0.828079
O O2 0.792168 0.820890 0.872518
O O3 0.587933 0.000000 0.918582
O O4 0.538317 0.747118 0.002377
O O5 0.084648 0.142725 0.495497
O O6 0.097730 0.351491 0.573602
O O7 0.968381 0.162376 0.695367
O O8 0.838417 0.243098 0.578407
O O9 0.500091 0.500000 0.825499
O O10 0.789060 0.500000 0.370101
O O11 0.801263 0.772529 0.412235
O O12 0.653489 0.675204 0.305152
O O13 0.429563 0.500000 0.078314
O O14 0.281139 0.734930 0.132440
O O15 0.511887 0.681248 0.176215
O O16 0.324242 0.500000 0.503798
O O17 0.201949 0.000000 0.166723
#
# Coordination Sequence:
#
# PCOD9133141 Si02
#       7
#     4   4   4   4   4   4   4
#     4  11  25  43  65  93 124 158 203 259 314 368
#     4  10  22  39  63  88 129 167 206 249 300 356
#     4  11  23  41  65  93 124 165 207 250 307 367
#     4   9  21  39  62  91 128 168 205 250 302 359
#     4  11  24  43  66  93 121 160 206 255 313 371
#     4  10  22  38  59  86 123 166 208 252 297 349
#     4  10  23  41  64  94 127 162 205 253 307 364
#
# _framework density 21.005119000000001
#
# number of rings (size 3 to 8) (size 9 to 14) (size 15 to 20)
#    0.857    0.857    0.000    3.857    2.000    7.429 
#    0.000    0.000    0.000    0.000    0.000    0.000 
#    0.000    0.000    0.000    0.000    0.000    0.000 
#
# Total GULP energy -78011.380022 kJ/mol
# GULP energy per Si atom -5572.241430 kJ/mol
# Density = 2.095731 g / cm^3
# Si number density = 21.005119 Si / 1000 Ang^3
#
#
#
# Elastic Constant Matrix: (Units=GPa)
#
#
# Indices 1 2 3 4 5 6 
#
# 1 74.2762 43.2370 -11.9818 0.0000 11.9788 0.0000
# 2 43.2370 89.8083 7.6682 0.0000 -4.8566 0.0000
# 3 -11.9818 7.6682 68.2012 0.0000 9.9022 0.0000
# 4 0.0000 0.0000 0.0000 14.8158 0.0000 -8.4615
# 5 11.9788 -4.8566 9.9022 0.0000 32.3724 0.0000
# 6 0.0000 0.0000 0.0000 -8.4615 0.0000 19.5503
#
#
#
# Elastic Compliance Matrix: (Units=1/GPa)
#
#
# Indices 1 2 3 4 5 6 
#
# 1 0.024583 -0.013225 0.007759 0.000000 -0.013454 0.000000
# 2 -0.013225 0.018505 -0.005774 0.000000 0.009436 0.000000
# 3 0.007759 -0.005774 0.018018 0.000000 -0.009249 0.000000
# 4 0.000000 0.000000 0.000000 0.089657 0.000000 0.038804
# 5 -0.013454 0.009436 -0.009249 0.000000 0.040114 0.000000
# 6 0.000000 0.000000 0.000000 0.038804 0.000000 0.067945
#
#
# Mechanical properties :
#
#
# Convention : Reuss Voigt Hill
#
# Bulk Modulus (GPa) = 25.88935 34.45916 30.17425
# Shear Modulus (GPa) = 16.99649 26.23850 21.61750
#
# Velocity S-wave (km/s) = 2.84766 3.53816 3.21152
# Velocity P-wave (km/s) = 4.81292 5.75606 5.30549
#
# Compressibility (1/GPa) = 0.03862591
#
# Stress axis : x y z
#
# Youngs Moduli (GPa) = 40.67774 54.03836 55.50083
#
# Poissons Ratio (x) = 0.71468 -0.43065
# Poissons Ratio (y) = 0.53798 0.32047
# Poissons Ratio (z) = -0.31563 0.31203
#
# Static dielectric constant tensor:
#      x y z
#    x 1.798120 0.000000 -0.002700 
#    y 0.000000 1.738340 0.000000 
#    z -0.002700 0.000000 1.785260 
# 
# From -- ./inp_files/25822.got.cif
#   From: 2010.05.17/outbox.cif.g08.bks.cpg/sg8_13_cif.got.tgz:25822.got - 2010.06.03 19:46:02.
