data_PCOD9133090
_publ_section_title
;
Structure prediction by ZEFSAII (Michael W. Deem and Ramdas Pophale) SiO2 
 PCOD9133090
Probable space group: C M
;
_chemical_formula_sum "Si O2"
_cell_formula_units_Z 32
_cell_length_a 12.965890
_cell_length_b 27.412101
_cell_length_c 9.561199
_cell_angle_alpha 90.000000
_cell_angle_beta 157.379761
_cell_angle_gamma 90.000000
_cell_volume 1307.044789
_symmetry_space_group_name_H-M "C M"
_symmetry_group_IT_number 8
_symmetry_cell_setting 'monoclinic'
loop_
_space_group_symop_operation_xyz
x,y,z
x,-y,z
1/2+x,1/2+y,z
1/2+x,1/2-y,z
loop_
_atom_site_type_symbol
_atom_site_label
_atom_site_fract_x
_atom_site_fract_y
_atom_site_fract_z
Si Si1 0.366890 0.783591 0.190470
Si Si2 0.527205 0.606394 0.397394
Si Si3 0.648550 0.146930 0.716552
Si Si4 0.429055 0.210121 0.663557
Si Si5 0.042806 0.295193 0.103104
Si Si6 0.808691 0.557053 0.239908
Si Si7 0.994607 0.130465 0.674751
Si Si8 0.949058 0.443852 0.732059
O O1 0.630219 0.805905 0.593206
O O2 0.397610 0.786303 0.064786
O O3 0.231800 0.732337 0.053419
O O4 0.155487 0.826962 0.958010
O O5 0.584482 0.626004 0.624969
O O6 0.778518 0.579080 0.644266
O O7 0.426881 0.639826 0.142580
O O8 0.248485 0.576466 0.077153
O O9 0.451160 0.162337 0.598200
O O10 0.550707 0.096860 0.520693
O O11 0.255656 0.250606 0.369036
O O12 0.358518 0.205609 0.736769
O O13 0.198998 0.346679 0.300728
O O14 0.857705 0.500000 0.263501
O O15 0.785025 0.558170 0.379237
O O16 0.564977 0.581130 0.846853
O O17 0.985309 0.500000 0.812601
#
# Coordination Sequence:
#
# PCOD9133090 Si02
#       8
#     4   4   4   4   4   4   4   4
#     4  10  24  41  62  93 132 175 226 273 339 414
#     4  11  23  41  69 100 133 177 223 282 350 403
#     4  10  21  42  64  94 135 175 226 284 336 412
#     4  11  22  42  58  96 129 173 221 273 341 407
#     4  11  24  39  65  92 131 175 220 278 341 413
#     4   9  21  43  67  93 130 179 226 281 346 409
#     4  10  23  41  65  96 134 171 225 284 344 409
#     4  10  23  43  67  96 131 175 231 283 341 411
#
# _framework density 24.482710999999998
#
# number of rings (size 3 to 8) (size 9 to 14) (size 15 to 20)
#    0.000    1.750    2.500    0.375    5.250    1.500 
#    4.500    0.000    0.000    0.000    0.000    0.000 
#    0.000    0.000    0.000    0.000    0.000    0.000 
#
# Total GULP energy -89352.709483 kJ/mol
# GULP energy per Si atom -5584.544343 kJ/mol
# Density = 2.442699 g / cm^3
# Si number density = 24.482711 Si / 1000 Ang^3
#
#
#
# Elastic Constant Matrix: (Units=GPa)
#
#
# Indices 1 2 3 4 5 6 
#
# 1 73.4336 -7.5893 25.6235 0.0001 -4.6578 0.0000
# 2 -7.5893 134.6471 57.4337 0.0001 0.7350 0.0000
# 3 25.6235 57.4337 95.8048 0.0002 -12.0556 0.0000
# 4 0.0001 0.0001 0.0002 32.8320 0.0001 -6.2672
# 5 -4.6578 0.7350 -12.0556 0.0001 41.7445 0.0000
# 6 0.0000 0.0000 0.0000 -6.2672 0.0000 35.5536
#
#
#
# Elastic Compliance Matrix: (Units=1/GPa)
#
#
# Indices 1 2 3 4 5 6 
#
# 1 0.016308 0.003747 -0.006628 0.000000 -0.000161 0.000000
# 2 0.003747 0.010999 -0.007853 0.000000 -0.002043 0.000000
# 3 -0.006628 -0.007853 0.017478 0.000000 0.004446 0.000000
# 4 0.000000 0.000000 0.000000 0.031519 0.000000 0.005556
# 5 -0.000161 -0.002043 0.004446 0.000000 0.025257 0.000000
# 6 0.000000 0.000000 0.000000 0.005556 0.000000 0.029106
#
#
# Mechanical properties :
#
#
# Convention : Reuss Voigt Hill
#
# Bulk Modulus (GPa) = 42.88805 50.53571 46.71188
# Shear Modulus (GPa) = 31.26824 37.25386 34.26105
#
# Velocity S-wave (km/s) = 3.57761 3.90505 3.74491
# Velocity P-wave (km/s) = 5.88400 6.40459 6.14980
#
# Compressibility (1/GPa) = 0.02331652
#
# Stress axis : x y z
#
# Youngs Moduli (GPa) = 61.32092 90.91797 57.21488
#
# Poissons Ratio (x) = -0.34070 0.37923
# Poissons Ratio (y) = -0.22979 0.44931
# Poissons Ratio (z) = 0.40645 0.71399
#
# Static dielectric constant tensor:
#      x y z
#    x 1.955250 0.000000 0.012280 
#    y 0.000000 1.977900 0.000000 
#    z 0.012280 0.000000 2.027010 
# 
# From -- ./inp_files/11716.got.cif
#   From: 2010.05.17/outbox.cif.g08.bks.cpg/sg8_6_cif.got.tgz:11716.got - 2010.06.03 19:46:02.
