data_PCOD9133905
_publ_section_title
;
Structure prediction by ZEFSAII (Michael W. Deem and Ramdas Pophale) SiO2 
 PCOD9133905
Probable space group: C C
;
_chemical_formula_sum "Si O2"
_cell_formula_units_Z 32
_cell_length_a 24.045186
_cell_length_b 9.721490
_cell_length_c 12.528868
_cell_angle_alpha 90.000000
_cell_angle_beta 24.343852
_cell_angle_gamma 90.000000
_cell_volume 1207.238894
_symmetry_space_group_name_H-M "C C"
_symmetry_group_IT_number 9
_symmetry_cell_setting 'monoclinic'
loop_
_space_group_symop_operation_xyz
x,y,z
x,-y,1/2+z
1/2+x,1/2+y,z
1/2+x,1/2-y,1/2+z
loop_
_atom_site_type_symbol
_atom_site_label
_atom_site_fract_x
_atom_site_fract_y
_atom_site_fract_z
Si Si1 0.113880 0.308278 0.208320
Si Si2 0.878476 0.018539 0.193856
Si Si3 0.249852 0.077983 0.730104
Si Si4 0.165305 0.631905 0.972076
Si Si5 0.061033 0.866287 0.001305
Si Si6 0.398503 0.965926 0.169903
Si Si7 0.475881 0.876641 0.254405
Si Si8 0.164827 0.828980 0.165743
O O1 0.042975 0.269176 0.218816
O O2 0.119179 0.184594 0.283695
O O3 0.014068 0.426020 0.431979
O O4 0.258374 0.379951 0.938907
O O5 0.911177 0.907421 0.229515
O O6 0.817081 0.926005 0.205413
O O7 0.019450 0.094949 0.925478
O O8 0.108661 0.001106 0.982175
O O9 0.336199 0.942829 0.539905
O O10 0.332080 0.119957 0.689527
O O11 0.226159 0.187537 0.678127
O O12 0.105784 0.743963 0.997717
O O13 0.148343 0.698035 0.118905
O O14 0.077095 0.501789 0.097397
O O15 0.453737 0.867809 0.166982
O O16 0.276450 0.067466 0.419512
#
# Coordination Sequence:
#
# PCOD9133905 Si02
#       8
#     4   4   4   4   4   4   4   4
#     4  10  21  40  65 101 134 171 230 278 336 402
#     4  10  25  42  63 102 138 168 229 290 329 396
#     4   9  20  36  63  98 128 170 226 273 327 402
#     4  11  21  38  68  94 128 183 222 271 341 402
#     4  11  21  38  68  94 128 183 222 271 341 402
#     4  10  17  38  69  92 130 188 215 266 343 396
#     4   9  20  36  63  98 128 170 226 273 327 402
#     4  10  21  40  65 101 134 171 230 278 336 402
#
# _framework density 26.506768999999998
#
# number of rings (size 3 to 8) (size 9 to 14) (size 15 to 20)
#    0.000    2.000    2.500    0.750    3.500    1.000 
#    0.000   11.250    0.000   21.000    0.000    0.000 
#    0.000    0.000    0.000    0.000    0.000    0.000 
#
# Total GULP energy -89391.564915 kJ/mol
# GULP energy per Si atom -5586.972807 kJ/mol
# Density = 2.644644 g / cm^3
# Si number density = 26.506769 Si / 1000 Ang^3
#
#
#
# Elastic Constant Matrix: (Units=GPa)
#
#
# Indices 1 2 3 4 5 6 
#
# 1 231.1795 63.4720 49.4724 0.0000 -12.8986 0.0000
# 2 63.4720 102.4622 45.2687 0.0000 -8.1199 0.0000
# 3 49.4724 45.2687 134.4385 0.0000 -31.7736 0.0000
# 4 0.0000 0.0000 0.0000 32.6385 0.0000 2.3419
# 5 -12.8986 -8.1199 -31.7736 0.0000 36.9369 0.0000
# 6 0.0000 0.0000 0.0000 2.3419 0.0000 50.6278
#
#
#
# Elastic Compliance Matrix: (Units=1/GPa)
#
#
# Indices 1 2 3 4 5 6 
#
# 1 0.005330 -0.002875 -0.000882 0.000000 0.000470 0.000000
# 2 -0.002875 0.013046 -0.003633 0.000000 -0.001261 0.000000
# 3 -0.000882 -0.003633 0.010951 0.000000 0.008314 0.000000
# 4 0.000000 0.000000 0.000000 0.030741 0.000000 -0.001422
# 5 0.000470 -0.001261 0.008314 0.000000 0.034112 0.000000
# 6 0.000000 0.000000 0.000000 -0.001422 0.000000 0.019818
#
#
# Mechanical properties :
#
#
# Convention : Reuss Voigt Hill
#
# Bulk Modulus (GPa) = 68.74293 87.16739 77.95516
# Shear Modulus (GPa) = 37.41797 44.69844 41.05821
#
# Velocity S-wave (km/s) = 3.76125 4.11092 3.93997
# Velocity P-wave (km/s) = 6.69725 7.44911 7.08316
#
# Compressibility (1/GPa) = 0.01454695
#
# Stress axis : x y z
#
# Youngs Moduli (GPa) = 187.61901 76.65414 91.31443
#
# Poissons Ratio (x) = 0.22036 0.08056
# Poissons Ratio (y) = 0.53934 0.33174
# Poissons Ratio (z) = 0.16552 0.27848
#
# Static dielectric constant tensor:
#      x y z
#    x 2.166760 0.000000 0.075800 
#    y 0.000000 2.081350 0.000000 
#    z 0.075800 0.000000 2.185030 
# 
# From -- ./inp_files/27652.got.cif
#   From: 2010.05.17/outbox.cif.g08.bks.cpg/sg9_14_cif.got.tgz:27652.got - 2010.06.03 20:04:27.
