data_PCOD9133649
_publ_section_title
;
Structure prediction by ZEFSAII (Michael W. Deem and Ramdas Pophale) SiO2 
 PCOD9133649
Probable space group: C M
;
_chemical_formula_sum "Si O2"
_cell_formula_units_Z 16
_cell_length_a 15.000000
_cell_length_b 21.000000
_cell_length_c 15.000000
_cell_angle_alpha 90.000000
_cell_angle_beta 160.000000
_cell_angle_gamma 90.000000
_cell_volume 1616.045177
_symmetry_space_group_name_H-M "C M"
_symmetry_group_IT_number 8
_symmetry_cell_setting 'monoclinic'
loop_
_space_group_symop_operation_xyz
x,y,z
x,-y,z
1/2+x,1/2+y,z
1/2+x,1/2-y,z
loop_
_atom_site_type_symbol
_atom_site_label
_atom_site_fract_x
_atom_site_fract_y
_atom_site_fract_z
Si Si1 0.136220 0.647067 0.574910
Si Si2 0.131123 0.138960 0.297750
Si Si3 0.605175 0.721474 0.108113
Si Si4 0.566736 0.868334 0.020529
Si Si5 0.102549 0.921934 0.461333
Si Si6 0.351122 0.072720 0.991093
Si Si7 0.801147 0.926263 0.560464
Si Si8 0.161646 0.571948 0.763944
O O1 0.222974 0.624926 0.560181
O O2 0.142370 0.583115 0.640500
O O3 0.854798 0.680103 0.311691
O O4 0.343219 0.693058 0.818099
O O5 0.098928 0.205078 0.210293
O O6 0.052227 0.120921 0.324629
O O7 0.434997 0.119244 0.583977
O O8 0.945376 0.091995 0.065503
O O9 0.629205 0.793136 0.092704
O O10 0.365192 0.893037 0.754180
O O11 0.413751 0.884603 0.966582
O O12 0.839050 0.907201 0.269783
O O13 0.125866 0.000000 0.469313
O O14 0.084541 0.089633 0.789135
O O15 0.322652 0.000000 0.931791
O O16 0.588419 0.075356 0.282780
O O17 0.809680 0.000000 0.601667
O O18 0.103207 0.500000 0.735701
#
# Coordination Sequence:
#
# PCOD9133649 Si02
#       8
#     4   4   4   4   4   4   4   4
#     4  10  20  37  60  87 124 166 204 255 300 368
#     4  10  22  39  60  91 126 164 204 263 309 380
#     4  10  23  43  61  85 132 167 213 244 307 388
#     4  12  25  44  64  92 126 172 209 261 320 380
#     4  12  24  41  69 100 127 161 216 277 324 369
#     4  10  21  38  60  88 120 157 203 260 318 366
#     4  10  20  36  60  93 124 153 206 260 308 367
#     4  10  18  32  58  88 124 164 201 250 318 374
#
# _framework density 9.9007129999999997
#
# number of rings (size 3 to 8) (size 9 to 14) (size 15 to 20)
#    0.000    1.500    0.000    5.625    0.000    1.000 
#    6.750    3.750    0.000    0.000    0.000    0.000 
#    0.000    0.000    0.000    0.000    0.000    0.000 
#
# Total GULP energy -89202.808526 kJ/mol
# GULP energy per Si atom -5575.175533 kJ/mol
# Density = 0.987818 g / cm^3
# Si number density = 9.900713 Si / 1000 Ang^3
#
#
#
# Elastic Constant Matrix: (Units=GPa)
#
#
# Indices 1 2 3 4 5 6 
#
# 1 55.8342 30.1709 18.7706 -0.0024 2.1994 -0.0036
# 2 30.1709 62.9238 10.0948 0.0009 -5.3717 0.0028
# 3 18.7706 10.0948 99.2824 -0.0021 16.4075 -0.0016
# 4 -0.0024 0.0009 -0.0021 6.6005 -0.0011 -15.6911
# 5 2.1994 -5.3717 16.4075 -0.0011 29.3118 -0.0022
# 6 -0.0036 0.0028 -0.0016 -15.6911 -0.0022 -3.6149
#
#
#
# Elastic Compliance Matrix: (Units=1/GPa)
#
#
# Indices 1 2 3 4 5 6 
#
# 1 0.025527 -0.011916 -0.003237 -0.000006 -0.002287 -0.000007
# 2 -0.011916 0.022219 -0.000911 0.000005 0.005476 0.000005
# 3 -0.003237 -0.000911 0.011862 0.000000 -0.006564 -0.000001
# 4 -0.000006 0.000005 0.000000 0.013385 -0.000003 -0.058100
# 5 -0.002287 0.005476 -0.006564 -0.000003 0.038965 -0.000002
# 6 -0.000007 0.000005 -0.000001 -0.058100 -0.000002 -0.024440
#
#
# Mechanical properties :
#
#
# Convention : Reuss Voigt Hill
#
# Bulk Modulus (GPa) = 36.38949 37.34587 36.86768
# Shear Modulus (GPa) = 38.81784 17.05976 27.93880
#
# Velocity S-wave (km/s) = 4.43239 2.93839 3.76033
# Velocity P-wave (km/s) = 6.67922 5.51483 6.12475
#
# Compressibility (1/GPa) = 0.02748046
#
# Stress axis : x y z
#
# Youngs Moduli (GPa) = 39.17367 45.00562 84.30560
#
# Poissons Ratio (x) = 0.53628 0.27287
# Poissons Ratio (y) = 0.46679 0.07683
# Poissons Ratio (z) = 0.12679 0.04102
#
# Static dielectric constant tensor:
#      x y z
#    x 1.771840 0.000000 0.010000 
#    y 0.000000 1.838470 -0.000010 
#    z 0.010000 -0.000010 1.663450 
# 
# From -- ./inp_files/27067.got.cif
#   From: 2010.05.17/outbox.ucp.g08.bks.cvg/sg8_14_cif.got.tgz:27067.got - 2010.06.11 13:00:03.
