data_PCOD9133570
_publ_section_title
;
Structure prediction by ZEFSAII (Michael W. Deem and Ramdas Pophale) SiO2 
 PCOD9133570
Probable space group: C M
;
_chemical_formula_sum "Si O2"
_cell_formula_units_Z 26
_cell_length_a 9.246624
_cell_length_b 15.879104
_cell_length_c 17.917424
_cell_angle_alpha 90.000000
_cell_angle_beta 150.585909
_cell_angle_gamma 90.000000
_cell_volume 1292.024099
_symmetry_space_group_name_H-M "C M"
_symmetry_group_IT_number 8
_symmetry_cell_setting 'monoclinic'
loop_
_space_group_symop_operation_xyz
x,y,z
x,-y,z
1/2+x,1/2+y,z
1/2+x,1/2-y,z
loop_
_atom_site_type_symbol
_atom_site_label
_atom_site_fract_x
_atom_site_fract_y
_atom_site_fract_z
Si Si1 0.554060 0.847666 0.612530
Si Si2 0.294648 0.344679 0.121310
Si Si3 0.083351 0.231351 0.486308
Si Si4 0.642372 0.500000 0.362045
Si Si5 0.725593 0.400523 0.920868
Si Si6 0.285019 0.180823 0.223597
Si Si7 0.580545 0.094304 0.232078
O O1 0.397948 0.810940 0.615711
O O2 0.536303 0.773866 0.543623
O O3 0.895191 0.868508 0.774298
O O4 0.361332 0.925914 0.496244
O O5 0.444214 0.424386 0.230672
O O6 0.312548 0.261240 0.181117
O O7 0.473625 0.329242 0.125446
O O8 0.946735 0.362318 0.959040
O O9 0.013368 0.303095 0.393434
O O10 0.843112 0.159403 0.361101
O O11 0.715083 0.500000 0.904911
O O12 0.885528 0.385016 0.072371
O O13 0.378961 0.102580 0.214681
O O14 0.706843 0.000000 0.276987
#
# Coordination Sequence:
#
# PCOD9133570 Si02
#       7
#     4   4   4   2   4   4   4
#     4  12  26  41  65  95 137 169 218 269 331 386
#     4  12  23  39  69  95 130 170 224 266 318 391
#     4  12  22  43  64  95 127 175 219 268 317 392
#     4  12  20  38  68  94 120 178 216 268 308 394
#     4  11  24  43  65 101 132 173 214 272 331 385
#     4  12  21  40  65  99 124 165 229 269 313 376
#     4  11  24  40  68  97 130 168 222 271 321 386
#
# _framework density 20.123463999999998
#
# number of rings (size 3 to 8) (size 9 to 14) (size 15 to 20)
#    0.000    0.308    9.231    0.000    4.308    2.462 
#    0.000    0.000    0.000    0.000    0.000    0.000 
#    0.000    0.000    0.000    0.000    0.000    0.000 
#
# Total GULP energy -72392.438040 kJ/mol
# GULP energy per Si atom -5568.649080 kJ/mol
# Density = 2.007766 g / cm^3
# Si number density = 20.123464 Si / 1000 Ang^3
#
#
#
# Elastic Constant Matrix: (Units=GPa)
#
#
# Indices 1 2 3 4 5 6 
#
# 1 72.4837 -7.7389 -2.8506 0.0043 16.6960 0.0017
# 2 -7.7389 83.0850 7.6334 0.0023 -3.1929 0.0015
# 3 -2.8506 7.6334 66.7920 0.0049 24.1558 0.0049
# 4 0.0043 0.0023 0.0049 25.8109 0.0029 -0.3368
# 5 16.6960 -3.1929 24.1558 0.0029 30.4915 0.0014
# 6 0.0017 0.0015 0.0049 -0.3368 0.0014 14.6808
#
#
#
# Elastic Compliance Matrix: (Units=1/GPa)
#
#
# Indices 1 2 3 4 5 6 
#
# 1 0.017290 0.000550 0.005716 -0.000002 -0.013938 -0.000003
# 2 0.000550 0.012427 -0.002465 -0.000001 0.002953 -0.000001
# 3 0.005716 -0.002465 0.023438 -0.000003 -0.021956 -0.000006
# 4 -0.000002 -0.000001 -0.000003 0.038755 0.000000 0.000889
# 5 -0.013938 0.002953 -0.021956 0.000000 0.058131 0.000003
# 6 -0.000003 -0.000001 -0.000006 0.000889 0.000003 0.068137
#
#
# Mechanical properties :
#
#
# Convention : Reuss Voigt Hill
#
# Bulk Modulus (GPa) = 16.45903 24.04985 20.25444
# Shear Modulus (GPa) = 21.66115 29.21775 25.43945
#
# Velocity S-wave (km/s) = 3.28443 3.81455 3.55937
# Velocity P-wave (km/s) = 4.75185 5.60162 5.19414
#
# Compressibility (1/GPa) = 0.06075692
#
# Stress axis : x y z
#
# Youngs Moduli (GPa) = 57.83622 80.46998 42.66587
#
# Poissons Ratio (x) = -0.04423 -0.24387
# Poissons Ratio (y) = -0.03179 0.10516
# Poissons Ratio (z) = -0.33059 0.19834
#
# Static dielectric constant tensor:
#      x y z
#    x 1.795110 0.000000 0.046320 
#    y 0.000000 1.726920 0.000000 
#    z 0.046320 0.000000 1.710980 
# 
# From -- ./inp_files/19050.got.cif
#   From: 2010.05.17/outbox.cif.g08.bks.cpg/sg8_10_cif.got.tgz:19050.got - 2010.06.03 19:46:02.
