data_PCOD9133841
_publ_section_title
;
Structure prediction by ZEFSAII (Michael W. Deem and Ramdas Pophale) SiO2 
 PCOD9133841
Probable space group: C C
;
_chemical_formula_sum "Si O2"
_cell_formula_units_Z 32
_cell_length_a 11.500619
_cell_length_b 7.051996
_cell_length_c 19.991512
_cell_angle_alpha 90.000000
_cell_angle_beta 136.438832
_cell_angle_gamma 90.000000
_cell_volume 1117.324128
_symmetry_space_group_name_H-M "C C"
_symmetry_group_IT_number 9
_symmetry_cell_setting 'monoclinic'
loop_
_space_group_symop_operation_xyz
x,y,z
x,-y,1/2+z
1/2+x,1/2+y,z
1/2+x,1/2-y,1/2+z
loop_
_atom_site_type_symbol
_atom_site_label
_atom_site_fract_x
_atom_site_fract_y
_atom_site_fract_z
Si Si1 0.700700 0.832819 0.839840
Si Si2 0.011261 0.332819 0.383265
Si Si3 0.007830 0.273507 0.636336
Si Si4 0.670758 0.672452 0.046213
Si Si5 0.704131 0.773507 0.586769
Si Si6 0.380000 0.214618 0.266919
Si Si7 0.041203 0.827548 0.676892
Si Si8 0.831962 0.214618 0.956185
O O1 0.573658 0.894037 0.726753
O O2 0.567869 0.708034 0.828817
O O3 0.855981 0.750000 0.861552
O O4 0.780198 0.998044 0.917490
O O5 0.138303 0.394037 0.496351
O O6 0.144092 0.208034 0.394288
O O7 0.931764 0.498044 0.305615
O O8 0.105980 0.331127 0.611552
O O9 0.808049 0.294827 0.546296
O O10 0.052150 0.054505 0.670253
O O11 0.659811 0.445495 0.052852
O O12 0.771986 0.743894 0.154143
O O13 0.481373 0.752750 0.964643
O O14 0.903912 0.794827 0.676808
O O15 0.230588 0.252750 0.258461
O O16 0.939976 0.756106 0.568962
#
# Coordination Sequence:
#
# PCOD9133841 Si02
#       8
#     4   4   4   4   4   4   4   4
#     4  10  17  31  60  82 105 148 185 225 275 326
#     4  10  17  31  60  82 105 148 185 225 275 326
#     4  11  21  37  57  82 114 146 184 229 277 327
#     4  10  19  37  57  81 112 149 185 228 273 328
#     4  11  21  37  57  82 114 146 184 229 277 327
#     4   9  18  33  56  80 108 148 187 221 276 328
#     4  10  19  37  57  81 112 149 185 228 273 328
#     4   9  18  33  56  80 108 148 187 221 276 328
#
# _framework density 28.639852999999999
#
# number of rings (size 3 to 8) (size 9 to 14) (size 15 to 20)
#    0.000    2.000    5.000    0.000    0.000    0.000 
#    9.000    1.250    0.000    9.000    0.000    0.000 
#    0.000    0.000    0.000    0.000    0.000    0.000 
#
# Total GULP energy -89389.927697 kJ/mol
# GULP energy per Si atom -5586.870481 kJ/mol
# Density = 2.857467 g / cm^3
# Si number density = 28.639853 Si / 1000 Ang^3
#
#
#
# Elastic Constant Matrix: (Units=GPa)
#
#
# Indices 1 2 3 4 5 6 
#
# 1 278.6766 39.0505 82.7187 0.0000 91.3001 0.0000
# 2 39.0505 88.4230 10.8722 0.0000 1.2971 0.0000
# 3 82.7187 10.8722 174.9519 0.0000 28.6552 0.0000
# 4 0.0000 0.0000 0.0000 29.1766 0.0000 5.5771
# 5 91.3001 1.2971 28.6552 0.0000 80.8191 0.0000
# 6 0.0000 0.0000 0.0000 5.5771 0.0000 27.6922
#
#
#
# Elastic Compliance Matrix: (Units=1/GPa)
#
#
# Indices 1 2 3 4 5 6 
#
# 1 0.006818 -0.002673 -0.001914 0.000000 -0.006981 0.000000
# 2 -0.002673 0.012445 0.000030 0.000000 0.002810 0.000000
# 3 -0.001914 0.000030 0.006651 0.000000 -0.000196 0.000000
# 4 0.000000 0.000000 0.000000 0.035646 0.000000 -0.007179
# 5 -0.006981 0.002810 -0.000196 0.000000 0.020284 0.000000
# 6 0.000000 0.000000 0.000000 -0.007179 0.000000 0.037557
#
#
# Mechanical properties :
#
#
# Convention : Reuss Voigt Hill
#
# Bulk Modulus (GPa) = 59.52347 89.70382 74.61365
# Shear Modulus (GPa) = 37.28109 54.83159 46.05634
#
# Velocity S-wave (km/s) = 3.61185 4.38027 4.01449
# Velocity P-wave (km/s) = 6.18244 7.54796 6.89907
#
# Compressibility (1/GPa) = 0.01680009
#
# Stress axis : x y z
#
# Youngs Moduli (GPa) = 146.66442 80.35361 150.34961
#
# Poissons Ratio (x) = 0.21482 0.28780
# Poissons Ratio (y) = 0.39210 -0.00458
# Poissons Ratio (z) = 0.28075 -0.00245
#
# Static dielectric constant tensor:
#      x y z
#    x 2.409080 0.000000 -0.000690 
#    y 0.000000 2.247670 0.000000 
#    z -0.000690 0.000000 2.230020 
# 
# From -- ./inp_files/29171.got.cif
#   From: 2010.05.17/outbox.cif.g08.bks.cpg/sg9_15_cif.got.tgz:29171.got - 2010.06.03 20:04:27.
