data_PCOD9133510
_publ_section_title
;
Structure prediction by ZEFSAII (Michael W. Deem and Ramdas Pophale) SiO2 
 PCOD9133510
Probable space group: C M
;
_chemical_formula_sum "Si O2"
_cell_formula_units_Z 32
_cell_length_a 22.994492
_cell_length_b 7.606036
_cell_length_c 11.588173
_cell_angle_alpha 90.000000
_cell_angle_beta 49.148190
_cell_angle_gamma 90.000000
_cell_volume 1533.030934
_symmetry_space_group_name_H-M "C M"
_symmetry_group_IT_number 8
_symmetry_cell_setting 'monoclinic'
loop_
_space_group_symop_operation_xyz
x,y,z
x,-y,z
1/2+x,1/2+y,z
1/2+x,1/2-y,z
loop_
_atom_site_type_symbol
_atom_site_label
_atom_site_fract_x
_atom_site_fract_y
_atom_site_fract_z
Si Si1 0.344130 0.284562 0.160780
Si Si2 0.152264 0.795844 0.770424
Si Si3 0.028099 0.793412 0.551889
Si Si4 0.964890 0.214511 0.395566
Si Si5 0.185004 0.702027 0.469066
Si Si6 0.371993 0.285440 0.865515
Si Si7 0.497932 0.284488 0.094873
Si Si8 0.302708 0.712484 0.714438
O O1 0.345129 0.500000 0.162091
O O2 0.266941 0.221824 0.324223
O O3 0.421597 0.230079 0.125485
O O4 0.346040 0.227424 0.025117
O O5 0.173477 0.711746 0.620920
O O6 0.224157 0.780419 0.762972
O O7 0.137956 0.000000 0.762122
O O8 0.075192 0.725090 0.930364
O O9 0.110742 0.775823 0.500975
O O10 0.016807 0.724776 0.436313
O O11 0.958812 0.725289 0.722446
O O12 0.012009 0.000000 0.562845
O O13 0.877280 0.264319 0.541733
O O14 0.991606 0.274921 0.235623
O O15 0.966118 0.000000 0.389703
O O16 0.186924 0.500000 0.431023
O O17 0.371218 0.500000 0.869516
O O18 0.320010 0.232746 0.823697
O O19 0.499749 0.500000 0.093487
O O20 0.299584 0.500000 0.716403
#
# Coordination Sequence:
#
# PCOD9133510 Si02
#       8
#     4   4   4   4   4   4   4   4
#     4   9  17  30  50  74  98 128 169 209 241 286
#     4  11  22  34  51  74 100 131 167 208 252 295
#     4   9  17  32  55  78 101 130 164 203 245 292
#     4   8  15  30  53  78 101 131 169 201 236 291
#     4  11  22  34  51  74 100 131 167 208 252 295
#     4   8  15  30  53  78 101 131 169 201 236 291
#     4   9  17  30  50  74  98 128 169 209 241 286
#     4   9  17  32  55  78 101 130 164 203 245 292
#
# _framework density 20.873681000000001
#
# number of rings (size 3 to 8) (size 9 to 14) (size 15 to 20)
#    0.000    2.750    0.000    3.750    0.000    5.000 
#    0.000    2.500    0.000   15.000    0.000    0.000 
#    0.000    0.000    0.000    0.000    0.000    0.000 
#
# Total GULP energy -89302.188326 kJ/mol
# GULP energy per Si atom -5581.386770 kJ/mol
# Density = 2.082617 g / cm^3
# Si number density = 20.873681 Si / 1000 Ang^3
#
#
#
# Elastic Constant Matrix: (Units=GPa)
#
#
# Indices 1 2 3 4 5 6 
#
# 1 151.3348 -11.2913 110.5567 0.0000 -7.6889 0.0001
# 2 -11.2913 35.9221 -2.8334 0.0000 1.0390 0.0001
# 3 110.5567 -2.8334 192.7167 0.0000 10.7567 0.0000
# 4 0.0000 0.0000 0.0000 7.5960 0.0000 -7.7521
# 5 -7.6889 1.0390 10.7567 0.0000 31.6361 0.0000
# 6 0.0001 0.0001 0.0000 -7.7521 0.0000 12.0495
#
#
#
# Elastic Compliance Matrix: (Units=1/GPa)
#
#
# Indices 1 2 3 4 5 6 
#
# 1 0.012595 0.003210 -0.007485 0.000000 0.005501 0.000000
# 2 0.003210 0.028724 -0.001437 -0.000001 0.000325 -0.000001
# 3 -0.007485 -0.001437 0.009746 0.000000 -0.005086 0.000000
# 4 0.000000 -0.000001 0.000000 0.383342 0.000000 0.246625
# 5 0.005501 0.000325 -0.005086 0.000000 0.034665 0.000000
# 6 0.000000 -0.000001 0.000000 0.246625 0.000000 0.241658
#
#
# Mechanical properties :
#
#
# Convention : Reuss Voigt Hill
#
# Bulk Modulus (GPa) = 25.22747 63.64860 44.43804
# Shear Modulus (GPa) = 6.79930 29.15909 17.97919
#
# Velocity S-wave (km/s) = 1.80677 3.74161 2.93803
# Velocity P-wave (km/s) = 4.05766 7.01603 5.73102
#
# Compressibility (1/GPa) = 0.03963933
#
# Stress axis : x y z
#
# Youngs Moduli (GPa) = 79.39500 34.81395 102.60714
#
# Poissons Ratio (x) = -0.11174 0.76806
# Poissons Ratio (y) = -0.25482 0.14745
# Poissons Ratio (z) = 0.59431 0.05003
#
# Static dielectric constant tensor:
#      x y z
#    x 1.708210 0.000000 -0.001760 
#    y 0.000000 1.812520 0.000000 
#    z -0.001760 0.000000 1.733950 
# 
# From -- ./inp_files/23888.got.cif
#   From: 2010.05.17/outbox.cif.g08.bks.cpg/sg8_12_cif.got.tgz:23888.got - 2010.06.03 19:46:02.
