data_PCOD9133821
_publ_section_title
;
Structure prediction by ZEFSAII (Michael W. Deem and Ramdas Pophale) SiO2 
 PCOD9133821
Probable space group: C C
;
_chemical_formula_sum "Si O2"
_cell_formula_units_Z 28
_cell_length_a 8.186736
_cell_length_b 13.926725
_cell_length_c 19.116869
_cell_angle_alpha 90.000000
_cell_angle_beta 33.720901
_cell_angle_gamma 90.000000
_cell_volume 1209.999625
_symmetry_space_group_name_H-M "C C"
_symmetry_group_IT_number 9
_symmetry_cell_setting 'monoclinic'
loop_
_space_group_symop_operation_xyz
x,y,z
x,-y,1/2+z
1/2+x,1/2+y,z
1/2+x,1/2-y,1/2+z
loop_
_atom_site_type_symbol
_atom_site_label
_atom_site_fract_x
_atom_site_fract_y
_atom_site_fract_z
Si Si1 0.257540 0.386159 0.662010
Si Si2 0.413652 0.412624 0.038275
Si Si3 0.116516 0.158923 0.328893
Si Si4 0.064623 0.425599 0.875338
Si Si5 0.408582 0.786304 0.598396
Si Si6 0.822624 0.296593 0.072786
Si Si7 0.224928 0.642531 0.848308
O O1 0.293917 0.488055 0.611165
O O2 0.283013 0.391924 0.736267
O O3 0.446947 0.296252 0.567991
O O4 0.927425 0.357458 0.758341
O O5 0.411786 0.402146 0.954401
O O6 0.742017 0.414597 0.954745
O O7 0.272057 0.313150 0.116987
O O8 0.189129 0.145877 0.221118
O O9 0.083510 0.273500 0.351026
O O10 0.124409 0.536953 0.865119
O O11 0.047681 0.367429 0.954087
O O12 0.642574 0.749976 0.572536
O O13 0.599982 0.834527 0.469529
O O14 0.577978 0.348699 0.208720
#
# Coordination Sequence:
#
# PCOD9133821 Si02
#       7
#     4   4   4   4   4   4   4
#     4   9  16  29  48  67  91 118 150 185 218 267
#     4   9  16  27  48  71  90 118 152 183 219 260
#     4   8  16  28  46  70  89 118 152 184 222 262
#     4  10  17  27  47  70  89 117 152 185 220 262
#     4   8  14  28  45  66  92 117 149 183 215 260
#     4   9  17  29  47  68  87 119 152 184 224 263
#     4   9  16  28  47  68  92 117 151 186 218 266
#
# _framework density 23.140502999999999
#
# number of rings (size 3 to 8) (size 9 to 14) (size 15 to 20)
#    0.000    3.429    0.000    5.143    0.000    0.000 
#    0.000    4.286    0.000   27.429    0.000    0.000 
#    0.000    0.000    0.000    0.000    0.000    0.000 
#
# Total GULP energy -77990.345423 kJ/mol
# GULP energy per Si atom -5570.738959 kJ/mol
# Density = 2.308783 g / cm^3
# Si number density = 23.140503 Si / 1000 Ang^3
#
#
#
# Elastic Constant Matrix: (Units=GPa)
#
#
# Indices 1 2 3 4 5 6 
#
# 1 53.3505 24.2688 49.3687 -0.0131 25.8909 0.0024
# 2 24.2688 149.6372 76.6480 0.0215 37.0562 0.0104
# 3 49.3687 76.6480 156.3973 0.0064 49.1381 0.0204
# 4 -0.0131 0.0215 0.0064 38.9141 0.0227 6.0288
# 5 25.8909 37.0562 49.1381 0.0227 48.2339 -0.0039
# 6 0.0024 0.0104 0.0204 6.0288 -0.0039 8.0577
#
#
#
# Elastic Compliance Matrix: (Units=1/GPa)
#
#
# Indices 1 2 3 4 5 6 
#
# 1 0.029130 0.001098 -0.006700 0.000018 -0.009654 -0.000011
# 2 0.001098 0.009392 -0.003673 -0.000001 -0.004063 -0.000004
# 3 -0.006700 -0.003673 0.012196 0.000006 -0.006006 -0.000032
# 4 0.000018 -0.000001 0.000006 0.029067 -0.000030 -0.021748
# 5 -0.009654 -0.004063 -0.006006 -0.000030 0.035155 0.000063
# 6 -0.000011 -0.000004 -0.000032 -0.021748 0.000063 0.140377
#
#
# Mechanical properties :
#
#
# Convention : Reuss Voigt Hill
#
# Bulk Modulus (GPa) = 31.08634 73.32846 52.20740
# Shear Modulus (GPa) = 17.56912 32.98111 25.27511
#
# Velocity S-wave (km/s) = 2.75841 3.77935 3.30850
# Velocity P-wave (km/s) = 4.85881 7.12754 6.09958
#
# Compressibility (1/GPa) = 0.03216847
#
# Stress axis : x y z
#
# Youngs Moduli (GPa) = 34.32935 106.46874 81.99219
#
# Poissons Ratio (x) = -0.11695 0.54936
# Poissons Ratio (y) = -0.03771 0.30117
# Poissons Ratio (z) = 0.23001 0.39107
#
# Static dielectric constant tensor:
#      x y z
#    x 1.931810 0.000010 -0.033100 
#    y 0.000010 1.884560 0.000000 
#    z -0.033100 0.000000 2.033020 
# 
# From -- ./inp_files/16666.got.cif
#   From: 2010.05.17/outbox.cif.g08.bks.cpg/sg9_9_cif.got.tgz:16666.got - 2010.06.03 20:04:27.
