data_PCOD9133600
_publ_section_title
;
Structure prediction by ZEFSAII (Michael W. Deem and Ramdas Pophale) SiO2 
 PCOD9133600
Probable space group: C M
;
_chemical_formula_sum "Si O2"
_cell_formula_units_Z 28
_cell_length_a 10.081297
_cell_length_b 14.828130
_cell_length_c 8.698712
_cell_angle_alpha 90.000000
_cell_angle_beta 70.043092
_cell_angle_gamma 90.000000
_cell_volume 1222.256367
_symmetry_space_group_name_H-M "C M"
_symmetry_group_IT_number 8
_symmetry_cell_setting 'monoclinic'
loop_
_space_group_symop_operation_xyz
x,y,z
x,-y,z
1/2+x,1/2+y,z
1/2+x,1/2-y,z
loop_
_atom_site_type_symbol
_atom_site_label
_atom_site_fract_x
_atom_site_fract_y
_atom_site_fract_z
Si Si1 0.432870 0.646372 0.569560
Si Si2 0.649324 0.101191 0.789002
Si Si3 0.677790 0.397857 0.243060
Si Si4 0.112607 0.250237 0.045438
Si Si5 0.573768 0.600998 0.836737
Si Si6 0.964109 0.401872 0.303226
Si Si7 0.404812 0.143839 0.659316
O O1 0.275488 0.608638 0.616718
O O2 0.531409 0.622950 0.387076
O O3 0.503378 0.608393 0.697362
O O4 0.418265 0.752154 0.606375
O O5 0.500431 0.122094 0.768399
O O6 0.648791 0.000000 0.851112
O O7 0.680944 0.178003 0.902129
O O8 0.678098 0.500000 0.180466
O O9 0.704404 0.320853 0.106433
O O10 0.800312 0.394074 0.320665
O O11 0.036007 0.316076 0.195913
O O12 0.024833 0.180694 0.971280
O O13 0.546666 0.500000 0.905860
O O14 0.742416 0.616476 0.748957
O O15 0.014787 0.500000 0.225499
O O16 0.970026 0.402654 0.483642
#
# Coordination Sequence:
#
# PCOD9133600 Si02
#       7
#     4   4   4   4   4   4   4
#     4  12  23  47  71 101 141 180 234 296 334 401
#     4  12  27  45  70 104 142 182 227 285 354 408
#     4  11  25  46  72 101 135 183 235 285 340 407
#     4  12  26  42  68 100 145 172 222 282 354 409
#     4  12  25  45  72 100 136 186 240 284 336 409
#     4  11  25  46  72 101 135 183 235 284 340 410
#     4  12  23  47  73 101 138 184 239 286 332 412
#
# _framework density 22.908449999999998
#
# number of rings (size 3 to 8) (size 9 to 14) (size 15 to 20)
#    0.000    0.286    5.714    3.429    4.000    0.000 
#    0.000    0.000    0.000    0.000    0.000    0.000 
#    0.000    0.000    0.000    0.000    0.000    0.000 
#
# Total GULP energy -78296.005930 kJ/mol
# GULP energy per Si atom -5592.571852 kJ/mol
# Density = 2.285631 g / cm^3
# Si number density = 22.908450 Si / 1000 Ang^3
#
#
#
# Elastic Constant Matrix: (Units=GPa)
#
#
# Indices 1 2 3 4 5 6 
#
# 1 71.0030 10.7061 1.6106 0.0000 -0.9736 0.0000
# 2 10.7061 209.2457 33.8637 0.0000 -6.4838 0.0000
# 3 1.6106 33.8637 77.0178 0.0000 1.5386 0.0000
# 4 0.0000 0.0000 0.0000 23.8660 0.0000 2.1413
# 5 -0.9736 -6.4838 1.5386 0.0000 21.0714 0.0000
# 6 0.0000 0.0000 0.0000 2.1413 0.0000 23.4400
#
#
#
# Elastic Compliance Matrix: (Units=1/GPa)
#
#
# Indices 1 2 3 4 5 6 
#
# 1 0.014197 -0.000714 0.000008 0.000000 0.000436 0.000000
# 2 -0.000714 0.005246 -0.002327 0.000000 0.001751 0.000000
# 3 0.000008 -0.002327 0.014042 0.000000 -0.001741 0.000000
# 4 0.000000 0.000000 0.000000 0.042247 0.000000 -0.003859
# 5 0.000436 0.001751 -0.001741 0.000000 0.048144 0.000000
# 6 0.000000 0.000000 0.000000 -0.003859 0.000000 0.043015
#
#
# Mechanical properties :
#
#
# Convention : Reuss Voigt Hill
#
# Bulk Modulus (GPa) = 36.46943 49.95857 43.21400
# Shear Modulus (GPa) = 27.45801 34.41456 30.93629
#
# Velocity S-wave (km/s) = 3.46583 3.88011 3.67881
# Velocity P-wave (km/s) = 5.65422 6.47526 6.07862
#
# Compressibility (1/GPa) = 0.02742023
#
# Stress axis : x y z
#
# Youngs Moduli (GPa) = 70.43544 190.60505 71.21650
#
# Poissons Ratio (x) = 0.13615 -0.00060
# Poissons Ratio (y) = 0.05031 0.16571
# Poissons Ratio (z) = -0.00060 0.44351
#
# Static dielectric constant tensor:
#      x y z
#    x 1.805620 0.000000 0.002650 
#    y 0.000000 1.874020 0.000000 
#    z 0.002650 0.000000 1.877250 
# 
# From -- ./inp_files/10607.got.cif
#   From: 2010.05.17/outbox.cif.g08.bks.cpg/sg8_6_cif.got.tgz:10607.got - 2010.06.03 19:46:02.
