data_PCOD9133025
_publ_section_title
;
Structure prediction by ZEFSAII (Michael W. Deem and Ramdas Pophale) SiO2 
 PCOD9133025
Probable space group: C M
;
_chemical_formula_sum "Si O2"
_cell_formula_units_Z 32
_cell_length_a 14.810713
_cell_length_b 8.416157
_cell_length_c 11.154587
_cell_angle_alpha 90.000000
_cell_angle_beta 77.753956
_cell_angle_gamma 90.000000
_cell_volume 1358.773543
_symmetry_space_group_name_H-M "C M"
_symmetry_group_IT_number 8
_symmetry_cell_setting 'monoclinic'
loop_
_space_group_symop_operation_xyz
x,y,z
x,-y,z
1/2+x,1/2+y,z
1/2+x,1/2-y,z
loop_
_atom_site_type_symbol
_atom_site_label
_atom_site_fract_x
_atom_site_fract_y
_atom_site_fract_z
Si Si1 0.018430 0.182956 0.003880
Si Si2 0.695727 0.311603 0.802660
Si Si3 0.356464 0.191645 0.914085
Si Si4 0.548603 0.815076 0.239878
Si Si5 0.746553 0.181838 0.441358
Si Si6 0.081068 0.185764 0.612191
Si Si7 0.922373 0.312602 0.504830
Si Si8 0.251936 0.814918 0.190774
O O1 0.000211 0.288979 0.125268
O O2 0.955242 0.231562 0.909328
O O3 0.000887 0.000000 0.039146
O O4 0.124317 0.198813 0.933058
O O5 0.709041 0.500000 0.772070
O O6 0.638826 0.243115 0.707423
O O7 0.793884 0.249974 0.821128
O O8 0.301107 0.228925 0.052764
O O9 0.364594 0.000000 0.902999
O O10 0.483261 0.773869 0.369394
O O11 0.642286 0.714400 0.210170
O O12 0.574106 0.000000 0.246445
O O13 0.657173 0.291517 0.486242
O O14 0.783274 0.216064 0.297599
O O15 0.825987 0.223717 0.514017
O O16 0.717328 0.000000 0.460071
O O17 0.986919 0.268284 0.598397
O O18 0.062472 0.000000 0.638210
O O19 0.903152 0.500000 0.511364
O O20 0.270813 0.000000 0.208389
#
# Coordination Sequence:
#
# PCOD9133025 Si02
#       8
#     4   4   4   4   4   4   4   4
#     4  11  22  39  62  91 124 159 201 248 302 363
#     4   9  21  42  63  86 120 161 204 252 304 358
#     4  10  21  40  62  89 124 160 198 246 303 362
#     4  11  22  37  61  92 126 159 199 248 303 366
#     4  12  25  41  62  92 128 162 204 253 307 370
#     4  11  23  42  67  90 120 162 209 258 310 363
#     4  11  24  42  63  91 126 162 205 254 307 366
#     4  11  21  37  64  91 124 163 200 245 306 366
#
# _framework density 23.550649
#
# number of rings (size 3 to 8) (size 9 to 14) (size 15 to 20)
#    0.000    1.250    2.500    3.750    0.000    6.500 
#    0.000    6.250    0.000    0.000    0.000    0.000 
#    0.000    0.000    0.000    0.000    0.000    0.000 
#
# Total GULP energy -89541.659006 kJ/mol
# GULP energy per Si atom -5596.353688 kJ/mol
# Density = 2.349705 g / cm^3
# Si number density = 23.550649 Si / 1000 Ang^3
#
#
#
# Elastic Constant Matrix: (Units=GPa)
#
#
# Indices 1 2 3 4 5 6 
#
# 1 108.9729 7.6134 15.6354 0.0000 30.8271 0.0000
# 2 7.6134 19.6435 2.8009 0.0000 2.5324 0.0000
# 3 15.6354 2.8009 73.0145 0.0000 26.7525 0.0000
# 4 0.0000 0.0000 0.0000 18.4494 0.0000 12.0377
# 5 30.8271 2.5324 26.7525 0.0000 45.8152 0.0000
# 6 0.0000 0.0000 0.0000 12.0377 0.0000 26.0109
#
#
#
# Elastic Compliance Matrix: (Units=1/GPa)
#
#
# Indices 1 2 3 4 5 6 
#
# 1 0.011587 -0.003549 0.000559 0.000000 -0.007927 0.000000
# 2 -0.003549 0.052440 -0.001354 0.000000 0.000280 0.000000
# 3 0.000559 -0.001354 0.017478 0.000000 -0.010507 0.000000
# 4 0.000000 0.000000 0.000000 0.077649 0.000000 -0.035936
# 5 -0.007927 0.000280 -0.010507 0.000000 0.033280 0.000000
# 6 0.000000 0.000000 0.000000 -0.035936 0.000000 0.055076
#
#
# Mechanical properties :
#
#
# Convention : Reuss Voigt Hill
#
# Bulk Modulus (GPa) = 13.73304 28.19223 20.96263
# Shear Modulus (GPa) = 17.82723 29.76052 23.79387
#
# Velocity S-wave (km/s) = 2.75430 3.55869 3.18201
# Velocity P-wave (km/s) = 3.99485 5.37425 4.73505
#
# Compressibility (1/GPa) = 0.07281711
#
# Stress axis : x y z
#
# Youngs Moduli (GPa) = 86.30660 19.06947 57.21491
#
# Poissons Ratio (x) = 0.06767 -0.03200
# Poissons Ratio (y) = 0.30627 0.07749
# Poissons Ratio (z) = -0.04827 0.02583
#
# Static dielectric constant tensor:
#      x y z
#    x 1.887160 0.000000 0.014320 
#    y 0.000000 1.793270 0.000000 
#    z 0.014320 0.000000 1.959860 
# 
# From -- ./inp_files/21543.got.cif
#   From: 2010.05.17/outbox.cif.g08.bks.cpg/sg8_11_cif.got.tgz:21543.got - 2010.06.03 19:46:02.
