data_PCOD9133737
_publ_section_title
;
Structure prediction by ZEFSAII (Michael W. Deem and Ramdas Pophale) SiO2 
 PCOD9133737
Probable space group: C C
;
_chemical_formula_sum "Si O2"
_cell_formula_units_Z 28
_cell_length_a 7.619471
_cell_length_b 32.943565
_cell_length_c 5.269594
_cell_angle_alpha 90.000000
_cell_angle_beta 59.059603
_cell_angle_gamma 90.000000
_cell_volume 1134.512552
_symmetry_space_group_name_H-M "C C"
_symmetry_group_IT_number 9
_symmetry_cell_setting 'monoclinic'
loop_
_space_group_symop_operation_xyz
x,y,z
x,-y,1/2+z
1/2+x,1/2+y,z
1/2+x,1/2-y,1/2+z
loop_
_atom_site_type_symbol
_atom_site_label
_atom_site_fract_x
_atom_site_fract_y
_atom_site_fract_z
Si Si1 0.350480 0.181722 0.609220
Si Si2 0.704691 0.401655 0.349902
Si Si3 0.290813 0.520716 0.487778
Si Si4 0.943359 0.192786 0.628399
Si Si5 0.842413 0.281555 0.616945
Si Si6 0.279246 0.016384 0.041294
Si Si7 0.424390 0.395609 0.057022
O O1 0.359605 0.134716 0.673044
O O2 0.607000 0.310705 0.236718
O O3 0.448877 0.193979 0.267951
O O4 0.428217 0.209776 0.776901
O O5 0.813162 0.442939 0.353673
O O6 0.558734 0.406354 0.209671
O O7 0.569408 0.391601 0.700591
O O8 0.213504 0.491389 0.768075
O O9 0.278158 0.566802 0.598605
O O10 0.533984 0.513955 0.264229
O O11 0.826471 0.235122 0.717679
O O12 0.837165 0.149507 0.671608
O O13 0.113448 0.199949 0.282131
O O14 0.345310 0.983174 0.783854
#
# Coordination Sequence:
#
# PCOD9133737 Si02
#       7
#     4   4   4   4   4   4   4
#     4   9  19  31  44  66  82 122 148 191 215 272
#     4  10  15  26  37  53  81 109 146 175 211 259
#     4   9  15  23  33  54  79 112 141 168 206 260
#     4   9  21  32  48  68  89 123 152 192 222 274
#     4  10  20  31  50  63  91 113 162 183 234 259
#     4   9  15  20  31  51  74 107 140 169 201 254
#     4  10  17  25  41  57  84 114 147 176 215 262
#
# _framework density 24.680205000000001
#
# number of rings (size 3 to 8) (size 9 to 14) (size 15 to 20)
#    0.857    1.714    1.429    4.286    2.000    0.000 
#    0.000    0.000    0.000    0.000    0.000    0.000 
#    0.000    0.000    0.000   10.286    0.000    4.429 
#
# Total GULP energy -78035.248114 kJ/mol
# GULP energy per Si atom -5573.946294 kJ/mol
# Density = 2.462403 g / cm^3
# Si number density = 24.680205 Si / 1000 Ang^3
#
#
#
# Elastic Constant Matrix: (Units=GPa)
#
#
# Indices 1 2 3 4 5 6 
#
# 1 65.3118 11.5757 46.1139 0.0000 19.7036 0.0000
# 2 11.5757 165.5601 49.7020 0.0000 38.6512 0.0000
# 3 46.1139 49.7020 134.1822 0.0000 42.4636 0.0000
# 4 0.0000 0.0000 0.0000 35.7077 0.0000 7.2606
# 5 19.7036 38.6512 42.4636 0.0000 40.5553 0.0000
# 6 0.0000 0.0000 0.0000 7.2606 0.0000 -48.3369
#
#
#
# Elastic Compliance Matrix: (Units=1/GPa)
#
#
# Indices 1 2 3 4 5 6 
#
# 1 0.020944 0.001610 -0.006115 0.000000 -0.005308 0.000000
# 2 0.001610 0.007950 -0.001275 0.000000 -0.007024 0.000000
# 3 -0.006115 -0.001275 0.013014 0.000000 -0.009440 0.000000
# 4 0.000000 0.000000 0.000000 0.027175 0.000000 0.004082
# 5 -0.005308 -0.007024 -0.009440 0.000000 0.043815 0.000000
# 6 0.000000 0.000000 0.000000 0.004082 0.000000 -0.020075
#
#
# Mechanical properties :
#
#
# Convention : Reuss Voigt Hill
#
# Bulk Modulus (GPa) = 32.94978 64.42636 48.68807
# Shear Modulus (GPa) = 43.66866 22.76271 33.21568
#
# Velocity S-wave (km/s) = 4.21096 3.04024 3.67255
# Velocity P-wave (km/s) = 6.08462 6.20365 6.14442
#
# Compressibility (1/GPa) = 0.03034921
#
# Stress axis : x y z
#
# Youngs Moduli (GPa) = 47.74550 125.78331 76.84236
#
# Poissons Ratio (x) = -0.20257 0.46985
# Poissons Ratio (y) = -0.07689 0.09801
# Poissons Ratio (z) = 0.29194 0.16043
#
# Static dielectric constant tensor:
#      x y z
#    x 2.076070 0.000000 -0.036210 
#    y 0.000000 2.031600 0.000000 
#    z -0.036210 0.000000 1.953390 
# 
# From -- ./inp_files/2213.got.cif
#   From: 2010.05.17/outbox.cif.g08.bks.cpg/sg9_2_cif.got.tgz:2213.got - 2010.06.03 20:04:27.
