data_PCOD9133264
_publ_section_title
;
Structure prediction by ZEFSAII (Michael W. Deem and Ramdas Pophale) SiO2 
 PCOD9133264
Probable space group: C M
;
_chemical_formula_sum "Si O2"
_cell_formula_units_Z 30
_cell_length_a 8.635862
_cell_length_b 20.309557
_cell_length_c 12.465420
_cell_angle_alpha 90.000000
_cell_angle_beta 34.000601
_cell_angle_gamma 90.000000
_cell_volume 1222.591762
_symmetry_space_group_name_H-M "C M"
_symmetry_group_IT_number 8
_symmetry_cell_setting 'monoclinic'
loop_
_space_group_symop_operation_xyz
x,y,z
x,-y,z
1/2+x,1/2+y,z
1/2+x,1/2-y,z
loop_
_atom_site_type_symbol
_atom_site_label
_atom_site_fract_x
_atom_site_fract_y
_atom_site_fract_z
Si Si1 0.943720 0.930417 0.707920
Si Si2 0.875496 0.204612 0.636085
Si Si3 0.259027 0.221356 0.036010
Si Si4 0.070474 0.927702 0.885894
Si Si5 0.559171 0.156666 0.537586
Si Si6 0.734807 0.164374 0.207896
Si Si7 0.125536 0.874565 0.294853
Si Si8 0.771069 0.500000 0.349434
O O1 0.849649 0.859204 0.725794
O O2 0.979241 0.930110 0.814436
O O3 0.212041 0.944443 0.479521
O O4 0.781983 0.000000 0.773253
O O5 0.058690 0.266444 0.567404
O O6 0.020976 0.175368 0.447185
O O7 0.558204 0.230472 0.809918
O O8 0.162698 0.287771 0.151216
O O9 0.013995 0.196632 0.099907
O O10 0.289968 0.166833 0.112276
O O11 0.317412 0.876403 0.743390
O O12 0.166054 0.000000 0.862794
O O13 0.826373 0.904165 0.102585
O O14 0.527166 0.158184 0.426759
O O15 0.830510 0.113519 0.405084
O O16 0.259990 0.940193 0.265121
#
# Coordination Sequence:
#
# PCOD9133264 Si02
#       8
#     4   4   4   4   4   4   4   2
#     4   8  20  40  64  92 126 167 215 258 326 384
#     4  11  21  38  68  94 130 169 216 268 315 385
#     4  11  24  41  63 101 128 168 215 266 330 382
#     4  11  24  43  65  90 130 173 214 272 324 390
#     4  11  24  38  68  98 122 174 217 263 328 382
#     4  11  25  43  64  97 133 166 217 269 329 383
#     4  10  22  42  63  94 131 167 211 268 326 377
#     4   8  18  44  64  88 130 168 210 266 308 410
#
# _framework density 24.538034
#
# number of rings (size 3 to 8) (size 9 to 14) (size 15 to 20)
#    0.400    1.333    2.667    0.800    4.667    0.533 
#    4.800    0.000    2.933    0.000    0.000    0.000 
#    0.000    0.000    0.000    0.000    0.000    0.000 
#
# Total GULP energy -83524.168344 kJ/mol
# GULP energy per Si atom -5568.277890 kJ/mol
# Density = 2.448218 g / cm^3
# Si number density = 24.538034 Si / 1000 Ang^3
#
#
#
# Elastic Constant Matrix: (Units=GPa)
#
#
# Indices 1 2 3 4 5 6 
#
# 1 30.2605 -3.6193 4.7527 0.0003 13.3869 -0.0004
# 2 -3.6193 112.9599 11.9580 0.0000 10.5870 0.0008
# 3 4.7527 11.9580 108.5550 0.0010 1.4395 -0.0005
# 4 0.0003 0.0000 0.0010 28.4983 -0.0005 14.9356
# 5 13.3869 10.5870 1.4395 -0.0005 35.0694 0.0009
# 6 -0.0004 0.0008 -0.0005 14.9356 0.0009 20.9496
#
#
#
# Elastic Compliance Matrix: (Units=1/GPa)
#
#
# Indices 1 2 3 4 5 6 
#
# 1 0.041014 0.003063 -0.001914 -0.000002 -0.016502 0.000003
# 2 0.003063 0.009442 -0.001122 0.000000 -0.003974 0.000000
# 3 -0.001914 -0.001122 0.009410 -0.000001 0.000683 0.000001
# 4 -0.000002 0.000000 -0.000001 0.056022 0.000003 -0.039939
# 5 -0.016502 -0.003974 0.000683 0.000003 0.035986 -0.000004
# 6 0.000003 0.000000 0.000001 -0.039939 -0.000004 0.076208
#
#
# Mechanical properties :
#
#
# Convention : Reuss Voigt Hill
#
# Bulk Modulus (GPa) = 16.68857 30.88424 23.78641
# Shear Modulus (GPa) = 20.16134 32.81572 26.48853
#
# Velocity S-wave (km/s) = 2.86953 3.66093 3.28912
# Velocity P-wave (km/s) = 4.21839 5.52119 4.91316
#
# Compressibility (1/GPa) = 0.05992123
#
# Stress axis : x y z
#
# Youngs Moduli (GPa) = 24.38205 105.90959 106.26747
#
# Poissons Ratio (x) = -0.32444 0.20342
# Poissons Ratio (y) = -0.07469 0.11918
# Poissons Ratio (z) = 0.04667 0.11878
#
# Static dielectric constant tensor:
#      x y z
#    x 2.025320 0.000000 -0.037200 
#    y 0.000000 1.696500 0.000000 
#    z -0.037200 0.000000 1.935680 
# 
# From -- ./inp_files/26240.got.cif
#   From: 2010.05.17/outbox.cif.g08.bks.cpg/sg8_14_cif.got.tgz:26240.got - 2010.06.03 19:46:02.
