data_PCOD9133048
_publ_section_title
;
Structure prediction by ZEFSAII (Michael W. Deem and Ramdas Pophale) SiO2 
 PCOD9133048
Probable space group: C M
;
_chemical_formula_sum "Si O2"
_cell_formula_units_Z 24
_cell_length_a 13.185657
_cell_length_b 21.926532
_cell_length_c 5.410646
_cell_angle_alpha 90.000000
_cell_angle_beta 137.308579
_cell_angle_gamma 90.000000
_cell_volume 1060.674969
_symmetry_space_group_name_H-M "C M"
_symmetry_group_IT_number 8
_symmetry_cell_setting 'monoclinic'
loop_
_space_group_symop_operation_xyz
x,y,z
x,-y,z
1/2+x,1/2+y,z
1/2+x,1/2-y,z
loop_
_atom_site_type_symbol
_atom_site_label
_atom_site_fract_x
_atom_site_fract_y
_atom_site_fract_z
Si Si1 0.822900 0.430025 0.208270
Si Si2 0.286099 0.140464 0.618865
Si Si3 0.605456 0.840033 0.300112
Si Si4 0.672499 0.930991 0.792794
Si Si5 0.628526 0.267934 0.665810
Si Si6 0.336437 0.315352 0.330038
O O1 0.773731 0.500000 0.107986
O O2 0.745449 0.396060 0.299695
O O3 0.001929 0.430375 0.586698
O O4 0.799797 0.399656 0.897204
O O5 0.455482 0.164242 0.873105
O O6 0.175651 0.193148 0.511358
O O7 0.757509 0.816293 0.452334
O O8 0.644164 0.907758 0.461772
O O9 0.565946 0.796676 0.458422
O O10 0.776679 0.878797 0.100338
O O11 0.730022 0.000000 0.912590
O O12 0.767700 0.244072 0.071755
O O13 0.511338 0.306118 0.614373
#
# Coordination Sequence:
#
# PCOD9133048 Si02
#       6
#     4   4   4   4   4   4
#     4  10  21  40  67  95 127 170 220 269 319 386
#     4  11  22  41  64  97 127 168 218 270 320 389
#     4  10  22  37  61  90 124 167 217 264 325 383
#     4   9  20  38  61  91 122 164 220 266 317 384
#     4  11  25  38  61  93 131 165 209 274 324 395
#     4  11  23  40  62  92 126 168 212 269 327 385
#
# _framework density 22.627103000000002
#
# number of rings (size 3 to 8) (size 9 to 14) (size 15 to 20)
#    0.000    1.667    3.333    0.500    4.667    1.333 
#    0.000    1.667    0.000    0.000    0.000    0.000 
#    0.000    0.000    0.000    0.000    0.000    0.000 
#
# Total GULP energy -66955.869042 kJ/mol
# GULP energy per Si atom -5579.655754 kJ/mol
# Density = 2.257560 g / cm^3
# Si number density = 22.627103 Si / 1000 Ang^3
#
#
#
# Elastic Constant Matrix: (Units=GPa)
#
#
# Indices 1 2 3 4 5 6 
#
# 1 109.4806 54.4170 15.9537 0.0000 -10.8312 0.0000
# 2 54.4170 132.5027 28.3393 0.0000 4.2307 0.0000
# 3 15.9537 28.3393 42.1984 0.0000 -4.0553 0.0000
# 4 0.0000 0.0000 0.0000 19.3085 0.0000 -2.6135
# 5 -10.8312 4.2307 -4.0553 0.0000 25.5824 0.0000
# 6 0.0000 0.0000 0.0000 -2.6135 0.0000 27.8610
#
#
#
# Elastic Compliance Matrix: (Units=1/GPa)
#
#
# Indices 1 2 3 4 5 6 
#
# 1 0.012372 -0.005132 -0.000656 0.000000 0.005983 0.000000
# 2 -0.005132 0.011093 -0.005986 0.000000 -0.004956 0.000000
# 3 -0.000656 -0.005986 0.028468 0.000000 0.005225 0.000000
# 4 0.000000 0.000000 0.000000 0.052457 0.000000 0.004921
# 5 0.005983 -0.004956 0.005225 0.000000 0.043270 0.000000
# 6 0.000000 0.000000 0.000000 0.004921 0.000000 0.036354
#
#
# Mechanical properties :
#
#
# Convention : Reuss Voigt Hill
#
# Bulk Modulus (GPa) = 35.22949 53.51128 44.37038
# Shear Modulus (GPa) = 23.03892 26.91515 24.97704
#
# Velocity S-wave (km/s) = 3.19439 3.45267 3.32604
# Velocity P-wave (km/s) = 5.40452 6.29246 5.86532
#
# Compressibility (1/GPa) = 0.02838531
#
# Stress axis : x y z
#
# Youngs Moduli (GPa) = 80.82546 90.14611 35.12744
#
# Poissons Ratio (x) = 0.46262 0.02305
# Poissons Ratio (y) = 0.41478 0.21027
# Poissons Ratio (z) = 0.05303 0.53961
#
# Static dielectric constant tensor:
#      x y z
#    x 1.878430 0.000000 -0.019230 
#    y 0.000000 1.844130 0.000000 
#    z -0.019230 0.000000 1.895660 
# 
# From -- ./inp_files/1563.got.cif
#   From: 2010.05.17/outbox.cif.g08.bks.cpg/sg8_1_cif.got.tgz:1563.got - 2010.06.03 19:46:02.
