data_PCOD9133641
_publ_section_title
;
Structure prediction by ZEFSAII (Michael W. Deem and Ramdas Pophale) SiO2 
 PCOD9133641
Probable space group: C M
;
_chemical_formula_sum "Si O2"
_cell_formula_units_Z 32
_cell_length_a 20.579501
_cell_length_b 7.273333
_cell_length_c 8.006896
_cell_angle_alpha 90.000000
_cell_angle_beta 108.579358
_cell_angle_gamma 90.000000
_cell_volume 1136.023598
_symmetry_space_group_name_H-M "C M"
_symmetry_group_IT_number 8
_symmetry_cell_setting 'monoclinic'
loop_
_space_group_symop_operation_xyz
x,y,z
x,-y,z
1/2+x,1/2+y,z
1/2+x,1/2-y,z
loop_
_atom_site_type_symbol
_atom_site_label
_atom_site_fract_x
_atom_site_fract_y
_atom_site_fract_z
Si Si1 0.583600 0.278114 0.146470
Si Si2 0.960824 0.288047 0.262665
Si Si3 0.174499 0.782096 0.541266
Si Si4 0.296171 0.222804 0.428733
Si Si5 0.423259 0.223469 0.719595
Si Si6 0.205243 0.776979 0.029581
Si Si7 0.550098 0.780360 0.645960
Si Si8 0.335775 0.225792 0.963562
O O1 0.582743 0.500000 0.143080
O O2 0.507516 0.214890 0.132015
O O3 0.626934 0.219151 0.347060
O O4 0.629325 0.213546 0.025749
O O5 0.949817 0.500000 0.300104
O O6 0.008227 0.209709 0.447802
O O7 0.886241 0.216190 0.155306
O O8 0.249518 0.716188 0.548842
O O9 0.129575 0.757508 0.672100
O O10 0.180669 0.000000 0.534874
O O11 0.374367 0.277331 0.523842
O O12 0.252987 0.270488 0.230072
O O13 0.298326 0.000000 0.427970
O O14 0.501068 0.287886 0.754775
O O15 0.378899 0.285825 0.839459
O O16 0.425494 0.000000 0.729793
O O17 0.200451 0.000000 0.015084
O O18 0.257386 0.715845 0.926393
O O19 0.547199 0.000000 0.645911
O O20 0.333844 0.000000 0.958597
#
# Coordination Sequence:
#
# PCOD9133641 Si02
#       8
#     4   4   4   4   4   4   4   4
#     4   8  14  25  42  63  84 105 131 165 203 240
#     4   9  16  26  42  63  84 106 133 165 200 238
#     4   8  14  25  42  63  84 105 131 165 203 240
#     4   8  13  23  40  59  77 100 133 170 203 235
#     4   9  16  25  38  58  83 108 135 168 202 235
#     4   8  13  23  40  59  77 100 133 170 203 235
#     4   9  16  26  42  63  84 106 133 165 200 238
#     4   9  16  25  38  58  83 108 135 168 202 235
#
# _framework density 28.168429
#
# number of rings (size 3 to 8) (size 9 to 14) (size 15 to 20)
#    0.000    3.500    0.000    2.250    0.000    3.000 
#    0.000    1.250    0.000    3.750    0.000    7.000 
#    0.000    0.000    0.000    0.000    0.000    0.000 
#
# Total GULP energy -89383.500012 kJ/mol
# GULP energy per Si atom -5586.468751 kJ/mol
# Density = 2.810432 g / cm^3
# Si number density = 28.168429 Si / 1000 Ang^3
#
#
#
# Elastic Constant Matrix: (Units=GPa)
#
#
# Indices 1 2 3 4 5 6 
#
# 1 275.6768 -4.2863 38.7417 0.0000 -11.7762 0.0000
# 2 -4.2863 124.5805 -6.7730 0.0000 1.2404 0.0000
# 3 38.7417 -6.7730 80.8587 0.0000 -27.6923 0.0000
# 4 0.0000 0.0000 0.0000 -5.9940 0.0000 -5.2195
# 5 -11.7762 1.2404 -27.6923 0.0000 61.6302 0.0000
# 6 0.0000 0.0000 0.0000 -5.2195 0.0000 4.6537
#
#
#
# Elastic Compliance Matrix: (Units=1/GPa)
#
#
# Indices 1 2 3 4 5 6 
#
# 1 0.003890 0.000032 -0.001899 0.000000 -0.000111 0.000000
# 2 0.000032 0.008065 0.000717 0.000000 0.000166 0.000000
# 3 -0.001899 0.000717 0.015610 0.000000 0.006637 0.000000
# 4 0.000000 0.000000 0.000000 -0.084401 0.000000 -0.094664
# 5 -0.000111 0.000166 0.006637 0.000000 0.019183 0.000000
# 6 0.000000 0.000000 0.000000 -0.094664 0.000000 0.108710
#
#
# Mechanical properties :
#
#
# Convention : Reuss Voigt Hill
#
# Bulk Modulus (GPa) = 39.57985 59.60896 49.59440
# Shear Modulus (GPa) = 61.13925 42.28687 51.71306
#
# Velocity S-wave (km/s) = 4.66390 3.87876 4.28933
# Velocity P-wave (km/s) = 6.56386 6.42396 6.49429
#
# Compressibility (1/GPa) = 0.02526538
#
# Stress axis : x y z
#
# Youngs Moduli (GPa) = 257.06364 123.98684 64.06068
#
# Poissons Ratio (x) = -0.00393 0.12166
# Poissons Ratio (y) = -0.00815 -0.04595
# Poissons Ratio (z) = 0.48819 -0.08893
#
# Static dielectric constant tensor:
#      x y z
#    x 2.149030 0.000000 -0.028950 
#    y 0.000000 2.086370 0.000000 
#    z -0.028950 0.000000 2.321970 
# 
# From -- ./inp_files/14822.got.cif
#   From: 2010.05.17/outbox.cif.g08.bks.cpg/sg8_8_cif.got.tgz:14822.got - 2010.06.03 19:46:02.
