data_PCOD9133326
_publ_section_title
;
Structure prediction by ZEFSAII (Michael W. Deem and Ramdas Pophale) SiO2 
 PCOD9133326
Probable space group: C M
;
_chemical_formula_sum "Si O2"
_cell_formula_units_Z 26
_cell_length_a 18.804125
_cell_length_b 7.477299
_cell_length_c 10.196859
_cell_angle_alpha 90.000000
_cell_angle_beta 44.178399
_cell_angle_gamma 90.000000
_cell_volume 999.151851
_symmetry_space_group_name_H-M "C M"
_symmetry_group_IT_number 8
_symmetry_cell_setting 'monoclinic'
loop_
_space_group_symop_operation_xyz
x,y,z
x,-y,z
1/2+x,1/2+y,z
1/2+x,1/2-y,z
loop_
_atom_site_type_symbol
_atom_site_label
_atom_site_fract_x
_atom_site_fract_y
_atom_site_fract_z
Si Si1 0.352660 0.204672 0.019910
Si Si2 0.658080 0.197681 0.857991
Si Si3 0.046733 0.797801 0.247985
Si Si4 0.681380 0.285649 0.432435
Si Si5 0.333881 0.786072 0.456582
Si Si6 0.007875 0.000000 0.936604
Si Si7 0.466733 0.282350 0.631005
O O1 0.238245 0.248006 0.220008
O O2 0.428627 0.343765 0.987479
O O3 0.370980 0.000000 0.040048
O O4 0.371538 0.215666 0.839576
O O5 0.776156 0.232539 0.666217
O O6 0.631101 0.000000 0.847365
O O7 0.631076 0.208070 0.047363
O O8 0.591399 0.346093 0.873406
O O9 0.943957 0.801027 0.294785
O O10 0.999505 0.719084 0.443393
O O11 0.080257 0.000000 0.231778
O O12 0.672271 0.500000 0.463463
O O13 0.757083 0.222483 0.444866
O O14 0.565973 0.223821 0.584499
O O15 0.345829 0.000000 0.433428
O O16 0.460577 0.500000 0.634252
#
# Coordination Sequence:
#
# PCOD9133326 Si02
#       7
#     4   4   4   4   4   2   4
#     4  11  23  41  68 100 136 180 224 285 346 414
#     4  12  25  43  68 100 139 183 230 288 345 415
#     4  11  24  43  68 102 140 187 234 286 346 415
#     4   9  21  40  66  99 132 176 226 280 343 408
#     4  11  22  41  69 101 139 180 228 291 347 411
#     4  12  22  42  66  98 138 176 218 284 350 406
#     4  10  22  44  70  96 139 184 230 285 342 409
#
# _framework density 26.022071
#
# number of rings (size 3 to 8) (size 9 to 14) (size 15 to 20)
#    0.000    1.231    2.308    3.231    2.154    3.692 
#    2.769    1.538    0.000    0.000    0.000    0.000 
#    0.000    0.000    0.000    0.000    0.000    0.000 
#
# Total GULP energy -72543.432632 kJ/mol
# GULP energy per Si atom -5580.264049 kJ/mol
# Density = 2.596284 g / cm^3
# Si number density = 26.022071 Si / 1000 Ang^3
#
#
#
# Elastic Constant Matrix: (Units=GPa)
#
#
# Indices 1 2 3 4 5 6 
#
# 1 44.9969 -7.4865 10.2097 0.0000 3.5453 0.0000
# 2 -7.4865 166.7580 4.5006 0.0000 -5.3911 0.0000
# 3 10.2097 4.5006 171.4792 0.0000 12.7967 0.0000
# 4 0.0000 0.0000 0.0000 11.5451 0.0000 7.9451
# 5 3.5453 -5.3911 12.7967 0.0000 35.6348 0.0000
# 6 0.0000 0.0000 0.0000 7.9451 0.0000 14.5472
#
#
#
# Elastic Compliance Matrix: (Units=1/GPa)
#
#
# Indices 1 2 3 4 5 6 
#
# 1 0.022808 0.001004 -0.001260 0.000000 -0.001665 0.000000
# 2 0.001004 0.006079 -0.000288 0.000000 0.000923 0.000000
# 3 -0.001260 -0.000288 0.006071 0.000000 -0.002098 0.000000
# 4 0.000000 0.000000 0.000000 0.138778 0.000000 -0.075795
# 5 -0.001665 0.000923 -0.002098 0.000000 0.029121 0.000000
# 6 0.000000 0.000000 0.000000 -0.075795 0.000000 0.110138
#
#
# Mechanical properties :
#
#
# Convention : Reuss Voigt Hill
#
# Bulk Modulus (GPa) = 29.52491 44.18684 36.85588
# Shear Modulus (GPa) = 15.36693 37.41279 26.38986
#
# Velocity S-wave (km/s) = 2.43273 3.79586 3.18800
# Velocity P-wave (km/s) = 4.38881 6.01903 5.26737
#
# Compressibility (1/GPa) = 0.03386970
#
# Stress axis : x y z
#
# Youngs Moduli (GPa) = 43.84451 164.48931 164.72331
#
# Poissons Ratio (x) = -0.16517 0.20756
# Poissons Ratio (y) = -0.04403 0.04748
# Poissons Ratio (z) = 0.05525 0.04741
#
# Static dielectric constant tensor:
#      x y z
#    x 2.120200 0.000000 0.121580 
#    y 0.000000 1.956190 0.000000 
#    z 0.121580 0.000000 2.065560 
# 
# From -- ./inp_files/23820.got.cif
#   From: 2010.05.17/outbox.cif.g08.bks.cpg/sg8_12_cif.got.tgz:23820.got - 2010.06.03 19:46:02.
