data_PCOD9133221
_publ_section_title
;
Structure prediction by ZEFSAII (Michael W. Deem and Ramdas Pophale) SiO2 
 PCOD9133221
Probable space group: C M
;
_chemical_formula_sum "Si O2"
_cell_formula_units_Z 28
_cell_length_a 14.758787
_cell_length_b 18.052810
_cell_length_c 5.037056
_cell_angle_alpha 90.000000
_cell_angle_beta 70.698662
_cell_angle_gamma 90.000000
_cell_volume 1266.628089
_symmetry_space_group_name_H-M "C M"
_symmetry_group_IT_number 8
_symmetry_cell_setting 'monoclinic'
loop_
_space_group_symop_operation_xyz
x,y,z
x,-y,z
1/2+x,1/2+y,z
1/2+x,1/2-y,z
loop_
_atom_site_type_symbol
_atom_site_label
_atom_site_fract_x
_atom_site_fract_y
_atom_site_fract_z
Si Si1 0.425220 0.820906 0.643740
Si Si2 0.571862 0.742100 0.879936
Si Si3 0.182501 0.859856 0.402182
Si Si4 0.252759 0.722758 0.982395
Si Si5 0.387989 0.915869 0.192448
Si Si6 0.996415 0.121992 0.283156
Si Si7 0.372949 0.417501 0.917522
O O1 0.512375 0.778358 0.701925
O O2 0.334471 0.764930 0.731643
O O3 0.439485 0.860909 0.349928
O O4 0.400212 0.884994 0.883679
O O5 0.626228 0.669567 0.712432
O O6 0.656375 0.792542 0.910868
O O7 0.504343 0.707437 0.173721
O O8 0.274619 0.909065 0.368773
O O9 0.102690 0.896101 0.288717
O O10 0.221904 0.784260 0.227352
O O11 0.297683 0.647746 0.051489
O O12 0.420465 0.000000 0.185244
O O13 0.925722 0.106317 0.595435
O O14 0.951640 0.081826 0.074097
O O15 0.331906 0.500000 0.929464
#
# Coordination Sequence:
#
# PCOD9133221 Si02
#       7
#     4   4   4   4   4   4   4
#     4  11  23  41  69  93 127 172 215 265 312 384
#     4  11  22  40  72  99 125 163 230 273 319 371
#     4  10  22  40  68 102 123 168 220 280 319 385
#     4  10  23  39  68  98 130 165 225 266 321 383
#     4  11  25  43  62  94 134 171 207 261 331 383
#     4  11  23  42  64  97 128 168 220 268 331 385
#     4  12  26  43  64  95 138 177 211 269 335 393
#
# _framework density 22.105936
#
# number of rings (size 3 to 8) (size 9 to 14) (size 15 to 20)
#    0.000    1.143    4.286    0.857    8.000    1.143 
#    0.000    1.429    0.000    0.000    0.000    0.000 
#    0.000    0.000    0.000    0.000    0.000    0.000 
#
# Total GULP energy -78278.239266 kJ/mol
# GULP energy per Si atom -5591.302805 kJ/mol
# Density = 2.205562 g / cm^3
# Si number density = 22.105936 Si / 1000 Ang^3
#
#
#
# Elastic Constant Matrix: (Units=GPa)
#
#
# Indices 1 2 3 4 5 6 
#
# 1 96.1650 28.7968 4.1585 0.0000 16.0643 0.0000
# 2 28.7968 107.7769 4.6438 0.0000 2.7568 0.0000
# 3 4.1585 4.6438 69.9357 0.0000 12.5721 0.0000
# 4 0.0000 0.0000 0.0000 2.0778 0.0000 1.0747
# 5 16.0643 2.7568 12.5721 0.0000 30.2464 0.0000
# 6 0.0000 0.0000 0.0000 1.0747 0.0000 21.0279
#
#
#
# Elastic Compliance Matrix: (Units=1/GPa)
#
#
# Indices 1 2 3 4 5 6 
#
# 1 0.012422 -0.003179 0.000655 0.000000 -0.006580 0.000000
# 2 -0.003179 0.010130 -0.000671 0.000000 0.001044 0.000000
# 3 0.000655 -0.000671 0.015515 0.000000 -0.006736 0.000000
# 4 0.000000 0.000000 0.000000 0.494338 0.000000 -0.025265
# 5 -0.006580 0.001044 -0.006736 0.000000 0.039261 0.000000
# 6 0.000000 0.000000 0.000000 -0.025265 0.000000 0.048847
#
#
# Mechanical properties :
#
#
# Convention : Reuss Voigt Hill
#
# Bulk Modulus (GPa) = 31.56839 38.78620 35.17730
# Shear Modulus (GPa) = 7.84361 26.42232 17.13296
#
# Velocity S-wave (km/s) = 1.88571 3.46100 2.78697
# Velocity P-wave (km/s) = 4.36494 5.79267 5.12873
#
# Compressibility (1/GPa) = 0.03167725
#
# Stress axis : x y z
#
# Youngs Moduli (GPa) = 80.50540 98.71675 64.45227
#
# Poissons Ratio (x) = 0.31380 -0.04224
# Poissons Ratio (y) = 0.25591 0.04327
# Poissons Ratio (z) = -0.05276 0.06627
#
# Static dielectric constant tensor:
#      x y z
#    x 1.815100 0.000000 -0.007010 
#    y 0.000000 1.822670 0.000000 
#    z -0.007010 0.000000 1.852640 
# 
# From -- ./inp_files/4050.got.cif
#   From: 2010.05.17/outbox.cif.g08.bks.cpg/sg8_3_cif.got.tgz:4050.got - 2010.06.03 19:46:02.
