data_PCOD9133469
_publ_section_title
;
Structure prediction by ZEFSAII (Michael W. Deem and Ramdas Pophale) SiO2 
 PCOD9133469
Probable space group: C M
;
_chemical_formula_sum "Si O2"
_cell_formula_units_Z 30
_cell_length_a 4.892423
_cell_length_b 30.747791
_cell_length_c 9.223674
_cell_angle_alpha 90.000000
_cell_angle_beta 65.273805
_cell_angle_gamma 90.000000
_cell_volume 1260.315639
_symmetry_space_group_name_H-M "C M"
_symmetry_group_IT_number 8
_symmetry_cell_setting 'monoclinic'
loop_
_space_group_symop_operation_xyz
x,y,z
x,-y,z
1/2+x,1/2+y,z
1/2+x,1/2-y,z
loop_
_atom_site_type_symbol
_atom_site_label
_atom_site_fract_x
_atom_site_fract_y
_atom_site_fract_z
Si Si1 0.809660 0.843624 0.186520
Si Si2 0.958510 0.919399 0.358513
Si Si3 0.694671 0.896994 0.712598
Si Si4 0.108797 0.578227 0.050588
Si Si5 0.278248 0.220129 0.960247
Si Si6 0.206203 0.162733 0.695090
Si Si7 0.814927 0.720009 0.389025
Si Si8 0.791087 0.000000 0.203331
O O1 0.833599 0.873743 0.323474
O O2 0.775185 0.878115 0.065117
O O3 0.526980 0.811971 0.252400
O O4 0.096541 0.813601 0.099095
O O5 0.915146 0.918478 0.541979
O O6 0.291578 0.922317 0.210698
O O7 0.796086 0.961265 0.326793
O O8 0.413358 0.879115 0.683302
O O9 0.876546 0.856415 0.739723
O O10 0.587500 0.922795 0.880693
O O11 0.283563 0.537712 0.078076
O O12 0.579657 0.237277 0.966279
O O13 0.287011 0.194867 0.807639
O O14 0.260876 0.191892 0.542985
O O15 0.510874 0.737433 0.385958
#
# Coordination Sequence:
#
# PCOD9133469 Si02
#       8
#     4   4   4   4   4   4   4   2
#     4  11  24  43  66  98 144 188 252 295 362 431
#     4  11  25  48  78 107 147 192 233 304 361 446
#     4  12  26  46  80 108 145 196 249 288 366 440
#     4  11  25  48  78 107 147 192 233 304 361 446
#     4  12  25  41  65  99 142 194 249 306 361 413
#     4  12  24  47  66 105 145 192 253 305 356 427
#     4  12  25  41  65  99 142 194 249 306 361 413
#     4  10  26  50  74 122 142 180 240 292 372 440
#
# _framework density 23.803561999999999
#
# number of rings (size 3 to 8) (size 9 to 14) (size 15 to 20)
#    0.000    0.533    2.667    5.200    7.467    0.533 
#    0.000    1.333    0.000    0.000    0.000    0.000 
#    0.000    0.000    0.000    0.000    0.000    0.000 
#
# Total GULP energy -83673.963615 kJ/mol
# GULP energy per Si atom -5578.264241 kJ/mol
# Density = 2.374938 g / cm^3
# Si number density = 23.803562 Si / 1000 Ang^3
#
#
#
# Elastic Constant Matrix: (Units=GPa)
#
#
# Indices 1 2 3 4 5 6 
#
# 1 58.9691 -7.3545 11.9931 0.0000 9.3519 0.0000
# 2 -7.3545 74.0385 45.0696 0.0000 13.5407 0.0000
# 3 11.9931 45.0696 162.1125 0.0000 20.0670 0.0000
# 4 0.0000 0.0000 0.0000 -17.5031 0.0000 5.4134
# 5 9.3519 13.5407 20.0670 0.0000 28.4514 0.0000
# 6 0.0000 0.0000 0.0000 5.4134 0.0000 -35.2287
#
#
#
# Elastic Compliance Matrix: (Units=1/GPa)
#
#
# Indices 1 2 3 4 5 6 
#
# 1 0.018942 0.004201 -0.001700 0.000000 -0.007027 0.000000
# 2 0.004201 0.017862 -0.004441 0.000000 -0.006749 0.000000
# 3 -0.001700 -0.004441 0.007887 0.000000 -0.002890 0.000000
# 4 0.000000 0.000000 0.000000 -0.059983 0.000000 -0.009217
# 5 -0.007027 -0.006749 -0.002890 0.000000 0.042708 0.000000
# 6 0.000000 0.000000 0.000000 -0.009217 0.000000 -0.029802
#
#
# Mechanical properties :
#
#
# Convention : Reuss Voigt Hill
#
# Bulk Modulus (GPa) = 24.50273 43.83738 34.17006
# Shear Modulus (GPa) = 331.21980 11.50470 171.36225
#
# Velocity S-wave (km/s) = 11.80886 2.20084 8.49391
# Velocity P-wave (km/s) = 14.00887 4.99145 10.51577
#
# Compressibility (1/GPa) = 0.04081178
#
# Stress axis : x y z
#
# Youngs Moduli (GPa) = 52.79250 55.98587 126.79469
#
# Poissons Ratio (x) = -0.23521 0.21549
# Poissons Ratio (y) = -0.22180 0.56311
# Poissons Ratio (z) = 0.08972 0.24864
#
# Static dielectric constant tensor:
#      x y z
#    x 1.939340 0.000000 -0.042550 
#    y 0.000000 1.887740 0.000000 
#    z -0.042550 0.000000 1.987200 
# 
# From -- ./inp_files/7191.got.cif
#   From: 2010.05.17/outbox.cif.g08.bks.cpg/sg8_4_cif.got.tgz:7191.got - 2010.06.03 19:46:02.
