data_PCOD9133269
_publ_section_title
;
Structure prediction by ZEFSAII (Michael W. Deem and Ramdas Pophale) SiO2 
 PCOD9133269
Probable space group: C M
;
_chemical_formula_sum "Si O2"
_cell_formula_units_Z 32
_cell_length_a 21.018140
_cell_length_b 8.725894
_cell_length_c 21.816036
_cell_angle_alpha 90.000000
_cell_angle_beta 157.041055
_cell_angle_gamma 90.000000
_cell_volume 1560.717192
_symmetry_space_group_name_H-M "C M"
_symmetry_group_IT_number 8
_symmetry_cell_setting 'monoclinic'
loop_
_space_group_symop_operation_xyz
x,y,z
x,-y,z
1/2+x,1/2+y,z
1/2+x,1/2-y,z
loop_
_atom_site_type_symbol
_atom_site_label
_atom_site_fract_x
_atom_site_fract_y
_atom_site_fract_z
Si Si1 0.257960 0.825973 0.257940
Si Si2 0.223978 0.675372 0.784739
Si Si3 0.444684 0.824487 0.199687
Si Si4 0.063157 0.814296 0.854234
Si Si5 0.008008 0.814613 0.941933
Si Si6 0.977374 0.835474 0.111627
Si Si7 0.398600 0.327204 0.493508
Si Si8 0.786446 0.680945 0.518473
O O1 0.375432 0.722992 0.402293
O O2 0.108450 0.835423 0.173782
O O3 0.319856 0.000000 0.303302
O O4 0.176077 0.762028 0.123692
O O5 0.163806 0.500000 0.717676
O O6 0.354698 0.720697 0.848891
O O7 0.088559 0.801911 0.670849
O O8 0.309906 0.666522 0.926553
O O9 0.487035 0.805190 0.165416
O O10 0.603705 0.745143 0.371839
O O11 0.439529 0.000000 0.215835
O O12 0.255559 0.765432 0.030877
O O13 0.990880 0.770145 0.856646
O O14 0.938381 0.751244 0.692121
O O15 0.066140 0.000000 0.850280
O O16 0.021341 0.000000 0.955777
O O17 0.992678 0.000000 0.159013
O O18 0.344067 0.500000 0.455073
O O19 0.318978 0.220662 0.475395
O O20 0.788748 0.500000 0.529069
#
# Coordination Sequence:
#
# PCOD9133269 Si02
#       8
#     4   4   4   4   4   4   4   4
#     4   9  17  33  58  83 110 147 189 234 286 351
#     4   9  18  34  58  86 114 153 196 236 291 359
#     4  11  22  36  59  90 123 158 199 251 312 361
#     4  10  22  42  65  91 122 158 207 258 303 352
#     4   8  17  38  64  86 111 151 201 243 285 349
#     4   9  17  31  54  81 110 144 188 237 288 353
#     4  12  23  35  54  87 123 152 189 245 307 357
#     4  12  25  41  62  88 123 165 207 250 300 368
#
# _framework density 20.503394
#
# number of rings (size 3 to 8) (size 9 to 14) (size 15 to 20)
#    0.000    2.000    1.250    4.875    0.000    3.500 
#    2.250    3.125    0.000    0.000    0.000    0.000 
#    0.000    0.000    0.000    0.000    0.000    0.000 
#
# Total GULP energy -89077.992439 kJ/mol
# GULP energy per Si atom -5567.374527 kJ/mol
# Density = 2.045673 g / cm^3
# Si number density = 20.503394 Si / 1000 Ang^3
#
#
#
# Elastic Constant Matrix: (Units=GPa)
#
#
# Indices 1 2 3 4 5 6 
#
# 1 46.2698 1.4065 22.1271 -0.0001 -7.3837 -0.0001
# 2 1.4065 58.2876 31.0221 -0.0003 4.1839 -0.0001
# 3 22.1271 31.0221 111.5911 -0.0005 1.5482 -0.0001
# 4 -0.0001 -0.0003 -0.0005 26.2848 -0.0001 1.6277
# 5 -7.3837 4.1839 1.5482 -0.0001 27.7052 -0.0001
# 6 -0.0001 -0.0001 -0.0001 1.6277 -0.0001 10.8248
#
#
#
# Elastic Compliance Matrix: (Units=1/GPa)
#
#
# Indices 1 2 3 4 5 6 
#
# 1 0.025338 0.001908 -0.005649 0.000000 0.006780 0.000000
# 2 0.001908 0.020488 -0.006043 0.000000 -0.002248 0.000000
# 3 -0.005649 -0.006043 0.011779 0.000000 -0.001251 0.000000
# 4 0.000000 0.000000 0.000000 0.038402 0.000000 -0.005774
# 5 0.006780 -0.002248 -0.001251 0.000000 0.038311 0.000000
# 6 0.000000 0.000000 0.000000 -0.005774 0.000000 0.093249
#
#
# Mechanical properties :
#
#
# Convention : Reuss Voigt Hill
#
# Bulk Modulus (GPa) = 26.28979 36.14002 31.21490
# Shear Modulus (GPa) = 19.24474 23.73581 21.49027
#
# Velocity S-wave (km/s) = 3.06700 3.40612 3.24100
# Velocity P-wave (km/s) = 5.03905 5.75617 5.40951
#
# Compressibility (1/GPa) = 0.03803759
#
# Stress axis : x y z
#
# Youngs Moduli (GPa) = 39.46696 48.80974 84.89985
#
# Poissons Ratio (x) = -0.09314 0.47957
# Poissons Ratio (y) = -0.07531 0.51303
# Poissons Ratio (z) = 0.22294 0.29494
#
# Static dielectric constant tensor:
#      x y z
#    x 1.733460 0.000000 0.019200 
#    y 0.000000 1.760820 0.000000 
#    z 0.019200 0.000000 1.828490 
# 
# From -- ./inp_files/32419.got.cif
#   From: 2010.05.17/outbox.cif.g08.bks.cpg/sg8_17_cif.got.tgz:32419.got - 2010.06.03 19:46:02.
