data_PCOD9133693
_publ_section_title
;
Structure prediction by ZEFSAII (Michael W. Deem and Ramdas Pophale) SiO2 
 PCOD9133693
Probable space group: C M
;
_chemical_formula_sum "Si O2"
_cell_formula_units_Z 16
_cell_length_a 30.000000
_cell_length_b 9.000000
_cell_length_c 12.000000
_cell_angle_alpha 90.000000
_cell_angle_beta 150.000000
_cell_angle_gamma 90.000000
_cell_volume 1620.000000
_symmetry_space_group_name_H-M "C M"
_symmetry_group_IT_number 8
_symmetry_cell_setting 'monoclinic'
loop_
_space_group_symop_operation_xyz
x,y,z
x,-y,z
1/2+x,1/2+y,z
1/2+x,1/2-y,z
loop_
_atom_site_type_symbol
_atom_site_label
_atom_site_fract_x
_atom_site_fract_y
_atom_site_fract_z
Si Si1 0.437440 0.176609 0.416750
Si Si2 0.220042 0.176450 0.255298
Si Si3 0.802724 0.680455 0.665135
Si Si4 0.087865 0.322576 0.575772
Si Si5 0.141501 0.821498 0.458587
Si Si6 0.240820 0.821918 0.051901
Si Si7 0.006562 0.175228 0.791999
Si Si8 0.990385 0.678118 0.987866
O O1 0.492916 0.216039 0.426584
O O2 0.331875 0.200304 0.181555
O O3 0.472348 0.264312 0.600111
O O4 0.451637 0.000000 0.467915
O O5 0.261306 0.237774 0.458499
O O6 0.254139 0.229593 0.208811
O O7 0.239622 0.000000 0.299444
O O8 0.113672 0.194416 0.025769
O O9 0.797655 0.500000 0.652140
O O10 0.740716 0.725956 0.633859
O O11 0.906685 0.716825 0.885959
O O12 0.092025 0.500000 0.571528
O O13 0.109609 0.246903 0.505567
O O14 0.160954 0.265403 0.822116
O O15 0.138284 0.000000 0.457938
O O16 0.075706 0.763327 0.219758
O O17 0.220822 0.000000 0.010234
O O18 0.970312 0.267251 0.819029
O O19 0.987120 0.000000 0.762255
O O20 0.003198 0.500000 0.016371
#
# Coordination Sequence:
#
# PCOD9133693 Si02
#       8
#     4   4   4   4   4   4   4   4
#     4  10  22  39  61  87 119 156 197 239 290 350
#     4   9  16  31  58  87 114 146 189 233 276 335
#     4   9  19  37  61  86 115 153 194 232 282 350
#     4  11  24  41  59  86 120 151 193 252 300 338
#     4  11  23  42  64  84 112 156 203 242 287 350
#     4  10  20  38  63  87 113 156 199 234 285 356
#     4  11  20  34  60  91 122 154 193 238 288 348
#     4  11  22  38  62  90 119 152 192 242 294 345
#
# _framework density 9.8765429999999999
#
# number of rings (size 3 to 8) (size 9 to 14) (size 15 to 20)
#    0.000    1.750    2.500    2.250    0.000    4.000 
#    0.000    7.500    0.000    0.000    0.000    0.000 
#    0.000    0.000    0.000    0.000    0.000    0.000 
#
# Total GULP energy -89343.861783 kJ/mol
# GULP energy per Si atom -5583.991361 kJ/mol
# Density = 0.985406 g / cm^3
# Si number density = 9.876543 Si / 1000 Ang^3
#
#
#
# Elastic Constant Matrix: (Units=GPa)
#
#
# Indices 1 2 3 4 5 6 
#
# 1 150.4032 31.0502 11.2619 0.0000 19.7696 0.0000
# 2 31.0502 42.8205 4.9669 0.0000 13.4917 0.0000
# 3 11.2619 4.9669 8.4839 0.0000 11.0189 0.0000
# 4 0.0000 0.0000 0.0000 24.6401 0.0000 -6.9386
# 5 19.7696 13.4917 11.0189 0.0000 24.5898 0.0000
# 6 0.0000 0.0000 0.0000 -6.9386 0.0000 31.0345
#
#
#
# Elastic Compliance Matrix: (Units=1/GPa)
#
#
# Indices 1 2 3 4 5 6 
#
# 1 0.008306 -0.004955 -0.007136 0.000000 -0.000761 0.000000
# 2 -0.004955 0.031455 0.012927 0.000000 -0.019067 0.000000
# 3 -0.007136 0.012927 0.290757 0.000000 -0.131646 0.000000
# 4 0.000000 0.000000 0.000000 0.043311 0.000000 0.009683
# 5 -0.000761 -0.019067 -0.131646 0.000000 0.110732 0.000000
# 6 0.000000 0.000000 0.000000 0.009683 0.000000 0.034387
#
#
# Mechanical properties :
#
#
# Convention : Reuss Voigt Hill
#
# Bulk Modulus (GPa) = 3.01033 32.91840 17.96437
# Shear Modulus (GPa) = 7.96170 26.34811 17.15490
#
# Velocity S-wave (km/s) = 2.00982 3.65619 2.95017
# Velocity P-wave (km/s) = 2.62928 5.87577 4.55180
#
# Compressibility (1/GPa) = 0.33218923
#
# Stress axis : x y z
#
# Youngs Moduli (GPa) = 120.39133 31.79169 3.43930
#
# Poissons Ratio (x) = 0.15754 0.02454
# Poissons Ratio (y) = 0.59659 -0.04446
# Poissons Ratio (z) = 0.85913 -0.41098
#
# Static dielectric constant tensor:
#      x y z
#    x 1.716450 0.000000 0.019850 
#    y 0.000000 1.660410 0.000000 
#    z 0.019850 0.000000 1.699350 
# 
# From -- ./inp_files/21359.got.cif
#   From: 2010.05.17/outbox.ucp.g08.bks.cvg/sg8_11_cif.got.tgz:21359.got - 2010.06.11 13:00:03.
