data_PCOD9133420
_publ_section_title
;
Structure prediction by ZEFSAII (Michael W. Deem and Ramdas Pophale) SiO2 
 PCOD9133420
Probable space group: C M
;
_chemical_formula_sum "Si O2"
_cell_formula_units_Z 22
_cell_length_a 21.999308
_cell_length_b 8.821670
_cell_length_c 4.921555
_cell_angle_alpha 90.000000
_cell_angle_beta 90.971324
_cell_angle_gamma 90.000000
_cell_volume 954.992058
_symmetry_space_group_name_H-M "C M"
_symmetry_group_IT_number 8
_symmetry_cell_setting 'monoclinic'
loop_
_space_group_symop_operation_xyz
x,y,z
x,-y,z
1/2+x,1/2+y,z
1/2+x,1/2-y,z
loop_
_atom_site_type_symbol
_atom_site_label
_atom_site_fract_x
_atom_site_fract_y
_atom_site_fract_z
Si Si1 0.020300 0.233769 0.352810
Si Si2 0.150160 0.328381 0.198636
Si Si3 0.390440 0.171618 0.506992
Si Si4 0.209308 0.180055 0.720450
Si Si5 0.831293 0.180054 0.985179
Si Si6 0.520300 0.500000 0.852810
O O1 0.081774 0.325138 0.301956
O O2 0.958827 0.325138 0.403667
O O3 0.029690 0.130167 0.617074
O O4 0.010910 0.130167 0.088544
O O5 0.168028 0.500000 0.127739
O O6 0.158056 0.220022 0.939780
O O7 0.192559 0.262087 0.439545
O O8 0.348042 0.237900 0.266073
O O9 0.382544 0.279986 0.765839
O O10 0.372575 0.000000 0.577911
O O11 0.270300 0.250005 0.852810
O O12 0.213547 0.000000 0.682405
O O13 0.827056 0.000000 0.023250
#
# Coordination Sequence:
#
# PCOD9133420 Si02
#       6
#     4   4   4   4   4   2
#     4  11  25  42  70 102 146 180 234 274 364 398
#     4  12  26  45  72 103 144 184 231 288 347 417
#     4  12  26  45  72 103 144 184 231 288 347 417
#     4  12  27  47  72 102 138 185 236 290 349 411
#     4  12  27  47  72 102 138 185 236 290 349 411
#     4  10  24  38  66  98 144 170 234 286 324 416
#
# _framework density 23.036837999999999
#
# number of rings (size 3 to 8) (size 9 to 14) (size 15 to 20)
#    0.000    0.364    0.000    8.182   15.273    0.000 
#    0.000    5.455    0.000    0.000    0.000    0.000 
#    0.000    0.000    0.000    0.000    0.000    0.000 
#
# Total GULP energy -61400.062168 kJ/mol
# GULP energy per Si atom -5581.823833 kJ/mol
# Density = 2.298441 g / cm^3
# Si number density = 23.036838 Si / 1000 Ang^3
#
#
#
# Elastic Constant Matrix: (Units=GPa)
#
#
# Indices 1 2 3 4 5 6 
#
# 1 91.9492 20.1464 -7.3393 0.0000 -4.3750 0.0000
# 2 20.1464 125.9350 -14.6770 0.0000 8.1915 0.0000
# 3 -7.3393 -14.6770 101.5016 0.0000 5.6266 0.0000
# 4 0.0000 0.0000 0.0000 34.4471 0.0000 -2.0200
# 5 -4.3750 8.1915 5.6266 0.0000 40.1832 0.0000
# 6 0.0000 0.0000 0.0000 -2.0200 0.0000 -6.8438
#
#
#
# Elastic Compliance Matrix: (Units=1/GPa)
#
#
# Indices 1 2 3 4 5 6 
#
# 1 0.011397 -0.001870 0.000467 0.000000 0.001557 0.000000
# 2 -0.001870 0.008518 0.001214 0.000000 -0.002110 0.000000
# 3 0.000467 0.001214 0.010151 0.000000 -0.001618 0.000000
# 4 0.000000 0.000000 0.000000 0.028536 0.000000 -0.008423
# 5 0.001557 -0.002110 -0.001618 0.000000 0.025712 0.000000
# 6 0.000000 0.000000 0.000000 -0.008423 0.000000 -0.143631
#
#
# Mechanical properties :
#
#
# Convention : Reuss Voigt Hill
#
# Bulk Modulus (GPa) = 33.68368 35.07177 34.37773
# Shear Modulus (GPa) = -101.95198 34.97435 -33.48882
#
# Velocity S-wave (km/s) = -6.65974 3.90063 -3.81689
# Velocity P-wave (km/s) = 6.66954 5.96186 2.11412
#
# Compressibility (1/GPa) = 0.02968797
#
# Stress axis : x y z
#
# Youngs Moduli (GPa) = 87.74510 117.39259 98.51236
#
# Poissons Ratio (x) = 0.21952 -0.04604
# Poissons Ratio (y) = 0.16408 -0.11955
# Poissons Ratio (z) = -0.04101 -0.14246
#
# Static dielectric constant tensor:
#      x y z
#    x 1.942490 0.000000 -0.058880 
#    y 0.000000 1.791960 0.000000 
#    z -0.058880 0.000000 1.818730 
# 
# From -- ./inp_files/5810.got.cif
#   From: 2010.05.17/outbox.cif.g08.bks.cpg/sg8_3_cif.got.tgz:5810.got - 2010.06.03 19:46:02.
