data_PCOD9133423
_publ_section_title
;
Structure prediction by ZEFSAII (Michael W. Deem and Ramdas Pophale) SiO2 
 PCOD9133423
Probable space group: C M
;
_chemical_formula_sum "Si O2"
_cell_formula_units_Z 26
_cell_length_a 10.114667
_cell_length_b 15.502277
_cell_length_c 15.011647
_cell_angle_alpha 90.000000
_cell_angle_beta 150.951358
_cell_angle_gamma 90.000000
_cell_volume 1142.907655
_symmetry_space_group_name_H-M "C M"
_symmetry_group_IT_number 8
_symmetry_cell_setting 'monoclinic'
loop_
_space_group_symop_operation_xyz
x,y,z
x,-y,z
1/2+x,1/2+y,z
1/2+x,1/2-y,z
loop_
_atom_site_type_symbol
_atom_site_label
_atom_site_fract_x
_atom_site_fract_y
_atom_site_fract_z
Si Si1 0.195400 0.500000 0.029871
Si Si2 0.599137 0.248168 0.552750
Si Si3 0.763154 0.000000 0.266773
Si Si4 0.039762 0.000000 0.624428
Si Si5 0.339762 0.859069 0.072493
Si Si6 0.685753 0.839260 0.425476
Si Si7 0.235264 0.401554 0.748740
Si Si8 0.684470 0.173544 0.915935
O O1 0.351717 0.500000 0.216502
O O2 0.259883 0.588656 0.016060
O O3 0.859370 0.500000 0.835124
O O4 0.640678 0.230453 0.474156
O O5 0.341912 0.300123 0.433058
O O6 0.568176 0.155384 0.580938
O O7 0.866099 0.300282 0.742824
O O8 0.562140 0.081657 0.156678
O O9 0.968931 0.000000 0.473968
O O10 0.879666 0.082685 0.568722
O O11 0.404151 0.867538 0.216138
O O12 0.334692 0.761240 0.033654
O O13 0.038329 0.896839 0.886680
O O14 0.148612 0.500000 0.709734
O O15 0.224607 0.351136 0.836377
#
# Coordination Sequence:
#
# PCOD9133423 Si02
#       8
#     2   4   2   2   4   4   4   4
#     4  12  24  41  70  93 134 176 214 270 330 388
#     4  11  24  41  65  96 123 172 211 267 322 388
#     4  10  24  43  65  99 125 172 224 269 326 387
#     4  10  24  42  65 100 127 168 222 273 312 401
#     4  10  25  41  66  91 128 168 213 272 318 395
#     4  11  24  43  66  94 130 164 217 267 330 377
#     4  11  23  42  63  91 129 164 214 266 317 390
#     4  11  24  41  63  96 129 170 215 261 330 393
#
# _framework density 22.748995000000001
#
# number of rings (size 3 to 8) (size 9 to 14) (size 15 to 20)
#    0.000    1.231    4.615    0.000   11.846    1.231 
#    0.000    0.000    1.692    0.000    0.000    0.000 
#    0.000    0.000    0.000    0.000    0.000    0.000 
#
# Total GULP energy -72636.673104 kJ/mol
# GULP energy per Si atom -5587.436393 kJ/mol
# Density = 2.269722 g / cm^3
# Si number density = 22.748995 Si / 1000 Ang^3
#
#
#
# Elastic Constant Matrix: (Units=GPa)
#
#
# Indices 1 2 3 4 5 6 
#
# 1 78.6623 27.7481 -1.0631 0.0005 -15.9673 -0.0003
# 2 27.7481 127.3916 3.8011 0.0008 0.2322 -0.0013
# 3 -1.0631 3.8011 38.4310 -0.0023 -2.4569 -0.0015
# 4 0.0005 0.0008 -0.0023 26.5987 -0.0008 -12.5881
# 5 -15.9673 0.2322 -2.4569 -0.0008 19.9851 -0.0004
# 6 -0.0003 -0.0013 -0.0015 -12.5881 -0.0004 29.4103
#
#
#
# Elastic Compliance Matrix: (Units=1/GPa)
#
#
# Indices 1 2 3 4 5 6 
#
# 1 0.016839 -0.003744 0.001712 0.000001 0.013707 0.000001
# 2 -0.003744 0.008706 -0.001172 0.000000 -0.003236 0.000000
# 3 0.001712 -0.001172 0.026480 0.000004 0.004637 0.000003
# 4 0.000001 0.000000 0.000004 0.047146 0.000003 0.020179
# 5 0.013707 -0.003236 0.004637 0.000003 0.061597 0.000002
# 6 0.000001 0.000000 0.000003 0.020179 0.000002 0.042639
#
#
# Mechanical properties :
#
#
# Convention : Reuss Voigt Hill
#
# Bulk Modulus (GPa) = 21.92058 33.93970 27.93014
# Shear Modulus (GPa) = 22.22040 29.46543 25.84291
#
# Velocity S-wave (km/s) = 3.12871 3.60285 3.37412
# Velocity P-wave (km/s) = 4.76535 5.67970 5.24250
#
# Compressibility (1/GPa) = 0.04561922
#
# Stress axis : x y z
#
# Youngs Moduli (GPa) = 59.38680 114.86135 37.76387
#
# Poissons Ratio (x) = 0.43002 -0.06467
# Poissons Ratio (y) = 0.22234 0.04424
# Poissons Ratio (z) = -0.10169 0.13457
#
# Static dielectric constant tensor:
#      x y z
#    x 1.834120 0.000000 -0.027490 
#    y 0.000000 1.851260 0.000000 
#    z -0.027490 0.000000 1.869020 
# 
# From -- ./inp_files/8313.got.cif
#   From: 2010.05.17/outbox.cif.g08.bks.cpg/sg8_5_cif.got.tgz:8313.got - 2010.06.03 19:46:02.
