data_PCOD9133489
_publ_section_title
;
Structure prediction by ZEFSAII (Michael W. Deem and Ramdas Pophale) SiO2 
 PCOD9133489
Probable space group: C M
;
_chemical_formula_sum "Si O2"
_cell_formula_units_Z 32
_cell_length_a 20.651698
_cell_length_b 8.552066
_cell_length_c 25.468739
_cell_angle_alpha 90.000000
_cell_angle_beta 156.799490
_cell_angle_gamma 90.000000
_cell_volume 1772.047901
_symmetry_space_group_name_H-M "C M"
_symmetry_group_IT_number 8
_symmetry_cell_setting 'monoclinic'
loop_
_space_group_symop_operation_xyz
x,y,z
x,-y,z
1/2+x,1/2+y,z
1/2+x,1/2-y,z
loop_
_atom_site_type_symbol
_atom_site_label
_atom_site_fract_x
_atom_site_fract_y
_atom_site_fract_z
Si Si1 0.761160 0.314798 0.708300
Si Si2 0.969529 0.315487 0.554634
Si Si3 0.474318 0.313668 0.053753
Si Si4 0.611488 0.813232 0.264091
Si Si5 0.474361 0.688008 0.776776
Si Si6 0.788242 0.310586 0.080712
Si Si7 0.108851 0.813527 0.766814
Si Si8 0.059416 0.810924 0.001251
O O1 0.744806 0.500000 0.699203
O O2 0.591553 0.236020 0.598979
O O3 0.829903 0.264598 0.702763
O O4 0.900150 0.258569 0.853413
O O5 0.983269 0.500000 0.572476
O O6 0.784072 0.267021 0.404102
O O7 0.031516 0.231714 0.653772
O O8 0.491984 0.500000 0.074242
O O9 0.282822 0.271129 0.904380
O O10 0.548877 0.226094 0.159079
O O11 0.559804 0.267950 0.062428
O O12 0.466232 0.756296 0.194881
O O13 0.629880 0.000000 0.283536
O O14 0.459232 0.500000 0.770657
O O15 0.491349 0.727702 0.728352
O O16 0.646759 0.733889 0.933377
O O17 0.794502 0.500000 0.084717
O O18 0.717403 0.263023 0.084538
O O19 0.137815 0.000000 0.790694
O O20 0.044788 0.000000 0.987276
#
# Coordination Sequence:
#
# PCOD9133489 Si02
#       8
#     4   4   4   4   4   4   4   4
#     4  11  21  34  56  86 116 150 193 241 290 345
#     4  12  25  41  58  82 118 158 196 244 298 353
#     4  11  21  34  57  88 120 153 191 241 289 339
#     4  11  22  39  60  83 114 155 198 244 289 348
#     4   9  18  35  58  85 116 150 187 236 292 345
#     4   8  15  32  56  81 109 146 189 230 281 339
#     4  11  21  37  61  88 116 152 198 243 288 344
#     4   9  18  34  56  83 115 152 190 233 285 341
#
# _framework density 18.058202999999999
#
# number of rings (size 3 to 8) (size 9 to 14) (size 15 to 20)
#    0.000    1.750    2.500    4.125    0.000    1.500 
#    0.000    1.875    0.000    6.000    0.000    0.000 
#    0.000    0.000    0.000    0.000    0.000    0.000 
#
# Total GULP energy -89332.679111 kJ/mol
# GULP energy per Si atom -5583.292444 kJ/mol
# Density = 1.801710 g / cm^3
# Si number density = 18.058203 Si / 1000 Ang^3
#
#
#
# Elastic Constant Matrix: (Units=GPa)
#
#
# Indices 1 2 3 4 5 6 
#
# 1 111.9633 10.5358 30.9255 0.0044 25.9242 -0.0014
# 2 10.5358 30.7184 -5.8896 0.0013 8.9105 -0.0011
# 3 30.9255 -5.8896 69.6332 0.0033 20.4144 -0.0021
# 4 0.0044 0.0013 0.0033 27.6494 0.0005 -2.2114
# 5 25.9242 8.9105 20.4144 0.0005 29.4880 -0.0001
# 6 -0.0014 -0.0011 -0.0021 -2.2114 -0.0001 22.1944
#
#
#
# Elastic Compliance Matrix: (Units=1/GPa)
#
#
# Indices 1 2 3 4 5 6 
#
# 1 0.011773 -0.002559 -0.003309 -0.000001 -0.007286 0.000000
# 2 -0.002559 0.039917 0.009271 -0.000002 -0.016230 0.000002
# 3 -0.003309 0.009271 0.020806 -0.000002 -0.014296 0.000002
# 4 -0.000001 -0.000002 -0.000002 0.036458 0.000002 0.003633
# 5 -0.007286 -0.016230 -0.014296 0.000002 0.055119 -0.000002
# 6 0.000000 0.000002 0.000002 0.003633 -0.000002 0.045418
#
#
# Mechanical properties :
#
#
# Convention : Reuss Voigt Hill
#
# Bulk Modulus (GPa) = 12.61002 31.49536 22.05269
# Shear Modulus (GPa) = 21.82265 27.64925 24.73595
#
# Velocity S-wave (km/s) = 3.48007 3.91720 3.70508
# Velocity P-wave (km/s) = 4.81102 6.15939 5.52649
#
# Compressibility (1/GPa) = 0.07930199
#
# Stress axis : x y z
#
# Youngs Moduli (GPa) = 84.93717 25.05210 48.06321
#
# Poissons Ratio (x) = 0.06411 0.15904
# Poissons Ratio (y) = 0.21735 -0.44559
# Poissons Ratio (z) = 0.28106 -0.23225
#
# Static dielectric constant tensor:
#      x y z
#    x 1.639460 0.000000 0.019440 
#    y 0.000000 1.610550 0.000000 
#    z 0.019440 0.000000 1.578500 
# 
# From -- ./inp_files/31317.got.cif
#   From: 2010.05.17/outbox.cif.g08.bks.cpg/sg8_16_cif.got.tgz:31317.got - 2010.06.03 19:46:02.
