data_PCOD9133351
_publ_section_title
;
Structure prediction by ZEFSAII (Michael W. Deem and Ramdas Pophale) SiO2 
 PCOD9133351
Probable space group: C M
;
_chemical_formula_sum "Si O2"
_cell_formula_units_Z 20
_cell_length_a 12.043612
_cell_length_b 15.029182
_cell_length_c 9.888546
_cell_angle_alpha 90.000000
_cell_angle_beta 145.189671
_cell_angle_gamma 90.000000
_cell_volume 1021.775209
_symmetry_space_group_name_H-M "C M"
_symmetry_group_IT_number 8
_symmetry_cell_setting 'monoclinic'
loop_
_space_group_symop_operation_xyz
x,y,z
x,-y,z
1/2+x,1/2+y,z
1/2+x,1/2-y,z
loop_
_atom_site_type_symbol
_atom_site_label
_atom_site_fract_x
_atom_site_fract_y
_atom_site_fract_z
Si Si1 0.206680 0.896265 0.713030
Si Si2 0.558658 0.898349 0.266089
Si Si3 0.924305 0.399852 0.430653
Si Si4 0.558674 0.898350 0.863931
Si Si5 0.810824 0.209047 0.317166
O O1 0.031764 0.826558 0.538107
O O2 0.348468 0.884692 0.984584
O O3 0.348486 0.884699 0.725073
O O4 0.138337 0.000000 0.644691
O O5 0.544542 0.890905 0.412513
O O6 0.706291 0.832070 0.343261
O O7 0.615628 0.000000 0.289463
O O8 0.706302 0.832067 0.082014
O O9 0.838147 0.500000 0.344497
O O10 0.786695 0.314708 0.293042
O O11 0.544542 0.890903 0.689261
O O12 0.615661 0.000000 0.954505
#
# Coordination Sequence:
#
# PCOD9133351 Si02
#       5
#     4   4   4   4   4
#     4   9  18  35  63  91 115 150 200 243 285 346
#     4   9  20  40  60  87 123 152 190 248 295 339
#     4  10  23  40  58  87 127 154 185 250 304 331
#     4   9  20  40  60  87 123 152 190 248 295 339
#     4  11  21  35  67  84 114 160 207 225 287 365
#
# _framework density 19.573778999999998
#
# number of rings (size 3 to 8) (size 9 to 14) (size 15 to 20)
#    0.000    2.400    0.000    3.000    5.600    0.000 
#    0.000    2.000    0.000   12.000    0.000    0.000 
#    0.000    0.000    0.000    0.000    0.000    0.000 
#
# Total GULP energy -55789.726380 kJ/mol
# GULP energy per Si atom -5578.972638 kJ/mol
# Density = 1.952923 g / cm^3
# Si number density = 19.573779 Si / 1000 Ang^3
#
#
#
# Elastic Constant Matrix: (Units=GPa)
#
#
# Indices 1 2 3 4 5 6 
#
# 1 64.7073 53.5977 57.3809 0.0000 -17.1065 0.0000
# 2 53.5977 158.2627 53.6706 0.0000 -0.1193 0.0000
# 3 57.3809 53.6706 89.7071 0.0000 -32.4505 0.0000
# 4 0.0000 0.0000 0.0000 15.7164 0.0000 4.5727
# 5 -17.1065 -0.1193 -32.4505 0.0000 38.4201 0.0000
# 6 0.0000 0.0000 0.0000 4.5727 0.0000 18.0176
#
#
#
# Elastic Compliance Matrix: (Units=1/GPa)
#
#
# Indices 1 2 3 4 5 6 
#
# 1 0.039936 -0.005918 -0.022432 0.000000 -0.001184 0.000000
# 2 -0.005918 0.009790 -0.004340 0.000000 -0.006270 0.000000
# 3 -0.022432 -0.004340 0.035242 0.000000 0.019765 0.000000
# 4 0.000000 0.000000 0.000000 0.068701 0.000000 -0.017436
# 5 -0.001184 -0.006270 0.019765 0.000000 0.042175 0.000000
# 6 0.000000 0.000000 0.000000 -0.017436 0.000000 0.059926
#
#
# Mechanical properties :
#
#
# Convention : Reuss Voigt Hill
#
# Bulk Modulus (GPa) = 51.05282 71.33061 61.19171
# Shear Modulus (GPa) = 15.25883 24.29936 19.77909
#
# Velocity S-wave (km/s) = 2.79508 3.52721 3.18227
# Velocity P-wave (km/s) = 6.04611 7.28761 6.69570
#
# Compressibility (1/GPa) = 0.01958756
#
# Stress axis : x y z
#
# Youngs Moduli (GPa) = 25.04025 102.14617 28.37520
#
# Poissons Ratio (x) = 0.60454 0.63651
# Poissons Ratio (y) = 0.14820 0.12314
# Poissons Ratio (z) = 0.56170 0.44328
#
# Static dielectric constant tensor:
#      x y z
#    x 1.665550 0.000000 -0.017030 
#    y 0.000000 1.721200 0.000000 
#    z -0.017030 0.000000 1.674130 
# 
# From -- ./inp_files/9999.got.cif
#   From: 2010.05.17/outbox.cif.g08.bks.cpg/sg8_5_cif.got.tgz:9999.got - 2010.06.03 19:46:02.
