data_PCOD9133603
_publ_section_title
;
Structure prediction by ZEFSAII (Michael W. Deem and Ramdas Pophale) SiO2 
 PCOD9133603
Probable space group: C M
;
_chemical_formula_sum "Si O2"
_cell_formula_units_Z 20
_cell_length_a 9.096804
_cell_length_b 17.351196
_cell_length_c 5.354784
_cell_angle_alpha 90.000000
_cell_angle_beta 107.759077
_cell_angle_gamma 90.000000
_cell_volume 804.925436
_symmetry_space_group_name_H-M "C M"
_symmetry_group_IT_number 8
_symmetry_cell_setting 'monoclinic'
loop_
_space_group_symop_operation_xyz
x,y,z
x,-y,z
1/2+x,1/2+y,z
1/2+x,1/2-y,z
loop_
_atom_site_type_symbol
_atom_site_label
_atom_site_fract_x
_atom_site_fract_y
_atom_site_fract_z
Si Si1 0.951820 0.153493 0.263890
Si Si2 0.535562 0.157754 0.598325
Si Si3 0.282004 0.214575 0.850429
Si Si4 0.741473 0.593016 0.205634
Si Si5 0.339651 0.416978 0.708295
O O1 0.880465 0.138751 0.498190
O O2 0.134395 0.133921 0.359133
O O3 0.868558 0.229858 0.104343
O O4 0.913082 0.095257 0.016581
O O5 0.423208 0.183211 0.761446
O O6 0.653201 0.231357 0.648054
O O7 0.417015 0.121427 0.339463
O O8 0.660471 0.090872 0.684750
O O9 0.199778 0.142016 0.937888
O O10 0.731614 0.500000 0.192373
O O11 0.383215 0.500000 0.631168
#
# Coordination Sequence:
#
# PCOD9133603 Si02
#       5
#     4   4   4   4   4
#     4  11  27  50  81 115 160 215 267 324 401 490
#     4  11  28  46  76 111 155 208 264 328 390 481
#     4  11  27  50  76 112 156 213 266 325 399 487
#     4  12  28  47  78 119 155 204 268 339 398 465
#     4  11  25  49  78 117 162 210 261 332 409 475
#
# _framework density 24.847023
#
# number of rings (size 3 to 8) (size 9 to 14) (size 15 to 20)
#    0.000    0.800    2.000    2.400   16.800    1.600 
#    0.000    0.000    0.000    0.000    0.000    0.000 
#    0.000    0.000    0.000    0.000    0.000    0.000 
#
# Total GULP energy -55744.286078 kJ/mol
# GULP energy per Si atom -5574.428608 kJ/mol
# Density = 2.479047 g / cm^3
# Si number density = 24.847023 Si / 1000 Ang^3
#
#
#
# Elastic Constant Matrix: (Units=GPa)
#
#
# Indices 1 2 3 4 5 6 
#
# 1 139.3503 26.9847 39.6778 0.0000 -1.4232 0.0000
# 2 26.9847 175.0422 39.5753 0.0000 -9.3296 0.0000
# 3 39.6778 39.5753 98.7661 0.0000 -6.6974 0.0000
# 4 0.0000 0.0000 0.0000 29.0396 0.0000 -8.6415
# 5 -1.4232 -9.3296 -6.6974 0.0000 52.6841 0.0000
# 6 0.0000 0.0000 0.0000 -8.6415 0.0000 10.8319
#
#
#
# Elastic Compliance Matrix: (Units=1/GPa)
#
#
# Indices 1 2 3 4 5 6 
#
# 1 0.008158 -0.000579 -0.003064 0.000000 -0.000272 0.000000
# 2 -0.000579 0.006357 -0.002259 0.000000 0.000823 0.000000
# 3 -0.003064 -0.002259 0.012334 0.000000 0.001085 0.000000
# 4 0.000000 0.000000 0.000000 0.045156 0.000000 0.036024
# 5 -0.000272 0.000823 0.001085 0.000000 0.019257 0.000000
# 6 0.000000 0.000000 0.000000 0.036024 0.000000 0.121059
#
#
# Mechanical properties :
#
#
# Convention : Reuss Voigt Hill
#
# Bulk Modulus (GPa) = 66.46381 69.51490 67.98936
# Shear Modulus (GPa) = 21.82078 38.97253 30.39665
#
# Velocity S-wave (km/s) = 2.96667 3.96472 3.50144
# Velocity P-wave (km/s) = 6.20823 6.99976 6.61584
#
# Compressibility (1/GPa) = 0.01504578
#
# Stress axis : x y z
#
# Youngs Moduli (GPa) = 122.58064 157.31361 81.07515
#
# Poissons Ratio (x) = 0.09116 0.24838
# Poissons Ratio (y) = 0.07103 0.18311
# Poissons Ratio (z) = 0.37553 0.35530
#
# Static dielectric constant tensor:
#      x y z
#    x 2.061130 0.000000 0.148210 
#    y 0.000000 1.985240 0.000000 
#    z 0.148210 0.000000 2.072120 
# 
# From -- ./inp_files/1192.got.cif
#   From: 2010.05.17/outbox.cif.g08.bks.cpg/sg8_1_cif.got.tgz:1192.got - 2010.06.03 19:46:02.
