data_PCOD9133932
_publ_section_title
;
Structure prediction by ZEFSAII (Michael W. Deem and Ramdas Pophale) SiO2 
 PCOD9133932
Probable space group: C C
;
_chemical_formula_sum "Si O2"
_cell_formula_units_Z 28
_cell_length_a 18.158829
_cell_length_b 13.156427
_cell_length_c 5.581300
_cell_angle_alpha 90.000000
_cell_angle_beta 72.014534
_cell_angle_gamma 90.000000
_cell_volume 1268.245328
_symmetry_space_group_name_H-M "C C"
_symmetry_group_IT_number 9
_symmetry_cell_setting 'monoclinic'
loop_
_space_group_symop_operation_xyz
x,y,z
x,-y,1/2+z
1/2+x,1/2+y,z
1/2+x,1/2-y,1/2+z
loop_
_atom_site_type_symbol
_atom_site_label
_atom_site_fract_x
_atom_site_fract_y
_atom_site_fract_z
Si Si1 0.211470 0.605440 0.590380
Si Si2 0.437478 0.561985 0.919373
Si Si3 0.061506 0.323253 0.393234
Si Si4 0.879730 0.628452 0.598893
Si Si5 0.539768 0.747873 0.916011
Si Si6 0.768934 0.126028 0.032664
Si Si7 0.380395 0.883152 0.598147
O O1 0.120918 0.590208 0.747113
O O2 0.224611 0.657944 0.319862
O O3 0.250739 0.495547 0.530646
O O4 0.247071 0.661216 0.787189
O O5 0.436901 0.505979 0.661880
O O6 0.508739 0.638022 0.872688
O O7 0.359835 0.629786 0.997926
O O8 0.084867 0.287329 0.635881
O O9 0.971182 0.351694 0.503661
O O10 0.070295 0.246311 0.158597
O O11 0.965832 0.675444 0.509996
O O12 0.882194 0.505634 0.597618
O O13 0.842642 0.654363 0.381806
O O14 0.844117 0.657013 0.889218
#
# Coordination Sequence:
#
# PCOD9133932 Si02
#       7
#     4   4   4   4   4   4   4
#     4  10  18  30  49  71 108 129 178 220 251 330
#     4  12  21  38  56  71 103 149 201 236 253 316
#     4  10  19  31  45  75 106 142 168 208 278 333
#     4   8  14  24  36  58  84 122 162 192 232 300
#     4  10  21  32  47  71 102 142 178 220 272 313
#     4  10  19  32  48  78  97 144 194 209 257 308
#     4   8  14  23  39  56  92 130 159 175 231 322
#
# _framework density 22.077749000000001
#
# number of rings (size 3 to 8) (size 9 to 14) (size 15 to 20)
#    0.000    2.286    2.857    1.714    0.000    9.143 
#    0.000    0.000    0.000    0.000    0.000    0.000 
#    0.000    0.000  194.286    0.000    0.000    0.000 
#
# Total GULP energy -77940.051865 kJ/mol
# GULP energy per Si atom -5567.146562 kJ/mol
# Density = 2.202750 g / cm^3
# Si number density = 22.077749 Si / 1000 Ang^3
#
#
#
# Elastic Constant Matrix: (Units=GPa)
#
#
# Indices 1 2 3 4 5 6 
#
# 1 26.8440 5.6264 23.8780 0.0000 21.2143 0.0000
# 2 5.6264 44.5859 21.6674 0.0000 5.6471 0.0000
# 3 23.8780 21.6674 213.3922 0.0000 65.7538 0.0000
# 4 0.0000 0.0000 0.0000 15.0333 0.0000 1.9290
# 5 21.2143 5.6471 65.7538 0.0000 42.3746 0.0000
# 6 0.0000 0.0000 0.0000 1.9290 0.0000 -2.5262
#
#
#
# Elastic Compliance Matrix: (Units=1/GPa)
#
#
# Indices 1 2 3 4 5 6 
#
# 1 0.066051 -0.006001 0.006058 0.000000 -0.041668 0.000000
# 2 -0.006001 0.024165 -0.003287 0.000000 0.004886 0.000000
# 3 0.006058 -0.003287 0.009853 0.000000 -0.017883 0.000000
# 4 0.000000 0.000000 0.000000 0.060583 0.000000 0.046260
# 5 -0.041668 0.004886 -0.017883 0.000000 0.071559 0.000000
# 6 0.000000 0.000000 0.000000 0.046260 0.000000 -0.360522
#
#
# Mechanical properties :
#
#
# Convention : Reuss Voigt Hill
#
# Bulk Modulus (GPa) = 10.68304 43.01841 26.85073
# Shear Modulus (GPa) = -55.15869 26.55302 -14.30283
#
# Velocity S-wave (km/s) = -5.00381 3.47177 -2.54803
# Velocity P-wave (km/s) = 5.34179 5.96642 1.87928
#
# Compressibility (1/GPa) = 0.09360627
#
# Stress axis : x y z
#
# Youngs Moduli (GPa) = 15.13979 41.38257 101.49558
#
# Poissons Ratio (x) = 0.24836 -0.61484
# Poissons Ratio (y) = 0.09086 0.33367
# Poissons Ratio (z) = -0.09171 0.13604
#
# Static dielectric constant tensor:
#      x y z
#    x 1.830160 0.000000 0.067640 
#    y 0.000000 1.801990 0.000000 
#    z 0.067640 0.000000 1.917570 
# 
# From -- ./inp_files/2901.got.cif
#   From: 2010.05.17/outbox.cif.g08.bks.cpg/sg9_2_cif.got.tgz:2901.got - 2010.06.03 20:04:27.
