data_PCOD9133888
_publ_section_title
;
Structure prediction by ZEFSAII (Michael W. Deem and Ramdas Pophale) SiO2 
 PCOD9133888
Probable space group: C C
;
_chemical_formula_sum "Si O2"
_cell_formula_units_Z 28
_cell_length_a 12.468249
_cell_length_b 15.112752
_cell_length_c 8.034590
_cell_angle_alpha 90.000000
_cell_angle_beta 131.706501
_cell_angle_gamma 90.000000
_cell_volume 1130.261746
_symmetry_space_group_name_H-M "C C"
_symmetry_group_IT_number 9
_symmetry_cell_setting 'monoclinic'
loop_
_space_group_symop_operation_xyz
x,y,z
x,-y,1/2+z
1/2+x,1/2+y,z
1/2+x,1/2-y,1/2+z
loop_
_atom_site_type_symbol
_atom_site_label
_atom_site_fract_x
_atom_site_fract_y
_atom_site_fract_z
Si Si1 0.464950 0.933898 0.111140
Si Si2 0.795037 0.288173 0.084616
Si Si3 0.566638 0.415830 0.912429
Si Si4 0.779772 0.430194 0.613912
Si Si5 0.766193 0.908717 0.529986
Si Si6 0.528568 0.311699 0.214795
Si Si7 0.731923 0.178739 0.333149
O O1 0.633334 0.949546 0.297681
O O2 0.374076 0.019376 0.072142
O O3 0.430626 0.850616 0.196964
O O4 0.396856 0.902284 0.869034
O O5 0.657789 0.347767 0.894136
O O6 0.793771 0.192730 0.998392
O O7 0.778178 0.262380 0.261060
O O8 0.422185 0.452940 0.681232
O O9 0.676043 0.491621 0.075406
O O10 0.521006 0.359125 0.025252
O O11 0.662381 0.357931 0.443487
O O12 0.723373 0.896290 0.681596
O O13 0.581166 0.210287 0.252040
O O14 0.363669 0.327004 0.099108
#
# Coordination Sequence:
#
# PCOD9133888 Si02
#       7
#     4   4   4   4   4   4   4
#     4  11  21  37  54  80 107 146 176 215 265 316
#     4   8  16  31  59  78 102 132 174 220 263 306
#     4   9  17  34  55  81 101 143 177 214 259 318
#     4  11  23  37  54  73 116 147 174 207 267 331
#     4   9  17  33  58  83 102 133 186 224 255 308
#     4  10  17  36  55  79 102 139 180 213 266 310
#     4   8  17  32  61  80 100 132 179 225 259 311
#
# _framework density 24.773022000000001
#
# number of rings (size 3 to 8) (size 9 to 14) (size 15 to 20)
#    0.857    1.714    1.429    1.714    0.000    0.000 
#    7.714    0.000    0.000    0.000    0.000    0.000 
#    0.000    0.000    0.000    0.000    0.000    0.000 
#
# Total GULP energy -78066.334258 kJ/mol
# GULP energy per Si atom -5576.166733 kJ/mol
# Density = 2.471664 g / cm^3
# Si number density = 24.773022 Si / 1000 Ang^3
#
#
#
# Elastic Constant Matrix: (Units=GPa)
#
#
# Indices 1 2 3 4 5 6 
#
# 1 29.7151 15.7570 33.8023 0.0000 20.8476 0.0000
# 2 15.7570 57.8750 11.7536 0.0000 3.6013 0.0000
# 3 33.8023 11.7536 172.3414 0.0000 53.0399 0.0000
# 4 0.0000 0.0000 0.0000 22.0958 0.0000 -3.7506
# 5 20.8476 3.6013 53.0399 0.0000 38.9166 0.0000
# 6 0.0000 0.0000 0.0000 -3.7506 0.0000 15.7208
#
#
#
# Elastic Compliance Matrix: (Units=1/GPa)
#
#
# Indices 1 2 3 4 5 6 
#
# 1 0.066300 -0.015635 -0.002501 0.000000 -0.030661 0.000000
# 2 -0.015635 0.021208 -0.000609 0.000000 0.007243 0.000000
# 3 -0.002501 -0.000609 0.010171 0.000000 -0.012466 0.000000
# 4 0.000000 0.000000 0.000000 0.047168 0.000000 0.011253
# 5 -0.030661 0.007243 -0.012466 0.000000 0.058441 0.000000
# 6 0.000000 0.000000 0.000000 0.011253 0.000000 0.066295
#
#
# Mechanical properties :
#
#
# Convention : Reuss Voigt Hill
#
# Bulk Modulus (GPa) = 16.61417 42.50635 29.56026
# Shear Modulus (GPa) = 15.28413 28.58789 21.93601
#
# Velocity S-wave (km/s) = 2.48658 3.40073 2.97893
# Velocity P-wave (km/s) = 3.86849 5.71100 4.87754
#
# Compressibility (1/GPa) = 0.06018958
#
# Stress axis : x y z
#
# Youngs Moduli (GPa) = 15.08287 47.15125 98.31777
#
# Poissons Ratio (x) = 0.73721 0.24592
# Poissons Ratio (y) = 0.23582 0.05987
# Poissons Ratio (z) = 0.03773 0.02871
#
# Static dielectric constant tensor:
#      x y z
#    x 2.033870 0.000000 0.006980 
#    y 0.000000 2.022240 0.000000 
#    z 0.006980 0.000000 1.996900 
# 
# From -- ./inp_files/5655.got.cif
#   From: 2010.05.17/outbox.cif.g08.bks.cpg/sg9_3_cif.got.tgz:5655.got - 2010.06.03 20:04:27.
