data_PCOD9133059
_publ_section_title
;
Structure prediction by ZEFSAII (Michael W. Deem and Ramdas Pophale) SiO2 
 PCOD9133059
Probable space group: C M
;
_chemical_formula_sum "Si O2"
_cell_formula_units_Z 26
_cell_length_a 24.595377
_cell_length_b 7.689311
_cell_length_c 7.302372
_cell_angle_alpha 90.000000
_cell_angle_beta 124.922982
_cell_angle_gamma 90.000000
_cell_volume 1132.341880
_symmetry_space_group_name_H-M "C M"
_symmetry_group_IT_number 8
_symmetry_cell_setting 'monoclinic'
loop_
_space_group_symop_operation_xyz
x,y,z
x,-y,z
1/2+x,1/2+y,z
1/2+x,1/2-y,z
loop_
_atom_site_type_symbol
_atom_site_label
_atom_site_fract_x
_atom_site_fract_y
_atom_site_fract_z
Si Si1 0.338780 0.205242 0.686750
Si Si2 0.588468 0.288770 0.358048
Si Si3 0.879236 0.799941 0.392590
Si Si4 0.445668 0.294735 0.169314
Si Si5 0.287076 0.000000 0.043488
Si Si6 0.695688 0.192262 0.841954
Si Si7 0.196694 0.788020 0.268386
O O1 0.387314 0.281444 0.624577
O O2 0.241656 0.152412 0.858919
O O3 0.265250 0.273307 0.497000
O O4 0.333992 0.000000 0.656835
O O5 0.587580 0.500000 0.364894
O O6 0.512812 0.224238 0.211346
O O7 0.625330 0.219422 0.608943
O O8 0.634423 0.240936 0.274548
O O9 0.941122 0.764738 0.378505
O O10 0.826303 0.654096 0.234051
O O11 0.858387 0.000000 0.316147
O O12 0.445552 0.500000 0.138292
O O13 0.376773 0.229730 0.950625
O O14 0.720686 0.000000 0.846265
O O15 0.690796 0.216370 0.051742
O O16 0.199016 0.000000 0.252555
#
# Coordination Sequence:
#
# PCOD9133059 Si02
#       7
#     4   4   4   4   2   4   4
#     4  11  22  38  65  98 130 168 217 275 329 384
#     4  10  23  45  67  93 135 180 221 268 325 389
#     4  11  23  42  68  98 135 171 217 269 328 390
#     4  10  25  43  64  96 133 179 225 267 322 391
#     4  12  22  42  66 104 132 166 218 266 334 392
#     4  12  24  41  68  99 135 170 216 271 329 392
#     4  10  21  40  68  96 127 171 217 272 332 383
#
# _framework density 22.961262000000001
#
# number of rings (size 3 to 8) (size 9 to 14) (size 15 to 20)
#    0.000    1.231    3.846    0.923    3.231    3.077 
#    0.000    6.154    0.000    0.000    0.000    0.000 
#    0.000    0.000    0.000    0.000    0.000    0.000 
#
# Total GULP energy -72409.094124 kJ/mol
# GULP energy per Si atom -5569.930317 kJ/mol
# Density = 2.290900 g / cm^3
# Si number density = 22.961262 Si / 1000 Ang^3
#
#
#
# Elastic Constant Matrix: (Units=GPa)
#
#
# Indices 1 2 3 4 5 6 
#
# 1 107.2098 27.1742 31.5430 0.0000 -9.2420 0.0000
# 2 27.1742 117.4732 4.4925 0.0000 -5.0282 0.0000
# 3 31.5430 4.4925 90.2598 0.0000 -11.6905 0.0000
# 4 0.0000 0.0000 0.0000 35.5903 0.0000 4.8685
# 5 -9.2420 -5.0282 -11.6905 0.0000 28.7091 0.0000
# 6 0.0000 0.0000 0.0000 4.8685 0.0000 -2.1863
#
#
#
# Elastic Compliance Matrix: (Units=1/GPa)
#
#
# Indices 1 2 3 4 5 6 
#
# 1 0.011118 -0.002363 -0.003545 0.000000 0.001722 0.000000
# 2 -0.002363 0.009084 0.000508 0.000000 0.001037 0.000000
# 3 -0.003545 0.000508 0.012833 0.000000 0.004174 0.000000
# 4 0.000000 0.000000 0.000000 0.021537 0.000000 0.047960
# 5 0.001722 0.001037 0.004174 0.000000 0.037268 0.000000
# 6 0.000000 0.000000 0.000000 0.047960 0.000000 -0.350599
#
#
# Mechanical properties :
#
#
# Convention : Reuss Voigt Hill
#
# Bulk Modulus (GPa) = 44.97178 49.04025 47.00602
# Shear Modulus (GPa) = -20.78578 29.20483 4.20952
#
# Velocity S-wave (km/s) = -3.01201 3.57026 1.35547
# Velocity P-wave (km/s) = 2.74448 6.19677 4.79229
#
# Compressibility (1/GPa) = 0.02223617
#
# Stress axis : x y z
#
# Youngs Moduli (GPa) = 89.94702 110.08301 77.92302
#
# Poissons Ratio (x) = 0.26007 0.27621
# Poissons Ratio (y) = 0.21250 -0.03957
# Poissons Ratio (z) = 0.31883 -0.05590
#
# Static dielectric constant tensor:
#      x y z
#    x 1.935140 0.000000 -0.058650 
#    y 0.000000 1.861940 0.000000 
#    z -0.058650 0.000000 1.871910 
# 
# From -- ./inp_files/6194.got.cif
#   From: 2010.05.17/outbox.cif.g08.bks.cpg/sg8_4_cif.got.tgz:6194.got - 2010.06.03 19:46:02.
