data_PCOD9133810
_publ_section_title
;
Structure prediction by ZEFSAII (Michael W. Deem and Ramdas Pophale) SiO2 
 PCOD9133810
Probable space group: C C
;
_chemical_formula_sum "Si O2"
_cell_formula_units_Z 32
_cell_length_a 13.230126
_cell_length_b 8.981693
_cell_length_c 11.458802
_cell_angle_alpha 90.000000
_cell_angle_beta 59.556524
_cell_angle_gamma 90.000000
_cell_volume 1173.907505
_symmetry_space_group_name_H-M "C C"
_symmetry_group_IT_number 9
_symmetry_cell_setting 'monoclinic'
loop_
_space_group_symop_operation_xyz
x,y,z
x,-y,1/2+z
1/2+x,1/2+y,z
1/2+x,1/2-y,1/2+z
loop_
_atom_site_type_symbol
_atom_site_label
_atom_site_fract_x
_atom_site_fract_y
_atom_site_fract_z
Si Si1 0.585450 0.196057 0.074730
Si Si2 0.401556 0.349376 0.675813
Si Si3 0.346028 0.003026 0.682091
Si Si4 0.075071 0.714765 0.724028
Si Si5 0.368986 0.020788 0.417444
Si Si6 0.722014 0.058640 0.452545
Si Si7 0.075032 0.728525 0.342590
Si Si8 0.531974 0.452876 0.951225
O O1 0.472504 0.087351 0.115393
O O2 0.620672 0.198558 0.188065
O O3 0.557239 0.360628 0.053155
O O4 0.694484 0.114389 0.953314
O O5 0.533475 0.311118 0.637048
O O6 0.348512 0.406508 0.828961
O O7 0.407692 0.467811 0.567466
O O8 0.351300 0.183767 0.682581
O O9 0.305996 0.966453 0.572984
O O10 0.296992 0.961454 0.839600
O O11 0.182412 0.624281 0.601324
O O12 0.973068 0.595901 0.820891
O O13 0.070703 0.825315 0.835719
O O14 0.441361 0.168894 0.408605
O O15 0.641102 0.132567 0.399534
O O16 0.088012 0.899800 0.365078
#
# Coordination Sequence:
#
# PCOD9133810 Si02
#       8
#     4   4   4   4   4   4   4   4
#     4  11  22  39  74  92 132 184 225 273 360 420
#     4  11  24  41  67 102 135 174 236 288 338 421
#     4  10  18  38  65  96 129 179 224 271 350 411
#     4  11  21  42  67  94 135 179 223 281 357 411
#     4  10  16  36  68  91 123 182 221 263 344 425
#     4  12  23  44  69  98 134 188 230 280 352 426
#     4  11  20  38  65  95 131 172 228 277 345 406
#     4  12  22  40  69  98 133 176 227 291 346 406
#
# _framework density 27.259387
#
# number of rings (size 3 to 8) (size 9 to 14) (size 15 to 20)
#    0.000    1.000    8.750    0.750    0.000    1.000 
#    0.000    3.750    0.000    0.000    0.000    0.000 
#    0.000    0.000    0.000    0.000    0.000    0.000 
#
# Total GULP energy -89255.629053 kJ/mol
# GULP energy per Si atom -5578.476816 kJ/mol
# Density = 2.719734 g / cm^3
# Si number density = 27.259387 Si / 1000 Ang^3
#
#
#
# Elastic Constant Matrix: (Units=GPa)
#
#
# Indices 1 2 3 4 5 6 
#
# 1 60.0372 26.9286 29.0678 0.0000 6.1775 0.0000
# 2 26.9286 179.1917 29.3897 0.0000 -10.2835 0.0000
# 3 29.0678 29.3897 138.4539 0.0000 15.0289 0.0000
# 4 0.0000 0.0000 0.0000 48.5636 0.0000 6.3015
# 5 6.1775 -10.2835 15.0289 0.0000 37.5435 0.0000
# 6 0.0000 0.0000 0.0000 6.3015 0.0000 35.0850
#
#
#
# Elastic Compliance Matrix: (Units=1/GPa)
#
#
# Indices 1 2 3 4 5 6 
#
# 1 0.019675 -0.002565 -0.003302 0.000000 -0.002618 0.000000
# 2 -0.002565 0.006291 -0.001076 0.000000 0.002576 0.000000
# 3 -0.003302 -0.001076 0.008486 0.000000 -0.003149 0.000000
# 4 0.000000 0.000000 0.000000 0.021083 0.000000 -0.003787
# 5 -0.002618 0.002576 -0.003149 0.000000 0.029033 0.000000
# 6 0.000000 0.000000 0.000000 -0.003787 0.000000 0.029182
#
#
# Mechanical properties :
#
#
# Convention : Reuss Voigt Hill
#
# Bulk Modulus (GPa) = 48.62785 60.93945 54.78365
# Shear Modulus (GPa) = 37.17705 43.72487 40.45096
#
# Velocity S-wave (km/s) = 3.69701 4.00938 3.85636
# Velocity P-wave (km/s) = 6.00845 6.62098 6.32214
#
# Compressibility (1/GPa) = 0.02056435
#
# Stress axis : x y z
#
# Youngs Moduli (GPa) = 50.82566 158.96984 117.84000
#
# Poissons Ratio (x) = 0.40783 0.38910
# Poissons Ratio (y) = 0.13039 0.12683
# Poissons Ratio (z) = 0.16782 0.17110
#
# Static dielectric constant tensor:
#      x y z
#    x 2.289250 0.000000 -0.038640 
#    y 0.000000 2.057700 0.000000 
#    z -0.038640 0.000000 2.175430 
# 
# From -- ./inp_files/17899.got.cif
#   From: 2010.05.17/outbox.cif.g08.bks.cpg/sg9_9_cif.got.tgz:17899.got - 2010.06.03 20:04:27.
