data_PCOD9133817
_publ_section_title
;
Structure prediction by ZEFSAII (Michael W. Deem and Ramdas Pophale) SiO2 
 PCOD9133817
Probable space group: C C
;
_chemical_formula_sum "Si O2"
_cell_formula_units_Z 32
_cell_length_a 24.257928
_cell_length_b 6.432135
_cell_length_c 8.095137
_cell_angle_alpha 90.000000
_cell_angle_beta 64.806571
_cell_angle_gamma 90.000000
_cell_volume 1142.936408
_symmetry_space_group_name_H-M "C C"
_symmetry_group_IT_number 9
_symmetry_cell_setting 'monoclinic'
loop_
_space_group_symop_operation_xyz
x,y,z
x,-y,1/2+z
1/2+x,1/2+y,z
1/2+x,1/2-y,1/2+z
loop_
_atom_site_type_symbol
_atom_site_label
_atom_site_fract_x
_atom_site_fract_y
_atom_site_fract_z
Si Si1 0.718170 0.579783 0.351780
Si Si2 0.083905 0.185733 0.558439
Si Si3 0.991018 0.290451 0.173305
Si Si4 0.462273 0.732990 0.592397
Si Si5 0.836617 0.685510 0.388353
Si Si6 0.863309 0.779785 0.732652
Si Si7 0.238016 0.675712 0.483654
Si Si8 0.605120 0.075659 0.686909
O O1 0.648330 0.576182 0.502243
O O2 0.768228 0.686973 0.404978
O O3 0.733800 0.336535 0.336788
O O4 0.727942 0.690920 0.164098
O O5 0.016866 0.095810 0.607580
O O6 0.077524 0.344706 0.718374
O O7 0.097812 0.312382 0.370692
O O8 0.970599 0.243276 0.387036
O O9 0.979043 0.534720 0.138779
O O10 0.064922 0.294327 0.106306
O O11 0.936145 0.183737 0.139442
O O12 0.391162 0.704176 0.718190
O O13 0.847523 0.746761 0.562086
O O14 0.853418 0.438768 0.343524
O O15 0.806835 0.908562 0.887284
O O16 0.175996 0.545634 0.551386
#
# Coordination Sequence:
#
# PCOD9133817 Si02
#       8
#     4   4   4   4   4   4   4   4
#     4  10  19  32  48  70  96 125 156 191 231 276
#     4   9  19  32  49  71  96 123 155 190 232 278
#     4   9  15  26  43  65  90 117 148 189 232 273
#     4   9  15  26  43  65  90 117 148 189 232 273
#     4  10  17  26  42  66  91 119 153 192 231 271
#     4  10  17  26  42  66  91 119 153 192 231 271
#     4  10  19  32  48  70  96 125 156 191 231 276
#     4   9  19  32  49  71  96 123 155 190 232 278
#
# _framework density 27.998055999999998
#
# number of rings (size 3 to 8) (size 9 to 14) (size 15 to 20)
#    0.000    2.500    0.000    6.750    0.000    3.000 
#    0.000    0.000    0.000    1.500    0.000    3.500 
#    0.000    0.000    0.000    0.000    0.000    0.000 
#
# Total GULP energy -89408.294870 kJ/mol
# GULP energy per Si atom -5588.018429 kJ/mol
# Density = 2.793433 g / cm^3
# Si number density = 27.998056 Si / 1000 Ang^3
#
#
#
# Elastic Constant Matrix: (Units=GPa)
#
#
# Indices 1 2 3 4 5 6 
#
# 1 234.5914 27.7582 82.5558 0.0000 -44.8394 0.0000
# 2 27.7582 8.1569 5.6455 0.0000 -14.0165 0.0000
# 3 82.5558 5.6455 114.1438 0.0000 -11.6883 0.0000
# 4 0.0000 0.0000 0.0000 23.6160 0.0000 -34.2383
# 5 -44.8394 -14.0165 -11.6883 0.0000 74.8285 0.0000
# 6 0.0000 0.0000 0.0000 -34.2383 0.0000 53.8896
#
#
#
# Elastic Compliance Matrix: (Units=1/GPa)
#
#
# Indices 1 2 3 4 5 6 
#
# 1 0.009670 -0.030362 -0.005570 0.000000 -0.000763 0.000000
# 2 -0.030362 0.279664 0.011818 0.000000 0.036037 0.000000
# 3 -0.005570 0.011818 0.012286 0.000000 0.000795 0.000000
# 4 0.000000 0.000000 0.000000 0.536763 0.000000 0.341027
# 5 -0.000763 0.036037 0.000795 0.000000 0.019781 0.000000
# 6 0.000000 0.000000 0.000000 0.341027 0.000000 0.235225
#
#
# Mechanical properties :
#
#
# Convention : Reuss Voigt Hill
#
# Bulk Modulus (GPa) = 3.94647 65.42347 34.68497
# Shear Modulus (GPa) = 4.07803 46.52898 25.30351
#
# Velocity S-wave (km/s) = 1.20818 4.08102 3.00952
# Velocity P-wave (km/s) = 1.83272 6.75457 4.94889
#
# Compressibility (1/GPa) = 0.25339128
#
# Stress axis : x y z
#
# Youngs Moduli (GPa) = 103.41499 3.57572 81.39028
#
# Poissons Ratio (x) = 0.10857 0.45336
# Poissons Ratio (y) = 3.13992 -0.96188
# Poissons Ratio (z) = 0.57604 -0.04226
#
# Static dielectric constant tensor:
#      x y z
#    x 2.166560 0.000000 -0.091600 
#    y 0.000000 2.721480 0.000000 
#    z -0.091600 0.000000 2.111000 
# 
# From -- ./inp_files/11485.got.cif
#   From: 2010.05.17/outbox.cif.g08.bks.cpg/sg9_6_cif.got.tgz:11485.got - 2010.06.03 20:04:27.
