data_PCOD9133749
_publ_section_title
;
Structure prediction by ZEFSAII (Michael W. Deem and Ramdas Pophale) SiO2 
 PCOD9133749
Probable space group: C C
;
_chemical_formula_sum "Si O2"
_cell_formula_units_Z 28
_cell_length_a 8.657290
_cell_length_b 18.493077
_cell_length_c 9.825739
_cell_angle_alpha 90.000000
_cell_angle_beta 136.194120
_cell_angle_gamma 90.000000
_cell_volume 1088.927033
_symmetry_space_group_name_H-M "C C"
_symmetry_group_IT_number 9
_symmetry_cell_setting 'monoclinic'
loop_
_space_group_symop_operation_xyz
x,y,z
x,-y,1/2+z
1/2+x,1/2+y,z
1/2+x,1/2-y,1/2+z
loop_
_atom_site_type_symbol
_atom_site_label
_atom_site_fract_x
_atom_site_fract_y
_atom_site_fract_z
Si Si1 0.094820 0.846554 0.291190
Si Si2 0.450279 0.024821 0.712775
Si Si3 0.545235 0.607519 0.320655
Si Si4 0.535828 0.079685 0.043663
Si Si5 0.140221 0.690760 0.451916
Si Si6 0.744882 0.736749 0.308521
Si Si7 0.398745 0.608791 0.944689
O O1 0.330031 0.867946 0.378407
O O2 0.128251 0.762860 0.353988
O O3 0.027597 0.891716 0.384171
O O4 0.864261 0.851540 0.059494
O O5 0.502739 0.019840 0.905618
O O6 0.654350 0.073753 0.783742
O O7 0.216636 0.061702 0.520852
O O8 0.484065 0.950070 0.658496
O O9 0.635504 0.689032 0.357075
O O10 0.524161 0.574244 0.153570
O O11 0.286788 0.607770 0.200358
O O12 0.170518 0.714343 0.630763
O O13 0.880216 0.674287 0.306572
O O14 0.861619 0.806049 0.459466
#
# Coordination Sequence:
#
# PCOD9133749 Si02
#       7
#     4   4   4   4   4   4   4
#     4  10  19  42  62 101 136 176 228 276 338 421
#     4  11  27  48  68  99 131 189 233 289 347 403
#     4  11  22  43  68 102 135 177 229 283 342 400
#     4  11  29  47  66 102 137 180 240 289 344 406
#     4   8  17  32  66  99 135 182 211 268 342 412
#     4  10  15  36  65 105 133 175 223 265 337 423
#     4   9  21  40  73 102 135 179 234 274 336 421
#
# _framework density 25.713384999999999
#
# number of rings (size 3 to 8) (size 9 to 14) (size 15 to 20)
#    0.000    2.286    2.857    1.714    4.000    1.143 
#   10.286    0.000    0.000    0.000    0.000    0.000 
#    0.000    0.000    0.000    0.000    0.000    0.000 
#
# Total GULP energy -77954.534983 kJ/mol
# GULP energy per Si atom -5568.181070 kJ/mol
# Density = 2.565486 g / cm^3
# Si number density = 25.713385 Si / 1000 Ang^3
#
#
#
# Elastic Constant Matrix: (Units=GPa)
#
#
# Indices 1 2 3 4 5 6 
#
# 1 74.6114 9.8863 25.7131 0.0000 23.6553 0.0000
# 2 9.8863 16.9431 -8.7080 0.0000 8.0130 0.0000
# 3 25.7131 -8.7080 73.2342 0.0000 0.2693 0.0000
# 4 0.0000 0.0000 0.0000 28.1771 0.0000 5.6159
# 5 23.6553 8.0130 0.2693 0.0000 54.2551 0.0000
# 6 0.0000 0.0000 0.0000 5.6159 0.0000 33.1114
#
#
#
# Elastic Compliance Matrix: (Units=1/GPa)
#
#
# Indices 1 2 3 4 5 6 
#
# 1 0.020291 -0.013031 -0.008649 0.000000 -0.006879 0.000000
# 2 -0.013031 0.076328 0.013672 0.000000 -0.005659 0.000000
# 3 -0.008649 0.013672 0.018311 0.000000 0.001661 0.000000
# 4 0.000000 0.000000 0.000000 0.036731 0.000000 -0.006230
# 5 -0.006879 -0.005659 0.001661 0.000000 0.022258 0.000000
# 6 0.000000 0.000000 0.000000 -0.006230 0.000000 0.031258
#
#
# Mechanical properties :
#
#
# Convention : Reuss Voigt Hill
#
# Bulk Modulus (GPa) = 10.10976 24.28573 17.19775
# Shear Modulus (GPa) = 19.67229 32.30188 25.98709
#
# Velocity S-wave (km/s) = 2.76897 3.54818 3.18251
# Velocity P-wave (km/s) = 3.76340 5.12361 4.49525
#
# Compressibility (1/GPa) = 0.09891428
#
# Stress axis : x y z
#
# Youngs Moduli (GPa) = 49.28269 13.10137 54.61209
#
# Poissons Ratio (x) = 0.17073 0.47232
# Poissons Ratio (y) = 0.64222 -0.74666
# Poissons Ratio (z) = 0.42622 -0.17912
#
# Static dielectric constant tensor:
#      x y z
#    x 2.162320 0.000000 0.328550 
#    y 0.000000 2.126900 0.000000 
#    z 0.328550 0.000000 2.846710 
# 
# From -- ./inp_files/15446.got.cif
#   From: 2010.05.17/outbox.cif.g08.bks.cpg/sg9_8_cif.got.tgz:15446.got - 2010.06.03 20:04:27.
