data_PCOD9133072
_publ_section_title
;
Structure prediction by ZEFSAII (Michael W. Deem and Ramdas Pophale) SiO2 
 PCOD9133072
Probable space group: C M
;
_chemical_formula_sum "Si O2"
_cell_formula_units_Z 32
_cell_length_a 5.258697
_cell_length_b 36.306958
_cell_length_c 7.376694
_cell_angle_alpha 90.000000
_cell_angle_beta 106.206545
_cell_angle_gamma 90.000000
_cell_volume 1352.444451
_symmetry_space_group_name_H-M "C M"
_symmetry_group_IT_number 8
_symmetry_cell_setting 'monoclinic'
loop_
_space_group_symop_operation_xyz
x,y,z
x,-y,z
1/2+x,1/2+y,z
1/2+x,1/2-y,z
loop_
_atom_site_type_symbol
_atom_site_label
_atom_site_fract_x
_atom_site_fract_y
_atom_site_fract_z
Si Si1 0.636550 0.043630 0.899750
Si Si2 0.575665 0.456249 0.285057
Si Si3 0.660004 0.928357 0.496127
Si Si4 0.292834 0.110280 0.928580
Si Si5 0.119770 0.643048 0.290976
Si Si6 0.262512 0.270763 0.846740
Si Si7 0.594625 0.772040 0.390415
Si Si8 0.799736 0.854368 0.939938
O O1 0.676690 0.054811 0.699648
O O2 0.585434 0.000000 0.907422
O O3 0.393303 0.068868 0.921922
O O4 0.493398 0.134149 0.843023
O O5 0.608644 0.500000 0.287247
O O6 0.393417 0.445168 0.419414
O O7 0.392487 0.446630 0.074129
O O8 0.868880 0.439988 0.363792
O O9 0.680810 0.884524 0.465073
O O10 0.364320 0.126452 0.139947
O O11 0.991901 0.121342 0.855963
O O12 0.085798 0.685524 0.330462
O O13 0.322894 0.639118 0.162028
O O14 0.506884 0.242733 0.905878
O O15 0.179857 0.271991 0.618876
O O16 0.345626 0.311635 0.916050
O O17 0.317595 0.750763 0.328138
#
# Coordination Sequence:
#
# PCOD9133072 Si02
#       8
#     4   4   4   4   4   4   4   4
#     4  11  26  49  79 111 151 201 249 312 385 449
#     4  11  25  48  75 107 154 194 245 318 368 449
#     4  12  27  47  76 112 149 198 257 301 382 452
#     4  10  24  44  65 104 138 186 242 293 369 432
#     4  10  26  42  72  97 147 189 238 305 369 426
#     4  10  21  41  65  99 137 181 237 302 366 434
#     4  10  24  42  65  98 139 184 240 299 367 435
#     4  10  23  41  67  98 135 183 236 292 364 433
#
# _framework density 23.660862999999999
#
# number of rings (size 3 to 8) (size 9 to 14) (size 15 to 20)
#    0.750    0.750    1.250    1.875    7.000    3.000 
#    0.000    3.125    0.000    0.000    0.000    0.000 
#    0.000    0.000    0.000    0.000    0.000    0.000 
#
# Total GULP energy -89482.809211 kJ/mol
# GULP energy per Si atom -5592.675576 kJ/mol
# Density = 2.360701 g / cm^3
# Si number density = 23.660863 Si / 1000 Ang^3
#
#
#
# Elastic Constant Matrix: (Units=GPa)
#
#
# Indices 1 2 3 4 5 6 
#
# 1 83.4453 25.4474 14.1996 0.0000 -19.9943 0.0000
# 2 25.4474 167.6624 38.8418 0.0000 -3.7941 0.0000
# 3 14.1996 38.8418 76.3744 0.0000 11.8478 0.0000
# 4 0.0000 0.0000 0.0000 38.6856 0.0000 -9.3596
# 5 -19.9943 -3.7941 11.8478 0.0000 23.0122 0.0000
# 6 0.0000 0.0000 0.0000 -9.3596 0.0000 15.9143
#
#
#
# Elastic Compliance Matrix: (Units=1/GPa)
#
#
# Indices 1 2 3 4 5 6 
#
# 1 0.017514 -0.000969 -0.005542 0.000000 0.017911 0.000000
# 2 -0.000969 0.007029 -0.003743 0.000000 0.002244 0.000000
# 3 -0.005542 -0.003743 0.018334 0.000000 -0.014871 0.000000
# 4 0.000000 0.000000 0.000000 0.030138 0.000000 0.017725
# 5 0.017911 0.002244 -0.014871 0.000000 0.067043 0.000000
# 6 0.000000 0.000000 0.000000 0.017725 0.000000 0.073261
#
#
# Mechanical properties :
#
#
# Convention : Reuss Voigt Hill
#
# Bulk Modulus (GPa) = 44.70253 53.82887 49.26570
# Shear Modulus (GPa) = 20.72250 32.12197 26.42224
#
# Velocity S-wave (km/s) = 2.96262 3.68856 3.34534
# Velocity P-wave (km/s) = 5.53506 6.39845 5.98235
#
# Compressibility (1/GPa) = 0.02237010
#
# Stress axis : x y z
#
# Youngs Moduli (GPa) = 57.09721 142.26123 54.54294
#
# Poissons Ratio (x) = 0.13786 0.30226
# Poissons Ratio (y) = 0.05533 0.20415
# Poissons Ratio (z) = 0.31642 0.53246
#
# Static dielectric constant tensor:
#      x y z
#    x 1.986540 0.000000 0.059430 
#    y 0.000000 1.855450 0.000000 
#    z 0.059430 0.000000 1.947870 
# 
# From -- ./inp_files/7204.got.cif
#   From: 2010.05.17/outbox.cif.g08.bks.cpg/sg8_4_cif.got.tgz:7204.got - 2010.06.03 19:46:02.
