data_PCOD9133790
_publ_section_title
;
Structure prediction by ZEFSAII (Michael W. Deem and Ramdas Pophale) SiO2 
 PCOD9133790
Probable space group: C C
;
_chemical_formula_sum "Si O2"
_cell_formula_units_Z 32
_cell_length_a 7.704957
_cell_length_b 14.851845
_cell_length_c 11.911437
_cell_angle_alpha 90.000000
_cell_angle_beta 72.972503
_cell_angle_gamma 90.000000
_cell_volume 1303.308792
_symmetry_space_group_name_H-M "C C"
_symmetry_group_IT_number 9
_symmetry_cell_setting 'monoclinic'
loop_
_space_group_symop_operation_xyz
x,y,z
x,-y,1/2+z
1/2+x,1/2+y,z
1/2+x,1/2-y,1/2+z
loop_
_atom_site_type_symbol
_atom_site_label
_atom_site_fract_x
_atom_site_fract_y
_atom_site_fract_z
Si Si1 0.393580 0.732360 0.989450
Si Si2 0.964449 0.945880 0.878987
Si Si3 0.656974 0.382708 0.285343
Si Si4 0.475464 0.823752 0.556574
Si Si5 0.886645 0.780213 0.741533
Si Si6 0.408984 0.365236 0.121384
Si Si7 0.989351 0.373638 0.798308
Si Si8 0.120843 0.555847 0.843767
O O1 0.511973 0.665083 0.893531
O O2 0.395687 0.827827 0.923739
O O3 0.189548 0.697856 0.024948
O O4 0.467590 0.725670 0.101505
O O5 0.978182 0.848925 0.812277
O O6 0.780226 0.997979 0.876408
O O7 0.947748 0.935988 0.016022
O O8 0.127476 0.011930 0.812259
O O9 0.837957 0.324694 0.274665
O O10 0.580594 0.362772 0.174069
O O11 0.383217 0.727458 0.558469
O O12 0.409536 0.851506 0.692152
O O13 0.485091 0.896425 0.456910
O O14 0.688907 0.827444 0.765103
O O15 0.236873 0.384170 0.234154
O O16 0.013027 0.479073 0.800475
#
# Coordination Sequence:
#
# PCOD9133790 Si02
#       8
#     4   4   4   4   4   4   4   4
#     4  10  16  33  58  80 110 151 193 239 300 359
#     4  10  21  33  58  90 116 152 205 249 288 371
#     4  10  19  34  60  88 112 159 199 248 304 367
#     4  11  17  33  56  82 111 146 191 239 294 354
#     4   9  19  35  57  85 120 152 197 249 309 356
#     4  11  20  34  57  87 117 149 203 241 304 368
#     4   9  18  32  56  85 105 150 198 232 295 369
#     4  10  20  34  58  83 111 151 190 249 292 362
#
# _framework density 24.552890999999999
#
# number of rings (size 3 to 8) (size 9 to 14) (size 15 to 20)
#    0.000    2.000    6.250    0.750    5.250    0.000 
#    0.000    5.000    8.250    0.000    0.000    0.000 
#    0.000    0.000    0.000    0.000    0.000    0.000 
#
# Total GULP energy -89373.936118 kJ/mol
# GULP energy per Si atom -5585.871007 kJ/mol
# Density = 2.449701 g / cm^3
# Si number density = 24.552891 Si / 1000 Ang^3
#
#
#
# Elastic Constant Matrix: (Units=GPa)
#
#
# Indices 1 2 3 4 5 6 
#
# 1 63.4877 7.6649 15.7207 0.0000 -0.8070 0.0000
# 2 7.6649 129.2476 53.5294 0.0000 3.8665 0.0000
# 3 15.7207 53.5294 152.1817 0.0000 1.8050 0.0000
# 4 0.0000 0.0000 0.0000 47.3713 0.0000 -0.0787
# 5 -0.8070 3.8665 1.8050 0.0000 11.4243 0.0000
# 6 0.0000 0.0000 0.0000 -0.0787 0.0000 27.3806
#
#
#
# Elastic Compliance Matrix: (Units=1/GPa)
#
#
# Indices 1 2 3 4 5 6 
#
# 1 0.016201 -0.000358 -0.001566 0.000000 0.001513 0.000000
# 2 -0.000358 0.009140 -0.003147 0.000000 -0.002621 0.000000
# 3 -0.001566 -0.003147 0.007843 0.000000 -0.000285 0.000000
# 4 0.000000 0.000000 0.000000 0.021110 0.000000 0.000061
# 5 0.001513 -0.002621 -0.000285 0.000000 0.088572 0.000000
# 6 0.000000 0.000000 0.000000 0.000061 0.000000 0.036522
#
#
# Mechanical properties :
#
#
# Convention : Reuss Voigt Hill
#
# Bulk Modulus (GPa) = 43.39565 55.41634 49.40599
# Shear Modulus (GPa) = 25.35367 35.10205 30.22786
#
# Velocity S-wave (km/s) = 3.21692 3.78517 3.51256
# Velocity P-wave (km/s) = 5.61345 6.45930 6.05117
#
# Compressibility (1/GPa) = 0.02304379
#
# Stress axis : x y z
#
# Youngs Moduli (GPa) = 61.72385 109.40840 127.49977
#
# Poissons Ratio (x) = 0.03912 0.19964
# Poissons Ratio (y) = 0.02207 0.40124
# Poissons Ratio (z) = 0.09665 0.34430
#
# Static dielectric constant tensor:
#      x y z
#    x 1.983000 0.000000 0.011930 
#    y 0.000000 1.995390 0.000000 
#    z 0.011930 0.000000 1.932270 
# 
# From -- ./inp_files/16806.got.cif
#   From: 2010.05.17/outbox.cif.g08.bks.cpg/sg9_9_cif.got.tgz:16806.got - 2010.06.03 20:04:27.
