data_PCOD9133611
_publ_section_title
;
Structure prediction by ZEFSAII (Michael W. Deem and Ramdas Pophale) SiO2 
 PCOD9133611
Probable space group: C M
;
_chemical_formula_sum "Si O2"
_cell_formula_units_Z 20
_cell_length_a 16.482957
_cell_length_b 11.190084
_cell_length_c 4.994211
_cell_angle_alpha 90.000000
_cell_angle_beta 87.747107
_cell_angle_gamma 90.000000
_cell_volume 920.448602
_symmetry_space_group_name_H-M "C M"
_symmetry_group_IT_number 8
_symmetry_cell_setting 'monoclinic'
loop_
_space_group_symop_operation_xyz
x,y,z
x,-y,z
1/2+x,1/2+y,z
1/2+x,1/2-y,z
loop_
_atom_site_type_symbol
_atom_site_label
_atom_site_fract_x
_atom_site_fract_y
_atom_site_fract_z
Si Si1 0.405550 0.264923 0.053730
Si Si2 0.925618 0.500000 0.949825
Si Si3 0.737772 0.858322 0.873654
Si Si4 0.497587 0.359689 0.552979
Si Si5 0.532702 0.000000 0.435233
Si Si6 0.147499 0.724011 0.400225
O O1 0.438929 0.299137 0.340004
O O2 0.328214 0.340199 0.971395
O O3 0.477387 0.297463 0.837236
O O4 0.383717 0.125089 0.026324
O O5 0.955548 0.500000 0.640571
O O6 0.004553 0.500000 0.131980
O O7 0.722059 0.793191 0.593987
O O8 0.721663 0.000000 0.853641
O O9 0.678318 0.798145 0.097889
O O10 0.480030 0.500000 0.571167
O O11 0.590730 0.337669 0.454842
O O12 0.586507 0.115626 0.478376
#
# Coordination Sequence:
#
# PCOD9133611 Si02
#       6
#     4   2   4   4   2   4
#     4  12  25  43  67  95 129 168 212 262 316 376
#     4  12  22  42  68  96 124 162 214 266 310 374
#     4  12  24  40  63  95 129 165 208 261 317 373
#     4  12  25  44  67  94 128 170 214 260 313 378
#     4  12  20  40  70  94 124 152 220 272 302 374
#     4  12  23  40  66  93 124 164 213 264 310 371
#
# _framework density 21.728534
#
# number of rings (size 3 to 8) (size 9 to 14) (size 15 to 20)
#    0.000    0.000    6.000    5.400    0.000    0.000 
#    3.600    0.000    0.000    0.000    0.000    0.000 
#    0.000    0.000    0.000    0.000    0.000    0.000 
#
# Total GULP energy -55971.087895 kJ/mol
# GULP energy per Si atom -5597.108790 kJ/mol
# Density = 2.167908 g / cm^3
# Si number density = 21.728534 Si / 1000 Ang^3
#
#
#
# Elastic Constant Matrix: (Units=GPa)
#
#
# Indices 1 2 3 4 5 6 
#
# 1 48.5026 -10.9974 -11.8024 0.0000 9.7016 0.0000
# 2 -10.9974 98.5457 11.7221 0.0000 -7.8463 0.0000
# 3 -11.8024 11.7221 67.5265 0.0000 11.9185 0.0000
# 4 0.0000 0.0000 0.0000 18.2052 0.0000 -1.8543
# 5 9.7016 -7.8463 11.9185 0.0000 28.7993 0.0000
# 6 0.0000 0.0000 0.0000 -1.8543 0.0000 30.1195
#
#
#
# Elastic Compliance Matrix: (Units=1/GPa)
#
#
# Indices 1 2 3 4 5 6 
#
# 1 0.024383 0.001201 0.005874 0.000000 -0.010318 0.000000
# 2 0.001201 0.010832 -0.002287 0.000000 0.003493 0.000000
# 3 0.005874 -0.002287 0.018007 0.000000 -0.010054 0.000000
# 4 0.000000 0.000000 0.000000 0.055276 0.000000 0.003403
# 5 -0.010318 0.003493 -0.010054 0.000000 0.043311 0.000000
# 6 0.000000 0.000000 0.000000 0.003403 0.000000 0.033411
#
#
# Mechanical properties :
#
#
# Convention : Reuss Voigt Hill
#
# Bulk Modulus (GPa) = 15.92401 21.37995 18.65198
# Shear Modulus (GPa) = 25.43542 30.46829 27.95185
#
# Velocity S-wave (km/s) = 3.42511 3.74869 3.59055
# Velocity P-wave (km/s) = 4.79441 5.34770 5.07860
#
# Compressibility (1/GPa) = 0.06279827
#
# Stress axis : x y z
#
# Youngs Moduli (GPa) = 41.01231 92.32138 55.53304
#
# Poissons Ratio (x) = -0.11086 -0.32622
# Poissons Ratio (y) = -0.04925 0.12700
# Poissons Ratio (z) = -0.24092 0.21113
#
# Static dielectric constant tensor:
#      x y z
#    x 1.778710 0.000000 -0.009610 
#    y 0.000000 1.787200 0.000000 
#    z -0.009610 0.000000 1.766570 
# 
# From -- ./inp_files/3630.got.cif
#   From: 2010.05.17/outbox.cif.g08.bks.cpg/sg8_2_cif.got.tgz:3630.got - 2010.06.03 19:46:02.
