data_PCOD9133070
_publ_section_title
;
Structure prediction by ZEFSAII (Michael W. Deem and Ramdas Pophale) SiO2 
 PCOD9133070
Probable space group: C M
;
_chemical_formula_sum "Si O2"
_cell_formula_units_Z 26
_cell_length_a 7.807722
_cell_length_b 14.929224
_cell_length_c 12.276811
_cell_angle_alpha 90.000000
_cell_angle_beta 51.745893
_cell_angle_gamma 90.000000
_cell_volume 1123.744459
_symmetry_space_group_name_H-M "C M"
_symmetry_group_IT_number 8
_symmetry_cell_setting 'monoclinic'
loop_
_space_group_symop_operation_xyz
x,y,z
x,-y,z
1/2+x,1/2+y,z
1/2+x,1/2-y,z
loop_
_atom_site_type_symbol
_atom_site_label
_atom_site_fract_x
_atom_site_fract_y
_atom_site_fract_z
Si Si1 0.095840 0.000000 0.225590
Si Si2 0.188546 0.357157 0.113488
Si Si3 0.496385 0.393887 0.800147
Si Si4 0.929154 0.706865 0.689150
Si Si5 0.912421 0.171568 0.509409
Si Si6 0.171043 0.000000 0.452224
Si Si7 0.732464 0.324989 0.188870
Si Si8 0.155723 0.500000 0.310879
O O1 0.186131 0.911691 0.134632
O O2 0.833686 0.000000 0.335804
O O3 0.193797 0.000000 0.309617
O O4 0.285606 0.260338 0.098078
O O5 0.206114 0.415291 0.214751
O O6 0.935746 0.341612 0.186968
O O7 0.307512 0.399528 0.964639
O O8 0.524615 0.500000 0.749431
O O9 0.426476 0.303951 0.754564
O O10 0.717682 0.356640 0.772001
O O11 0.957992 0.736142 0.552256
O O12 0.155158 0.657282 0.625295
O O13 0.039371 0.091129 0.518339
O O14 0.014745 0.182481 0.348940
O O15 0.397094 0.000000 0.427844
#
# Coordination Sequence:
#
# PCOD9133070 Si02
#       8
#     2   4   4   4   4   2   4   2
#     4  10  22  40  58  99 138 175 218 254 347 432
#     4  12  22  41  67  94 138 173 223 288 342 414
#     4  11  25  46  69  97 135 186 238 288 335 407
#     4  10  24  44  65  97 129 182 238 278 341 410
#     4  10  21  41  65  93 135 168 223 286 345 414
#     4  10  22  42  60  97 139 172 216 285 344 422
#     4  11  22  40  67 101 136 173 214 291 355 417
#     4  12  22  40  62  96 139 171 222 271 345 422
#
# _framework density 23.136931000000001
#
# number of rings (size 3 to 8) (size 9 to 14) (size 15 to 20)
#    0.000    1.231    3.846    2.769    2.154    1.231 
#    5.538    0.000    0.000    0.000    0.000    0.000 
#    0.000    0.000    0.000    0.000    0.000    0.000 
#
# Total GULP energy -72492.182364 kJ/mol
# GULP energy per Si atom -5576.321720 kJ/mol
# Density = 2.308427 g / cm^3
# Si number density = 23.136931 Si / 1000 Ang^3
#
#
#
# Elastic Constant Matrix: (Units=GPa)
#
#
# Indices 1 2 3 4 5 6 
#
# 1 61.7417 15.3712 -19.4465 0.0000 -13.2397 0.0000
# 2 15.3712 130.5828 16.1788 0.0000 -0.4553 0.0000
# 3 -19.4465 16.1788 45.8466 0.0000 8.5705 0.0000
# 4 0.0000 0.0000 0.0000 22.6192 0.0000 2.3338
# 5 -13.2397 -0.4553 8.5705 0.0000 15.6016 0.0000
# 6 0.0000 0.0000 0.0000 2.3338 0.0000 27.7582
#
#
#
# Elastic Compliance Matrix: (Units=1/GPa)
#
#
# Indices 1 2 3 4 5 6 
#
# 1 0.022869 -0.003660 0.008229 0.000000 0.014779 0.000000
# 2 -0.003660 0.008650 -0.004537 0.000000 -0.000361 0.000000
# 3 0.008229 -0.004537 0.028555 0.000000 -0.008836 0.000000
# 4 0.000000 0.000000 0.000000 0.044597 0.000000 -0.003750
# 5 0.014779 -0.000361 -0.008836 0.000000 0.081481 0.000000
# 6 0.000000 0.000000 0.000000 -0.003750 0.000000 0.036341
#
#
# Mechanical properties :
#
#
# Convention : Reuss Voigt Hill
#
# Bulk Modulus (GPa) = 16.62877 29.15311 22.89094
# Shear Modulus (GPa) = 20.62067 28.26696 24.44381
#
# Velocity S-wave (km/s) = 2.98861 3.49911 3.25389
# Velocity P-wave (km/s) = 4.37170 5.38076 4.90227
#
# Compressibility (1/GPa) = 0.06013673
#
# Stress axis : x y z
#
# Youngs Moduli (GPa) = 43.72782 115.61091 35.01989
#
# Poissons Ratio (x) = 0.42313 -0.28817
# Poissons Ratio (y) = 0.16004 0.15890
# Poissons Ratio (z) = -0.35983 0.52457
#
# Static dielectric constant tensor:
#      x y z
#    x 1.903640 0.000000 -0.003300 
#    y 0.000000 2.073690 0.000000 
#    z -0.003300 0.000000 1.870180 
# 
# From -- ./inp_files/18749.got.cif
#   From: 2010.05.17/outbox.cif.g08.bks.cpg/sg8_10_cif.got.tgz:18749.got - 2010.06.03 19:46:02.
