data_PCOD9133293
_publ_section_title
;
Structure prediction by ZEFSAII (Michael W. Deem and Ramdas Pophale) SiO2 
 PCOD9133293
Probable space group: C M
;
_chemical_formula_sum "Si O2"
_cell_formula_units_Z 26
_cell_length_a 18.930936
_cell_length_b 10.221085
_cell_length_c 14.299747
_cell_angle_alpha 90.000000
_cell_angle_beta 27.791260
_cell_angle_gamma 90.000000
_cell_volume 1290.083642
_symmetry_space_group_name_H-M "C M"
_symmetry_group_IT_number 8
_symmetry_cell_setting 'monoclinic'
loop_
_space_group_symop_operation_xyz
x,y,z
x,-y,z
1/2+x,1/2+y,z
1/2+x,1/2-y,z
loop_
_atom_site_type_symbol
_atom_site_label
_atom_site_fract_x
_atom_site_fract_y
_atom_site_fract_z
Si Si1 0.607040 0.222807 0.657430
Si Si2 0.825774 0.853512 0.077604
Si Si3 0.374507 0.732086 0.696033
Si Si4 0.113599 0.649001 0.144394
Si Si5 0.362654 0.348957 0.496653
Si Si6 0.205688 0.147020 0.363815
Si Si7 0.961403 0.500000 0.691558
O O1 0.707932 0.160574 0.619986
O O2 0.712019 0.301456 0.461834
O O3 0.519302 0.114577 0.698559
O O4 0.485626 0.321508 0.843646
O O5 0.702688 0.844533 0.139089
O O6 0.790057 0.747213 0.197416
O O7 0.818066 0.000000 0.126851
O O8 0.344129 0.705637 0.622992
O O9 0.528131 0.655061 0.543639
O O10 0.407648 0.883044 0.682027
O O11 0.235663 0.682143 0.921639
O O12 0.057574 0.500000 0.198220
O O13 0.985103 0.758084 0.301433
O O14 0.414012 0.500000 0.440698
O O15 0.261659 0.000000 0.287656
#
# Coordination Sequence:
#
# PCOD9133293 Si02
#       7
#     4   4   4   4   4   4   2
#     4  11  25  45  69  97 145 178 225 285 353 399
#     4  11  24  41  70 103 134 179 234 283 336 413
#     4  11  24  42  71  97 139 176 232 276 342 406
#     4  11  24  41  67 100 138 179 227 278 340 413
#     4  12  27  44  69 104 140 177 225 291 350 401
#     4  11  23  40  70  99 130 179 230 277 331 414
#     4  10  22  42  72 100 130 188 226 280 334 414
#
# _framework density 20.153731000000001
#
# number of rings (size 3 to 8) (size 9 to 14) (size 15 to 20)
#    0.000    0.923    5.385    1.846    7.538    2.462 
#    0.000    0.000    0.000    0.000    0.000    0.000 
#    0.000    0.000    0.000    0.000    0.000    0.000 
#
# Total GULP energy -72428.060005 kJ/mol
# GULP energy per Si atom -5571.389231 kJ/mol
# Density = 2.010786 g / cm^3
# Si number density = 20.153731 Si / 1000 Ang^3
#
#
#
# Elastic Constant Matrix: (Units=GPa)
#
#
# Indices 1 2 3 4 5 6 
#
# 1 104.8522 43.8522 23.6092 0.0000 18.6457 0.0000
# 2 43.8522 184.0094 34.9802 0.0000 13.8179 0.0000
# 3 23.6092 34.9802 51.8183 0.0000 24.8309 0.0000
# 4 0.0000 0.0000 0.0000 16.0285 0.0000 -0.2335
# 5 18.6457 13.8179 24.8309 0.0000 23.3684 0.0000
# 6 0.0000 0.0000 0.0000 -0.2335 0.0000 15.1112
#
#
#
# Elastic Compliance Matrix: (Units=1/GPa)
#
#
# Indices 1 2 3 4 5 6 
#
# 1 0.011927 -0.002226 -0.000004 0.000000 -0.008196 0.000000
# 2 -0.002226 0.006680 -0.004998 0.000000 0.003138 0.000000
# 3 -0.000004 -0.004998 0.043308 0.000000 -0.043060 0.000000
# 4 0.000000 0.000000 0.000000 0.062403 0.000000 0.000964
# 5 -0.008196 0.003138 -0.043060 0.000000 0.093231 0.000000
# 6 0.000000 0.000000 0.000000 0.000964 0.000000 0.066191
#
#
# Mechanical properties :
#
#
# Convention : Reuss Voigt Hill
#
# Bulk Modulus (GPa) = 21.07146 60.61811 40.84478
# Shear Modulus (GPa) = 15.92279 26.78419 21.35349
#
# Velocity S-wave (km/s) = 2.81386 3.64949 3.25857
# Velocity P-wave (km/s) = 4.58641 6.92109 5.87098
#
# Compressibility (1/GPa) = 0.04745757
#
# Stress axis : x y z
#
# Youngs Moduli (GPa) = 83.84647 149.70957 23.09037
#
# Poissons Ratio (x) = 0.33327 0.00009
# Poissons Ratio (y) = 0.18665 0.11542
# Poissons Ratio (z) = 0.00032 0.74832
#
# Static dielectric constant tensor:
#      x y z
#    x 1.690870 0.000000 -0.002610 
#    y 0.000000 1.698600 0.000000 
#    z -0.002610 0.000000 1.716750 
# 
# From -- ./inp_files/27721.got.cif
#   From: 2010.05.17/outbox.cif.g08.bks.cpg/sg8_14_cif.got.tgz:27721.got - 2010.06.03 19:46:02.
