data_PCOD9133058
_publ_section_title
;
Structure prediction by ZEFSAII (Michael W. Deem and Ramdas Pophale) SiO2 
 PCOD9133058
Probable space group: C M
;
_chemical_formula_sum "Si O2"
_cell_formula_units_Z 26
_cell_length_a 19.609406
_cell_length_b 10.389598
_cell_length_c 8.157703
_cell_angle_alpha 90.000000
_cell_angle_beta 134.681250
_cell_angle_gamma 90.000000
_cell_volume 1181.731374
_symmetry_space_group_name_H-M "C M"
_symmetry_group_IT_number 8
_symmetry_cell_setting 'monoclinic'
loop_
_space_group_symop_operation_xyz
x,y,z
x,-y,z
1/2+x,1/2+y,z
1/2+x,1/2-y,z
loop_
_atom_site_type_symbol
_atom_site_label
_atom_site_fract_x
_atom_site_fract_y
_atom_site_fract_z
Si Si1 0.510051 0.000000 0.144310
Si Si2 0.134676 0.151947 0.822296
Si Si3 0.986578 0.250351 0.340954
Si Si4 0.334946 0.148613 0.306468
Si Si5 0.543516 0.742366 0.998088
Si Si6 0.863333 0.141655 0.848927
Si Si7 0.233249 0.148755 0.487129
O O1 0.497691 0.884798 0.263198
O O2 0.522250 0.885840 0.024108
O O3 0.088596 0.229553 0.895517
O O4 0.086979 0.194218 0.572604
O O5 0.116943 0.000000 0.820467
O O6 0.248241 0.170554 0.031818
O O7 0.923023 0.267986 0.396667
O O8 0.924530 0.160151 0.117113
O O9 0.291021 0.165798 0.412615
O O10 0.363723 0.000000 0.345474
O O11 0.445178 0.663469 0.849819
O O12 0.624371 0.682242 0.256108
O O13 0.783925 0.251577 0.693628
O O14 0.819841 0.000000 0.763335
O O15 0.243706 0.000000 0.557851
#
# Coordination Sequence:
#
# PCOD9133058 Si02
#       7
#     2   4   4   4   4   4   4
#     4  10  24  38  60  94 134 172 208 258 336 376
#     4  10  21  40  68  93 117 168 222 270 324 375
#     4  11  22  39  61  94 132 166 211 262 330 392
#     4   9  19  39  64  91 118 159 217 267 307 378
#     4  10  22  42  66  90 130 165 226 267 315 388
#     4  11  24  39  61  93 132 170 208 265 329 386
#     4  10  22  40  68  95 121 169 219 268 321 377
#
# _framework density 22.001615999999999
#
# number of rings (size 3 to 8) (size 9 to 14) (size 15 to 20)
#    0.000    1.846    0.769    3.692    5.385    3.077 
#    0.000    3.846    5.077    0.000    0.000    0.000 
#    0.000    0.000    0.000    0.000    0.000    0.000 
#
# Total GULP energy -72406.915715 kJ/mol
# GULP energy per Si atom -5569.762747 kJ/mol
# Density = 2.195154 g / cm^3
# Si number density = 22.001616 Si / 1000 Ang^3
#
#
#
# Elastic Constant Matrix: (Units=GPa)
#
#
# Indices 1 2 3 4 5 6 
#
# 1 39.4804 11.9970 -6.2383 0.0000 -3.3040 0.0000
# 2 11.9970 144.0214 42.4010 0.0000 1.1264 0.0000
# 3 -6.2383 42.4010 101.4255 0.0000 3.3180 0.0000
# 4 0.0000 0.0000 0.0000 21.8617 0.0000 -14.1305
# 5 -3.3040 1.1264 3.3180 0.0000 25.7735 0.0000
# 6 0.0000 0.0000 0.0000 -14.1305 0.0000 41.4076
#
#
#
# Elastic Compliance Matrix: (Units=1/GPa)
#
#
# Indices 1 2 3 4 5 6 
#
# 1 0.026997 -0.003115 0.002857 0.000000 0.003229 0.000000
# 2 -0.003115 0.008278 -0.003643 0.000000 -0.000292 0.000000
# 3 0.002857 -0.003643 0.011590 0.000000 -0.000967 0.000000
# 4 0.000000 0.000000 0.000000 0.058687 0.000000 0.020027
# 5 0.003229 -0.000292 -0.000967 0.000000 0.039351 0.000000
# 6 0.000000 0.000000 0.000000 0.020027 0.000000 0.030984
#
#
# Mechanical properties :
#
#
# Convention : Reuss Voigt Hill
#
# Bulk Modulus (GPa) = 25.59944 42.36074 33.98009
# Shear Modulus (GPa) = 25.41826 33.59304 29.50565
#
# Velocity S-wave (km/s) = 3.40264 3.91172 3.66603
# Velocity P-wave (km/s) = 5.20556 6.30059 5.77907
#
# Compressibility (1/GPa) = 0.03906336
#
# Stress axis : x y z
#
# Youngs Moduli (GPa) = 37.04057 120.80815 86.28454
#
# Poissons Ratio (x) = 0.37636 -0.24654
# Poissons Ratio (y) = 0.11539 0.31429
# Poissons Ratio (z) = -0.10583 0.44004
#
# Static dielectric constant tensor:
#      x y z
#    x 1.853620 0.000000 -0.017040 
#    y 0.000000 1.757530 0.000000 
#    z -0.017040 0.000000 1.842980 
# 
# From -- ./inp_files/15983.got.cif
#   From: 2010.05.17/outbox.cif.g08.bks.cpg/sg8_8_cif.got.tgz:15983.got - 2010.06.03 19:46:02.
