data_PCOD9133487
_publ_section_title
;
Structure prediction by ZEFSAII (Michael W. Deem and Ramdas Pophale) SiO2 
 PCOD9133487
Probable space group: C M
;
_chemical_formula_sum "Si O2"
_cell_formula_units_Z 32
_cell_length_a 22.297639
_cell_length_b 9.514115
_cell_length_c 21.699594
_cell_angle_alpha 90.000000
_cell_angle_beta 160.789164
_cell_angle_gamma 90.000000
_cell_volume 1514.727478
_symmetry_space_group_name_H-M "C M"
_symmetry_group_IT_number 8
_symmetry_cell_setting 'monoclinic'
loop_
_space_group_symop_operation_xyz
x,y,z
x,-y,z
1/2+x,1/2+y,z
1/2+x,1/2-y,z
loop_
_atom_site_type_symbol
_atom_site_label
_atom_site_fract_x
_atom_site_fract_y
_atom_site_fract_z
Si Si1 0.650090 0.159028 0.986500
Si Si2 0.594232 0.166764 0.064323
Si Si3 0.610688 0.667420 0.834447
Si Si4 0.727133 0.332501 0.448638
Si Si5 0.190402 0.343871 0.299358
Si Si6 0.124416 0.844797 0.714109
Si Si7 0.227317 0.665602 0.699141
Si Si8 0.702313 0.659130 0.560517
O O1 0.701757 0.268504 0.983708
O O2 0.426064 0.161391 0.773883
O O3 0.700787 0.000000 0.017533
O O4 0.715142 0.185740 0.119827
O O5 0.658428 0.189955 0.196522
O O6 0.541145 0.000000 0.009466
O O7 0.432974 0.277209 0.899603
O O8 0.578202 0.500000 0.809656
O O9 0.421591 0.753919 0.644797
O O10 0.706883 0.687281 0.861350
O O11 0.753067 0.500000 0.466484
O O12 0.636113 0.265515 0.299779
O O13 0.634695 0.310609 0.425734
O O14 0.114354 0.500000 0.238360
O O15 0.408972 0.354483 0.515424
O O16 0.151147 0.730695 0.687977
O O17 0.189346 0.000000 0.756445
O O18 0.214022 0.500000 0.684748
O O19 0.144435 0.734783 0.557349
O O20 0.651319 0.500000 0.528207
#
# Coordination Sequence:
#
# PCOD9133487 Si02
#       8
#     4   4   4   4   4   4   4   4
#     4   8  14  25  43  66  91 118 148 186 232 274
#     4   9  18  33  50  69  96 127 155 186 231 283
#     4   9  16  26  43  66  90 118 154 192 229 271
#     4   9  16  26  43  67  93 119 149 189 234 273
#     4   9  18  32  51  72  93 123 159 190 227 278
#     4   9  18  32  48  67  93 124 156 190 232 281
#     4  11  21  30  46  72  96 122 158 196 231 269
#     4   8  15  28  44  63  90 123 153 185 230 277
#
# _framework density 21.125913000000001
#
# number of rings (size 3 to 8) (size 9 to 14) (size 15 to 20)
#    0.000    3.000    0.000    4.125    0.000    8.000 
#    0.000    0.000    0.000    1.500    0.000    5.250 
#    0.000    0.000    0.000    0.000    0.000    0.000 
#
# Total GULP energy -89134.524939 kJ/mol
# GULP energy per Si atom -5570.907809 kJ/mol
# Density = 2.107783 g / cm^3
# Si number density = 21.125913 Si / 1000 Ang^3
#
#
#
# Elastic Constant Matrix: (Units=GPa)
#
#
# Indices 1 2 3 4 5 6 
#
# 1 159.1172 118.5718 36.0595 -0.0005 -64.9832 0.0000
# 2 118.5718 161.0141 37.4695 -0.0008 -36.5299 0.0006
# 3 36.0595 37.4695 51.9666 -0.0016 -20.7303 0.0002
# 4 -0.0005 -0.0008 -0.0016 9.6811 -0.0009 -0.9003
# 5 -64.9832 -36.5299 -20.7303 -0.0009 38.8521 -0.0002
# 6 0.0000 0.0006 0.0002 -0.9003 -0.0002 24.7004
#
#
#
# Elastic Compliance Matrix: (Units=1/GPa)
#
#
# Indices 1 2 3 4 5 6 
#
# 1 0.043187 -0.020677 0.007624 0.000007 0.056860 0.000001
# 2 -0.020677 0.018320 -0.007351 -0.000003 -0.021281 -0.000001
# 3 0.007624 -0.007351 0.027419 0.000006 0.020470 0.000000
# 4 0.000007 -0.000003 0.000006 0.103645 0.000015 0.003778
# 5 0.056860 -0.021281 0.020470 0.000015 0.111754 0.000002
# 6 0.000001 -0.000001 0.000000 0.003778 0.000002 0.040623
#
#
# Mechanical properties :
#
#
# Convention : Reuss Voigt Hill
#
# Bulk Modulus (GPa) = 20.78245 84.03329 52.40787
# Shear Modulus (GPa) = 12.44417 26.64653 19.54535
#
# Velocity S-wave (km/s) = 2.42966 3.55536 3.04498
# Velocity P-wave (km/s) = 4.21068 7.53112 6.10113
#
# Compressibility (1/GPa) = 0.04811753
#
# Stress axis : x y z
#
# Youngs Moduli (GPa) = 23.15533 54.58584 36.47111
#
# Poissons Ratio (x) = 1.12867 -0.27806
# Poissons Ratio (y) = 0.47878 0.26809
# Poissons Ratio (z) = -0.17654 0.40125
#
# Static dielectric constant tensor:
#      x y z
#    x 1.851280 0.000000 -0.008970 
#    y 0.000000 1.725030 0.000000 
#    z -0.008970 0.000000 1.875810 
# 
# From -- ./inp_files/23741.got.cif
#   From: 2010.05.17/outbox.cif.g08.bks.cpg/sg8_12_cif.got.tgz:23741.got - 2010.06.03 19:46:02.
