data_PCOD9133539
_publ_section_title
;
Structure prediction by ZEFSAII (Michael W. Deem and Ramdas Pophale) SiO2 
 PCOD9133539
Probable space group: C M
;
_chemical_formula_sum "Si O2"
_cell_formula_units_Z 22
_cell_length_a 10.823257
_cell_length_b 14.167692
_cell_length_c 7.286172
_cell_angle_alpha 90.000000
_cell_angle_beta 59.292086
_cell_angle_gamma 90.000000
_cell_volume 960.604721
_symmetry_space_group_name_H-M "C M"
_symmetry_group_IT_number 8
_symmetry_cell_setting 'monoclinic'
loop_
_space_group_symop_operation_xyz
x,y,z
x,-y,z
1/2+x,1/2+y,z
1/2+x,1/2-y,z
loop_
_atom_site_type_symbol
_atom_site_label
_atom_site_fract_x
_atom_site_fract_y
_atom_site_fract_z
Si Si1 0.212190 0.316993 0.451170
Si Si2 0.770583 0.500000 0.447714
Si Si3 0.050172 0.156878 0.705513
Si Si4 0.736658 0.892233 0.849408
Si Si5 0.911407 0.500000 0.987230
Si Si6 0.488294 0.788109 0.084683
Si Si7 0.049973 0.500000 0.474953
O O1 0.081518 0.242591 0.543315
O O2 0.232303 0.352092 0.646057
O O3 0.354654 0.257924 0.290537
O O4 0.156512 0.410782 0.394099
O O5 0.685413 0.588900 0.589845
O O6 0.767806 0.500000 0.227788
O O7 0.934294 0.500000 0.397365
O O8 0.901634 0.106763 0.778459
O O9 0.032559 0.205662 0.913399
O O10 0.680964 0.000000 0.894084
O O11 0.642167 0.822294 0.048163
O O12 0.949890 0.388419 0.013389
O O13 0.954113 0.500000 0.737648
#
# Coordination Sequence:
#
# PCOD9133539 Si02
#       7
#     4   2   4   4   2   4   2
#     4  11  24  45  70 105 137 192 247 292 368 431
#     4  12  28  47  71 115 147 187 247 303 363 429
#     4  11  25  43  69 107 145 183 248 298 353 438
#     4  11  22  46  71  98 148 188 235 306 359 439
#     4  12  22  47  74 105 140 197 235 293 373 428
#     4  11  24  43  71 104 141 188 250 288 371 429
#     4  12  26  50  73 104 155 186 242 312 354 439
#
# _framework density 22.902239000000002
#
# number of rings (size 3 to 8) (size 9 to 14) (size 15 to 20)
#    0.000    0.727    8.182    0.000    5.091    3.636 
#    3.273    0.000    0.000    0.000    0.000    0.000 
#    0.000    0.000    0.000    0.000    0.000    0.000 
#
# Total GULP energy -61275.239039 kJ/mol
# GULP energy per Si atom -5570.476276 kJ/mol
# Density = 2.285011 g / cm^3
# Si number density = 22.902239 Si / 1000 Ang^3
#
#
#
# Elastic Constant Matrix: (Units=GPa)
#
#
# Indices 1 2 3 4 5 6 
#
# 1 77.3590 42.6765 37.2292 0.0000 -15.9035 0.0000
# 2 42.6765 174.9430 70.1155 0.0000 -19.1731 0.0000
# 3 37.2292 70.1155 151.4794 0.0000 -22.4809 0.0000
# 4 0.0000 0.0000 0.0000 -4.7218 0.0000 -27.7573
# 5 -15.9035 -19.1731 -22.4809 0.0000 32.8261 0.0000
# 6 0.0000 0.0000 0.0000 -27.7573 0.0000 28.7466
#
#
#
# Elastic Compliance Matrix: (Units=1/GPa)
#
#
# Indices 1 2 3 4 5 6 
#
# 1 0.016398 -0.002621 -0.002076 0.000000 0.004992 0.000000
# 2 -0.002621 0.007568 -0.002662 0.000000 0.001327 0.000000
# 3 -0.002076 -0.002662 0.008865 0.000000 0.003511 0.000000
# 4 0.000000 0.000000 0.000000 -0.031722 0.000000 -0.030630
# 5 0.004992 0.001327 0.003511 0.000000 0.036062 0.000000
# 6 0.000000 0.000000 0.000000 -0.030630 0.000000 0.005211
#
#
# Mechanical properties :
#
#
# Convention : Reuss Voigt Hill
#
# Bulk Modulus (GPa) = 55.20934 78.20264 66.70599
# Shear Modulus (GPa) = 79.19375 28.28752 53.74063
#
# Velocity S-wave (km/s) = 5.88677 3.51827 4.84935
# Velocity P-wave (km/s) = 8.38835 7.12213 7.78104
#
# Compressibility (1/GPa) = 0.01811288
#
# Stress axis : x y z
#
# Youngs Moduli (GPa) = 60.98290 132.13825 112.80502
#
# Poissons Ratio (x) = 0.34634 0.23420
# Poissons Ratio (y) = 0.15984 0.30026
# Poissons Ratio (z) = 0.12661 0.35172
#
# Static dielectric constant tensor:
#      x y z
#    x 1.903730 0.000000 0.008730 
#    y 0.000000 1.845680 0.000000 
#    z 0.008730 0.000000 1.902720 
# 
# From -- ./inp_files/10413.got.cif
#   From: 2010.05.17/outbox.cif.g08.bks.cpg/sg8_6_cif.got.tgz:10413.got - 2010.06.03 19:46:02.
