data_PCOD9133952
_publ_section_title
;
Structure prediction by ZEFSAII (Michael W. Deem and Ramdas Pophale) SiO2 
 PCOD9133952
Probable space group: C C
;
_chemical_formula_sum "Si O2"
_cell_formula_units_Z 24
_cell_length_a 9.409738
_cell_length_b 15.811831
_cell_length_c 9.290542
_cell_angle_alpha 90.000000
_cell_angle_beta 145.034483
_cell_angle_gamma 90.000000
_cell_volume 792.170242
_symmetry_space_group_name_H-M "C C"
_symmetry_group_IT_number 9
_symmetry_cell_setting 'monoclinic'
loop_
_space_group_symop_operation_xyz
x,y,z
x,-y,1/2+z
1/2+x,1/2+y,z
1/2+x,1/2-y,1/2+z
loop_
_atom_site_type_symbol
_atom_site_label
_atom_site_fract_x
_atom_site_fract_y
_atom_site_fract_z
Si Si1 0.359500 0.027079 0.030150
Si Si2 0.408172 0.354664 0.885794
Si Si3 0.441578 0.715761 0.010384
Si Si4 0.459522 0.109936 0.820536
Si Si5 0.625174 0.828605 0.913773
Si Si6 0.409892 0.453403 0.357634
O O1 0.437156 0.117246 0.161227
O O2 0.500031 0.945270 0.211136
O O3 0.384665 0.040284 0.881887
O O4 0.090998 0.018355 0.877734
O O5 0.333450 0.305208 0.968402
O O6 0.362547 0.454625 0.885523
O O7 0.206780 0.346565 0.589945
O O8 0.697731 0.341343 0.092576
O O9 0.148690 0.738934 0.781602
O O10 0.497723 0.754786 0.897537
O O11 0.505515 0.616487 0.051033
O O12 0.715962 0.896470 0.107548
#
# Coordination Sequence:
#
# PCOD9133952 Si02
#       6
#     4   4   4   4   4   4
#     4  10  18  32  46  72 104 138 168 218 262 324
#     4  10  20  30  48  70 102 140 168 216 266 320
#     4  10  20  30  48  70 102 140 168 216 266 320
#     4  10  20  30  48  70 102 140 168 216 266 320
#     4  10  18  32  46  72 104 138 168 218 262 324
#     4  10  18  32  46  72 104 138 168 218 262 324
#
# _framework density 30.296514999999999
#
# number of rings (size 3 to 8) (size 9 to 14) (size 15 to 20)
#    0.000    2.000    5.000    0.000    0.000    0.000 
#    0.000    0.000    0.000    0.000    0.000    0.000 
#    5.000   18.000    0.000    0.000    0.000    0.000 
#
# Total GULP energy -67252.482990 kJ/mol
# GULP energy per Si atom -5604.373583 kJ/mol
# Density = 3.022756 g / cm^3
# Si number density = 30.296515 Si / 1000 Ang^3
#
#
#
# Elastic Constant Matrix: (Units=GPa)
#
#
# Indices 1 2 3 4 5 6 
#
# 1 88.3727 22.1437 50.5395 0.0004 -17.1254 0.0003
# 2 22.1437 181.3684 37.1180 0.0001 -7.9828 0.0001
# 3 50.5395 37.1180 189.6554 0.0006 10.3428 0.0006
# 4 0.0004 0.0001 0.0006 39.1815 0.0004 -15.8506
# 5 -17.1254 -7.9828 10.3428 0.0004 71.2753 0.0002
# 6 0.0003 0.0001 0.0006 -15.8506 0.0002 41.0367
#
#
#
# Elastic Compliance Matrix: (Units=1/GPa)
#
#
# Indices 1 2 3 4 5 6 
#
# 1 0.014535 -0.000794 -0.003935 0.000000 0.003974 0.000000
# 2 -0.000794 0.005834 -0.000963 0.000000 0.000602 0.000000
# 3 -0.003935 -0.000963 0.006619 0.000000 -0.002014 0.000000
# 4 0.000000 0.000000 0.000000 0.030249 0.000000 0.011684
# 5 0.003974 0.000602 -0.002014 0.000000 0.015345 0.000000
# 6 0.000000 0.000000 0.000000 0.011684 0.000000 0.028881
#
#
# Mechanical properties :
#
#
# Convention : Reuss Voigt Hill
#
# Bulk Modulus (GPa) = 64.08284 75.44431 69.76357
# Shear Modulus (GPa) = 42.35520 53.60506 47.98013
#
# Velocity S-wave (km/s) = 3.74307 4.21092 3.98387
# Velocity P-wave (km/s) = 6.31495 6.97127 6.65121
#
# Compressibility (1/GPa) = 0.01560480
#
# Stress axis : x y z
#
# Youngs Moduli (GPa) = 68.79896 171.40239 151.06895
#
# Poissons Ratio (x) = 0.13617 0.59439
# Poissons Ratio (y) = 0.05466 0.14547
# Poissons Ratio (z) = 0.27069 0.16505
#
# Static dielectric constant tensor:
#      x y z
#    x 2.381890 0.000000 0.144980 
#    y 0.000000 2.255770 0.000000 
#    z 0.144980 0.000000 2.663010 
# 
# From -- ./inp_files/1691.got.cif
#   From: 2010.05.17/outbox.cif.g08.bks.cpg/sg9_1_cif.got.tgz:1691.got - 2010.06.03 20:04:27.
