data_PCOD9133774
_publ_section_title
;
Structure prediction by ZEFSAII (Michael W. Deem and Ramdas Pophale) SiO2 
 PCOD9133774
Probable space group: C C
;
_chemical_formula_sum "Si O2"
_cell_formula_units_Z 16
_cell_length_a 9.193546
_cell_length_b 13.262745
_cell_length_c 10.593988
_cell_angle_alpha 90.000000
_cell_angle_beta 151.469754
_cell_angle_gamma 90.000000
_cell_volume 616.965432
_symmetry_space_group_name_H-M "C C"
_symmetry_group_IT_number 9
_symmetry_cell_setting 'monoclinic'
loop_
_space_group_symop_operation_xyz
x,y,z
x,-y,1/2+z
1/2+x,1/2+y,z
1/2+x,1/2-y,1/2+z
loop_
_atom_site_type_symbol
_atom_site_label
_atom_site_fract_x
_atom_site_fract_y
_atom_site_fract_z
Si Si1 0.974860 0.297982 0.348640
Si Si2 0.393187 0.138466 0.049729
Si Si3 0.198599 0.190558 0.178519
Si Si4 0.029634 0.036914 0.578437
O O1 0.908367 0.278955 0.448827
O O2 0.803527 0.405945 0.207390
O O3 0.333425 0.278266 0.639104
O O4 0.349038 0.179812 0.154082
O O5 0.700797 0.072405 0.280845
O O6 0.108592 0.072097 0.781688
O O7 0.454555 0.221577 0.471859
O O8 0.055408 0.081899 0.091687
#
# Coordination Sequence:
#
# PCOD9133774 Si02
#       4
#     4   4   4   4
#     4  10  16  30  54  81 112 147 188 240 295 338
#     4  10  20  36  58  87 121 151 198 253 303 344
#     4  12  24  38  64  96 120 159 210 252 298 363
#     4  10  22  36  56  90 129 153 192 257 312 351
#
# _framework density 25.933382000000002
#
# number of rings (size 3 to 8) (size 9 to 14) (size 15 to 20)
#    1.500    0.000    2.500    4.500    0.000    0.000 
#    0.000    0.000    0.000    9.000    0.000    0.000 
#    0.000    0.000    0.000    0.000    0.000    0.000 
#
# Total GULP energy -44661.625387 kJ/mol
# GULP energy per Si atom -5582.703173 kJ/mol
# Density = 2.587436 g / cm^3
# Si number density = 25.933382 Si / 1000 Ang^3
#
#
#
# Elastic Constant Matrix: (Units=GPa)
#
#
# Indices 1 2 3 4 5 6 
#
# 1 76.5625 1.0716 0.1145 0.0019 -15.0997 0.0013
# 2 1.0716 112.7677 19.4150 -0.0006 8.6854 -0.0004
# 3 0.1145 19.4150 153.7597 0.0052 6.1942 0.0042
# 4 0.0019 -0.0006 0.0052 44.9575 0.0027 4.0695
# 5 -15.0997 8.6854 6.1942 0.0027 30.8652 0.0022
# 6 0.0013 -0.0004 0.0042 4.0695 0.0022 24.2220
#
#
#
# Elastic Compliance Matrix: (Units=1/GPa)
#
#
# Indices 1 2 3 4 5 6 
#
# 1 0.014517 -0.000665 -0.000222 -0.000001 0.007334 -0.000001
# 2 -0.000665 0.009266 -0.001060 0.000000 -0.002720 0.000001
# 3 -0.000222 -0.001060 0.006684 -0.000001 -0.001152 -0.000001
# 4 -0.000001 0.000000 -0.000001 0.022587 -0.000002 -0.003795
# 5 0.007334 -0.002720 -0.001152 -0.000002 0.036983 -0.000003
# 6 -0.000001 0.000001 -0.000001 -0.003795 -0.000003 0.041922
#
#
# Mechanical properties :
#
#
# Convention : Reuss Voigt Hill
#
# Bulk Modulus (GPa) = 37.63113 42.69912 40.16512
# Shear Modulus (GPa) = 34.55161 41.50822 38.02992
#
# Velocity S-wave (km/s) = 3.65406 4.00505 3.83358
# Velocity P-wave (km/s) = 5.68727 6.15532 5.92592
#
# Compressibility (1/GPa) = 0.02657374
#
# Stress axis : x y z
#
# Youngs Moduli (GPa) = 68.88382 107.92061 149.60966
#
# Poissons Ratio (x) = 0.07171 0.03326
# Poissons Ratio (y) = 0.04577 0.15858
# Poissons Ratio (z) = 0.01532 0.11439
#
# Static dielectric constant tensor:
#      x y z
#    x 2.293140 0.000000 0.203810 
#    y 0.000000 2.046160 0.000000 
#    z 0.203810 0.000000 2.090250 
# 
# From -- ./inp_files/59.got.cif
#   From: 2010.05.17/outbox.cif.g08.bks.cpg/sg9_1_cif.got.tgz:59.got - 2010.06.03 20:04:27.
