data_PCOD9133345
_publ_section_title
;
Structure prediction by ZEFSAII (Michael W. Deem and Ramdas Pophale) SiO2 
 PCOD9133345
Probable space group: C M
;
_chemical_formula_sum "Si O2"
_cell_formula_units_Z 28
_cell_length_a 13.855200
_cell_length_b 21.283086
_cell_length_c 4.990653
_cell_angle_alpha 90.000000
_cell_angle_beta 66.650310
_cell_angle_gamma 90.000000
_cell_volume 1351.127019
_symmetry_space_group_name_H-M "C M"
_symmetry_group_IT_number 8
_symmetry_cell_setting 'monoclinic'
loop_
_space_group_symop_operation_xyz
x,y,z
x,-y,z
1/2+x,1/2+y,z
1/2+x,1/2-y,z
loop_
_atom_site_type_symbol
_atom_site_label
_atom_site_fract_x
_atom_site_fract_y
_atom_site_fract_z
Si Si1 0.219340 0.752723 0.700240
Si Si2 0.159735 0.881052 0.034795
Si Si3 0.779942 0.572630 0.403418
Si Si4 0.918030 0.317113 0.190302
Si Si5 0.518088 0.762245 0.567275
Si Si6 0.421698 0.426275 0.217123
Si Si7 0.364237 0.648923 0.770836
O O1 0.174676 0.808087 0.940119
O O2 0.317370 0.780687 0.422886
O O3 0.129720 0.736373 0.586233
O O4 0.267061 0.694299 0.810303
O O5 0.239593 0.916949 0.748500
O O6 0.195000 0.895566 0.297403
O O7 0.044434 0.907058 0.099325
O O8 0.787959 0.500000 0.331297
O O9 0.887471 0.610456 0.243983
O O10 0.009983 0.295073 0.288568
O O11 0.941186 0.297754 0.862347
O O12 0.468360 0.692433 0.609348
O O13 0.412654 0.500000 0.164609
O O14 0.371429 0.408198 0.555743
O O15 0.369135 0.380257 0.058415
#
# Coordination Sequence:
#
# PCOD9133345 Si02
#       7
#     4   4   4   4   4   4   4
#     4  10  23  39  65  88 126 155 202 262 305 358
#     4  11  23  37  60  90 119 160 199 251 309 362
#     4  11  21  37  58  85 122 157 195 242 302 368
#     4  10  23  37  58  92 119 156 201 244 312 361
#     4  11  22  40  61  88 122 152 200 261 304 359
#     4  12  24  40  60  88 129 164 203 246 301 378
#     4  11  23  40  60  93 118 164 202 246 313 362
#
# _framework density 20.72344
#
# number of rings (size 3 to 8) (size 9 to 14) (size 15 to 20)
#    0.000    1.143    1.429    6.857    2.000    4.571 
#    0.000    0.000    0.000    5.143    0.000    0.000 
#    0.000    0.000    0.000    0.000    0.000    0.000 
#
# Total GULP energy -78376.715182 kJ/mol
# GULP energy per Si atom -5598.336799 kJ/mol
# Density = 2.067627 g / cm^3
# Si number density = 20.723440 Si / 1000 Ang^3
#
#
#
# Elastic Constant Matrix: (Units=GPa)
#
#
# Indices 1 2 3 4 5 6 
#
# 1 104.0459 40.7797 -11.2468 0.0000 13.8160 0.0000
# 2 40.7797 110.6261 -1.7274 0.0000 -1.9727 0.0000
# 3 -11.2468 -1.7274 47.0350 0.0000 10.4107 0.0000
# 4 0.0000 0.0000 0.0000 27.5957 0.0000 3.7049
# 5 13.8160 -1.9727 10.4107 0.0000 28.3824 0.0000
# 6 0.0000 0.0000 0.0000 3.7049 0.0000 21.6150
#
#
#
# Elastic Compliance Matrix: (Units=1/GPa)
#
#
# Indices 1 2 3 4 5 6 
#
# 1 0.013214 -0.004948 0.004874 0.000000 -0.008564 0.000000
# 2 -0.004948 0.010905 -0.001615 0.000000 0.003759 0.000000
# 3 0.004874 -0.001615 0.024942 0.000000 -0.011633 0.000000
# 4 0.000000 0.000000 0.000000 0.037091 0.000000 -0.006358
# 5 -0.008564 0.003759 -0.011633 0.000000 0.043930 0.000000
# 6 0.000000 0.000000 0.000000 -0.006358 0.000000 0.047354
#
#
# Mechanical properties :
#
#
# Convention : Reuss Voigt Hill
#
# Bulk Modulus (GPa) = 21.88958 35.25755 28.57357
# Shear Modulus (GPa) = 25.50477 31.11206 28.30842
#
# Velocity S-wave (km/s) = 3.51197 3.87886 3.69997
# Velocity P-wave (km/s) = 5.19912 6.09189 5.66312
#
# Compressibility (1/GPa) = 0.04568383
#
# Stress axis : x y z
#
# Youngs Moduli (GPa) = 75.67506 91.69969 40.09351
#
# Poissons Ratio (x) = 0.45371 -0.19540
# Poissons Ratio (y) = 0.37442 0.06473
# Poissons Ratio (z) = -0.36881 0.14805
#
# Static dielectric constant tensor:
#      x y z
#    x 1.748250 0.000000 -0.017540 
#    y 0.000000 1.727740 0.000000 
#    z -0.017540 0.000000 1.742090 
# 
# From -- ./inp_files/4051.got.cif
#   From: 2010.05.17/outbox.cif.g08.bks.cpg/sg8_3_cif.got.tgz:4051.got - 2010.06.03 19:46:02.
