data_PCOD9133082
_publ_section_title
;
Structure prediction by ZEFSAII (Michael W. Deem and Ramdas Pophale) SiO2 
 PCOD9133082
Probable space group: C M
;
_chemical_formula_sum "Si O2"
_cell_formula_units_Z 24
_cell_length_a 11.955778
_cell_length_b 21.680976
_cell_length_c 8.729807
_cell_angle_alpha 90.000000
_cell_angle_beta 153.439085
_cell_angle_gamma 90.000000
_cell_volume 1011.844096
_symmetry_space_group_name_H-M "C M"
_symmetry_group_IT_number 8
_symmetry_cell_setting 'monoclinic'
loop_
_space_group_symop_operation_xyz
x,y,z
x,-y,z
1/2+x,1/2+y,z
1/2+x,1/2-y,z
loop_
_atom_site_type_symbol
_atom_site_label
_atom_site_fract_x
_atom_site_fract_y
_atom_site_fract_z
Si Si1 0.740320 0.636219 0.902850
Si Si2 0.602840 0.068301 0.802926
Si Si3 0.581973 0.567876 0.975212
Si Si4 0.945079 0.332551 0.833991
Si Si5 0.414697 0.249392 0.511908
Si Si6 0.721222 0.848117 0.688725
O O1 0.607414 0.578941 0.823735
O O2 0.766231 0.647318 0.753437
O O3 0.606740 0.697918 0.798098
O O4 0.015407 0.632111 0.311399
O O5 0.557492 0.105098 0.901886
O O6 0.769014 0.109868 0.896613
O O7 0.699367 0.000000 0.944249
O O8 0.346318 0.065193 0.388566
O O9 0.460060 0.500000 0.854772
O O10 0.464941 0.631778 0.893654
O O11 0.835066 0.295082 0.554312
O O12 0.168549 0.287052 0.160863
O O13 0.584703 0.211601 0.596071
#
# Coordination Sequence:
#
# PCOD9133082 Si02
#       6
#     4   4   4   4   4   4
#     4  11  24  39  64  97 135 173 222 279 338 397
#     4   9  21  42  68  97 130 176 233 283 337 402
#     4  10  22  43  70 100 134 180 232 280 340 407
#     4  11  25  41  65  98 138 181 224 281 342 403
#     4  11  24  42  64  98 137 184 221 275 339 409
#     4  10  21  41  69  96 131 178 224 272 338 402
#
# _framework density 23.719069000000001
#
# number of rings (size 3 to 8) (size 9 to 14) (size 15 to 20)
#    0.000    1.667    1.667    1.500    4.667    4.000 
#    0.000    2.500    0.000    0.000    0.000    0.000 
#    0.000    0.000    0.000    0.000    0.000    0.000 
#
# Total GULP energy -66856.873633 kJ/mol
# GULP energy per Si atom -5571.406136 kJ/mol
# Density = 2.366508 g / cm^3
# Si number density = 23.719069 Si / 1000 Ang^3
#
#
#
# Elastic Constant Matrix: (Units=GPa)
#
#
# Indices 1 2 3 4 5 6 
#
# 1 142.7085 48.0308 2.3058 0.0002 -6.5043 0.0002
# 2 48.0308 95.2649 15.9256 0.0001 -10.0700 -0.0001
# 3 2.3058 15.9256 45.1218 0.0007 -6.5552 0.0006
# 4 0.0002 0.0001 0.0007 19.4697 0.0004 -8.4494
# 5 -6.5043 -10.0700 -6.5552 0.0004 14.3263 0.0003
# 6 0.0002 -0.0001 0.0006 -8.4494 0.0003 11.6768
#
#
#
# Elastic Compliance Matrix: (Units=1/GPa)
#
#
# Indices 1 2 3 4 5 6 
#
# 1 0.008519 -0.004366 0.001309 0.000000 0.001398 -0.000001
# 2 -0.004366 0.013982 -0.003826 0.000000 0.006095 0.000000
# 3 0.001309 -0.003826 0.024789 -0.000003 0.009247 -0.000003
# 4 0.000000 0.000000 -0.000003 0.074875 -0.000005 0.054180
# 5 0.001398 0.006095 0.009247 -0.000005 0.078952 -0.000006
# 6 -0.000001 0.000000 -0.000003 0.054180 -0.000006 0.124846
#
#
# Mechanical properties :
#
#
# Convention : Reuss Voigt Hill
#
# Bulk Modulus (GPa) = 29.83021 46.17997 38.00509
# Shear Modulus (GPa) = 14.24883 23.55009 18.89946
#
# Velocity S-wave (km/s) = 2.45365 3.15441 2.82584
# Velocity P-wave (km/s) = 4.54213 5.72529 5.16768
#
# Compressibility (1/GPa) = 0.03352307
#
# Stress axis : x y z
#
# Youngs Moduli (GPa) = 117.37884 71.51823 40.33995
#
# Poissons Ratio (x) = 0.31228 -0.05280
# Poissons Ratio (y) = 0.51252 0.15436
# Poissons Ratio (z) = -0.15362 0.27366
#
# Static dielectric constant tensor:
#      x y z
#    x 2.031010 0.000000 0.045310 
#    y 0.000000 1.918190 0.000000 
#    z 0.045310 0.000000 1.941310 
# 
# From -- ./inp_files/3141.got.cif
#   From: 2010.05.17/outbox.cif.g08.bks.cpg/sg8_2_cif.got.tgz:3141.got - 2010.06.03 19:46:02.
