data_PCOD9133045
_publ_section_title
;
Structure prediction by ZEFSAII (Michael W. Deem and Ramdas Pophale) SiO2 
 PCOD9133045
Probable space group: C M
;
_chemical_formula_sum "Si O2"
_cell_formula_units_Z 28
_cell_length_a 24.298146
_cell_length_b 9.968116
_cell_length_c 7.724999
_cell_angle_alpha 90.000000
_cell_angle_beta 40.005911
_cell_angle_gamma 90.000000
_cell_volume 1202.833568
_symmetry_space_group_name_H-M "C M"
_symmetry_group_IT_number 8
_symmetry_cell_setting 'monoclinic'
loop_
_space_group_symop_operation_xyz
x,y,z
x,-y,z
1/2+x,1/2+y,z
1/2+x,1/2-y,z
loop_
_atom_site_type_symbol
_atom_site_label
_atom_site_fract_x
_atom_site_fract_y
_atom_site_fract_z
Si Si1 0.119020 0.785328 0.312180
Si Si2 0.786653 0.154495 0.761700
Si Si3 0.839635 0.158841 0.230921
Si Si4 0.064988 0.648189 0.987364
Si Si5 0.470104 0.645589 0.424634
Si Si6 0.688177 0.653337 0.518390
Si Si7 0.983067 0.639725 0.809285
O O1 0.046300 0.862977 0.380726
O O2 0.141315 0.847077 0.445398
O O3 0.064061 0.652913 0.489529
O O4 0.207281 0.749554 0.002779
O O5 0.823930 0.178991 0.476881
O O6 0.867909 0.161124 0.697625
O O7 0.756890 0.000000 0.837545
O O8 0.767908 0.247164 0.310099
O O9 0.835332 0.000000 0.207529
O O10 0.926335 0.227213 0.955389
O O11 0.097233 0.500000 0.961915
O O12 0.132987 0.767164 0.795147
O O13 0.022549 0.632368 0.903864
O O14 0.994333 0.714765 0.276619
O O15 0.475038 0.500000 0.314968
O O16 0.707079 0.500000 0.523019
O O17 0.934889 0.500000 0.889044
#
# Coordination Sequence:
#
# PCOD9133045 Si02
#       7
#     4   4   4   4   4   4   4
#     4  11  25  42  67 102 141 183 226 285 341 413
#     4  10  23  44  70 101 135 178 229 283 346 410
#     4  11  23  42  71 101 131 176 235 287 341 412
#     4  10  21  40  66  97 131 176 226 274 337 406
#     4  11  23  43  70 101 136 182 231 284 344 408
#     4  11  24  42  65  98 139 181 228 283 342 405
#     4  10  22  41  65  96 135 178 223 280 343 402
#
# _framework density 23.278365000000001
#
# number of rings (size 3 to 8) (size 9 to 14) (size 15 to 20)
#    0.000    1.429    1.429    3.000    2.000    6.857 
#    0.000    3.571    0.000    0.000    0.000    0.000 
#    0.000    0.000    0.000    0.000    0.000    0.000 
#
# Total GULP energy -78030.505050 kJ/mol
# GULP energy per Si atom -5573.607504 kJ/mol
# Density = 2.322538 g / cm^3
# Si number density = 23.278365 Si / 1000 Ang^3
#
#
#
# Elastic Constant Matrix: (Units=GPa)
#
#
# Indices 1 2 3 4 5 6 
#
# 1 100.9883 35.2230 25.7262 0.0000 -21.2243 0.0000
# 2 35.2230 193.4345 59.2831 0.0000 -12.4321 0.0000
# 3 25.7262 59.2831 98.1302 0.0000 -25.4046 0.0000
# 4 0.0000 0.0000 0.0000 -75.1600 0.0000 -88.4248
# 5 -21.2243 -12.4321 -25.4046 0.0000 33.2904 0.0000
# 6 0.0000 0.0000 0.0000 -88.4248 0.0000 -51.1137
#
#
#
# Elastic Compliance Matrix: (Units=1/GPa)
#
#
# Indices 1 2 3 4 5 6 
#
# 1 0.011987 -0.001621 -0.000426 0.000000 0.006712 0.000000
# 2 -0.001621 0.006576 -0.003963 0.000000 -0.001601 0.000000
# 3 -0.000426 -0.003963 0.015257 0.000000 0.009892 0.000000
# 4 0.000000 0.000000 0.000000 0.012852 0.000000 -0.022233
# 5 0.006712 -0.001601 0.009892 0.000000 0.041268 0.000000
# 6 0.000000 0.000000 0.000000 -0.022233 0.000000 0.018898
#
#
# Mechanical properties :
#
#
# Convention : Reuss Voigt Hill
#
# Bulk Modulus (GPa) = 45.86817 70.33526 58.10172
# Shear Modulus (GPa) = 39.64397 -0.44196 19.60101
#
# Velocity S-wave (km/s) = 4.13127 -0.43620 2.90492
# Velocity P-wave (km/s) = 6.51947 5.47967 6.02205
#
# Compressibility (1/GPa) = 0.02180161
#
# Stress axis : x y z
#
# Youngs Moduli (GPa) = 83.42717 152.05930 65.54419
#
# Poissons Ratio (x) = 0.24646 0.02790
# Poissons Ratio (y) = 0.13522 0.25973
# Poissons Ratio (z) = 0.03551 0.60256
#
# Static dielectric constant tensor:
#      x y z
#    x 1.957050 0.000000 0.014630 
#    y 0.000000 1.885530 0.000000 
#    z 0.014630 0.000000 1.932970 
# 
# From -- ./inp_files/17396.got.cif
#   From: 2010.05.17/outbox.cif.g08.bks.cpg/sg8_9_cif.got.tgz:17396.got - 2010.06.03 19:46:02.
