data_PCOD9133157
_publ_section_title
;
Structure prediction by ZEFSAII (Michael W. Deem and Ramdas Pophale) SiO2 
 PCOD9133157
Probable space group: C M
;
_chemical_formula_sum "Si O2"
_cell_formula_units_Z 32
_cell_length_a 26.149213
_cell_length_b 7.616272
_cell_length_c 25.168961
_cell_angle_alpha 90.000000
_cell_angle_beta 17.234137
_cell_angle_gamma 90.000000
_cell_volume 1485.130175
_symmetry_space_group_name_H-M "C M"
_symmetry_group_IT_number 8
_symmetry_cell_setting 'monoclinic'
loop_
_space_group_symop_operation_xyz
x,y,z
x,-y,z
1/2+x,1/2+y,z
1/2+x,1/2-y,z
loop_
_atom_site_type_symbol
_atom_site_label
_atom_site_fract_x
_atom_site_fract_y
_atom_site_fract_z
Si Si1 0.768570 0.704623 0.054260
Si Si2 0.396120 0.702269 0.042171
Si Si3 0.077709 0.705982 0.426024
Si Si4 0.772477 0.200868 0.652388
Si Si5 0.782189 0.285006 0.922745
Si Si6 0.069054 0.714920 0.553997
Si Si7 0.852303 0.795068 0.459720
Si Si8 0.385575 0.285142 0.310285
O O1 0.819317 0.500000 0.007926
O O2 0.836690 0.791874 0.039798
O O3 0.560038 0.712387 0.260126
O O4 0.827375 0.771597 0.938150
O O5 0.425106 0.500000 0.028170
O O6 0.241824 0.778853 0.230958
O O7 0.579526 0.793651 0.865244
O O8 0.114592 0.500000 0.396350
O O9 0.050200 0.778018 0.512355
O O10 0.909322 0.718314 0.556571
O O11 0.775147 0.281786 0.590340
O O12 0.830711 0.000000 0.588246
O O13 0.782785 0.500000 0.923727
O O14 0.917349 0.227764 0.744307
O O15 0.584889 0.231277 0.106240
O O16 0.062436 0.500000 0.560752
O O17 0.253107 0.766694 0.396180
O O18 0.817997 0.722719 0.435101
O O19 0.797455 0.000000 0.511779
O O20 0.387595 0.500000 0.310105
#
# Coordination Sequence:
#
# PCOD9133157 Si02
#       8
#     4   4   4   4   4   4   4   4
#     4   9  16  31  54  81 111 139 176 227 276 324
#     4  11  23  36  52  79 115 152 183 220 273 333
#     4  10  22  39  55  78 115 151 184 224 272 328
#     4  11  22  36  58  83 107 144 188 233 276 319
#     4   8  15  26  46  77 107 133 170 225 275 313
#     4   9  17  29  49  75 104 141 177 215 269 323
#     4   8  15  28  49  79 110 133 166 221 276 318
#     4   8  14  25  42  72 107 131 160 213 273 320
#
# _framework density 21.546932999999999
#
# number of rings (size 3 to 8) (size 9 to 14) (size 15 to 20)
#    0.000    2.750    1.250    2.250    1.750    1.500 
#    0.000    3.750    0.000    0.750    0.000    0.875 
#    0.000    0.000    0.000    0.000    0.000    0.000 
#
# Total GULP energy -89292.621364 kJ/mol
# GULP energy per Si atom -5580.788835 kJ/mol
# Density = 2.149789 g / cm^3
# Si number density = 21.546933 Si / 1000 Ang^3
#
#
#
# Elastic Constant Matrix: (Units=GPa)
#
#
# Indices 1 2 3 4 5 6 
#
# 1 107.3397 0.4949 59.2975 -0.0078 31.1590 0.0009
# 2 0.4949 41.7099 -1.9973 -0.0176 5.3872 0.0034
# 3 59.2975 -1.9973 112.2091 -0.0182 29.0128 0.0035
# 4 -0.0078 -0.0176 -0.0182 7.0710 0.0046 -1.8768
# 5 31.1590 5.3872 29.0128 0.0046 26.3137 0.0004
# 6 0.0009 0.0034 0.0035 -1.8768 0.0004 15.6773
#
#
#
# Elastic Compliance Matrix: (Units=1/GPa)
#
#
# Indices 1 2 3 4 5 6 
#
# 1 0.016027 0.001375 -0.004847 0.000018 -0.013915 0.000002
# 2 0.001375 0.025230 0.002069 0.000076 -0.009075 0.000003
# 3 -0.004847 0.002069 0.014177 0.000044 -0.010316 0.000002
# 4 0.000018 0.000076 0.000044 0.146064 -0.000111 0.017486
# 5 -0.013915 -0.009075 -0.010316 -0.000111 0.067712 -0.000010
# 6 0.000002 0.000003 0.000002 0.017486 -0.000010 0.065880
#
#
# Mechanical properties :
#
#
# Convention : Reuss Voigt Hill
#
# Bulk Modulus (GPa) = 19.00140 41.87212 30.43676
# Shear Modulus (GPa) = 14.06709 23.37664 18.72187
#
# Velocity S-wave (km/s) = 2.55788 3.29738 2.95089
# Velocity P-wave (km/s) = 4.19064 5.82856 5.07610
#
# Compressibility (1/GPa) = 0.05262770
#
# Stress axis : x y z
#
# Youngs Moduli (GPa) = 62.39491 39.63543 70.53458
#
# Poissons Ratio (x) = -0.05450 0.34189
# Poissons Ratio (y) = -0.08579 -0.14592
# Poissons Ratio (z) = 0.30244 -0.08200
#
# Static dielectric constant tensor:
#      x y z
#    x 1.772480 0.000000 0.035200 
#    y 0.000000 1.829260 0.000000 
#    z 0.035200 0.000000 1.763340 
# 
# From -- ./inp_files/32393.got.cif
#   From: 2010.05.17/outbox.cif.g08.bks.cpg/sg8_17_cif.got.tgz:32393.got - 2010.06.03 19:46:02.
