data_PCOD9133918
_publ_section_title
;
Structure prediction by ZEFSAII (Michael W. Deem and Ramdas Pophale) SiO2 
 PCOD9133918
Probable space group: C C
;
_chemical_formula_sum "Si O2"
_cell_formula_units_Z 32
_cell_length_a 22.578107
_cell_length_b 8.691992
_cell_length_c 20.106214
_cell_angle_alpha 90.000000
_cell_angle_beta 20.747833
_cell_angle_gamma 90.000000
_cell_volume 1397.828707
_symmetry_space_group_name_H-M "C C"
_symmetry_group_IT_number 9
_symmetry_cell_setting 'monoclinic'
loop_
_space_group_symop_operation_xyz
x,y,z
x,-y,1/2+z
1/2+x,1/2+y,z
1/2+x,1/2-y,1/2+z
loop_
_atom_site_type_symbol
_atom_site_label
_atom_site_fract_x
_atom_site_fract_y
_atom_site_fract_z
Si Si1 0.393700 0.326037 0.488310
Si Si2 0.747346 0.503255 0.630840
Si Si3 0.744945 0.855789 0.501382
Si Si4 0.451418 0.984185 0.639965
Si Si5 0.158017 0.064941 0.362845
Si Si6 0.190640 0.302616 0.831441
Si Si7 0.314484 0.548684 0.788107
Si Si8 0.373212 0.019158 0.365728
O O1 0.576157 0.398534 0.303151
O O2 0.384880 0.138946 0.497348
O O3 0.317297 0.383100 0.498817
O O4 0.285969 0.364678 0.666533
O O5 0.717953 0.395485 0.725290
O O6 0.797433 0.428290 0.507878
O O7 0.557836 0.918688 0.690656
O O8 0.758443 0.671492 0.478166
O O9 0.845522 0.926270 0.333345
O O10 0.393681 0.051935 0.771441
O O11 0.298692 0.893738 0.768784
O O12 0.512431 0.111917 0.523598
O O13 0.624976 0.892768 0.471165
O O14 0.163160 0.877473 0.358240
O O15 0.970541 0.103447 0.580783
O O16 0.282321 0.370909 0.800295
#
# Coordination Sequence:
#
# PCOD9133918 Si02
#       8
#     4   4   4   4   4   4   4   4
#     4  10  18  28  48  70  99 127 152 202 249 293
#     4  10  19  28  46  74  96 126 159 193 254 294
#     4  10  20  32  50  69 102 130 159 206 241 287
#     4   9  21  31  48  72 102 129 162 195 240 295
#     4  11  19  31  54  73 100 131 153 203 244 293
#     4   9  19  34  46  76 103 121 163 197 243 292
#     4   9  20  33  45  75 100 128 166 189 245 295
#     4  10  20  33  47  73 100 128 164 201 242 291
#
# _framework density 22.892645999999999
#
# number of rings (size 3 to 8) (size 9 to 14) (size 15 to 20)
#    0.750    1.500    1.250    3.750   10.500    0.000 
#    0.000    0.000    0.000    0.000    0.000   10.500 
#    0.000    0.000    0.000    0.000    0.000    0.000 
#
# Total GULP energy -89227.102289 kJ/mol
# GULP energy per Si atom -5576.693893 kJ/mol
# Density = 2.284054 g / cm^3
# Si number density = 22.892646 Si / 1000 Ang^3
#
#
#
# Elastic Constant Matrix: (Units=GPa)
#
#
# Indices 1 2 3 4 5 6 
#
# 1 140.6322 10.7441 62.9331 -0.0007 28.0167 0.0003
# 2 10.7441 22.3007 -1.8765 -0.0018 3.5576 0.0014
# 3 62.9331 -1.8765 135.7675 -0.0017 30.1427 0.0015
# 4 -0.0007 -0.0018 -0.0017 26.1950 0.0011 -1.4517
# 5 28.0167 3.5576 30.1427 0.0011 56.4701 -0.0007
# 6 0.0003 0.0014 0.0015 -1.4517 -0.0007 17.4671
#
#
#
# Elastic Compliance Matrix: (Units=1/GPa)
#
#
# Indices 1 2 3 4 5 6 
#
# 1 0.009758 -0.004663 -0.004059 0.000000 -0.002381 0.000000
# 2 -0.004663 0.047771 0.003376 0.000003 -0.002498 -0.000004
# 3 -0.004059 0.003376 0.010089 0.000001 -0.003585 -0.000001
# 4 0.000000 0.000003 0.000001 0.038352 -0.000001 0.003187
# 5 -0.002381 -0.002498 -0.003585 -0.000001 0.020960 0.000001
# 6 0.000000 -0.000004 -0.000001 0.003187 0.000001 0.057515
#
#
# Mechanical properties :
#
#
# Convention : Reuss Voigt Hill
#
# Bulk Modulus (GPa) = 17.56631 49.14464 33.35547
# Shear Modulus (GPa) = 23.35228 35.15310 29.25269
#
# Velocity S-wave (km/s) = 3.19733 3.92288 3.57854
# Velocity P-wave (km/s) = 4.61742 6.48326 5.62820
#
# Compressibility (1/GPa) = 0.05692715
#
# Stress axis : x y z
#
# Youngs Moduli (GPa) = 102.48389 20.93330 99.11325
#
# Poissons Ratio (x) = 0.09761 0.40229
# Poissons Ratio (y) = 0.47786 -0.33464
# Poissons Ratio (z) = 0.41597 -0.07068
#
# Static dielectric constant tensor:
#      x y z
#    x 1.927490 0.000000 -0.002190 
#    y 0.000000 1.887920 0.000000 
#    z -0.002190 0.000000 1.909820 
# 
# From -- ./inp_files/12217.got.cif
#   From: 2010.05.17/outbox.cif.g08.bks.cpg/sg9_7_cif.got.tgz:12217.got - 2010.06.03 20:04:27.
