data_PCOD9133030
_publ_section_title
;
Structure prediction by ZEFSAII (Michael W. Deem and Ramdas Pophale) SiO2 
 PCOD9133030
Probable space group: C M
;
_chemical_formula_sum "Si O2"
_cell_formula_units_Z 20
_cell_length_a 19.083134
_cell_length_b 9.939546
_cell_length_c 13.023806
_cell_angle_alpha 90.000000
_cell_angle_beta 20.441743
_cell_angle_gamma 90.000000
_cell_volume 862.773043
_symmetry_space_group_name_H-M "C M"
_symmetry_group_IT_number 8
_symmetry_cell_setting 'monoclinic'
loop_
_space_group_symop_operation_xyz
x,y,z
x,-y,z
1/2+x,1/2+y,z
1/2+x,1/2-y,z
loop_
_atom_site_type_symbol
_atom_site_label
_atom_site_fract_x
_atom_site_fract_y
_atom_site_fract_z
Si Si1 0.371200 0.227102 0.695380
Si Si2 0.162651 0.500000 0.210455
Si Si3 0.098304 0.000000 0.429176
Si Si4 0.826216 0.000000 0.190200
Si Si5 0.641172 0.280288 0.801428
Si Si6 0.493212 0.000000 0.999302
Si Si7 0.348877 0.000000 0.878421
Si Si8 0.947282 0.500000 0.300501
O O1 0.545429 0.132762 0.409109
O O2 0.469332 0.363911 0.600063
O O3 0.217260 0.240827 0.813358
O O4 0.283593 0.134039 0.906216
O O5 0.348831 0.500000 0.033350
O O6 0.124052 0.500000 0.142354
O O7 0.255325 0.000000 0.306297
O O8 0.245039 0.000000 0.129511
O O9 0.592373 0.000000 0.543103
O O10 0.940195 0.130644 0.075042
O O11 0.808320 0.370190 0.515105
O O12 0.594343 0.135334 0.818472
O O13 0.518765 0.000000 0.086786
#
# Coordination Sequence:
#
# PCOD9133030 Si02
#       8
#     4   2   2   2   4   2   2   2
#     4   9  20  41  63  89 125 163 210 254 304 376
#     4   8  16  37  63  84 118 160 199 244 301 366
#     4  12  25  40  62  94 126 165 216 257 303 371
#     4   9  17  38  69  94 123 164 207 253 312 377
#     4  10  21  40  63  91 126 162 205 258 309 369
#     4  12  24  37  59  93 122 158 214 255 303 370
#     4  10  22  42  65  89 124 168 203 257 317 360
#     4   9  22  42  60  84 125 167 199 252 312 360
#
# _framework density 23.181068
#
# number of rings (size 3 to 8) (size 9 to 14) (size 15 to 20)
#    0.000    2.400    0.000    4.800    0.000    6.400 
#    0.000    9.000    0.000    0.000    0.000    0.000 
#    0.000    0.000    0.000    0.000    0.000    0.000 
#
# Total GULP energy -55902.602218 kJ/mol
# GULP energy per Si atom -5590.260222 kJ/mol
# Density = 2.312831 g / cm^3
# Si number density = 23.181068 Si / 1000 Ang^3
#
#
#
# Elastic Constant Matrix: (Units=GPa)
#
#
# Indices 1 2 3 4 5 6 
#
# 1 94.3150 32.6327 12.5295 0.0000 -26.9701 0.0000
# 2 32.6327 211.0281 49.2180 0.0000 -23.6180 0.0000
# 3 12.5295 49.2180 65.9059 0.0000 -4.3546 0.0000
# 4 0.0000 0.0000 0.0000 14.1906 0.0000 -15.3998
# 5 -26.9701 -23.6180 -4.3546 0.0000 43.2433 0.0000
# 6 0.0000 0.0000 0.0000 -15.3998 0.0000 24.9590
#
#
#
# Elastic Compliance Matrix: (Units=1/GPa)
#
#
# Indices 1 2 3 4 5 6 
#
# 1 0.013280 -0.000878 -0.001363 0.000000 0.007666 0.000000
# 2 -0.000878 0.006133 -0.004256 0.000000 0.002373 0.000000
# 3 -0.001363 -0.004256 0.018524 0.000000 -0.001309 0.000000
# 4 0.000000 0.000000 0.000000 0.213273 0.000000 0.131591
# 5 0.007666 0.002373 -0.001309 0.000000 0.029070 0.000000
# 6 0.000000 0.000000 0.000000 0.131591 0.000000 0.121258
#
#
# Mechanical properties :
#
#
# Convention : Reuss Voigt Hill
#
# Bulk Modulus (GPa) = 40.09084 62.22326 51.15705
# Shear Modulus (GPa) = 11.82465 34.93648 23.38057
#
# Velocity S-wave (km/s) = 2.26099 3.88637 3.17930
# Velocity P-wave (km/s) = 4.91409 6.85850 5.96604
#
# Compressibility (1/GPa) = 0.02494335
#
# Stress axis : x y z
#
# Youngs Moduli (GPa) = 75.30387 163.05919 53.98345
#
# Poissons Ratio (x) = 0.14313 0.07356
# Poissons Ratio (y) = 0.06610 0.22976
# Poissons Ratio (z) = 0.10261 0.69401
#
# Static dielectric constant tensor:
#      x y z
#    x 1.882410 0.000000 0.001940 
#    y 0.000000 1.854980 0.000000 
#    z 0.001940 0.000000 1.880690 
# 
# From -- ./inp_files/9661.got.cif
#   From: 2010.05.17/outbox.cif.g08.bks.cpg/sg8_5_cif.got.tgz:9661.got - 2010.06.03 19:46:02.
