data_PCOD9133604
_publ_section_title
;
Structure prediction by ZEFSAII (Michael W. Deem and Ramdas Pophale) SiO2 
 PCOD9133604
Probable space group: C M
;
_chemical_formula_sum "Si O2"
_cell_formula_units_Z 18
_cell_length_a 10.626929
_cell_length_b 7.657417
_cell_length_c 9.365705
_cell_angle_alpha 90.000000
_cell_angle_beta 77.255992
_cell_angle_gamma 90.000000
_cell_volume 743.357787
_symmetry_space_group_name_H-M "C M"
_symmetry_group_IT_number 8
_symmetry_cell_setting 'monoclinic'
loop_
_space_group_symop_operation_xyz
x,y,z
x,-y,z
1/2+x,1/2+y,z
1/2+x,1/2-y,z
loop_
_atom_site_type_symbol
_atom_site_label
_atom_site_fract_x
_atom_site_fract_y
_atom_site_fract_z
Si Si1 0.845340 0.196083 0.186710
Si Si2 0.001801 0.500000 0.234495
Si Si3 0.028673 0.292457 0.747832
Si Si4 0.245772 0.792123 0.924190
Si Si5 0.112295 0.199985 0.413755
O O1 0.761593 0.251522 0.345276
O O2 0.948124 0.346238 0.138857
O O3 0.894449 0.000000 0.183547
O O4 0.744279 0.201499 0.079524
O O5 0.036397 0.345197 0.343483
O O6 0.025312 0.500000 0.728436
O O7 0.130843 0.250426 0.845907
O O8 0.076319 0.211137 0.587845
O O9 0.883492 0.235988 0.823002
O O10 0.245636 0.000000 0.947025
O O11 0.094132 0.000000 0.369625
#
# Coordination Sequence:
#
# PCOD9133604 Si02
#       5
#     4   2   4   4   4
#     4  12  26  47  75 107 146 194 243 307 363 439
#     4  12  26  48  74 108 144 192 252 296 378 422
#     4  11  26  47  72 107 149 192 245 303 368 439
#     4  11  26  47  72 107 149 192 245 303 368 439
#     4  12  26  47  75 107 146 194 243 307 363 439
#
# _framework density 24.214448000000001
#
# number of rings (size 3 to 8) (size 9 to 14) (size 15 to 20)
#    0.000    0.444    4.444    2.000    6.222    3.556 
#    0.000    0.000    0.000    0.000    0.000    0.000 
#    0.000    0.000    0.000    0.000    0.000    0.000 
#
# Total GULP energy -50185.397674 kJ/mol
# GULP energy per Si atom -5576.155297 kJ/mol
# Density = 2.415934 g / cm^3
# Si number density = 24.214448 Si / 1000 Ang^3
#
#
#
# Elastic Constant Matrix: (Units=GPa)
#
#
# Indices 1 2 3 4 5 6 
#
# 1 123.8347 26.1920 41.4232 0.0000 5.9999 0.0000
# 2 26.1920 227.6830 19.7935 0.0000 7.6493 0.0000
# 3 41.4232 19.7935 105.2204 0.0000 -12.9541 0.0000
# 4 0.0000 0.0000 0.0000 35.1264 0.0000 14.3210
# 5 5.9999 7.6493 -12.9541 0.0000 44.9740 0.0000
# 6 0.0000 0.0000 0.0000 14.3210 0.0000 -0.4730
#
#
#
# Elastic Compliance Matrix: (Units=1/GPa)
#
#
# Indices 1 2 3 4 5 6 
#
# 1 0.009656 -0.000689 -0.003956 0.000000 -0.002311 0.000000
# 2 -0.000689 0.004562 -0.000696 0.000000 -0.000884 0.000000
# 3 -0.003956 -0.000696 0.011686 0.000000 0.004012 0.000000
# 4 0.000000 0.000000 0.000000 0.002134 0.000000 0.064594
# 5 -0.002311 -0.000884 0.004012 0.000000 0.023849 0.000000
# 6 0.000000 0.000000 0.000000 0.064594 0.000000 -0.158437
#
#
# Mechanical properties :
#
#
# Convention : Reuss Voigt Hill
#
# Bulk Modulus (GPa) = 65.69560 70.17284 67.93422
# Shear Modulus (GPa) = -55.07033 40.54743 -7.26145
#
# Velocity S-wave (km/s) = -4.77411 4.09652 -1.73359
# Velocity P-wave (km/s) = 1.78882 7.17063 4.91010
#
# Compressibility (1/GPa) = 0.01522172
#
# Stress axis : x y z
#
# Youngs Moduli (GPa) = 103.55785 219.22408 85.57099
#
# Poissons Ratio (x) = 0.15111 0.33855
# Poissons Ratio (y) = 0.07138 0.05952
# Poissons Ratio (z) = 0.40971 0.15249
#
# Static dielectric constant tensor:
#      x y z
#    x 2.070450 0.000000 -0.033410 
#    y 0.000000 1.902430 0.000000 
#    z -0.033410 0.000000 1.890440 
# 
# From -- ./inp_files/9563.got.cif
#   From: 2010.05.17/outbox.cif.g08.bks.cpg/sg8_5_cif.got.tgz:9563.got - 2010.06.03 19:46:02.
