data_PCOD9133907
_publ_section_title
;
Structure prediction by ZEFSAII (Michael W. Deem and Ramdas Pophale) SiO2 
 PCOD9133907
Probable space group: C C
;
_chemical_formula_sum "Si O2"
_cell_formula_units_Z 32
_cell_length_a 15.272929
_cell_length_b 13.266287
_cell_length_c 12.872727
_cell_angle_alpha 90.000000
_cell_angle_beta 40.404845
_cell_angle_gamma 90.000000
_cell_volume 1690.599689
_symmetry_space_group_name_H-M "C C"
_symmetry_group_IT_number 9
_symmetry_cell_setting 'monoclinic'
loop_
_space_group_symop_operation_xyz
x,y,z
x,-y,1/2+z
1/2+x,1/2+y,z
1/2+x,1/2-y,1/2+z
loop_
_atom_site_type_symbol
_atom_site_label
_atom_site_fract_x
_atom_site_fract_y
_atom_site_fract_z
Si Si1 0.886830 0.650851 0.313000
Si Si2 0.993651 0.323245 0.929129
Si Si3 0.597193 0.303882 0.015789
Si Si4 0.671329 0.138243 0.797522
Si Si5 0.798446 0.140024 0.120168
Si Si6 0.993759 0.486369 0.082334
Si Si7 0.736957 0.962378 0.025319
Si Si8 0.403698 0.481805 0.192124
O O1 0.737044 0.694454 0.452291
O O2 0.947423 0.617722 0.367947
O O3 0.886404 0.555639 0.236589
O O4 0.990916 0.732130 0.171090
O O5 0.156085 0.314494 0.789109
O O6 0.946228 0.384337 0.072655
O O7 0.910675 0.221185 0.991899
O O8 0.624639 0.247950 0.880082
O O9 0.540009 0.417426 0.062634
O O10 0.715632 0.118072 0.638279
O O11 0.793863 0.104958 0.762235
O O12 0.558792 0.055490 0.931898
O O13 0.751731 0.069795 0.068086
O O14 0.870624 0.065423 0.136257
O O15 0.111698 0.462091 0.058970
O O16 0.869162 0.963471 0.832011
#
# Coordination Sequence:
#
# PCOD9133907 Si02
#       8
#     4   4   4   4   4   4   4   4
#     4  11  22  35  64  89 123 161 208 262 322 377
#     4  12  22  38  61  92 121 165 215 259 312 385
#     4  11  21  37  61  99 121 160 215 274 308 385
#     4   9  18  34  61  86 119 160 211 250 320 386
#     4  11  23  37  63  90 122 165 213 259 313 381
#     4  10  19  36  60  84 120 160 210 255 316 381
#     4  10  17  39  63  82 117 169 203 246 319 389
#     4  10  20  38  61  88 125 166 211 261 324 382
#
# _framework density 18.928194000000001
#
# number of rings (size 3 to 8) (size 9 to 14) (size 15 to 20)
#    0.000    1.500    6.250    1.500    1.750    1.000 
#    0.000    3.750    2.750    0.000    0.000    0.000 
#    0.000    0.000    0.000    0.000    0.000    0.000 
#
# Total GULP energy -89141.034134 kJ/mol
# GULP energy per Si atom -5571.314633 kJ/mol
# Density = 1.888511 g / cm^3
# Si number density = 18.928194 Si / 1000 Ang^3
#
#
#
# Elastic Constant Matrix: (Units=GPa)
#
#
# Indices 1 2 3 4 5 6 
#
# 1 83.5423 34.6074 40.2177 0.0000 6.7362 0.0000
# 2 34.6074 37.2138 23.7250 0.0000 4.8433 0.0000
# 3 40.2177 23.7250 61.4152 0.0000 7.2081 0.0000
# 4 0.0000 0.0000 0.0000 29.6082 0.0000 -2.9306
# 5 6.7362 4.8433 7.2081 0.0000 37.6877 0.0000
# 6 0.0000 0.0000 0.0000 -2.9306 0.0000 19.5903
#
#
#
# Elastic Compliance Matrix: (Units=1/GPa)
#
#
# Indices 1 2 3 4 5 6 
#
# 1 0.022610 -0.015345 -0.008834 0.000000 -0.000380 0.000000
# 2 -0.015345 0.046214 -0.007599 0.000000 -0.001743 0.000000
# 3 -0.008834 -0.007599 0.025270 0.000000 -0.002278 0.000000
# 4 0.000000 0.000000 0.000000 0.034282 0.000000 0.005128
# 5 -0.000380 -0.001743 -0.002278 0.000000 0.027261 0.000000
# 6 0.000000 0.000000 0.000000 0.005128 0.000000 0.051813
#
#
# Mechanical properties :
#
#
# Convention : Reuss Voigt Hill
#
# Bulk Modulus (GPa) = 32.74627 42.14126 37.44376
# Shear Modulus (GPa) = 17.78186 22.95199 20.36692
#
# Velocity S-wave (km/s) = 3.06835 3.48599 3.28382
# Velocity P-wave (km/s) = 5.46725 6.20604 5.84832
#
# Compressibility (1/GPa) = 0.03053783
#
# Stress axis : x y z
#
# Youngs Moduli (GPa) = 44.22848 21.63852 39.57227
#
# Poissons Ratio (x) = 0.33205 0.34956
# Poissons Ratio (y) = 0.67870 0.30072
# Poissons Ratio (z) = 0.39069 0.16444
#
# Static dielectric constant tensor:
#      x y z
#    x 1.648690 0.000000 0.010210 
#    y 0.000000 1.686770 0.000000 
#    z 0.010210 0.000000 1.722470 
# 
# From -- ./inp_files/10869.got.cif
#   From: 2010.05.17/outbox.cif.g08.bks.cpg/sg9_6_cif.got.tgz:10869.got - 2010.06.03 20:04:27.
