data_PCOD9133065
_publ_section_title
;
Structure prediction by ZEFSAII (Michael W. Deem and Ramdas Pophale) SiO2 
 PCOD9133065
Probable space group: C M
;
_chemical_formula_sum "Si O2"
_cell_formula_units_Z 32
_cell_length_a 14.884763
_cell_length_b 17.374068
_cell_length_c 5.294998
_cell_angle_alpha 90.000000
_cell_angle_beta 94.422456
_cell_angle_gamma 90.000000
_cell_volume 1365.256482
_symmetry_space_group_name_H-M "C M"
_symmetry_group_IT_number 8
_symmetry_cell_setting 'monoclinic'
loop_
_space_group_symop_operation_xyz
x,y,z
x,-y,z
1/2+x,1/2+y,z
1/2+x,1/2-y,z
loop_
_atom_site_type_symbol
_atom_site_label
_atom_site_fract_x
_atom_site_fract_y
_atom_site_fract_z
Si Si1 0.904820 0.906900 0.086040
Si Si2 0.009748 0.851823 0.611551
Si Si3 0.772449 0.584828 0.016295
Si Si4 0.736380 0.194171 0.196168
Si Si5 0.137348 0.416575 0.529060
Si Si6 0.572265 0.792509 0.863613
Si Si7 0.218383 0.839752 0.507491
Si Si8 0.977957 0.418470 0.153947
O O1 0.959025 0.882824 0.352950
O O2 0.821759 0.843789 0.070545
O O3 0.882092 0.000000 0.089997
O O4 0.966500 0.891784 0.850487
O O5 0.010377 0.760457 0.676775
O O6 0.117241 0.855046 0.589974
O O7 0.742162 0.500000 0.930550
O O8 0.775634 0.634469 0.762760
O O9 0.719828 0.611671 0.250662
O O10 0.872731 0.581742 0.150067
O O11 0.691231 0.118025 0.307001
O O12 0.754922 0.255352 0.426203
O O13 0.653080 0.242451 0.048936
O O14 0.171367 0.500000 0.609423
O O15 0.136465 0.352738 0.736521
O O16 0.033089 0.420078 0.423916
O O17 0.508156 0.842429 0.022139
O O18 0.005389 0.500000 0.028569
#
# Coordination Sequence:
#
# PCOD9133065 Si02
#       8
#     4   4   4   4   4   4   4   4
#     4  12  30  51  78 112 151 200 257 315 375 447
#     4  12  28  49  75 107 148 196 255 305 367 440
#     4  11  26  44  72 108 146 190 245 305 365 438
#     4  11  26  46  72 110 147 188 251 310 378 449
#     4  10  21  40  71 103 146 190 230 299 380 456
#     4  11  23  43  72 105 145 192 235 305 369 452
#     4  12  26  47  75 105 146 199 252 308 371 435
#     4   9  22  40  63 106 145 183 231 285 365 445
#
# _framework density 23.43882
#
# number of rings (size 3 to 8) (size 9 to 14) (size 15 to 20)
#    0.000    1.000    1.250    3.750    8.750    4.500 
#    0.000    0.000    0.000    0.000    0.000    0.000 
#    0.000    0.000    0.000    0.000    0.000    0.000 
#
# Total GULP energy -89141.025687 kJ/mol
# GULP energy per Si atom -5571.314105 kJ/mol
# Density = 2.338547 g / cm^3
# Si number density = 23.438820 Si / 1000 Ang^3
#
#
#
# Elastic Constant Matrix: (Units=GPa)
#
#
# Indices 1 2 3 4 5 6 
#
# 1 75.6329 31.6149 20.2999 0.0000 -12.4949 0.0000
# 2 31.6149 94.9453 33.2213 0.0000 -14.3346 0.0000
# 3 20.2999 33.2213 98.4235 0.0000 -18.2463 0.0000
# 4 0.0000 0.0000 0.0000 31.3550 0.0000 -11.4773
# 5 -12.4949 -14.3346 -18.2463 0.0000 21.1317 0.0000
# 6 0.0000 0.0000 0.0000 -11.4773 0.0000 11.4618
#
#
#
# Elastic Compliance Matrix: (Units=1/GPa)
#
#
# Indices 1 2 3 4 5 6 
#
# 1 0.016189 -0.004199 -0.000804 0.000000 0.006030 0.000000
# 2 -0.004199 0.013594 -0.002945 0.000000 0.004196 0.000000
# 3 -0.000804 -0.002945 0.012931 0.000000 0.008693 0.000000
# 4 0.000000 0.000000 0.000000 0.050347 0.000000 0.050415
# 5 0.006030 0.004196 0.008693 0.000000 0.061240 0.000000
# 6 0.000000 0.000000 0.000000 0.050415 0.000000 0.137730
#
#
# Mechanical properties :
#
#
# Convention : Reuss Voigt Hill
#
# Bulk Modulus (GPa) = 37.28566 48.80822 43.04694
# Shear Modulus (GPa) = 15.77952 25.04739 20.41345
#
# Velocity S-wave (km/s) = 2.59747 3.27253 2.95435
# Velocity P-wave (km/s) = 4.99379 5.92859 5.48116
#
# Compressibility (1/GPa) = 0.02681996
#
# Stress axis : x y z
#
# Youngs Moduli (GPa) = 61.77091 73.55952 77.33107
#
# Poissons Ratio (x) = 0.30887 0.06216
# Poissons Ratio (y) = 0.25937 0.22771
# Poissons Ratio (z) = 0.04965 0.21660
#
# Static dielectric constant tensor:
#      x y z
#    x 1.888790 0.000000 0.010710 
#    y 0.000000 2.020710 0.000000 
#    z 0.010710 0.000000 1.938890 
# 
# From -- ./inp_files/4127.got.cif
#   From: 2010.05.17/outbox.cif.g08.bks.cpg/sg8_3_cif.got.tgz:4127.got - 2010.06.03 19:46:02.
