data_PCOD9133967
_publ_section_title
;
Structure prediction by ZEFSAII (Michael W. Deem and Ramdas Pophale) SiO2 
 PCOD9133967
Probable space group: C C
;
_chemical_formula_sum "Si O2"
_cell_formula_units_Z 32
_cell_length_a 17.263989
_cell_length_b 11.249932
_cell_length_c 8.306736
_cell_angle_alpha 90.000000
_cell_angle_beta 56.428038
_cell_angle_gamma 90.000000
_cell_volume 1344.208135
_symmetry_space_group_name_H-M "C C"
_symmetry_group_IT_number 9
_symmetry_cell_setting 'monoclinic'
loop_
_space_group_symop_operation_xyz
x,y,z
x,-y,1/2+z
1/2+x,1/2+y,z
1/2+x,1/2-y,1/2+z
loop_
_atom_site_type_symbol
_atom_site_label
_atom_site_fract_x
_atom_site_fract_y
_atom_site_fract_z
Si Si1 0.271600 0.368042 0.506180
Si Si2 0.320824 0.065100 0.862244
Si Si3 0.068939 0.438269 0.825007
Si Si4 0.107619 0.743477 0.523907
Si Si5 0.722465 0.382409 0.152207
Si Si6 0.470219 0.866760 0.622966
Si Si7 0.428581 0.719173 0.409780
Si Si8 0.800066 0.095528 0.315220
O O1 0.179255 0.435235 0.682440
O O2 0.243853 0.231052 0.514097
O O3 0.290405 0.452947 0.335878
O O4 0.334100 0.369643 0.596612
O O5 0.298268 0.108869 0.709210
O O6 0.372102 0.163237 0.909766
O O7 0.385830 0.951697 0.765363
O O8 0.229750 0.007584 0.052303
O O9 0.047784 0.358886 0.004451
O O10 0.032061 0.372555 0.710153
O O11 0.027551 0.566004 0.914634
O O12 0.133558 0.840676 0.357979
O O13 0.205274 0.675738 0.456432
O O14 0.036649 0.792983 0.734564
O O15 0.434554 0.742592 0.594240
O O16 0.370924 0.622154 0.378388
#
# Coordination Sequence:
#
# PCOD9133967 Si02
#       8
#     4   4   4   4   4   4   4   4
#     4  10  21  39  60  87 126 175 205 264 332 388
#     4  12  20  38  63  95 126 168 215 276 332 378
#     4  10  18  32  56  91 126 158 211 284 322 376
#     4  10  22  41  64  94 131 175 217 273 339 387
#     4  10  23  41  64  92 130 171 209 277 333 386
#     4  12  20  31  61  99 129 157 226 285 324 379
#     4  12  22  38  64  96 127 179 214 275 331 390
#     4  10  22  40  62  88 129 169 215 262 325 392
#
# _framework density 23.805835999999999
#
# number of rings (size 3 to 8) (size 9 to 14) (size 15 to 20)
#    0.000    1.500    6.250    2.250    0.000    1.000 
#    0.000    5.000    0.000    0.000    0.000    0.000 
#    0.000    0.000    0.000    0.000    0.000    0.000 
#
# Total GULP energy -89186.248308 kJ/mol
# GULP energy per Si atom -5574.140519 kJ/mol
# Density = 2.375165 g / cm^3
# Si number density = 23.805836 Si / 1000 Ang^3
#
#
#
# Elastic Constant Matrix: (Units=GPa)
#
#
# Indices 1 2 3 4 5 6 
#
# 1 82.8031 -1.3976 5.8700 0.0000 15.4348 0.0000
# 2 -1.3976 56.1085 10.4652 0.0000 -16.4262 0.0000
# 3 5.8700 10.4652 36.6961 0.0000 -4.0100 0.0000
# 4 0.0000 0.0000 0.0000 31.7799 0.0000 0.7752
# 5 15.4348 -16.4262 -4.0100 0.0000 28.2278 0.0000
# 6 0.0000 0.0000 0.0000 0.7752 0.0000 28.5009
#
#
#
# Elastic Compliance Matrix: (Units=1/GPa)
#
#
# Indices 1 2 3 4 5 6 
#
# 1 0.013924 -0.001796 -0.002703 0.000000 -0.009043 0.000000
# 2 -0.001796 0.022593 -0.004685 0.000000 0.013464 0.000000
# 3 -0.002703 -0.004685 0.029338 0.000000 0.002920 0.000000
# 4 0.000000 0.000000 0.000000 0.031487 0.000000 -0.000856
# 5 -0.009043 0.013464 0.002920 0.000000 0.048620 0.000000
# 6 0.000000 0.000000 0.000000 -0.000856 0.000000 0.035110
#
#
# Mechanical properties :
#
#
# Convention : Reuss Voigt Hill
#
# Bulk Modulus (GPa) = 21.05830 22.83143 21.94487
# Shear Modulus (GPa) = 23.22662 28.41307 25.81985
#
# Velocity S-wave (km/s) = 3.12696 3.45850 3.29690
# Velocity P-wave (km/s) = 4.67998 5.05567 4.87145
#
# Compressibility (1/GPa) = 0.04748721
#
# Stress axis : x y z
#
# Youngs Moduli (GPa) = 71.81980 44.26074 34.08514
#
# Poissons Ratio (x) = 0.07951 0.09214
# Poissons Ratio (y) = 0.12901 0.15968
# Poissons Ratio (z) = 0.19414 0.20735
#
# Static dielectric constant tensor:
#      x y z
#    x 1.934050 0.000000 -0.017020 
#    y 0.000000 1.984830 0.000000 
#    z -0.017020 0.000000 2.010130 
# 
# From -- ./inp_files/10738.got.cif
#   From: 2010.05.17/outbox.cif.g08.bks.cpg/sg9_6_cif.got.tgz:10738.got - 2010.06.03 20:04:27.
