data_PCOD9133678
_publ_section_title
;
Structure prediction by ZEFSAII (Michael W. Deem and Ramdas Pophale) SiO2 
 PCOD9133678
Probable space group: C M
;
_chemical_formula_sum "Si O2"
_cell_formula_units_Z 16
_cell_length_a 18.000000
_cell_length_b 9.000000
_cell_length_c 30.000000
_cell_angle_alpha 90.000000
_cell_angle_beta 20.000000
_cell_angle_gamma 90.000000
_cell_volume 1662.217897
_symmetry_space_group_name_H-M "C M"
_symmetry_group_IT_number 8
_symmetry_cell_setting 'monoclinic'
loop_
_space_group_symop_operation_xyz
x,y,z
x,-y,z
1/2+x,1/2+y,z
1/2+x,1/2-y,z
loop_
_atom_site_type_symbol
_atom_site_label
_atom_site_fract_x
_atom_site_fract_y
_atom_site_fract_z
Si Si1 0.525050 0.833018 0.606920
Si Si2 0.226718 0.337246 0.592229
Si Si3 0.782212 0.671823 0.386111
Si Si4 0.555941 0.675309 0.099159
Si Si5 0.627882 0.832740 0.385542
Si Si6 0.278602 0.171443 0.881337
Si Si7 0.226153 0.328889 0.089893
Si Si8 0.661045 0.170783 0.857024
O O1 0.621172 0.834812 0.602791
O O2 0.688186 0.758586 0.480775
O O3 0.297784 0.751191 0.741503
O O4 0.485663 0.000000 0.614414
O O5 0.334267 0.500000 0.536406
O O6 0.390015 0.203581 0.503704
O O7 0.039606 0.325895 0.734863
O O8 0.733464 0.500000 0.419942
O O9 0.677520 0.728020 0.399172
O O10 0.038103 0.688804 0.232568
O O11 0.611041 0.500000 0.077035
O O12 0.296311 0.686981 0.250039
O O13 0.634873 0.785051 0.093108
O O14 0.660109 0.713852 0.993349
O O15 0.655513 0.000000 0.386259
O O16 0.220234 0.271297 0.872553
O O17 0.217238 0.000000 0.905577
O O18 0.301456 0.500000 0.048399
O O19 0.413082 0.212339 0.992132
O O20 0.708978 0.000000 0.826633
#
# Coordination Sequence:
#
# PCOD9133678 Si02
#       8
#     4   4   4   4   4   4   4   4
#     4  10  21  38  58  80 109 142 178 224 273 320
#     4   9  19  35  54  76 105 139 173 216 269 321
#     4  10  21  37  57  80 108 143 182 224 269 319
#     4   9  19  36  56  78 105 139 180 224 268 314
#     4  10  20  34  54  79 108 141 177 220 267 318
#     4   9  19  37  57  77 105 140 178 222 269 314
#     4  10  21  37  56  79 110 145 181 223 269 318
#     4  11  22  36  56  81 110 143 181 223 266 320
#
# _framework density 9.6256930000000001
#
# number of rings (size 3 to 8) (size 9 to 14) (size 15 to 20)
#    0.000    2.250    0.000    3.375    0.000    7.000 
#    0.000    7.500    0.000    0.000    0.000    0.000 
#    0.000    0.000    0.000    0.000    0.000    0.000 
#
# Total GULP energy -89123.362883 kJ/mol
# GULP energy per Si atom -5570.210180 kJ/mol
# Density = 0.960378 g / cm^3
# Si number density = 9.625693 Si / 1000 Ang^3
#
#
#
# Elastic Constant Matrix: (Units=GPa)
#
#
# Indices 1 2 3 4 5 6 
#
# 1 21.3146 28.5865 42.6077 -0.0304 22.5083 -0.0154
# 2 28.5865 75.0352 59.0780 -0.0188 27.1579 -0.0123
# 3 42.6077 59.0780 70.6762 -0.0344 33.9747 -0.0180
# 4 -0.0304 -0.0188 -0.0344 28.1172 0.0008 2.0526
# 5 22.5083 27.1579 33.9747 0.0008 33.2673 0.0016
# 6 -0.0154 -0.0123 -0.0180 2.0526 0.0016 26.0943
#
#
#
# Elastic Compliance Matrix: (Units=1/GPa)
#
#
# Indices 1 2 3 4 5 6 
#
# 1 -0.154645 -0.041628 0.120598 -0.000046 0.015452 -0.000025
# 2 -0.041628 0.027916 -0.001618 -0.000028 0.007027 -0.000011
# 3 0.120598 -0.001618 -0.036563 0.000083 -0.042934 0.000041
# 4 -0.000046 -0.000028 0.000083 0.035771 -0.000031 -0.002814
# 5 0.015452 0.007027 -0.042934 -0.000031 0.057715 -0.000018
# 6 -0.000025 -0.000011 0.000041 -0.002814 -0.000018 0.038544
#
#
# Mechanical properties :
#
#
# Convention : Reuss Voigt Hill
#
# Bulk Modulus (GPa) = -116.44125 47.50780 -34.46673
# Shear Modulus (GPa) = -26.47903 19.94600 -3.26651
#
# Velocity S-wave (km/s) = -3.71271 3.22231 -1.30401
# Velocity P-wave (km/s) = 8.88790 6.21092 4.49551
#
# Compressibility (1/GPa) = -0.00858802
#
# Stress axis : x y z
#
# Youngs Moduli (GPa) = -6.46642 35.82117 -27.35004
#
# Poissons Ratio (x) = 1.49116 3.29835
# Poissons Ratio (y) = -0.26918 -0.04425
# Poissons Ratio (z) = 0.77983 0.05795
#
# Static dielectric constant tensor:
#      x y z
#    x 1.647760 0.000000 -0.055740 
#    y 0.000000 1.665820 0.000010 
#    z -0.055740 0.000010 1.696840 
# 
# From -- ./inp_files/27755.got.cif
#   From: 2010.05.17/outbox.ucp.g08.bks.cvg/sg8_14_cif.got.tgz:27755.got - 2010.06.11 13:00:03.
