data_PCOD9133342
_publ_section_title
;
Structure prediction by ZEFSAII (Michael W. Deem and Ramdas Pophale) SiO2 
 PCOD9133342
Probable space group: C M
;
_chemical_formula_sum "Si O2"
_cell_formula_units_Z 16
_cell_length_a 6.966371
_cell_length_b 19.150682
_cell_length_c 7.004225
_cell_angle_alpha 90.000000
_cell_angle_beta 140.104346
_cell_angle_gamma 90.000000
_cell_volume 599.341143
_symmetry_space_group_name_H-M "C M"
_symmetry_group_IT_number 8
_symmetry_cell_setting 'monoclinic'
loop_
_space_group_symop_operation_xyz
x,y,z
x,-y,z
1/2+x,1/2+y,z
1/2+x,1/2-y,z
loop_
_atom_site_type_symbol
_atom_site_label
_atom_site_fract_x
_atom_site_fract_y
_atom_site_fract_z
Si Si1 0.294370 0.000000 0.147861
Si Si2 0.939023 0.000000 0.520216
Si Si3 0.485651 0.658206 0.515829
Si Si4 0.323552 0.282672 0.975621
Si Si5 0.427192 0.148171 0.382731
O O1 0.579941 0.000000 0.220934
O O2 0.322014 0.069263 0.289328
O O3 0.999420 0.000000 0.794771
O O4 0.060623 0.075808 0.550809
O O5 0.403454 0.690580 0.249154
O O6 0.192109 0.660064 0.430519
O O7 0.725284 0.708792 0.802464
O O8 0.635495 0.306349 0.114773
O O9 0.064025 0.331613 0.689932
#
# Coordination Sequence:
#
# PCOD9133342 Si02
#       5
#     2   2   4   4   4
#     4  10  22  48  80 114 156 218 258 329 406 472
#     4  10  24  48  82 110 164 206 264 331 406 466
#     4  11  30  54  82 120 164 211 270 335 403 479
#     4  12  31  47  83 121 159 217 268 327 411 478
#     4  11  28  51  80 119 165 208 271 335 398 484
#
# _framework density 26.695982000000001
#
# number of rings (size 3 to 8) (size 9 to 14) (size 15 to 20)
#    0.000    1.000    0.000    3.000   10.500   12.000 
#    0.000    0.000    0.000    0.000    0.000    1.750 
#    0.000    0.000    0.000    0.000    0.000    0.000 
#
# Total GULP energy -44791.034841 kJ/mol
# GULP energy per Si atom -5598.879355 kJ/mol
# Density = 2.663522 g / cm^3
# Si number density = 26.695982 Si / 1000 Ang^3
#
#
#
# Elastic Constant Matrix: (Units=GPa)
#
#
# Indices 1 2 3 4 5 6 
#
# 1 108.1764 49.0242 63.1522 0.0000 -29.6994 0.0000
# 2 49.0242 310.5996 93.7178 0.0000 -8.4822 0.0000
# 3 63.1522 93.7178 221.0960 0.0000 -19.4698 0.0000
# 4 0.0000 0.0000 0.0000 30.0421 0.0000 -7.3153
# 5 -29.6994 -8.4822 -19.4698 0.0000 64.4529 0.0000
# 6 0.0000 0.0000 0.0000 -7.3153 0.0000 19.5945
#
#
#
# Elastic Compliance Matrix: (Units=1/GPa)
#
#
# Indices 1 2 3 4 5 6 
#
# 1 0.012652 -0.001035 -0.002747 0.000000 0.004864 0.000000
# 2 -0.001035 0.003776 -0.001339 0.000000 -0.000385 0.000000
# 3 -0.002747 -0.001339 0.005905 0.000000 0.000342 0.000000
# 4 0.000000 0.000000 0.000000 0.036615 0.000000 0.013670
# 5 0.004864 -0.000385 0.000342 0.000000 0.017809 0.000000
# 6 0.000000 0.000000 0.000000 0.013670 0.000000 0.056138
#
#
# Mechanical properties :
#
#
# Convention : Reuss Voigt Hill
#
# Bulk Modulus (GPa) = 82.69978 116.85116 99.77547
# Shear Modulus (GPa) = 33.97456 51.74977 42.86216
#
# Velocity S-wave (km/s) = 3.57129 4.40760 4.01130
# Velocity P-wave (km/s) = 6.93189 8.35276 7.67528
#
# Compressibility (1/GPa) = 0.01209193
#
# Stress axis : x y z
#
# Youngs Moduli (GPa) = 79.03701 264.79621 169.34511
#
# Poissons Ratio (x) = 0.27417 0.46514
# Poissons Ratio (y) = 0.08184 0.22673
# Poissons Ratio (z) = 0.21709 0.35453
#
# Static dielectric constant tensor:
#      x y z
#    x 2.463200 0.000000 0.049790 
#    y 0.000000 2.187000 0.000000 
#    z 0.049790 0.000000 1.972890 
# 
# From -- ./inp_files/82.got.cif
#   From: 2010.05.17/outbox.cif.g08.bks.cpg/sg8_1_cif.got.tgz:82.got - 2010.06.03 19:46:02.
