data_PCOD9133054
_publ_section_title
;
Structure prediction by ZEFSAII (Michael W. Deem and Ramdas Pophale) SiO2 
 PCOD9133054
Probable space group: C M
;
_chemical_formula_sum "Si O2"
_cell_formula_units_Z 32
_cell_length_a 17.189921
_cell_length_b 14.679766
_cell_length_c 11.831783
_cell_angle_alpha 90.000000
_cell_angle_beta 31.352726
_cell_angle_gamma 90.000000
_cell_volume 1553.464656
_symmetry_space_group_name_H-M "C M"
_symmetry_group_IT_number 8
_symmetry_cell_setting 'monoclinic'
loop_
_space_group_symop_operation_xyz
x,y,z
x,-y,z
1/2+x,1/2+y,z
1/2+x,1/2-y,z
loop_
_atom_site_type_symbol
_atom_site_label
_atom_site_fract_x
_atom_site_fract_y
_atom_site_fract_z
Si Si1 0.728960 0.399749 0.903530
Si Si2 0.390774 0.287247 0.764185
Si Si3 0.878521 0.900808 0.332070
Si Si4 0.841092 0.355726 0.523809
Si Si5 0.223298 0.264489 0.354105
Si Si6 0.173938 0.390009 0.197865
Si Si7 0.414785 0.894899 0.176158
Si Si8 0.750645 0.838790 0.711146
O O1 0.765898 0.500000 0.906233
O O2 0.816680 0.313768 0.846039
O O3 0.764211 0.405149 0.725668
O O4 0.553245 0.381345 0.134437
O O5 0.560912 0.273293 0.587800
O O6 0.367751 0.330143 0.668233
O O7 0.303194 0.353916 0.955707
O O8 0.804850 0.823709 0.347914
O O9 0.799964 0.904465 0.550689
O O10 0.866630 0.000000 0.290389
O O11 0.843129 0.388042 0.391558
O O12 0.761947 0.258383 0.634374
O O13 0.015765 0.358444 0.341528
O O14 0.196770 0.333676 0.284115
O O15 0.327369 0.176348 0.205363
O O16 0.172787 0.500000 0.211910
O O17 0.407376 0.000000 0.149308
O O18 0.588219 0.863102 0.961715
#
# Coordination Sequence:
#
# PCOD9133054 Si02
#       8
#     4   4   4   4   4   4   4   4
#     4  10  21  40  68 100 132 176 234 282 335 404
#     4  11  25  41  68  99 135 179 223 287 343 395
#     4  11  24  42  67 100 136 180 227 281 346 410
#     4  11  21  41  74 100 130 174 234 284 330 402
#     4  12  26  43  66  98 144 178 220 281 346 410
#     4  12  25  44  69 101 136 181 231 277 339 409
#     4  12  26  45  71 102 137 183 233 282 340 407
#     4  11  22  44  69  98 136 175 228 280 339 403
#
# _framework density 20.599117
#
# number of rings (size 3 to 8) (size 9 to 14) (size 15 to 20)
#    0.000    0.750    5.000    4.125    1.750    2.500 
#    0.000    0.625    0.000    0.000    0.000    0.000 
#    0.000    0.000    0.000    0.000    0.000    0.000 
#
# Total GULP energy -89324.604902 kJ/mol
# GULP energy per Si atom -5582.787806 kJ/mol
# Density = 2.055223 g / cm^3
# Si number density = 20.599117 Si / 1000 Ang^3
#
#
#
# Elastic Constant Matrix: (Units=GPa)
#
#
# Indices 1 2 3 4 5 6 
#
# 1 17.9388 28.3374 0.8666 0.0000 -13.6995 0.0000
# 2 28.3374 147.0610 23.1747 0.0000 -20.9962 0.0000
# 3 0.8666 23.1747 85.2327 0.0001 -4.8151 0.0000
# 4 0.0000 0.0000 0.0001 33.8300 0.0000 -5.4079
# 5 -13.6995 -20.9962 -4.8151 0.0000 24.9058 0.0000
# 6 0.0000 0.0000 0.0000 -5.4079 0.0000 14.2603
#
#
#
# Elastic Compliance Matrix: (Units=1/GPa)
#
#
# Indices 1 2 3 4 5 6 
#
# 1 0.124976 -0.017186 0.006539 0.000000 0.055519 0.000000
# 2 -0.017186 0.010362 -0.002713 0.000000 -0.001242 0.000000
# 3 0.006539 -0.002713 0.012615 0.000000 0.003749 0.000000
# 4 0.000000 0.000000 0.000000 0.031467 0.000000 0.011933
# 5 0.055519 -0.001242 0.003749 0.000000 0.070367 0.000000
# 6 0.000000 0.000000 0.000000 0.011933 0.000000 0.074650
#
#
# Mechanical properties :
#
#
# Convention : Reuss Voigt Hill
#
# Bulk Modulus (GPa) = 8.24856 39.44333 23.84595
# Shear Modulus (GPa) = 12.76917 27.78947 20.27932
#
# Velocity S-wave (km/s) = 2.49246 3.67694 3.14104
# Velocity P-wave (km/s) = 3.50659 6.10051 4.97556
#
# Compressibility (1/GPa) = 0.12123328
#
# Stress axis : x y z
#
# Youngs Moduli (GPa) = 8.00155 96.51094 79.26780
#
# Poissons Ratio (x) = 1.65859 -0.51829
# Poissons Ratio (y) = 0.13751 0.21503
# Poissons Ratio (z) = -0.05232 0.26181
#
# Static dielectric constant tensor:
#      x y z
#    x 1.730490 0.000000 0.022870 
#    y 0.000000 1.796950 0.000000 
#    z 0.022870 0.000000 1.738970 
# 
# From -- ./inp_files/23330.got.cif
#   From: 2010.05.17/outbox.cif.g08.bks.cpg/sg8_12_cif.got.tgz:23330.got - 2010.06.03 19:46:02.
