data_PCOD9133468
_publ_section_title
;
Structure prediction by ZEFSAII (Michael W. Deem and Ramdas Pophale) SiO2 
 PCOD9133468
Probable space group: C M
;
_chemical_formula_sum "Si O2"
_cell_formula_units_Z 14
_cell_length_a 4.758602
_cell_length_b 26.676252
_cell_length_c 4.892122
_cell_angle_alpha 90.000000
_cell_angle_beta 64.009312
_cell_angle_gamma 90.000000
_cell_volume 558.208029
_symmetry_space_group_name_H-M "C M"
_symmetry_group_IT_number 8
_symmetry_cell_setting 'monoclinic'
loop_
_space_group_symop_operation_xyz
x,y,z
x,-y,z
1/2+x,1/2+y,z
1/2+x,1/2-y,z
loop_
_atom_site_type_symbol
_atom_site_label
_atom_site_fract_x
_atom_site_fract_y
_atom_site_fract_z
Si Si1 0.199340 0.000000 0.251320
Si Si2 0.696864 0.351508 0.726881
Si Si3 0.084431 0.784154 0.258710
Si Si4 0.705689 0.920741 0.241387
O O1 0.468577 0.043598 0.178842
O O2 0.930547 0.043619 0.321685
O O3 0.766456 0.313127 0.942841
O O4 0.574422 0.320046 0.521910
O O5 0.992258 0.384272 0.512376
O O6 0.429089 0.388489 0.952039
O O7 0.756907 0.766824 0.273346
#
# Coordination Sequence:
#
# PCOD9133468 Si02
#       4
#     2   4   4   4
#     4  10  26  48  76 112 152 198 252 314 378 452
#     4  12  28  51  80 114 156 204 256 315 382 456
#     4  12  28  50  77 113 154 201 255 316 380 452
#     4  11  27  48  77 111 154 199 253 312 381 451
#
# _framework density 25.080258000000001
#
# number of rings (size 3 to 8) (size 9 to 14) (size 15 to 20)
#    0.000    0.571    0.000    5.143    0.000   25.143 
#    0.000    0.000    0.000    0.000    0.000    0.000 
#    0.000    0.000    0.000    0.000    0.000    0.000 
#
# Total GULP energy -39059.836977 kJ/mol
# GULP energy per Si atom -5579.976711 kJ/mol
# Density = 2.502317 g / cm^3
# Si number density = 25.080258 Si / 1000 Ang^3
#
#
#
# Elastic Constant Matrix: (Units=GPa)
#
#
# Indices 1 2 3 4 5 6 
#
# 1 136.9842 56.8951 50.2038 0.0000 -25.4745 0.0000
# 2 56.8951 167.6885 87.4114 0.0000 -8.8968 0.0000
# 3 50.2038 87.4114 166.8550 0.0000 -5.2468 0.0000
# 4 0.0000 0.0000 0.0000 -44.0831 0.0000 17.9077
# 5 -25.4745 -8.8968 -5.2468 0.0000 40.4857 0.0000
# 6 0.0000 0.0000 0.0000 17.9077 0.0000 -123.4236
#
#
#
# Elastic Compliance Matrix: (Units=1/GPa)
#
#
# Indices 1 2 3 4 5 6 
#
# 1 0.009832 -0.002191 -0.001638 0.000000 0.005493 0.000000
# 2 -0.002191 0.008755 -0.003926 0.000000 0.000037 0.000000
# 3 -0.001638 -0.003926 0.008518 0.000000 -0.000790 0.000000
# 4 0.000000 0.000000 0.000000 -0.024105 0.000000 -0.003497
# 5 0.005493 0.000037 -0.000790 0.000000 0.028062 0.000000
# 6 0.000000 0.000000 0.000000 -0.003497 0.000000 -0.008610
#
#
# Mechanical properties :
#
#
# Convention : Reuss Voigt Hill
#
# Bulk Modulus (GPa) = 86.24114 95.61647 90.92881
# Shear Modulus (GPa) = 119.53889 -6.93636 56.30127
#
# Velocity S-wave (km/s) = 6.91130 -1.66483 4.74312
# Velocity P-wave (km/s) = 9.90700 5.87464 8.14433
#
# Compressibility (1/GPa) = 0.01159539
#
# Stress axis : x y z
#
# Youngs Moduli (GPa) = 101.71205 114.21516 117.39586
#
# Poissons Ratio (x) = 0.25020 0.19228
# Poissons Ratio (y) = 0.22281 0.46095
# Poissons Ratio (z) = 0.16659 0.44846
#
# Static dielectric constant tensor:
#      x y z
#    x 1.935050 0.000000 0.036450 
#    y 0.000000 1.984380 0.000000 
#    z 0.036450 0.000000 1.971080 
# 
# From -- ./inp_files/450.got.cif
#   From: 2010.05.17/outbox.cif.g08.bks.cpg/sg8_1_cif.got.tgz:450.got - 2010.06.03 19:46:02.
