data_PCOD9133103
_publ_section_title
;
Structure prediction by ZEFSAII (Michael W. Deem and Ramdas Pophale) SiO2 
 PCOD9133103
Probable space group: C M
;
_chemical_formula_sum "Si O2"
_cell_formula_units_Z 32
_cell_length_a 8.207472
_cell_length_b 27.032781
_cell_length_c 11.342456
_cell_angle_alpha 90.000000
_cell_angle_beta 34.439275
_cell_angle_gamma 90.000000
_cell_volume 1423.196223
_symmetry_space_group_name_H-M "C M"
_symmetry_group_IT_number 8
_symmetry_cell_setting 'monoclinic'
loop_
_space_group_symop_operation_xyz
x,y,z
x,-y,z
1/2+x,1/2+y,z
1/2+x,1/2-y,z
loop_
_atom_site_type_symbol
_atom_site_label
_atom_site_fract_x
_atom_site_fract_y
_atom_site_fract_z
Si Si1 0.369200 0.294598 0.415300
Si Si2 0.664410 0.379606 0.097437
Si Si3 0.757987 0.385657 0.481412
Si Si4 0.174918 0.699886 0.144632
Si Si5 0.663066 0.057982 0.405840
Si Si6 0.730662 0.740740 0.864746
Si Si7 0.247020 0.665552 0.719696
Si Si8 0.082828 0.057981 0.355701
O O1 0.472034 0.332153 0.252423
O O2 0.537180 0.243509 0.306476
O O3 0.440435 0.325219 0.490116
O O4 0.037315 0.279070 0.633815
O O5 0.446316 0.419099 0.171674
O O6 0.764275 0.407849 0.158377
O O7 0.962869 0.364923 0.861397
O O8 0.468808 0.354920 0.683404
O O9 0.639681 0.424225 0.453818
O O10 0.992889 0.349003 0.281159
O O11 0.898999 0.411708 0.510124
O O12 0.505112 0.696204 0.988352
O O13 0.178413 0.725559 0.013005
O O14 0.765490 0.064484 0.481894
O O15 0.627888 0.000000 0.405207
O O16 0.637496 0.781182 0.823448
O O17 0.149428 0.000000 0.304956
#
# Coordination Sequence:
#
# PCOD9133103 Si02
#       8
#     4   4   4   4   4   4   4   4
#     4  12  23  41  66  94 139 184 223 275 332 406
#     4  10  21  42  72  93 138 178 224 277 343 410
#     4  12  23  40  71 102 133 180 227 281 341 408
#     4  12  27  41  63  97 139 184 223 279 338 395
#     4   9  22  43  70  99 127 172 224 282 347 403
#     4  12  25  40  61  94 139 180 233 272 317 413
#     4  12  23  41  65 102 131 184 234 269 341 408
#     4   9  20  44  71  95 132 174 219 289 349 401
#
# _framework density 22.484603
#
# number of rings (size 3 to 8) (size 9 to 14) (size 15 to 20)
#    0.750    0.250    5.000    1.875    3.500    1.000 
#    0.000    2.500    2.750    0.000    0.000    0.000 
#    0.000    0.000    0.000    0.000    0.000    0.000 
#
# Total GULP energy -89148.952825 kJ/mol
# GULP energy per Si atom -5571.809552 kJ/mol
# Density = 2.243343 g / cm^3
# Si number density = 22.484603 Si / 1000 Ang^3
#
#
#
# Elastic Constant Matrix: (Units=GPa)
#
#
# Indices 1 2 3 4 5 6 
#
# 1 71.7494 23.1741 30.6043 0.0000 -12.3335 0.0000
# 2 23.1741 104.7784 29.7444 0.0000 -9.3735 0.0000
# 3 30.6043 29.7444 84.4558 0.0000 -19.8598 0.0000
# 4 0.0000 0.0000 0.0000 13.5731 0.0000 -6.7326
# 5 -12.3335 -9.3735 -19.8598 0.0000 36.8094 0.0000
# 6 0.0000 0.0000 0.0000 -6.7326 0.0000 39.3301
#
#
#
# Elastic Compliance Matrix: (Units=1/GPa)
#
#
# Indices 1 2 3 4 5 6 
#
# 1 0.017151 -0.002189 -0.004838 0.000000 0.002579 0.000000
# 2 -0.002189 0.010903 -0.002939 0.000000 0.000457 0.000000
# 3 -0.004838 -0.002939 0.016116 0.000000 0.006326 0.000000
# 4 0.000000 0.000000 0.000000 0.080511 0.000000 0.013782
# 5 0.002579 0.000457 0.006326 0.000000 0.031561 0.000000
# 6 0.000000 0.000000 0.000000 0.013782 0.000000 0.027785
#
#
# Mechanical properties :
#
#
# Convention : Reuss Voigt Hill
#
# Bulk Modulus (GPa) = 41.25630 47.55878 44.40754
# Shear Modulus (GPa) = 23.58046 29.77323 26.67685
#
# Velocity S-wave (km/s) = 3.24194 3.64285 3.44822
# Velocity P-wave (km/s) = 5.69228 6.23630 5.97049
#
# Compressibility (1/GPa) = 0.02423872
#
# Stress axis : x y z
#
# Youngs Moduli (GPa) = 58.30448 91.71397 62.04942
#
# Poissons Ratio (x) = 0.20080 0.30017
# Poissons Ratio (y) = 0.12765 0.18238
# Poissons Ratio (z) = 0.28205 0.26957
#
# Static dielectric constant tensor:
#      x y z
#    x 1.958260 0.000000 0.023780 
#    y 0.000000 1.849220 0.000000 
#    z 0.023780 0.000000 1.861960 
# 
# From -- ./inp_files/19465.got.cif
#   From: 2010.05.17/outbox.cif.g08.bks.cpg/sg8_10_cif.got.tgz:19465.got - 2010.06.03 19:46:02.
