data_PCOD9133376
_publ_section_title
;
Structure prediction by ZEFSAII (Michael W. Deem and Ramdas Pophale) SiO2 
 PCOD9133376
Probable space group: C M
;
_chemical_formula_sum "Si O2"
_cell_formula_units_Z 28
_cell_length_a 9.005646
_cell_length_b 26.752048
_cell_length_c 9.468944
_cell_angle_alpha 90.000000
_cell_angle_beta 146.467044
_cell_angle_gamma 90.000000
_cell_volume 1260.201888
_symmetry_space_group_name_H-M "C M"
_symmetry_group_IT_number 8
_symmetry_cell_setting 'monoclinic'
loop_
_space_group_symop_operation_xyz
x,y,z
x,-y,z
1/2+x,1/2+y,z
1/2+x,1/2-y,z
loop_
_atom_site_type_symbol
_atom_site_label
_atom_site_fract_x
_atom_site_fract_y
_atom_site_fract_z
Si Si1 0.948850 0.000000 0.492430
Si Si2 0.310728 0.236314 0.617051
Si Si3 0.625417 0.342465 0.257586
Si Si4 0.253721 0.808838 0.858006
Si Si5 0.662448 0.095458 0.778275
Si Si6 0.880744 0.904900 0.642466
Si Si7 0.575653 0.000000 0.909246
Si Si8 0.478070 0.175977 0.304783
O O1 0.905144 0.951816 0.558737
O O2 0.262628 0.000000 0.702161
O O3 0.762699 0.000000 0.201259
O O4 0.138201 0.203672 0.372224
O O5 0.354019 0.199586 0.781367
O O6 0.566996 0.261868 0.750219
O O7 0.147403 0.285915 0.532228
O O8 0.692016 0.324325 0.151187
O O9 0.878077 0.378708 0.505270
O O10 0.341065 0.368459 0.018030
O O11 0.094865 0.860969 0.767334
O O12 0.494197 0.806214 0.158498
O O13 0.847239 0.083938 0.784280
O O14 0.620760 0.047382 0.842802
O O15 0.594779 0.878872 0.390263
#
# Coordination Sequence:
#
# PCOD9133376 Si02
#       8
#     2   4   4   4   4   4   2   4
#     4  12  29  48  75 110 144 176 236 298 361 414
#     4  11  25  38  63 100 142 187 232 290 345 408
#     4  11  24  44  70 102 136 185 235 288 341 420
#     4  11  24  41  66  98 141 187 238 286 348 415
#     4  11  25  48  73  98 140 184 237 283 356 422
#     4  10  25  46  70 101 138 188 235 287 353 427
#     4  12  29  48  73 108 140 178 234 300 361 416
#     4  10  23  42  65 100 137 187 240 281 343 423
#
# _framework density 22.218662999999999
#
# number of rings (size 3 to 8) (size 9 to 14) (size 15 to 20)
#    0.000    1.143    2.857    1.286   10.000    0.000 
#    0.000    2.143    0.000    0.000    0.000    0.000 
#    0.000    0.000    0.000    0.000    0.000    0.000 
#
# Total GULP energy -78098.107141 kJ/mol
# GULP energy per Si atom -5578.436224 kJ/mol
# Density = 2.216809 g / cm^3
# Si number density = 22.218663 Si / 1000 Ang^3
#
#
#
# Elastic Constant Matrix: (Units=GPa)
#
#
# Indices 1 2 3 4 5 6 
#
# 1 102.2588 71.0946 39.1754 0.0000 -18.7613 0.0000
# 2 71.0946 121.8204 47.6586 0.0000 -24.6384 0.0000
# 3 39.1754 47.6586 113.7134 0.0000 -16.6822 0.0000
# 4 0.0000 0.0000 0.0000 28.8464 0.0000 -8.6121
# 5 -18.7613 -24.6384 -16.6822 0.0000 34.9384 0.0000
# 6 0.0000 0.0000 0.0000 -8.6121 0.0000 28.2232
#
#
#
# Elastic Compliance Matrix: (Units=1/GPa)
#
#
# Indices 1 2 3 4 5 6 
#
# 1 0.016954 -0.008748 -0.001875 0.000000 0.002039 0.000000
# 2 -0.008748 0.015353 -0.002711 0.000000 0.004834 0.000000
# 3 -0.001875 -0.002711 0.010913 0.000000 0.002291 0.000000
# 4 0.000000 0.000000 0.000000 0.038141 0.000000 0.011638
# 5 0.002039 0.004834 0.002291 0.000000 0.034220 0.000000
# 6 0.000000 0.000000 0.000000 0.011638 0.000000 0.038983
#
#
# Mechanical properties :
#
#
# Convention : Reuss Voigt Hill
#
# Bulk Modulus (GPa) = 60.42415 72.62777 66.52596
# Shear Modulus (GPa) = 26.77379 30.39253 28.58316
#
# Velocity S-wave (km/s) = 3.47510 3.70250 3.59060
# Velocity P-wave (km/s) = 6.58453 7.14400 6.86996
#
# Compressibility (1/GPa) = 0.01654967
#
# Stress axis : x y z
#
# Youngs Moduli (GPa) = 58.98412 65.13457 91.63720
#
# Poissons Ratio (x) = 0.56981 0.17183
# Poissons Ratio (y) = 0.51600 0.24847
# Poissons Ratio (z) = 0.11060 0.17661
#
# Static dielectric constant tensor:
#      x y z
#    x 1.857180 0.000000 -0.009670 
#    y 0.000000 1.819060 0.000000 
#    z -0.009670 0.000000 1.871310 
# 
# From -- ./inp_files/9219.got.cif
#   From: 2010.05.17/outbox.cif.g08.bks.cpg/sg8_5_cif.got.tgz:9219.got - 2010.06.03 19:46:02.
