data_PCOD9133254
_publ_section_title
;
Structure prediction by ZEFSAII (Michael W. Deem and Ramdas Pophale) SiO2 
 PCOD9133254
Probable space group: C M
;
_chemical_formula_sum "Si O2"
_cell_formula_units_Z 24
_cell_length_a 8.979510
_cell_length_b 13.227031
_cell_length_c 9.264328
_cell_angle_alpha 90.000000
_cell_angle_beta 73.707923
_cell_angle_gamma 90.000000
_cell_volume 1056.159791
_symmetry_space_group_name_H-M "C M"
_symmetry_group_IT_number 8
_symmetry_cell_setting 'monoclinic'
loop_
_space_group_symop_operation_xyz
x,y,z
x,-y,z
1/2+x,1/2+y,z
1/2+x,1/2-y,z
loop_
_atom_site_type_symbol
_atom_site_label
_atom_site_fract_x
_atom_site_fract_y
_atom_site_fract_z
Si Si1 0.263510 0.117516 0.630090
Si Si2 0.556271 0.260115 0.478372
Si Si3 0.831510 0.308652 0.911492
Si Si4 0.076585 0.118004 0.189146
Si Si5 0.658751 0.883580 0.934567
Si Si6 0.741799 0.884957 0.231023
O O1 0.414521 0.184847 0.547922
O O2 0.122448 0.177951 0.595252
O O3 0.261885 0.122029 0.803518
O O4 0.272486 0.000000 0.580050
O O5 0.530768 0.341047 0.358271
O O6 0.685744 0.188649 0.370139
O O7 0.724249 0.327533 0.080560
O O8 0.798222 0.194333 0.868849
O O9 0.005719 0.340924 0.899201
O O10 0.920547 0.135479 0.138876
O O11 0.111705 0.000000 0.185114
O O12 0.638146 0.881876 0.114625
O O13 0.687909 0.000000 0.885322
O O14 0.738521 0.000000 0.286432
#
# Coordination Sequence:
#
# PCOD9133254 Si02
#       6
#     4   4   4   4   4   4
#     4  12  28  48  71 102 144 191 231 283 354 420
#     4  12  24  46  67 101 138 183 235 286 342 413
#     4  12  25  46  72 105 143 183 232 291 350 416
#     4  11  23  42  71 102 135 178 236 293 343 409
#     4  11  24  43  71 106 138 180 231 286 352 408
#     4  10  22  41  68 102 136 175 229 291 347 404
#
# _framework density 22.723834
#
# number of rings (size 3 to 8) (size 9 to 14) (size 15 to 20)
#    0.000    0.667    3.333    4.500    2.333    0.000 
#    0.000    7.500    0.000    0.000    0.000    0.000 
#    0.000    0.000    0.000    0.000    0.000    0.000 
#
# Total GULP energy -67097.263826 kJ/mol
# GULP energy per Si atom -5591.438652 kJ/mol
# Density = 2.267211 g / cm^3
# Si number density = 22.723834 Si / 1000 Ang^3
#
#
#
# Elastic Constant Matrix: (Units=GPa)
#
#
# Indices 1 2 3 4 5 6 
#
# 1 97.3651 63.4832 19.4092 0.0000 20.5860 0.0000
# 2 63.4832 191.1088 11.9645 0.0000 2.4946 0.0000
# 3 19.4092 11.9645 56.1563 0.0000 11.4529 0.0000
# 4 0.0000 0.0000 0.0000 31.3765 0.0000 -1.1355
# 5 20.5860 2.4946 11.4529 0.0000 37.4051 0.0000
# 6 0.0000 0.0000 0.0000 -1.1355 0.0000 32.8902
#
#
#
# Elastic Compliance Matrix: (Units=1/GPa)
#
#
# Indices 1 2 3 4 5 6 
#
# 1 0.015598 -0.004907 -0.002839 0.000000 -0.007388 0.000000
# 2 -0.004907 0.006847 -0.000235 0.000000 0.002316 0.000000
# 3 -0.002839 -0.000235 0.019750 0.000000 -0.004469 0.000000
# 4 0.000000 0.000000 0.000000 0.031911 0.000000 0.001102
# 5 -0.007388 0.002316 -0.004469 0.000000 0.032014 0.000000
# 6 0.000000 0.000000 0.000000 0.001102 0.000000 0.030442
#
#
# Mechanical properties :
#
#
# Convention : Reuss Voigt Hill
#
# Bulk Modulus (GPa) = 38.11987 59.37155 48.74571
# Shear Modulus (GPa) = 31.00392 36.98591 33.99491
#
# Velocity S-wave (km/s) = 3.69776 4.03876 3.87202
# Velocity P-wave (km/s) = 5.91970 6.92336 6.44111
#
# Compressibility (1/GPa) = 0.02623304
#
# Stress axis : x y z
#
# Youngs Moduli (GPa) = 64.10992 146.04444 50.63243
#
# Poissons Ratio (x) = 0.71668 0.14374
# Poissons Ratio (y) = 0.31461 0.01190
# Poissons Ratio (z) = 0.18200 0.03434
#
# Static dielectric constant tensor:
#      x y z
#    x 1.847390 0.000000 0.025320 
#    y 0.000000 1.852420 0.000000 
#    z 0.025320 0.000000 1.842480 
# 
# From -- ./inp_files/7822.got.cif
#   From: 2010.05.17/outbox.cif.g08.bks.cpg/sg8_4_cif.got.tgz:7822.got - 2010.06.03 19:46:02.
