data_PCOD9133122
_publ_section_title
;
Structure prediction by ZEFSAII (Michael W. Deem and Ramdas Pophale) SiO2 
 PCOD9133122
Probable space group: C M
;
_chemical_formula_sum "Si O2"
_cell_formula_units_Z 26
_cell_length_a 14.009273
_cell_length_b 7.736424
_cell_length_c 12.401488
_cell_angle_alpha 90.000000
_cell_angle_beta 67.334616
_cell_angle_gamma 90.000000
_cell_volume 1240.291109
_symmetry_space_group_name_H-M "C M"
_symmetry_group_IT_number 8
_symmetry_cell_setting 'monoclinic'
loop_
_space_group_symop_operation_xyz
x,y,z
x,-y,z
1/2+x,1/2+y,z
1/2+x,1/2-y,z
loop_
_atom_site_type_symbol
_atom_site_label
_atom_site_fract_x
_atom_site_fract_y
_atom_site_fract_z
Si Si1 0.506410 0.803555 0.475640
Si Si2 0.827055 0.000000 0.877225
Si Si3 0.757047 0.300431 0.060745
Si Si4 0.310891 0.209884 0.278210
Si Si5 0.045430 0.709424 0.221241
Si Si6 0.479783 0.500000 0.630101
Si Si7 0.257479 0.197918 0.533860
Si Si8 0.743339 0.000000 0.686725
O O1 0.556209 0.738150 0.342152
O O2 0.528957 0.674282 0.563305
O O3 0.382225 0.811789 0.504361
O O4 0.537873 0.000000 0.483924
O O5 0.938904 0.000000 0.769678
O O6 0.741581 0.000000 0.817062
O O7 0.810000 0.170412 0.955188
O O8 0.790361 0.500000 0.034951
O O9 0.775753 0.236941 0.175293
O O10 0.633073 0.287079 0.107742
O O11 0.430668 0.259951 0.236926
O O12 0.253272 0.266102 0.412446
O O13 0.305402 0.000000 0.284484
O O14 0.052186 0.500000 0.215405
O O15 0.368153 0.500000 0.616847
O O16 0.207861 0.327880 0.641493
O O17 0.220326 0.000000 0.559539
#
# Coordination Sequence:
#
# PCOD9133122 Si02
#       8
#     4   2   4   4   4   2   4   2
#     4   8  14  25  47  76 100 127 169 220 274 319
#     4  10  22  35  47  78 115 151 190 231 259 334
#     4  11  22  36  52  82 119 151 186 225 281 334
#     4   8  17  33  55  82 113 145 179 230 291 331
#     4   9  17  34  56  81 115 142 177 230 286 334
#     4   8  16  28  46  72 101 131 180 226 258 312
#     4   8  13  26  47  74 101 126 171 221 273 322
#     4   8  16  27  45  74  98 134 178 223 257 312
#
# _framework density 20.962821000000002
#
# number of rings (size 3 to 8) (size 9 to 14) (size 15 to 20)
#    0.462    2.769    0.769    1.846    1.077    1.846 
#    2.769    0.000    0.000    0.000    4.000    0.000 
#    0.000    0.000    0.000    0.000    0.000    0.000 
#
# Total GULP energy -72478.159858 kJ/mol
# GULP energy per Si atom -5575.243066 kJ/mol
# Density = 2.091511 g / cm^3
# Si number density = 20.962821 Si / 1000 Ang^3
#
#
#
# Elastic Constant Matrix: (Units=GPa)
#
#
# Indices 1 2 3 4 5 6 
#
# 1 45.2364 10.1631 20.0682 0.0000 6.0081 0.0000
# 2 10.1631 100.9962 62.7897 0.0000 6.4618 0.0000
# 3 20.0682 62.7897 118.4751 0.0000 10.6768 0.0000
# 4 0.0000 0.0000 0.0000 39.3301 0.0000 3.8637
# 5 6.0081 6.4618 10.6768 0.0000 28.6717 0.0000
# 6 0.0000 0.0000 0.0000 3.8637 0.0000 15.9402
#
#
#
# Elastic Compliance Matrix: (Units=1/GPa)
#
#
# Indices 1 2 3 4 5 6 
#
# 1 0.024275 0.000213 -0.003893 0.000000 -0.003685 0.000000
# 2 0.000213 0.014774 -0.007824 0.000000 -0.000461 0.000000
# 3 -0.003893 -0.007824 0.013466 0.000000 -0.002435 0.000000
# 4 0.000000 0.000000 0.000000 0.026046 0.000000 -0.006313
# 5 -0.003685 -0.000461 -0.002435 0.000000 0.036660 0.000000
# 6 0.000000 0.000000 0.000000 -0.006313 0.000000 0.064265
#
#
# Mechanical properties :
#
#
# Convention : Reuss Voigt Hill
#
# Bulk Modulus (GPa) = 33.89064 50.08331 41.98697
# Shear Modulus (GPa) = 23.54832 28.23419 25.89125
#
# Velocity S-wave (km/s) = 3.35526 3.67395 3.51822
# Velocity P-wave (km/s) = 5.58681 6.47616 6.04785
#
# Compressibility (1/GPa) = 0.02950667
#
# Stress axis : x y z
#
# Youngs Moduli (GPa) = 41.19544 67.68691 74.25951
#
# Poissons Ratio (x) = -0.01443 0.28907
# Poissons Ratio (y) = -0.00878 0.58104
# Poissons Ratio (z) = 0.16036 0.52962
#
# Static dielectric constant tensor:
#      x y z
#    x 1.826190 0.000000 0.017880 
#    y 0.000000 1.766920 0.000000 
#    z 0.017880 0.000000 1.720370 
# 
# From -- ./inp_files/22610.got.cif
#   From: 2010.05.17/outbox.cif.g08.bks.cpg/sg8_12_cif.got.tgz:22610.got - 2010.06.03 19:46:02.
