data_PCOD9133832
_publ_section_title
;
Structure prediction by ZEFSAII (Michael W. Deem and Ramdas Pophale) SiO2 
 PCOD9133832
Probable space group: C C
;
_chemical_formula_sum "Si O2"
_cell_formula_units_Z 28
_cell_length_a 21.222737
_cell_length_b 6.282551
_cell_length_c 23.177894
_cell_angle_alpha 90.000000
_cell_angle_beta 18.600042
_cell_angle_gamma 90.000000
_cell_volume 985.706489
_symmetry_space_group_name_H-M "C C"
_symmetry_group_IT_number 9
_symmetry_cell_setting 'monoclinic'
loop_
_space_group_symop_operation_xyz
x,y,z
x,-y,1/2+z
1/2+x,1/2+y,z
1/2+x,1/2-y,1/2+z
loop_
_atom_site_type_symbol
_atom_site_label
_atom_site_fract_x
_atom_site_fract_y
_atom_site_fract_z
Si Si1 0.981220 0.703917 0.507710
Si Si2 0.186060 0.949468 0.704110
Si Si3 0.840154 0.471232 0.382465
Si Si4 0.942978 0.934821 0.201243
Si Si5 0.836322 0.111215 0.668332
Si Si6 0.010632 0.571362 0.609947
Si Si7 0.764905 0.121940 0.537423
O O1 0.807960 0.656241 0.613670
O O2 0.003893 0.957148 0.495867
O O3 0.164953 0.561961 0.328308
O O4 0.938541 0.598192 0.606883
O O5 0.250563 0.779420 0.697904
O O6 0.249172 0.829684 0.591545
O O7 0.956591 0.995331 0.894332
O O8 0.641682 0.608525 0.566067
O O9 0.802876 0.234370 0.442333
O O10 0.885836 0.507529 0.273905
O O11 0.060219 0.505812 0.217156
O O12 0.909411 0.817088 0.168644
O O13 0.728701 0.967503 0.415082
O O14 0.008205 0.174177 0.126080
#
# Coordination Sequence:
#
# PCOD9133832 Si02
#       7
#     4   4   4   4   4   4   4
#     4  10  23  38  62  97 128 169 213 272 341 385
#     4  11  22  42  58  96 134 168 218 263 326 397
#     4  11  18  33  53  90 119 159 222 260 308 381
#     4  10  17  30  54  88 122 153 204 268 319 377
#     4  10  23  38  62  97 128 169 213 270 337 393
#     4  10  17  30  54  88 122 153 205 267 322 379
#     4  10  22  33  59  86 125 177 211 260 313 388
#
# _framework density 28.406023000000001
#
# number of rings (size 3 to 8) (size 9 to 14) (size 15 to 20)
#    0.000    1.714    4.286    0.000    6.000    0.000 
#    0.000    0.000    0.000    0.000   14.857    8.000 
#    0.000    0.000    0.000    0.000    0.000    0.000 
#
# Total GULP energy -78264.285248 kJ/mol
# GULP energy per Si atom -5590.306089 kJ/mol
# Density = 2.834137 g / cm^3
# Si number density = 28.406023 Si / 1000 Ang^3
#
#
#
# Elastic Constant Matrix: (Units=GPa)
#
#
# Indices 1 2 3 4 5 6 
#
# 1 153.1549 33.9882 51.7734 -0.0065 -6.9518 0.0000
# 2 33.9882 52.2799 20.6295 -0.0328 18.1625 0.0046
# 3 51.7734 20.6295 201.1881 -0.0503 -26.6662 0.0035
# 4 -0.0065 -0.0328 -0.0503 32.6378 0.0026 9.0563
# 5 -6.9518 18.1625 -26.6662 0.0026 53.5529 0.0035
# 6 0.0000 0.0046 0.0035 9.0563 0.0035 56.0984
#
#
#
# Elastic Compliance Matrix: (Units=1/GPa)
#
#
# Indices 1 2 3 4 5 6 
#
# 1 0.008338 -0.005779 -0.001231 -0.000007 0.002429 0.000001
# 2 -0.005779 0.028140 -0.002958 0.000025 -0.011767 -0.000005
# 3 -0.001231 -0.002958 0.006105 0.000006 0.003883 -0.000001
# 4 -0.000007 0.000025 0.000006 0.032076 -0.000007 -0.005178
# 5 0.002429 -0.011767 0.003883 -0.000007 0.024913 0.000000
# 6 0.000001 -0.000005 -0.000001 -0.005178 0.000000 0.018662
#
#
# Mechanical properties :
#
#
# Convention : Reuss Voigt Hill
#
# Bulk Modulus (GPa) = 44.15526 68.82278 56.48902
# Shear Modulus (GPa) = 34.31247 48.47326 41.39286
#
# Velocity S-wave (km/s) = 3.47930 4.13539 3.82145
# Velocity P-wave (km/s) = 5.63194 6.86169 6.27700
#
# Compressibility (1/GPa) = 0.02264736
#
# Stress axis : x y z
#
# Youngs Moduli (GPa) = 119.92869 35.53675 163.79136
#
# Poissons Ratio (x) = 0.20537 0.20166
# Poissons Ratio (y) = 0.69307 0.48447
# Poissons Ratio (z) = 0.14766 0.10511
#
# Static dielectric constant tensor:
#      x y z
#    x 2.199270 0.000000 -0.004940 
#    y 0.000000 2.355060 0.000010 
#    z -0.004940 0.000010 2.274320 
# 
# From -- ./inp_files/11170.got.cif
#   From: 2010.05.17/outbox.cif.g08.bks.cpg/sg9_6_cif.got.tgz:11170.got - 2010.06.03 20:04:27.
