data_PCOD9133781
_publ_section_title
;
Structure prediction by ZEFSAII (Michael W. Deem and Ramdas Pophale) SiO2 
 PCOD9133781
Probable space group: C C
;
_chemical_formula_sum "Si O2"
_cell_formula_units_Z 32
_cell_length_a 32.403861
_cell_length_b 9.682215
_cell_length_c 9.749728
_cell_angle_alpha 90.000000
_cell_angle_beta 27.310682
_cell_angle_gamma 90.000000
_cell_volume 1403.465676
_symmetry_space_group_name_H-M "C C"
_symmetry_group_IT_number 9
_symmetry_cell_setting 'monoclinic'
loop_
_space_group_symop_operation_xyz
x,y,z
x,-y,1/2+z
1/2+x,1/2+y,z
1/2+x,1/2-y,1/2+z
loop_
_atom_site_type_symbol
_atom_site_label
_atom_site_fract_x
_atom_site_fract_y
_atom_site_fract_z
Si Si1 0.202450 0.230859 0.356410
Si Si2 0.728360 0.836370 0.570874
Si Si3 0.377895 0.506764 0.501758
Si Si4 0.717080 0.198672 0.396153
Si Si5 0.104573 0.412655 0.448020
Si Si6 0.399572 0.674954 0.189311
Si Si7 0.418479 0.998763 0.080491
Si Si8 0.301684 0.968710 0.168960
O O1 0.182694 0.282997 0.568377
O O2 0.122262 0.281340 0.495145
O O3 0.236078 0.074287 0.283092
O O4 0.292322 0.309246 0.036956
O O5 0.713498 0.750278 0.750793
O O6 0.830696 0.871227 0.229110
O O7 0.684835 0.981487 0.740439
O O8 0.296126 0.415376 0.677838
O O9 0.432558 0.581719 0.219742
O O10 0.421169 0.403770 0.484262
O O11 0.626057 0.140211 0.730853
O O12 0.750423 0.334745 0.375790
O O13 0.018278 0.507888 0.726447
O O14 0.422824 0.835377 0.107634
O O15 0.349867 0.032072 0.159859
O O16 0.381471 0.070989 0.326594
#
# Coordination Sequence:
#
# PCOD9133781 Si02
#       8
#     4   4   4   4   4   4   4   4
#     4  10  20  37  59  88 118 161 208 249 307 387
#     4  10  19  31  60  89 110 145 207 262 295 357
#     4  10  16  31  58  83 113 146 207 255 292 348
#     4  11  19  35  62  88 113 165 209 247 303 389
#     4  11  22  38  61  88 127 152 207 271 317 355
#     4  10  18  36  56  86 118 158 201 256 307 367
#     4  11  25  39  59  92 131 162 201 270 328 374
#     4  11  23  41  63  88 130 171 208 252 327 399
#
# _framework density 22.800699999999999
#
# number of rings (size 3 to 8) (size 9 to 14) (size 15 to 20)
#    0.000    1.500    5.000    3.000    3.500    0.000 
#    0.000    1.250    0.000    1.500    0.000    0.000 
#    0.000    0.000    0.000    0.000    0.000    0.000 
#
# Total GULP energy -89183.804560 kJ/mol
# GULP energy per Si atom -5573.987785 kJ/mol
# Density = 2.274880 g / cm^3
# Si number density = 22.800700 Si / 1000 Ang^3
#
#
#
# Elastic Constant Matrix: (Units=GPa)
#
#
# Indices 1 2 3 4 5 6 
#
# 1 54.9053 -11.8450 12.4995 0.0000 25.7810 0.0000
# 2 -11.8450 68.3037 -4.3902 0.0000 -2.4655 0.0000
# 3 12.4995 -4.3902 40.4380 0.0000 9.7416 0.0000
# 4 0.0000 0.0000 0.0000 24.9562 0.0000 10.4750
# 5 25.7810 -2.4655 9.7416 0.0000 25.5175 0.0000
# 6 0.0000 0.0000 0.0000 10.4750 0.0000 26.6716
#
#
#
# Elastic Compliance Matrix: (Units=1/GPa)
#
#
# Indices 1 2 3 4 5 6 
#
# 1 0.036440 0.004898 -0.002177 0.000000 -0.035512 0.000000
# 2 0.004898 0.015420 0.001094 0.000000 -0.003876 0.000000
# 3 -0.002177 0.001094 0.027494 0.000000 -0.008191 0.000000
# 4 0.000000 0.000000 0.000000 0.047979 0.000000 -0.018843
# 5 -0.035512 -0.003876 -0.008191 0.000000 0.077820 0.000000
# 6 0.000000 0.000000 0.000000 -0.018843 0.000000 0.044894
#
#
# Mechanical properties :
#
#
# Convention : Reuss Voigt Hill
#
# Bulk Modulus (GPa) = 11.49642 17.35284 14.42463
# Shear Modulus (GPa) = 18.42207 26.58791 22.50499
#
# Velocity S-wave (km/s) = 2.84555 3.41853 3.14511
# Velocity P-wave (km/s) = 3.98111 4.81757 4.41918
#
# Compressibility (1/GPa) = 0.08698363
#
# Stress axis : x y z
#
# Youngs Moduli (GPa) = 27.44212 64.84985 36.37143
#
# Poissons Ratio (x) = -0.31761 0.07918
# Poissons Ratio (y) = -0.13440 -0.03979
# Poissons Ratio (z) = 0.05974 -0.07094
#
# Static dielectric constant tensor:
#      x y z
#    x 1.931360 0.000000 0.026790 
#    y 0.000000 1.885520 0.000000 
#    z 0.026790 0.000000 1.919860 
# 
# From -- ./inp_files/10682.got.cif
#   From: 2010.05.17/outbox.cif.g08.bks.cpg/sg9_6_cif.got.tgz:10682.got - 2010.06.03 20:04:27.
