data_PCOD9133619
_publ_section_title
;
Structure prediction by ZEFSAII (Michael W. Deem and Ramdas Pophale) SiO2 
 PCOD9133619
Probable space group: C M
;
_chemical_formula_sum "Si O2"
_cell_formula_units_Z 24
_cell_length_a 7.412299
_cell_length_b 17.650409
_cell_length_c 9.789536
_cell_angle_alpha 90.000000
_cell_angle_beta 66.114470
_cell_angle_gamma 90.000000
_cell_volume 1171.076446
_symmetry_space_group_name_H-M "C M"
_symmetry_group_IT_number 8
_symmetry_cell_setting 'monoclinic'
loop_
_space_group_symop_operation_xyz
x,y,z
x,-y,z
1/2+x,1/2+y,z
1/2+x,1/2-y,z
loop_
_atom_site_type_symbol
_atom_site_label
_atom_site_fract_x
_atom_site_fract_y
_atom_site_fract_z
Si Si1 0.426480 0.345132 0.879130
Si Si2 0.315613 0.086783 0.672531
Si Si3 0.847208 0.345367 0.362060
Si Si4 0.615268 0.818578 0.753213
Si Si5 0.906150 0.825653 0.404224
Si Si6 0.249358 0.411441 0.195702
O O1 0.587214 0.405735 0.781530
O O2 0.524800 0.263376 0.817415
O O3 0.229943 0.349571 0.848870
O O4 0.373015 0.361326 0.051334
O O5 0.342342 0.130149 0.521833
O O6 0.442824 0.128458 0.749074
O O7 0.376739 0.000000 0.638265
O O8 0.627012 0.351742 0.371487
O O9 0.910815 0.257638 0.336083
O O10 0.017807 0.395157 0.242204
O O11 0.776438 0.815312 0.581343
O O12 0.802657 0.882767 0.331288
O O13 0.292195 0.500000 0.166644
#
# Coordination Sequence:
#
# PCOD9133619 Si02
#       6
#     4   4   4   4   4   4
#     4  12  26  46  74 104 144 188 237 290 354 426
#     4  12  25  43  71 107 144 182 235 300 353 409
#     4  12  23  43  75 106 138 187 239 290 348 425
#     4  12  23  45  76 106 134 187 247 288 340 426
#     4  12  23  45  78 106 133 188 246 287 344 426
#     4  12  30  48  68 109 153 182 230 301 361 414
#
# _framework density 20.493964999999999
#
# number of rings (size 3 to 8) (size 9 to 14) (size 15 to 20)
#    0.000    0.000    8.333    1.000    2.333    4.000 
#    0.000    0.000    0.000    0.000    0.000    0.000 
#    0.000    0.000    0.000    0.000    0.000    0.000 
#
# Total GULP energy -67147.906186 kJ/mol
# GULP energy per Si atom -5595.658849 kJ/mol
# Density = 2.044732 g / cm^3
# Si number density = 20.493965 Si / 1000 Ang^3
#
#
#
# Elastic Constant Matrix: (Units=GPa)
#
#
# Indices 1 2 3 4 5 6 
#
# 1 128.0693 49.1786 23.4762 0.0000 -9.6850 0.0000
# 2 49.1786 109.1697 17.7182 0.0000 0.5689 0.0000
# 3 23.4762 17.7182 88.4822 0.0000 -2.6970 0.0000
# 4 0.0000 0.0000 0.0000 18.7207 0.0000 -2.4173
# 5 -9.6850 0.5689 -2.6970 0.0000 19.4923 0.0000
# 6 0.0000 0.0000 0.0000 -2.4173 0.0000 21.2095
#
#
#
# Elastic Compliance Matrix: (Units=1/GPa)
#
#
# Indices 1 2 3 4 5 6 
#
# 1 0.010150 -0.004326 -0.001676 0.000000 0.004938 0.000000
# 2 -0.004326 0.011317 -0.001199 0.000000 -0.002646 0.000000
# 3 -0.001676 -0.001199 0.012013 0.000000 0.000864 0.000000
# 4 0.000000 0.000000 0.000000 0.054215 0.000000 0.006179
# 5 0.004938 -0.002646 0.000864 0.000000 0.053952 0.000000
# 6 0.000000 0.000000 0.000000 0.006179 0.000000 0.047853
#
#
# Mechanical properties :
#
#
# Convention : Reuss Voigt Hill
#
# Bulk Modulus (GPa) = 52.41792 56.27415 54.34603
# Shear Modulus (GPa) = 23.77981 27.57438 25.67710
#
# Velocity S-wave (km/s) = 3.41006 3.67207 3.54349
# Velocity P-wave (km/s) = 6.41385 6.74517 6.58159
#
# Compressibility (1/GPa) = 0.01907745
#
# Stress axis : x y z
#
# Youngs Moduli (GPa) = 98.52063 88.36061 83.24376
#
# Poissons Ratio (x) = 0.38226 0.13954
# Poissons Ratio (y) = 0.42621 0.09982
# Poissons Ratio (z) = 0.16515 0.10595
#
# Static dielectric constant tensor:
#      x y z
#    x 1.714440 0.000000 -0.020590 
#    y 0.000000 1.706100 0.000000 
#    z -0.020590 0.000000 1.730550 
# 
# From -- ./inp_files/18985.got.cif
#   From: 2010.05.17/outbox.cif.g08.bks.cpg/sg8_10_cif.got.tgz:18985.got - 2010.06.03 19:46:02.
