data_PCOD9133012
_publ_section_title
;
Structure prediction by ZEFSAII (Michael W. Deem and Ramdas Pophale) SiO2 
 PCOD9133012
Probable space group: C M
;
_chemical_formula_sum "Si O2"
_cell_formula_units_Z 32
_cell_length_a 15.791610
_cell_length_b 14.253962
_cell_length_c 18.731346
_cell_angle_alpha 90.000000
_cell_angle_beta 21.866307
_cell_angle_gamma 90.000000
_cell_volume 1570.325778
_symmetry_space_group_name_H-M "C M"
_symmetry_group_IT_number 8
_symmetry_cell_setting 'monoclinic'
loop_
_space_group_symop_operation_xyz
x,y,z
x,-y,z
1/2+x,1/2+y,z
1/2+x,1/2-y,z
loop_
_atom_site_type_symbol
_atom_site_label
_atom_site_fract_x
_atom_site_fract_y
_atom_site_fract_z
Si Si1 0.433410 0.102697 0.263090
Si Si2 0.147374 0.891340 0.077070
Si Si3 0.286099 0.264533 0.745115
Si Si4 0.802505 0.262352 0.491148
Si Si5 0.267801 0.190944 0.139114
Si Si6 0.135588 0.608796 0.520336
Si Si7 0.328006 0.704697 0.873563
Si Si8 0.557273 0.399371 0.435421
O O1 0.339734 0.176873 0.391678
O O2 0.244063 0.097710 0.350886
O O3 0.465895 0.000000 0.269949
O O4 0.661678 0.140280 0.048521
O O5 0.227996 0.855001 0.092429
O O6 0.872184 0.887767 0.290955
O O7 0.215752 0.000000 0.012334
O O8 0.240132 0.811999 0.951330
O O9 0.437170 0.170585 0.638935
O O10 0.323387 0.317347 0.792616
O O11 0.382020 0.321535 0.601789
O O12 0.012989 0.261197 0.951775
O O13 0.715915 0.160253 0.531101
O O14 0.584999 0.302109 0.701510
O O15 0.055484 0.259582 0.322595
O O16 0.209273 0.116293 0.246135
O O17 0.074260 0.500000 0.578608
O O18 0.437111 0.500000 0.523328
#
# Coordination Sequence:
#
# PCOD9133012 Si02
#       8
#     4   4   4   4   4   4   4   4
#     4  11  21  39  63  87 121 161 210 253 296 367
#     4  10  21  39  66  97 124 158 206 260 319 372
#     4  11  23  38  62  90 128 164 206 246 314 372
#     4  10  22  40  61  89 123 162 209 255 314 357
#     4  11  23  39  61  89 134 164 192 256 317 375
#     4   9  18  38  64  85 116 160 213 256 292 361
#     4  11  20  39  62  89 119 163 210 251 301 368
#     4  11  23  38  60  94 129 160 197 249 312 374
#
# _framework density 20.377935000000001
#
# number of rings (size 3 to 8) (size 9 to 14) (size 15 to 20)
#    0.000    1.500    6.250    0.375    1.750    4.500 
#    0.000    0.625    0.000    0.750    0.000    0.000 
#    0.000    0.000    0.000    0.000    0.000    0.000 
#
# Total GULP energy -89150.535265 kJ/mol
# GULP energy per Si atom -5571.908454 kJ/mol
# Density = 2.033155 g / cm^3
# Si number density = 20.377935 Si / 1000 Ang^3
#
#
#
# Elastic Constant Matrix: (Units=GPa)
#
#
# Indices 1 2 3 4 5 6 
#
# 1 38.9721 14.7831 21.5624 -0.0146 -7.5149 0.0043
# 2 14.7831 60.7378 19.8366 0.0444 -10.2140 0.0038
# 3 21.5624 19.8366 132.5354 0.0243 -30.4890 0.0042
# 4 -0.0146 0.0444 0.0243 4.2222 -0.0074 -4.6771
# 5 -7.5149 -10.2140 -30.4890 -0.0074 43.1683 -0.0067
# 6 0.0043 0.0038 0.0042 -4.6771 -0.0067 -1.1475
#
#
#
# Elastic Compliance Matrix: (Units=1/GPa)
#
#
# Indices 1 2 3 4 5 6 
#
# 1 0.030216 -0.005926 -0.003751 0.000049 0.001209 -0.000128
# 2 -0.005926 0.018741 -0.001263 -0.000033 0.002510 0.000156
# 3 -0.003751 -0.001263 0.009702 -0.000012 0.005900 0.000030
# 4 0.000049 -0.000033 -0.000012 0.042945 -0.000028 -0.175039
# 5 0.001209 0.002510 0.005900 -0.000028 0.028137 -0.000019
# 6 -0.000128 0.000156 0.000030 -0.175039 -0.000019 -0.158014
#
#
# Mechanical properties :
#
#
# Convention : Reuss Voigt Hill
#
# Bulk Modulus (GPa) = 27.18987 38.28992 32.73990
# Shear Modulus (GPa) = 852.27558 20.98616 436.63087
#
# Velocity S-wave (km/s) = 20.47297 3.21260 14.65372
# Velocity P-wave (km/s) = 23.92130 5.70892 17.38994
#
# Compressibility (1/GPa) = 0.03677841
#
# Stress axis : x y z
#
# Youngs Moduli (GPa) = 33.09546 53.35794 103.07357
#
# Poissons Ratio (x) = 0.31620 0.38661
# Poissons Ratio (y) = 0.19612 0.13022
# Poissons Ratio (z) = 0.12413 0.06741
#
# Static dielectric constant tensor:
#      x y z
#    x 1.788250 -0.000010 0.000280 
#    y -0.000010 1.806120 0.000010 
#    z 0.000280 0.000010 1.741080 
# 
# From -- ./inp_files/31194.got.cif
#   From: 2010.05.17/outbox.cif.g08.bks.cpg/sg8_16_cif.got.tgz:31194.got - 2010.06.03 19:46:02.
