data_PCOD9133877
_publ_section_title
;
Structure prediction by ZEFSAII (Michael W. Deem and Ramdas Pophale) SiO2 
 PCOD9133877
Probable space group: C C
;
_chemical_formula_sum "Si O2"
_cell_formula_units_Z 32
_cell_length_a 7.922584
_cell_length_b 16.603023
_cell_length_c 13.859551
_cell_angle_alpha 90.000000
_cell_angle_beta 118.226110
_cell_angle_gamma 90.000000
_cell_volume 1606.284533
_symmetry_space_group_name_H-M "C C"
_symmetry_group_IT_number 9
_symmetry_cell_setting 'monoclinic'
loop_
_space_group_symop_operation_xyz
x,y,z
x,-y,1/2+z
1/2+x,1/2+y,z
1/2+x,1/2-y,1/2+z
loop_
_atom_site_type_symbol
_atom_site_label
_atom_site_fract_x
_atom_site_fract_y
_atom_site_fract_z
Si Si1 0.544790 0.743109 0.247830
Si Si2 0.486278 0.717357 0.854330
Si Si3 0.675001 0.893490 0.910960
Si Si4 0.757681 0.625956 0.631585
Si Si5 0.268976 0.969355 0.762755
Si Si6 0.039615 0.099012 0.381309
Si Si7 0.406809 0.679596 0.630644
Si Si8 0.637601 0.332523 0.588116
O O1 0.773565 0.749530 0.315867
O O2 0.454223 0.829933 0.208685
O O3 0.491722 0.687191 0.323048
O O4 0.496025 0.699642 0.133123
O O5 0.612662 0.799217 0.875565
O O6 0.481582 0.664113 0.757588
O O7 0.542815 0.661770 0.959146
O O8 0.485364 0.947779 0.854799
O O9 0.842384 0.923342 0.883574
O O10 0.771274 0.886050 0.043163
O O11 0.740845 0.554633 0.704335
O O12 0.706817 0.601214 0.508406
O O13 0.588084 0.688699 0.610636
O O14 0.229959 0.908802 0.662823
O O15 0.124371 0.950060 0.812471
O O16 0.292391 0.762288 0.612373
#
# Coordination Sequence:
#
# PCOD9133877 Si02
#       8
#     4   4   4   4   4   4   4   4
#     4  10  19  35  64  93 122 168 211 261 305 377
#     4  10  17  34  65  93 120 160 220 258 300 369
#     4  10  19  38  63  91 119 168 209 257 317 368
#     4  11  24  39  61  98 128 162 215 262 323 375
#     4  11  23  43  61  93 133 165 205 266 324 375
#     4  10  22  42  67  87 131 168 209 267 310 376
#     4   9  19  35  60  87 117 165 212 254 296 379
#     4   9  19  36  63  88 120 170 209 255 315 373
#
# _framework density 19.921749999999999
#
# number of rings (size 3 to 8) (size 9 to 14) (size 15 to 20)
#    0.000    2.000    3.750    1.500    3.500    1.000 
#    9.000    0.000    2.750    0.000    0.000    0.000 
#    0.000    0.000    0.000    0.000    0.000    0.000 
#
# Total GULP energy -89089.856264 kJ/mol
# GULP energy per Si atom -5568.116017 kJ/mol
# Density = 1.987641 g / cm^3
# Si number density = 19.921750 Si / 1000 Ang^3
#
#
#
# Elastic Constant Matrix: (Units=GPa)
#
#
# Indices 1 2 3 4 5 6 
#
# 1 63.3953 19.2176 25.5813 0.0000 -4.6506 0.0000
# 2 19.2176 45.8347 21.7242 0.0000 -7.5965 0.0000
# 3 25.5813 21.7242 145.6821 0.0000 -16.7063 0.0000
# 4 0.0000 0.0000 0.0000 9.2591 0.0000 -6.7271
# 5 -4.6506 -7.5965 -16.7063 0.0000 23.5063 0.0000
# 6 0.0000 0.0000 0.0000 -6.7271 0.0000 14.5888
#
#
#
# Elastic Compliance Matrix: (Units=1/GPa)
#
#
# Indices 1 2 3 4 5 6 
#
# 1 0.018750 -0.006794 -0.002293 0.000000 -0.000115 0.000000
# 2 -0.006794 0.026623 -0.002117 0.000000 0.005755 0.000000
# 3 -0.002293 -0.002117 0.008113 0.000000 0.004629 0.000000
# 4 0.000000 0.000000 0.000000 0.162412 0.000000 0.074890
# 5 -0.000115 0.005755 0.004629 0.000000 0.047668 0.000000
# 6 0.000000 0.000000 0.000000 0.074890 0.000000 0.103079
#
#
# Mechanical properties :
#
#
# Convention : Reuss Voigt Hill
#
# Bulk Modulus (GPa) = 32.17572 43.10650 37.64111
# Shear Modulus (GPa) = 12.51836 22.03011 17.27424
#
# Velocity S-wave (km/s) = 2.50946 3.32901 2.94786
# Velocity P-wave (km/s) = 4.95809 6.03832 5.52467
#
# Compressibility (1/GPa) = 0.03107933
#
# Stress axis : x y z
#
# Youngs Moduli (GPa) = 53.33266 37.56094 123.25422
#
# Poissons Ratio (x) = 0.25519 0.28257
# Poissons Ratio (y) = 0.36235 0.26094
# Poissons Ratio (z) = 0.12227 0.07952
#
# Static dielectric constant tensor:
#      x y z
#    x 1.736630 0.000000 0.009050 
#    y 0.000000 1.757440 0.000000 
#    z 0.009050 0.000000 1.780610 
# 
# From -- ./inp_files/23577.got.cif
#   From: 2010.05.17/outbox.cif.g08.bks.cpg/sg9_12_cif.got.tgz:23577.got - 2010.06.03 20:04:27.
