data_PCOD9133676
_publ_section_title
;
Structure prediction by ZEFSAII (Michael W. Deem and Ramdas Pophale) SiO2 
 PCOD9133676
Probable space group: C M
;
_chemical_formula_sum "Si O2"
_cell_formula_units_Z 12
_cell_length_a 15.000000
_cell_length_b 18.000000
_cell_length_c 9.000000
_cell_angle_alpha 90.000000
_cell_angle_beta 30.000000
_cell_angle_gamma 90.000000
_cell_volume 1215.000000
_symmetry_space_group_name_H-M "C M"
_symmetry_group_IT_number 8
_symmetry_cell_setting 'monoclinic'
loop_
_space_group_symop_operation_xyz
x,y,z
x,-y,z
1/2+x,1/2+y,z
1/2+x,1/2-y,z
loop_
_atom_site_type_symbol
_atom_site_label
_atom_site_fract_x
_atom_site_fract_y
_atom_site_fract_z
Si Si1 0.327050 0.913646 0.314370
Si Si2 0.587327 0.800033 0.345740
Si Si3 0.836304 0.347358 0.972311
Si Si4 0.696464 0.303898 0.754152
Si Si5 0.534078 0.414219 0.219241
Si Si6 0.687005 0.142430 0.893088
O O1 0.220158 0.849628 0.564665
O O2 0.258326 0.000000 0.419195
O O3 0.356442 0.885581 0.103304
O O4 0.522687 0.912388 0.105219
O O5 0.514551 0.827400 0.614878
O O6 0.395316 0.796114 0.538899
O O7 0.707155 0.725277 0.182621
O O8 0.698380 0.844100 0.055618
O O9 0.716660 0.403426 0.047507
O O10 0.636066 0.218656 0.873667
O O11 0.565921 0.356598 0.038692
O O12 0.512581 0.500000 0.204379
O O13 0.368174 0.388612 0.560103
#
# Coordination Sequence:
#
# PCOD9133676 Si02
#       6
#     4   4   4   4   4   4
#     4  11  25  39  56  89 130 159 188 245 310 354
#     4  10  19  37  64  87 111 153 208 255 278 348
#     4  11  21  38  59  89 124 151 199 245 307 348
#     4  10  20  39  63  87 114 156 206 243 285 352
#     4  11  20  36  64  88 117 157 200 246 291 352
#     4  11  20  41  62  90 113 156 207 248 286 352
#
# _framework density 9.8765429999999999
#
# number of rings (size 3 to 8) (size 9 to 14) (size 15 to 20)
#    0.000    1.333    5.000    2.500    2.333    0.000 
#    0.000    2.500    0.000    0.000    0.000    0.000 
#    0.000    0.000    0.000    0.000    0.000    0.000 
#
# Total GULP energy -66814.506423 kJ/mol
# GULP energy per Si atom -5567.875535 kJ/mol
# Density = 0.985406 g / cm^3
# Si number density = 9.876543 Si / 1000 Ang^3
#
#
#
# Elastic Constant Matrix: (Units=GPa)
#
#
# Indices 1 2 3 4 5 6 
#
# 1 45.4103 10.2044 -2.4934 -0.0023 28.0289 0.0008
# 2 10.2044 120.3414 22.1814 -0.0027 11.1490 0.0007
# 3 -2.4934 22.1814 118.2538 -0.0072 25.9580 0.0028
# 4 -0.0023 -0.0027 -0.0072 30.0370 0.0022 0.9798
# 5 28.0289 11.1490 25.9580 0.0022 35.4579 -0.0010
# 6 0.0008 0.0007 0.0028 0.9798 -0.0010 25.2063
#
#
#
# Elastic Compliance Matrix: (Units=1/GPa)
#
#
# Indices 1 2 3 4 5 6 
#
# 1 0.056400 -0.002279 0.013399 0.000011 -0.053676 -0.000006
# 2 -0.002279 0.008799 -0.001771 0.000000 0.000332 0.000000
# 3 0.013399 -0.001771 0.013433 0.000006 -0.019869 -0.000003
# 4 0.000011 0.000000 0.000006 0.033335 -0.000015 -0.001296
# 5 -0.053676 0.000332 -0.019869 -0.000015 0.085073 0.000008
# 6 -0.000006 0.000000 -0.000003 -0.001296 0.000008 0.039723
#
#
# Mechanical properties :
#
#
# Convention : Reuss Voigt Hill
#
# Bulk Modulus (GPa) = 10.27452 38.19892 24.23672
# Shear Modulus (GPa) = 19.95943 35.08112 27.52028
#
# Velocity S-wave (km/s) = 3.18220 4.21881 3.73663
# Velocity P-wave (km/s) = 4.32604 6.56592 5.55995
#
# Compressibility (1/GPa) = 0.09732814
#
# Stress axis : x y z
#
# Youngs Moduli (GPa) = 17.73046 113.65298 74.44604
#
# Poissons Ratio (x) = 0.25907 -0.99752
# Poissons Ratio (y) = 0.04042 0.13187
# Poissons Ratio (z) = -0.23757 0.20132
#
# Static dielectric constant tensor:
#      x y z
#    x 1.731380 0.000000 0.019180 
#    y 0.000000 1.728600 0.000000 
#    z 0.019180 0.000000 1.717960 
# 
# From -- ./inp_files/8121.got.cif
#   From: 2010.05.17/outbox.ucp.g08.bks.cvg/sg8_5_cif.got.tgz:8121.got - 2010.06.11 13:00:03.
