data_PCOD9133563
_publ_section_title
;
Structure prediction by ZEFSAII (Michael W. Deem and Ramdas Pophale) SiO2 
 PCOD9133563
Probable space group: C M
;
_chemical_formula_sum "Si O2"
_cell_formula_units_Z 26
_cell_length_a 10.490300
_cell_length_b 22.774586
_cell_length_c 5.004283
_cell_angle_alpha 90.000000
_cell_angle_beta 119.552279
_cell_angle_gamma 90.000000
_cell_volume 1040.046126
_symmetry_space_group_name_H-M "C M"
_symmetry_group_IT_number 8
_symmetry_cell_setting 'monoclinic'
loop_
_space_group_symop_operation_xyz
x,y,z
x,-y,z
1/2+x,1/2+y,z
1/2+x,1/2-y,z
loop_
_atom_site_type_symbol
_atom_site_label
_atom_site_fract_x
_atom_site_fract_y
_atom_site_fract_z
Si Si1 0.191750 0.616627 0.732890
Si Si2 0.930413 0.599375 0.816424
Si Si3 0.376019 0.377628 0.443282
Si Si4 0.035052 0.236090 0.693109
Si Si5 0.218681 0.000000 0.458491
Si Si6 0.517514 0.500000 0.749311
Si Si7 0.367454 0.781166 0.017709
Si Si8 0.086816 0.500000 0.352873
O O1 0.247348 0.643804 0.511973
O O2 0.155409 0.550217 0.619329
O O3 0.044693 0.632395 0.740644
O O4 0.319792 0.620785 0.083817
O O5 0.816637 0.558810 0.532104
O O6 0.861985 0.650195 0.929891
O O7 0.016080 0.552035 0.086878
O O8 0.479190 0.249519 0.929797
O O9 0.423424 0.442454 0.584617
O O10 0.508072 0.333022 0.613352
O O11 0.929648 0.267927 0.373136
O O12 0.206428 0.246928 0.831410
O O13 0.155715 0.000000 0.692156
O O14 0.084570 0.000000 0.113970
#
# Coordination Sequence:
#
# PCOD9133563 Si02
#       8
#     4   4   4   4   2   2   4   2
#     4  12  25  43  76 114 148 203 243 317 383 460
#     4  11  28  46  78 111 155 198 260 317 384 467
#     4  12  27  47  77 108 163 189 261 312 399 457
#     4  12  30  53  80 118 154 208 264 332 389 473
#     4  11  27  44  73 103 153 190 261 307 388 461
#     4  12  26  46  71 107 148 208 236 317 392 467
#     4  12  30  52  84 113 158 207 268 322 402 457
#     4  11  23  44  70 118 157 200 255 318 376 476
#
# _framework density 24.998888000000001
#
# number of rings (size 3 to 8) (size 9 to 14) (size 15 to 20)
#    0.000    0.308    1.538    5.538   12.923    2.462 
#    0.000    0.000    0.000    0.000    0.000    0.000 
#    0.000    0.000    0.000    0.000    0.000    0.000 
#
# Total GULP energy -72642.056598 kJ/mol
# GULP energy per Si atom -5587.850508 kJ/mol
# Density = 2.494199 g / cm^3
# Si number density = 24.998888 Si / 1000 Ang^3
#
#
#
# Elastic Constant Matrix: (Units=GPa)
#
#
# Indices 1 2 3 4 5 6 
#
# 1 96.7170 -3.3606 -6.1760 0.0000 10.0460 0.0000
# 2 -3.3606 101.5518 21.7444 0.0000 10.9320 0.0000
# 3 -6.1760 21.7444 89.9433 0.0000 -10.9315 0.0000
# 4 0.0000 0.0000 0.0000 40.5393 0.0000 -1.3574
# 5 10.0460 10.9320 -10.9315 0.0000 26.9058 0.0000
# 6 0.0000 0.0000 0.0000 -1.3574 0.0000 29.4402
#
#
#
# Elastic Compliance Matrix: (Units=1/GPa)
#
#
# Indices 1 2 3 4 5 6 
#
# 1 0.010823 0.000826 0.000012 0.000000 -0.004372 0.000000
# 2 0.000826 0.011288 -0.003437 0.000000 -0.006291 0.000000
# 3 0.000012 -0.003437 0.012748 0.000000 0.006571 0.000000
# 4 0.000000 0.000000 0.000000 0.024706 0.000000 0.001139
# 5 -0.004372 -0.006291 0.006571 0.000000 0.044025 0.000000
# 6 0.000000 0.000000 0.000000 0.001139 0.000000 0.034020
#
#
# Mechanical properties :
#
#
# Convention : Reuss Voigt Hill
#
# Bulk Modulus (GPa) = 33.71289 34.73643 34.22466
# Shear Modulus (GPa) = 32.74529 37.77733 35.26131
#
# Velocity S-wave (km/s) = 3.62314 3.89158 3.75976
# Velocity P-wave (km/s) = 5.56937 5.84105 5.70683
#
# Compressibility (1/GPa) = 0.02966224
#
# Stress axis : x y z
#
# Youngs Moduli (GPa) = 92.39559 88.59250 78.44076
#
# Poissons Ratio (x) = -0.07320 -0.00095
# Poissons Ratio (y) = -0.07634 0.26958
# Poissons Ratio (z) = -0.00112 0.30447
#
# Static dielectric constant tensor:
#      x y z
#    x 2.091610 0.000000 0.012200 
#    y 0.000000 1.956380 0.000000 
#    z 0.012200 0.000000 1.876340 
# 
# From -- ./inp_files/4257.got.cif
#   From: 2010.05.17/outbox.cif.g08.bks.cpg/sg8_3_cif.got.tgz:4257.got - 2010.06.03 19:46:02.
