data_PCOD9133734
_publ_section_title
;
Structure prediction by ZEFSAII (Michael W. Deem and Ramdas Pophale) SiO2 
 PCOD9133734
Probable space group: C C
;
_chemical_formula_sum "Si O2"
_cell_formula_units_Z 32
_cell_length_a 10.112866
_cell_length_b 33.318785
_cell_length_c 13.567545
_cell_angle_alpha 90.000000
_cell_angle_beta 19.836977
_cell_angle_gamma 90.000000
_cell_volume 1551.337243
_symmetry_space_group_name_H-M "C C"
_symmetry_group_IT_number 9
_symmetry_cell_setting 'monoclinic'
loop_
_space_group_symop_operation_xyz
x,y,z
x,-y,1/2+z
1/2+x,1/2+y,z
1/2+x,1/2-y,1/2+z
loop_
_atom_site_type_symbol
_atom_site_label
_atom_site_fract_x
_atom_site_fract_y
_atom_site_fract_z
Si Si1 0.813960 0.443385 0.564290
Si Si2 0.574882 0.270923 0.765531
Si Si3 0.649800 0.432238 0.071037
Si Si4 0.716447 0.639429 0.181271
Si Si5 0.615262 0.644836 0.483734
Si Si6 0.280820 0.763245 0.908137
Si Si7 0.840697 0.526326 0.626018
Si Si8 0.743033 0.482671 0.424180
O O1 0.567871 0.402632 0.740111
O O2 0.643291 0.484323 0.729305
O O3 0.953359 0.454253 0.356314
O O4 0.194738 0.434556 0.362145
O O5 0.507669 0.318342 0.807527
O O6 0.716712 0.252249 0.564429
O O7 0.941458 0.261102 0.583887
O O8 0.790694 0.389916 0.930050
O O9 0.688627 0.439222 0.160152
O O10 0.839452 0.470778 0.881820
O O11 0.703519 0.634696 0.308455
O O12 0.151136 0.645669 0.832066
O O13 0.756174 0.689774 0.404550
O O14 0.681033 0.745595 0.589807
O O15 0.292757 0.522272 0.275867
O O16 0.787937 0.529048 0.779488
#
# Coordination Sequence:
#
# PCOD9133734 Si02
#       8
#     4   4   4   4   4   4   4   4
#     4   9  21  34  53  79 102 132 173 217 252 294
#     4  10  15  25  38  58  92 135 148 180 248 313
#     4   9  21  34  53  79 102 132 173 217 252 294
#     4  11  18  27  43  67  98 129 159 199 246 300
#     4  11  18  27  43  67  98 129 159 199 246 300
#     4  10  15  25  38  58  92 135 148 180 248 313
#     4  10  21  38  54  71 103 141 172 205 257 306
#     4  10  21  38  54  71 103 141 172 205 257 306
#
# _framework density 20.627365000000001
#
# number of rings (size 3 to 8) (size 9 to 14) (size 15 to 20)
#    0.000    2.000    5.000    0.750    0.000   13.000 
#    0.000    0.000    0.000    0.000    0.000    0.000 
#    0.000    6.000    0.000    0.000    0.000    0.000 
#
# Total GULP energy -89238.708820 kJ/mol
# GULP energy per Si atom -5577.419301 kJ/mol
# Density = 2.058042 g / cm^3
# Si number density = 20.627365 Si / 1000 Ang^3
#
#
#
# Elastic Constant Matrix: (Units=GPa)
#
#
# Indices 1 2 3 4 5 6 
#
# 1 70.2455 7.4450 41.0060 0.0000 32.4893 0.0000
# 2 7.4450 115.0366 14.2554 0.0000 21.7861 0.0000
# 3 41.0060 14.2554 90.7352 0.0000 45.0319 0.0000
# 4 0.0000 0.0000 0.0000 20.7364 0.0000 14.5638
# 5 32.4893 21.7861 45.0319 0.0000 43.6176 0.0000
# 6 0.0000 0.0000 0.0000 14.5638 0.0000 21.8444
#
#
#
# Elastic Compliance Matrix: (Units=1/GPa)
#
#
# Indices 1 2 3 4 5 6 
#
# 1 0.022597 0.001628 -0.003509 0.000000 -0.014022 0.000000
# 2 0.001628 0.009862 0.001561 0.000000 -0.007750 0.000000
# 3 -0.003509 0.001561 0.023485 0.000000 -0.022413 0.000000
# 4 0.000000 0.000000 0.000000 0.090689 0.000000 -0.060463
# 5 -0.014022 -0.007750 -0.022413 0.000000 0.060382 0.000000
# 6 0.000000 0.000000 0.000000 -0.060463 0.000000 0.086089
#
#
# Mechanical properties :
#
#
# Convention : Reuss Voigt Hill
#
# Bulk Modulus (GPa) = 18.08149 44.60336 31.34243
# Shear Modulus (GPa) = 16.01651 31.46041 23.73846
#
# Velocity S-wave (km/s) = 2.78954 3.90959 3.39606
# Velocity P-wave (km/s) = 4.37724 6.48461 5.53220
#
# Compressibility (1/GPa) = 0.05530517
#
# Stress axis : x y z
#
# Youngs Moduli (GPa) = 44.25368 101.40086 42.58048
#
# Poissons Ratio (x) = -0.16508 0.14940
# Poissons Ratio (y) = -0.07204 -0.06649
# Poissons Ratio (z) = 0.15527 -0.15833
#
# Static dielectric constant tensor:
#      x y z
#    x 1.768750 0.000000 -0.013970 
#    y 0.000000 1.792810 0.000000 
#    z -0.013970 0.000000 1.832930 
# 
# From -- ./inp_files/15735.got.cif
#   From: 2010.05.17/outbox.cif.g08.bks.cpg/sg9_8_cif.got.tgz:15735.got - 2010.06.03 20:04:27.
