data_PCOD9133289
_publ_section_title
;
Structure prediction by ZEFSAII (Michael W. Deem and Ramdas Pophale) SiO2 
 PCOD9133289
Probable space group: C M
;
_chemical_formula_sum "Si O2"
_cell_formula_units_Z 32
_cell_length_a 11.027568
_cell_length_b 30.205484
_cell_length_c 8.595862
_cell_angle_alpha 90.000000
_cell_angle_beta 151.729090
_cell_angle_gamma 90.000000
_cell_volume 1356.139523
_symmetry_space_group_name_H-M "C M"
_symmetry_group_IT_number 8
_symmetry_cell_setting 'monoclinic'
loop_
_space_group_symop_operation_xyz
x,y,z
x,-y,z
1/2+x,1/2+y,z
1/2+x,1/2-y,z
loop_
_atom_site_type_symbol
_atom_site_label
_atom_site_fract_x
_atom_site_fract_y
_atom_site_fract_z
Si Si1 0.239920 0.928439 0.112270
Si Si2 0.125013 0.288209 0.023177
Si Si3 0.953632 0.453056 0.676773
Si Si4 0.330327 0.369763 0.088053
Si Si5 0.268263 0.375968 0.673239
Si Si6 0.297192 0.855681 0.840058
Si Si7 0.979485 0.803007 0.707536
Si Si8 0.420825 0.048478 0.985745
O O1 0.282440 0.951291 0.328348
O O2 0.489868 0.895735 0.395401
O O3 0.265605 0.951789 0.973014
O O4 0.953036 0.910250 0.794873
O O5 0.903224 0.314185 0.864253
O O6 0.070556 0.239614 0.902305
O O7 0.196217 0.322627 0.968309
O O8 0.347930 0.286392 0.401817
O O9 0.099617 0.500000 0.831549
O O10 0.814832 0.453593 0.688281
O O11 0.140418 0.411089 0.892821
O O12 0.552258 0.372530 0.466361
O O13 0.412248 0.369020 0.001438
O O14 0.284467 0.330992 0.593369
O O15 0.489964 0.897963 0.066068
O O16 0.194665 0.836677 0.887281
O O17 0.566343 0.000000 0.158744
#
# Coordination Sequence:
#
# PCOD9133289 Si02
#       8
#     4   4   4   4   4   4   4   4
#     4  11  24  46  70 106 147 190 241 309 359 445
#     4  11  26  45  67  99 141 185 243 307 369 453
#     4  10  22  42  69 104 144 190 244 298 365 442
#     4  10  24  42  69  99 137 188 234 304 364 437
#     4  11  25  44  74 101 143 189 238 300 375 429
#     4  11  23  45  68  98 142 179 245 301 364 443
#     4  11  27  43  70 101 138 188 244 303 374 448
#     4  11  22  41  72 102 140 191 238 296 367 435
#
# _framework density 23.596392000000002
#
# number of rings (size 3 to 8) (size 9 to 14) (size 15 to 20)
#    0.000    1.250    2.500    1.875    7.000    1.500 
#    0.000    8.750    0.000    0.000    0.000    0.000 
#    0.000    0.000    0.000    0.000    0.000    0.000 
#
# Total GULP energy -89140.789716 kJ/mol
# GULP energy per Si atom -5571.299357 kJ/mol
# Density = 2.354269 g / cm^3
# Si number density = 23.596392 Si / 1000 Ang^3
#
#
#
# Elastic Constant Matrix: (Units=GPa)
#
#
# Indices 1 2 3 4 5 6 
#
# 1 115.9952 33.3263 39.0433 0.0000 -36.0069 0.0000
# 2 33.3263 165.5765 53.5750 0.0000 -5.5187 0.0000
# 3 39.0433 53.5750 93.0179 0.0000 -8.0066 0.0000
# 4 0.0000 0.0000 0.0000 20.2625 0.0000 -12.0488
# 5 -36.0069 -5.5187 -8.0066 0.0000 42.4995 0.0000
# 6 0.0000 0.0000 0.0000 -12.0488 0.0000 -5.0459
#
#
#
# Elastic Compliance Matrix: (Units=1/GPa)
#
#
# Indices 1 2 3 4 5 6 
#
# 1 0.013632 -0.001025 -0.004217 0.000000 0.010622 0.000000
# 2 -0.001025 0.007501 -0.003945 0.000000 -0.000638 0.000000
# 3 -0.004217 -0.003945 0.014679 0.000000 -0.001320 0.000000
# 4 0.000000 0.000000 0.000000 0.020394 0.000000 -0.048698
# 5 0.010622 -0.000638 -0.001320 0.000000 0.032198 0.000000
# 6 0.000000 0.000000 0.000000 -0.048698 0.000000 -0.081896
#
#
# Mechanical properties :
#
#
# Convention : Reuss Voigt Hill
#
# Bulk Modulus (GPa) = 57.34616 69.60875 63.47746
# Shear Modulus (GPa) = 162.88735 28.11956 95.50346
#
# Velocity S-wave (km/s) = 8.31748 3.45583 6.36880
# Velocity P-wave (km/s) = 10.79798 6.74444 9.00233
#
# Compressibility (1/GPa) = 0.01743796
#
# Stress axis : x y z
#
# Youngs Moduli (GPa) = 73.35457 133.31485 68.12330
#
# Poissons Ratio (x) = 0.13668 0.28729
# Poissons Ratio (y) = 0.07521 0.26874
# Poissons Ratio (z) = 0.30935 0.52591
#
# Static dielectric constant tensor:
#      x y z
#    x 1.914870 0.000000 -0.020840 
#    y 0.000000 1.917090 0.000000 
#    z -0.020840 0.000000 1.939890 
# 
# From -- ./inp_files/11728.got.cif
#   From: 2010.05.17/outbox.cif.g08.bks.cpg/sg8_6_cif.got.tgz:11728.got - 2010.06.03 19:46:02.
