data_PCOD9133123
_publ_section_title
;
Structure prediction by ZEFSAII (Michael W. Deem and Ramdas Pophale) SiO2 
 PCOD9133123
Probable space group: C M
;
_chemical_formula_sum "Si O2"
_cell_formula_units_Z 32
_cell_length_a 29.847883
_cell_length_b 7.600038
_cell_length_c 8.012727
_cell_angle_alpha 90.000000
_cell_angle_beta 139.365930
_cell_angle_gamma 90.000000
_cell_volume 1183.698512
_symmetry_space_group_name_H-M "C M"
_symmetry_group_IT_number 8
_symmetry_cell_setting 'monoclinic'
loop_
_space_group_symop_operation_xyz
x,y,z
x,-y,z
1/2+x,1/2+y,z
1/2+x,1/2-y,z
loop_
_atom_site_type_symbol
_atom_site_label
_atom_site_fract_x
_atom_site_fract_y
_atom_site_fract_z
Si Si1 0.049140 0.705958 0.574830
Si Si2 0.331868 0.796205 0.443697
Si Si3 0.586914 0.714003 0.164510
Si Si4 0.300711 0.207948 0.894966
Si Si5 0.708915 0.290175 0.299342
Si Si6 0.174229 0.791406 0.726356
Si Si7 0.459164 0.207398 0.619080
Si Si8 0.920623 0.799011 0.008084
O O1 0.055967 0.500000 0.622132
O O2 0.251847 0.771396 0.593733
O O3 0.125474 0.722894 0.439197
O O4 0.005742 0.788067 0.604565
O O5 0.384479 0.719963 0.456144
O O6 0.378377 0.798854 0.744377
O O7 0.318010 0.000000 0.359088
O O8 0.259340 0.716270 0.299165
O O9 0.587001 0.500000 0.167293
O O10 0.634254 0.776827 0.142341
O O11 0.509944 0.776412 0.920382
O O12 0.495915 0.765011 0.271671
O O13 0.251666 0.274207 0.907322
O O14 0.372420 0.288457 0.037747
O O15 0.314403 0.000000 0.954350
O O16 0.702961 0.500000 0.252903
O O17 0.625800 0.270822 0.750196
O O18 0.181204 0.000000 0.722165
O O19 0.449242 0.000000 0.555205
O O20 0.925758 0.000000 0.967487
#
# Coordination Sequence:
#
# PCOD9133123 Si02
#       8
#     4   4   4   4   4   4   4   4
#     4  11  23  37  50  69 104 145 180 214 255 302
#     4   9  17  34  57  76  98 131 171 212 255 301
#     4   9  17  31  53  78 102 126 158 206 258 305
#     4   8  15  31  54  78 105 133 164 207 257 306
#     4   7  12  26  50  76  97 121 156 199 246 297
#     4   9  18  34  57  83 105 130 170 214 255 306
#     4  10  22  36  50  71 100 136 175 212 251 301
#     4  11  21  33  53  81 107 132 170 214 257 308
#
# _framework density 27.033909000000001
#
# number of rings (size 3 to 8) (size 9 to 14) (size 15 to 20)
#    0.000    2.750    0.000    4.500    0.000    4.500 
#    0.000    6.250    0.000    3.000    0.000    0.000 
#    0.000    0.000    0.000    0.000    0.000    0.000 
#
# Total GULP energy -89461.838147 kJ/mol
# GULP energy per Si atom -5591.364884 kJ/mol
# Density = 2.697238 g / cm^3
# Si number density = 27.033909 Si / 1000 Ang^3
#
#
#
# Elastic Constant Matrix: (Units=GPa)
#
#
# Indices 1 2 3 4 5 6 
#
# 1 184.5115 2.5402 47.8100 0.0000 40.2277 0.0000
# 2 2.5402 65.6474 -2.5178 0.0000 10.1333 0.0000
# 3 47.8100 -2.5178 162.4195 0.0000 44.5578 0.0000
# 4 0.0000 0.0000 0.0000 5.6546 0.0000 6.0176
# 5 40.2277 10.1333 44.5578 0.0000 66.1299 0.0000
# 6 0.0000 0.0000 0.0000 6.0176 0.0000 16.2068
#
#
#
# Elastic Compliance Matrix: (Units=1/GPa)
#
#
# Indices 1 2 3 4 5 6 
#
# 1 0.006380 0.000218 -0.000982 0.000000 -0.003253 0.000000
# 2 0.000218 0.015772 0.001079 0.000000 -0.003276 0.000000
# 3 -0.000982 0.001079 0.007783 0.000000 -0.004812 0.000000
# 4 0.000000 0.000000 0.000000 0.292372 0.000000 -0.108557
# 5 -0.003253 -0.003276 -0.004812 0.000000 0.020845 0.000000
# 6 0.000000 0.000000 0.000000 -0.108557 0.000000 0.102009
#
#
# Mechanical properties :
#
#
# Convention : Reuss Voigt Hill
#
# Bulk Modulus (GPa) = 32.71873 56.47148 44.59511
# Shear Modulus (GPa) = 10.99578 41.91466 26.45522
#
# Velocity S-wave (km/s) = 2.01897 3.94184 3.13164
# Velocity P-wave (km/s) = 4.19095 6.45384 5.44133
#
# Compressibility (1/GPa) = 0.03056353
#
# Stress axis : x y z
#
# Youngs Moduli (GPa) = 156.72874 63.40516 128.48723
#
# Poissons Ratio (x) = -0.01379 0.12623
# Poissons Ratio (y) = -0.03409 -0.13867
# Poissons Ratio (z) = 0.15398 -0.06843
#
# Static dielectric constant tensor:
#      x y z
#    x 2.257590 0.000000 -0.054980 
#    y 0.000000 1.993020 0.000000 
#    z -0.054980 0.000000 2.109280 
# 
# From -- ./inp_files/23989.got.cif
#   From: 2010.05.17/outbox.cif.g08.bks.cpg/sg8_12_cif.got.tgz:23989.got - 2010.06.03 19:46:02.
