data_PCOD9133547
_publ_section_title
;
Structure prediction by ZEFSAII (Michael W. Deem and Ramdas Pophale) SiO2 
 PCOD9133547
Probable space group: C M
;
_chemical_formula_sum "Si O2"
_cell_formula_units_Z 32
_cell_length_a 11.320616
_cell_length_b 22.342687
_cell_length_c 5.654196
_cell_angle_alpha 90.000000
_cell_angle_beta 97.832258
_cell_angle_gamma 90.000000
_cell_volume 1416.791328
_symmetry_space_group_name_H-M "C M"
_symmetry_group_IT_number 8
_symmetry_cell_setting 'monoclinic'
loop_
_space_group_symop_operation_xyz
x,y,z
x,-y,z
1/2+x,1/2+y,z
1/2+x,1/2-y,z
loop_
_atom_site_type_symbol
_atom_site_label
_atom_site_fract_x
_atom_site_fract_y
_atom_site_fract_z
Si Si1 0.490690 0.070675 0.713830
Si Si2 0.152933 0.654117 0.071569
Si Si3 0.792100 0.342546 0.486582
Si Si4 0.546607 0.628976 0.243297
Si Si5 0.932942 0.884461 0.705116
Si Si6 0.971413 0.266037 0.228605
Si Si7 0.714306 0.933794 0.440157
Si Si8 0.304911 0.736950 0.774568
O O1 0.366852 0.103499 0.620689
O O2 0.583685 0.075055 0.518346
O O3 0.478177 0.000000 0.765808
O O4 0.556932 0.108867 0.934510
O O5 0.242546 0.613319 0.243098
O O6 0.092808 0.697812 0.243708
O O7 0.213494 0.696897 0.899675
O O8 0.690216 0.367369 0.288779
O O9 0.889329 0.298502 0.395479
O O10 0.733131 0.292094 0.639193
O O11 0.505699 0.600300 0.484201
O O12 0.497808 0.696565 0.249549
O O13 0.500406 0.607099 0.973767
O O14 0.812856 0.923954 0.667297
O O15 0.883862 0.815626 0.675854
O O16 0.899075 0.271792 0.964396
O O17 0.720503 0.000000 0.343650
#
# Coordination Sequence:
#
# PCOD9133547 Si02
#       8
#     4   4   4   4   4   4   4   4
#     4  11  25  45  69 102 141 191 248 303 366 437
#     4  12  23  40  69 104 142 187 237 312 366 438
#     4  12  25  43  66 102 144 196 237 300 366 459
#     4  11  27  42  70 101 149 186 240 290 379 448
#     4  11  24  47  65 105 142 189 235 312 361 442
#     4  11  23  39  62 100 140 190 224 294 363 446
#     4  11  24  45  74 102 140 191 253 311 371 436
#     4  11  24  37  65 100 141 182 234 298 380 430
#
# _framework density 22.586248000000001
#
# number of rings (size 3 to 8) (size 9 to 14) (size 15 to 20)
#    0.000    0.750    5.000    2.625    8.750    0.000 
#    0.000    1.250    0.000    0.000    0.000    0.000 
#    0.000    0.000    0.000    0.000    0.000    0.000 
#
# Total GULP energy -89359.875572 kJ/mol
# GULP energy per Si atom -5584.992223 kJ/mol
# Density = 2.253484 g / cm^3
# Si number density = 22.586248 Si / 1000 Ang^3
#
#
#
# Elastic Constant Matrix: (Units=GPa)
#
#
# Indices 1 2 3 4 5 6 
#
# 1 61.4333 18.1864 36.9917 0.0000 14.8551 0.0000
# 2 18.1864 81.1254 32.2915 0.0000 1.1222 0.0000
# 3 36.9917 32.2915 102.9299 0.0000 20.3462 0.0000
# 4 0.0000 0.0000 0.0000 21.6414 0.0000 -1.5466
# 5 14.8551 1.1222 20.3462 0.0000 35.6720 0.0000
# 6 0.0000 0.0000 0.0000 -1.5466 0.0000 19.4916
#
#
#
# Elastic Compliance Matrix: (Units=1/GPa)
#
#
# Indices 1 2 3 4 5 6 
#
# 1 0.021995 -0.002458 -0.006017 0.000000 -0.005650 0.000000
# 2 -0.002458 0.014536 -0.004270 0.000000 0.003002 0.000000
# 3 -0.006017 -0.004270 0.014309 0.000000 -0.005521 0.000000
# 4 0.000000 0.000000 0.000000 0.046471 0.000000 0.003687
# 5 -0.005650 0.003002 -0.005521 0.000000 0.033441 0.000000
# 6 0.000000 0.000000 0.000000 0.003687 0.000000 0.051597
#
#
# Mechanical properties :
#
#
# Convention : Reuss Voigt Hill
#
# Bulk Modulus (GPa) = 39.44793 46.71420 43.08107
# Shear Modulus (GPa) = 23.11741 25.89560 24.50651
#
# Velocity S-wave (km/s) = 3.20272 3.38970 3.29754
# Velocity P-wave (km/s) = 5.58390 6.00397 5.79774
#
# Compressibility (1/GPa) = 0.02534987
#
# Stress axis : x y z
#
# Youngs Moduli (GPa) = 45.46584 68.79567 69.88712
#
# Poissons Ratio (x) = 0.16907 0.42049
# Poissons Ratio (y) = 0.11174 0.29844
# Poissons Ratio (z) = 0.27355 0.29378
#
# Static dielectric constant tensor:
#      x y z
#    x 1.906330 0.000000 -0.053770 
#    y 0.000000 1.800480 0.000000 
#    z -0.053770 0.000000 1.916980 
# 
# From -- ./inp_files/3167.got.cif
#   From: 2010.05.17/outbox.cif.g08.bks.cpg/sg8_2_cif.got.tgz:3167.got - 2010.06.03 19:46:02.
