data_PCOD9133564
_publ_section_title
;
Structure prediction by ZEFSAII (Michael W. Deem and Ramdas Pophale) SiO2 
 PCOD9133564
Probable space group: C M
;
_chemical_formula_sum "Si O2"
_cell_formula_units_Z 24
_cell_length_a 9.429012
_cell_length_b 17.285638
_cell_length_c 9.442089
_cell_angle_alpha 90.000000
_cell_angle_beta 45.087084
_cell_angle_gamma 90.000000
_cell_volume 1089.842593
_symmetry_space_group_name_H-M "C M"
_symmetry_group_IT_number 8
_symmetry_cell_setting 'monoclinic'
loop_
_space_group_symop_operation_xyz
x,y,z
x,-y,z
1/2+x,1/2+y,z
1/2+x,1/2-y,z
loop_
_atom_site_type_symbol
_atom_site_label
_atom_site_fract_x
_atom_site_fract_y
_atom_site_fract_z
Si Si1 0.354280 0.314265 0.399480
Si Si2 0.297971 0.416408 0.937149
Si Si3 0.696387 0.374235 0.806834
Si Si4 0.618952 0.193317 0.849839
Si Si5 0.562567 0.842312 0.349562
Si Si6 0.738552 0.411858 0.101672
O O1 0.186654 0.318027 0.639908
O O2 0.471168 0.233724 0.339415
O O3 0.244015 0.320405 0.327031
O O4 0.520747 0.380691 0.300615
O O5 0.259197 0.500000 0.898702
O O6 0.142127 0.398611 0.172495
O O7 0.513763 0.414049 0.856433
O O8 0.279694 0.348825 0.835982
O O9 0.630625 0.284223 0.871563
O O10 0.889982 0.376535 0.570729
O O11 0.735897 0.408766 0.932637
O O12 0.410549 0.149164 0.024727
O O13 0.774817 0.500000 0.123513
#
# Coordination Sequence:
#
# PCOD9133564 Si02
#       6
#     4   4   4   4   4   4
#     4  11  25  44  71 100 131 177 229 276 323 396
#     4  12  27  44  66 102 142 174 215 276 341 395
#     4  11  23  44  73  96 128 178 227 276 323 393
#     4  11  25  46  70  97 132 177 226 278 325 390
#     4  11  25  44  71 100 131 177 230 274 325 394
#     4  12  25  42  67 101 136 175 217 272 339 396
#
# _framework density 22.021528
#
# number of rings (size 3 to 8) (size 9 to 14) (size 15 to 20)
#    0.000    0.667    3.333    4.000    9.333    2.667 
#    0.000    0.000    0.000    0.000    0.000    0.000 
#    0.000    0.000    0.000    0.000    0.000    0.000 
#
# Total GULP energy -67200.642173 kJ/mol
# GULP energy per Si atom -5600.053514 kJ/mol
# Density = 2.197141 g / cm^3
# Si number density = 22.021528 Si / 1000 Ang^3
#
#
#
# Elastic Constant Matrix: (Units=GPa)
#
#
# Indices 1 2 3 4 5 6 
#
# 1 62.6536 1.9119 -14.8309 0.0000 -9.7151 0.0000
# 2 1.9119 109.0877 14.2328 0.0000 -11.2759 0.0000
# 3 -14.8309 14.2328 61.5510 0.0000 -15.5408 0.0000
# 4 0.0000 0.0000 0.0000 1.8136 0.0000 11.9834
# 5 -9.7151 -11.2759 -15.5408 0.0000 39.1531 0.0000
# 6 0.0000 0.0000 0.0000 11.9834 0.0000 12.7758
#
#
#
# Elastic Compliance Matrix: (Units=1/GPa)
#
#
# Indices 1 2 3 4 5 6 
#
# 1 0.018559 -0.000429 0.006338 0.000000 0.006997 0.000000
# 2 -0.000429 0.009614 -0.001839 0.000000 0.001933 0.000000
# 3 0.006338 -0.001839 0.020519 0.000000 0.009187 0.000000
# 4 0.000000 0.000000 0.000000 -0.106084 0.000000 0.099504
# 5 0.006997 0.001933 0.009187 0.000000 0.031480 0.000000
# 6 0.000000 0.000000 0.000000 0.099504 0.000000 -0.015059
#
#
# Mechanical properties :
#
#
# Convention : Reuss Voigt Hill
#
# Bulk Modulus (GPa) = 17.59561 26.21333 21.90447
# Shear Modulus (GPa) = -165.73912 26.21373 -69.76269
#
# Velocity S-wave (km/s) = -8.68480 3.45391 -5.63454
# Velocity P-wave (km/s) = 9.62081 5.27592 5.68879
#
# Compressibility (1/GPa) = 0.05683236
#
# Stress axis : x y z
#
# Youngs Moduli (GPa) = 53.88203 104.01398 48.73626
#
# Poissons Ratio (x) = 0.04461 -0.30888
# Poissons Ratio (y) = 0.02311 0.08960
# Poissons Ratio (z) = -0.34149 0.19123
#
# Static dielectric constant tensor:
#      x y z
#    x 1.789720 0.000000 -0.011470 
#    y 0.000000 1.774520 0.000000 
#    z -0.011470 0.000000 1.787320 
# 
# From -- ./inp_files/8645.got.cif
#   From: 2010.05.17/outbox.cif.g08.bks.cpg/sg8_5_cif.got.tgz:8645.got - 2010.06.03 19:46:02.
