data_PCOD9133412
_publ_section_title
;
Structure prediction by ZEFSAII (Michael W. Deem and Ramdas Pophale) SiO2 
 PCOD9133412
Probable space group: C M
;
_chemical_formula_sum "Si O2"
_cell_formula_units_Z 32
_cell_length_a 8.109542
_cell_length_b 13.450106
_cell_length_c 19.344873
_cell_angle_alpha 90.000000
_cell_angle_beta 136.819935
_cell_angle_gamma 90.000000
_cell_volume 1443.877304
_symmetry_space_group_name_H-M "C M"
_symmetry_group_IT_number 8
_symmetry_cell_setting 'monoclinic'
loop_
_space_group_symop_operation_xyz
x,y,z
x,-y,z
1/2+x,1/2+y,z
1/2+x,1/2-y,z
loop_
_atom_site_type_symbol
_atom_site_label
_atom_site_fract_x
_atom_site_fract_y
_atom_site_fract_z
Si Si1 0.535420 0.880318 0.151840
Si Si2 0.735053 0.383751 0.841345
Si Si3 0.510709 0.884016 0.781072
Si Si4 0.341191 0.381785 0.381590
Si Si5 0.264763 0.280188 0.497847
Si Si6 0.793079 0.205343 0.651519
Si Si7 0.714279 0.121401 0.062649
Si Si8 0.490547 0.620900 0.009186
O O1 0.658374 0.861873 0.262926
O O2 0.709608 0.848328 0.141672
O O3 0.256930 0.844589 0.068834
O O4 0.517458 0.000000 0.138695
O O5 0.722100 0.500000 0.850434
O O6 0.463268 0.345143 0.760016
O O7 0.838916 0.368208 0.795651
O O8 0.946050 0.347449 0.955835
O O9 0.409644 0.815900 0.689700
O O10 0.507972 0.000000 0.762883
O O11 0.777345 0.855913 0.889510
O O12 0.404070 0.500000 0.399696
O O13 0.232268 0.350308 0.422160
O O14 0.558430 0.303122 0.439126
O O15 0.512905 0.219806 0.573468
O O16 0.302856 0.343736 0.579280
O O17 0.903810 0.150452 0.060388
O O18 0.725108 0.000000 0.064374
O O19 0.496702 0.500000 0.012104
#
# Coordination Sequence:
#
# PCOD9133412 Si02
#       8
#     4   4   4   4   4   4   4   4
#     4   9  17  34  62  89 118 165 211 255 325 390
#     4   9  18  33  55  84 122 164 198 239 305 381
#     4   9  18  34  58  85 122 169 203 239 308 387
#     4  10  23  47  70  90 125 170 214 275 342 384
#     4  10  24  41  62  91 125 158 219 284 316 376
#     4  11  20  37  59  86 122 161 202 261 314 372
#     4   8  15  30  53  86 126 159 199 253 304 381
#     4   8  15  30  54  89 126 160 205 254 305 385
#
# _framework density 22.162547
#
# number of rings (size 3 to 8) (size 9 to 14) (size 15 to 20)
#    0.000    2.750    1.250    1.500    0.000    4.000 
#    4.500    4.375    0.000    0.000    0.000    0.000 
#    0.000    0.000    0.000    0.000    0.000    0.000 
#
# Total GULP energy -89208.962780 kJ/mol
# GULP energy per Si atom -5575.560174 kJ/mol
# Density = 2.211210 g / cm^3
# Si number density = 22.162547 Si / 1000 Ang^3
#
#
#
# Elastic Constant Matrix: (Units=GPa)
#
#
# Indices 1 2 3 4 5 6 
#
# 1 57.0830 8.5271 26.6075 0.0000 -9.1593 0.0000
# 2 8.5271 72.7277 15.2398 0.0000 -0.0353 0.0000
# 3 26.6075 15.2398 73.9178 0.0000 -4.9794 0.0000
# 4 0.0000 0.0000 0.0000 30.8780 0.0000 3.4990
# 5 -9.1593 -0.0353 -4.9794 0.0000 40.5631 0.0000
# 6 0.0000 0.0000 0.0000 3.4990 0.0000 6.2598
#
#
#
# Elastic Compliance Matrix: (Units=1/GPa)
#
#
# Indices 1 2 3 4 5 6 
#
# 1 0.021736 -0.001007 -0.007347 0.000000 0.004005 0.000000
# 2 -0.001007 0.014422 -0.002647 0.000000 -0.000540 0.000000
# 3 -0.007347 -0.002647 0.016745 0.000000 0.000394 0.000000
# 4 0.000000 0.000000 0.000000 0.034576 0.000000 -0.019326
# 5 0.004005 -0.000540 0.000394 0.000000 0.025605 0.000000
# 6 0.000000 0.000000 0.000000 -0.019326 0.000000 0.170552
#
#
# Mechanical properties :
#
#
# Convention : Reuss Voigt Hill
#
# Bulk Modulus (GPa) = 32.36074 33.83082 33.09578
# Shear Modulus (GPa) = 15.82585 25.76379 20.79482
#
# Velocity S-wave (km/s) = 2.67513 3.41323 3.06647
# Velocity P-wave (km/s) = 4.91681 5.55262 5.24436
#
# Compressibility (1/GPa) = 0.03090165
#
# Stress axis : x y z
#
# Youngs Moduli (GPa) = 46.00694 69.33625 59.71782
#
# Poissons Ratio (x) = 0.06983 0.43872
# Poissons Ratio (y) = 0.04633 0.15810
# Poissons Ratio (z) = 0.33800 0.18356
#
# Static dielectric constant tensor:
#      x y z
#    x 1.887640 0.000000 -0.017340 
#    y 0.000000 1.877040 0.000000 
#    z -0.017340 0.000000 1.774480 
# 
# From -- ./inp_files/30382.got.cif
#   From: 2010.05.17/outbox.cif.g08.bks.cpg/sg8_16_cif.got.tgz:30382.got - 2010.06.03 19:46:02.
