data_PCOD9133248
_publ_section_title
;
Structure prediction by ZEFSAII (Michael W. Deem and Ramdas Pophale) SiO2 
 PCOD9133248
Probable space group: C M
;
_chemical_formula_sum "Si O2"
_cell_formula_units_Z 32
_cell_length_a 24.641045
_cell_length_b 8.393700
_cell_length_c 20.102782
_cell_angle_alpha 90.000000
_cell_angle_beta 157.343386
_cell_angle_gamma 90.000000
_cell_volume 1601.634090
_symmetry_space_group_name_H-M "C M"
_symmetry_group_IT_number 8
_symmetry_cell_setting 'monoclinic'
loop_
_space_group_symop_operation_xyz
x,y,z
x,-y,z
1/2+x,1/2+y,z
1/2+x,1/2-y,z
loop_
_atom_site_type_symbol
_atom_site_label
_atom_site_fract_x
_atom_site_fract_y
_atom_site_fract_z
Si Si1 0.786370 0.809496 0.601710
Si Si2 0.944463 0.808208 0.914286
Si Si3 0.230997 0.690927 0.179556
Si Si4 0.482096 0.684076 0.225264
Si Si5 0.753920 0.681613 0.059148
Si Si6 0.317364 0.191244 0.909704
Si Si7 0.493925 0.305259 0.563575
Si Si8 0.944907 0.814242 0.652004
O O1 0.852069 0.751859 0.745777
O O2 0.623082 0.773526 0.406822
O O3 0.865659 0.742925 0.625878
O O4 0.809333 0.000000 0.628264
O O5 0.880196 0.747909 0.910679
O O6 0.945656 0.000000 0.916465
O O7 0.102456 0.746234 0.080432
O O8 0.226184 0.500000 0.167885
O O9 0.216118 0.770353 0.090947
O O10 0.382531 0.737295 0.381014
O O11 0.516405 0.500000 0.254359
O O12 0.368248 0.706473 0.154851
O O13 0.411331 0.750065 0.077859
O O14 0.807038 0.500000 0.117042
O O15 0.610462 0.687361 0.855098
O O16 0.154695 0.246998 0.733844
O O17 0.316941 0.000000 0.910722
O O18 0.497997 0.500000 0.571652
O O19 0.432111 0.244807 0.563982
O O20 0.898905 0.000000 0.595772
#
# Coordination Sequence:
#
# PCOD9133248 Si02
#       8
#     4   4   4   4   4   4   4   4
#     4  10  22  41  66  92 122 167 214 256 313 379
#     4  11  24  43  63  92 130 169 213 262 312 373
#     4  11  23  39  63  97 129 165 208 260 316 372
#     4  12  26  42  62  95 130 162 208 267 319 376
#     4  11  21  41  68  91 120 165 210 261 318 373
#     4  11  23  43  67  90 124 171 212 257 317 378
#     4   9  20  38  63  93 121 158 209 256 306 371
#     4   9  17  37  66  90 114 153 210 261 305 368
#
# _framework density 19.979593999999999
#
# number of rings (size 3 to 8) (size 9 to 14) (size 15 to 20)
#    0.000    1.500    2.500    2.625    3.500    1.000 
#    0.000    1.875    0.000    0.000    0.000    0.000 
#    0.000    0.000    0.000    0.000    0.000    0.000 
#
# Total GULP energy -89371.442090 kJ/mol
# GULP energy per Si atom -5585.715131 kJ/mol
# Density = 1.993412 g / cm^3
# Si number density = 19.979594 Si / 1000 Ang^3
#
#
#
# Elastic Constant Matrix: (Units=GPa)
#
#
# Indices 1 2 3 4 5 6 
#
# 1 73.3567 -0.7567 -0.2947 0.0000 6.7533 0.0000
# 2 -0.7567 17.1133 -6.0738 0.0000 -9.7587 0.0000
# 3 -0.2947 -6.0738 51.9061 0.0000 -1.4452 0.0000
# 4 0.0000 0.0000 0.0000 11.6126 0.0000 4.3809
# 5 6.7533 -9.7587 -1.4452 0.0000 27.8033 0.0000
# 6 0.0000 0.0000 0.0000 4.3809 0.0000 23.6120
#
#
#
# Elastic Compliance Matrix: (Units=1/GPa)
#
#
# Indices 1 2 3 4 5 6 
#
# 1 0.013984 -0.001763 -0.000239 0.000000 -0.004028 0.000000
# 2 -0.001763 0.078028 0.009909 0.000000 0.028331 0.000000
# 3 -0.000239 0.009909 0.020552 0.000000 0.004604 0.000000
# 4 0.000000 0.000000 0.000000 0.092594 0.000000 -0.017180
# 5 -0.004028 0.028331 0.004604 0.000000 0.047128 0.000000
# 6 0.000000 0.000000 0.000000 -0.017180 0.000000 0.045539
#
#
# Mechanical properties :
#
#
# Convention : Reuss Voigt Hill
#
# Bulk Modulus (GPa) = 7.78953 14.23618 11.01286
# Shear Modulus (GPa) = 15.39388 22.57234 18.98311
#
# Velocity S-wave (km/s) = 2.77876 3.36485 3.08575
# Velocity P-wave (km/s) = 3.76863 4.71563 4.26847
#
# Compressibility (1/GPa) = 0.12837747
#
# Stress axis : x y z
#
# Youngs Moduli (GPa) = 71.51191 12.81587 48.65719
#
# Poissons Ratio (x) = 0.02260 0.01163
# Poissons Ratio (y) = 0.12611 -0.48216
# Poissons Ratio (z) = 0.01710 -0.12700
#
# Static dielectric constant tensor:
#      x y z
#    x 1.690490 0.000000 -0.002180 
#    y 0.000000 1.692240 0.000000 
#    z -0.002180 0.000000 1.676650 
# 
# From -- ./inp_files/24304.got.cif
#   From: 2010.05.17/outbox.cif.g08.bks.cpg/sg8_13_cif.got.tgz:24304.got - 2010.06.03 19:46:02.
