data_PCOD9133318
_publ_section_title
;
Structure prediction by ZEFSAII (Michael W. Deem and Ramdas Pophale) SiO2 
 PCOD9133318
Probable space group: C M
;
_chemical_formula_sum "Si O2"
_cell_formula_units_Z 20
_cell_length_a 19.395260
_cell_length_b 9.000655
_cell_length_c 12.044087
_cell_angle_alpha 90.000000
_cell_angle_beta 157.652301
_cell_angle_gamma 90.000000
_cell_volume 799.439722
_symmetry_space_group_name_H-M "C M"
_symmetry_group_IT_number 8
_symmetry_cell_setting 'monoclinic'
loop_
_space_group_symop_operation_xyz
x,y,z
x,-y,z
1/2+x,1/2+y,z
1/2+x,1/2-y,z
loop_
_atom_site_type_symbol
_atom_site_label
_atom_site_fract_x
_atom_site_fract_y
_atom_site_fract_z
Si Si1 0.504380 0.500000 0.375000
Si Si2 0.543409 0.163701 0.098126
Si Si3 0.533272 0.000000 0.507247
Si Si4 0.103548 0.500000 0.870935
Si Si5 0.656989 0.500000 0.818294
Si Si6 0.953962 0.820691 0.671218
Si Si7 0.155918 0.715594 0.510481
O O1 0.673317 0.500000 0.712191
O O2 0.534234 0.360327 0.343692
O O3 0.319675 0.500000 0.169398
O O4 0.741003 0.211483 0.349976
O O5 0.575646 0.151466 0.278177
O O6 0.501727 0.000000 0.992969
O O7 0.370311 0.262187 0.811566
O O8 0.526088 0.000000 0.628495
O O9 0.631999 0.135341 0.592514
O O10 0.334671 0.000000 0.156800
O O11 0.044911 0.660087 0.838070
O O12 0.543592 0.355638 0.685917
O O13 0.970864 0.000000 0.743056
#
# Coordination Sequence:
#
# PCOD9133318 Si02
#       7
#     2   4   2   2   2   4   4
#     4  12  24  40  66 104 132 174 230 272 340 416
#     4  11  24  48  66 101 138 179 225 284 339 403
#     4  12  24  40  66 104 132 174 230 272 340 416
#     4  12  24  42  68 106 130 174 236 276 334 416
#     4  10  22  44  66  90 144 178 212 290 342 386
#     4   9  24  46  68  97 138 180 221 286 338 398
#     4  12  24  42  72  96 138 180 222 282 344 404
#
# _framework density 25.017522
#
# number of rings (size 3 to 8) (size 9 to 14) (size 15 to 20)
#    0.600    0.400    2.000    4.800    0.000    4.800 
#    0.000    0.000    0.000    0.000    0.000    0.000 
#    0.000    0.000    0.000    0.000    0.000    0.000 
#
# Total GULP energy -55762.036869 kJ/mol
# GULP energy per Si atom -5576.203687 kJ/mol
# Density = 2.496058 g / cm^3
# Si number density = 25.017522 Si / 1000 Ang^3
#
#
#
# Elastic Constant Matrix: (Units=GPa)
#
#
# Indices 1 2 3 4 5 6 
#
# 1 67.3643 37.1184 47.4476 0.0000 -0.8458 0.0000
# 2 37.1184 170.0520 35.5368 0.0000 16.1679 0.0000
# 3 47.4476 35.5368 147.4361 0.0000 19.1993 0.0000
# 4 0.0000 0.0000 0.0000 31.0756 0.0000 10.9336
# 5 -0.8458 16.1679 19.1993 0.0000 62.2122 0.0000
# 6 0.0000 0.0000 0.0000 10.9336 0.0000 45.7471
#
#
#
# Elastic Compliance Matrix: (Units=1/GPa)
#
#
# Indices 1 2 3 4 5 6 
#
# 1 0.021424 -0.003637 -0.006437 0.000000 0.003223 0.000000
# 2 -0.003637 0.006897 -0.000262 0.000000 -0.001761 0.000000
# 3 -0.006437 -0.000262 0.009294 0.000000 -0.002887 0.000000
# 4 0.000000 0.000000 0.000000 0.035134 0.000000 -0.008397
# 5 0.003223 -0.001761 -0.002887 0.000000 0.017467 0.000000
# 6 0.000000 0.000000 0.000000 -0.008397 0.000000 0.023866
#
#
# Mechanical properties :
#
#
# Convention : Reuss Voigt Hill
#
# Bulk Modulus (GPa) = 59.03479 69.45088 64.24283
# Shear Modulus (GPa) = 35.61206 45.45696 40.53451
#
# Velocity S-wave (km/s) = 3.77700 4.26726 4.02959
# Velocity P-wave (km/s) = 6.53220 7.21807 6.88368
#
# Compressibility (1/GPa) = 0.01693917
#
# Stress axis : x y z
#
# Youngs Moduli (GPa) = 46.67749 144.99515 107.60148
#
# Poissons Ratio (x) = 0.52741 0.69268
# Poissons Ratio (y) = 0.16979 0.02824
# Poissons Ratio (z) = 0.30049 0.03806
#
# Static dielectric constant tensor:
#      x y z
#    x 1.948640 0.000000 0.017700 
#    y 0.000000 2.036330 0.000000 
#    z 0.017700 0.000000 1.949230 
# 
# From -- ./inp_files/28171.got.cif
#   From: 2010.05.17/outbox.cif.g08.bks.cpg/sg8_15_cif.got.tgz:28171.got - 2010.06.03 19:46:02.
