data_PCOD9133285
_publ_section_title
;
Structure prediction by ZEFSAII (Michael W. Deem and Ramdas Pophale) SiO2 
 PCOD9133285
Probable space group: C M
;
_chemical_formula_sum "Si O2"
_cell_formula_units_Z 28
_cell_length_a 8.191581
_cell_length_b 27.539688
_cell_length_c 5.656577
_cell_angle_alpha 90.000000
_cell_angle_beta 126.086509
_cell_angle_gamma 90.000000
_cell_volume 1031.242786
_symmetry_space_group_name_H-M "C M"
_symmetry_group_IT_number 8
_symmetry_cell_setting 'monoclinic'
loop_
_space_group_symop_operation_xyz
x,y,z
x,-y,z
1/2+x,1/2+y,z
1/2+x,1/2-y,z
loop_
_atom_site_type_symbol
_atom_site_label
_atom_site_fract_x
_atom_site_fract_y
_atom_site_fract_z
Si Si1 0.907510 0.266944 0.561120
Si Si2 0.318847 0.054326 0.668880
Si Si3 0.868101 0.388952 0.113694
Si Si4 0.288228 0.416614 0.073624
Si Si5 0.103903 0.851531 0.254076
Si Si6 0.252244 0.554981 0.559131
Si Si7 0.087062 0.297615 0.199531
O O1 0.714017 0.303115 0.434932
O O2 0.821307 0.213563 0.438503
O O3 0.004606 0.285750 0.397452
O O4 0.026516 0.267737 0.910530
O O5 0.560543 0.062866 0.874790
O O6 0.212227 0.100103 0.454869
O O7 0.268697 0.000000 0.549148
O O8 0.279863 0.064115 0.911710
O O9 0.058548 0.409235 0.424391
O O10 0.993865 0.350065 0.065142
O O11 0.682209 0.358234 0.054508
O O12 0.374328 0.440793 0.906752
O O13 0.368358 0.361486 0.096751
O O14 0.351631 0.430848 0.393624
O O15 0.181499 0.500000 0.474119
#
# Coordination Sequence:
#
# PCOD9133285 Si02
#       7
#     4   4   4   4   4   4   4
#     4  11  25  46  71 106 140 182 234 289 359 429
#     4  11  23  43  66  95 140 187 230 284 342 407
#     4  10  22  42  68  94 136 181 229 283 349 408
#     4  11  25  40  65  95 131 177 230 283 341 404
#     4  11  25  44  68 100 138 180 236 286 348 414
#     4  11  23  42  62  93 133 177 229 280 337 409
#     4  11  24  43  72 101 144 178 232 291 353 425
#
# _framework density 27.151709
#
# number of rings (size 3 to 8) (size 9 to 14) (size 15 to 20)
#    0.000    1.143    2.857    3.429    2.000    5.714 
#    0.000    0.000    0.000    0.000    0.000    0.000 
#    0.000    0.000    0.000    0.000    0.000    0.000 
#
# Total GULP energy -78033.991148 kJ/mol
# GULP energy per Si atom -5573.856511 kJ/mol
# Density = 2.708991 g / cm^3
# Si number density = 27.151709 Si / 1000 Ang^3
#
#
#
# Elastic Constant Matrix: (Units=GPa)
#
#
# Indices 1 2 3 4 5 6 
#
# 1 100.8315 7.0684 31.6165 0.0000 -15.7013 0.0000
# 2 7.0684 88.6599 18.9460 0.0000 -2.4193 0.0000
# 3 31.6165 18.9460 143.7724 0.0000 -27.2824 0.0000
# 4 0.0000 0.0000 0.0000 49.5146 0.0000 8.3615
# 5 -15.7013 -2.4193 -27.2824 0.0000 42.0872 0.0000
# 6 0.0000 0.0000 0.0000 8.3615 0.0000 23.5729
#
#
#
# Elastic Compliance Matrix: (Units=1/GPa)
#
#
# Indices 1 2 3 4 5 6 
#
# 1 0.010964 -0.000409 -0.001808 0.000000 0.002895 0.000000
# 2 -0.000409 0.011626 -0.001533 0.000000 -0.000478 0.000000
# 3 -0.001808 -0.001533 0.008450 0.000000 0.004715 0.000000
# 4 0.000000 0.000000 0.000000 0.021483 0.000000 -0.007620
# 5 0.002895 -0.000478 0.004715 0.000000 0.027869 0.000000
# 6 0.000000 0.000000 0.000000 -0.007620 0.000000 0.045125
#
#
# Mechanical properties :
#
#
# Convention : Reuss Voigt Hill
#
# Bulk Modulus (GPa) = 42.47952 49.83619 46.15786
# Shear Modulus (GPa) = 35.49574 41.41045 38.45310
#
# Velocity S-wave (km/s) = 3.61960 3.90955 3.76737
# Velocity P-wave (km/s) = 5.75742 6.22688 5.99675
#
# Compressibility (1/GPa) = 0.02354076
#
# Stress axis : x y z
#
# Youngs Moduli (GPa) = 91.20901 86.01284 118.34774
#
# Poissons Ratio (x) = 0.03516 0.21395
# Poissons Ratio (y) = 0.03728 0.18141
# Poissons Ratio (z) = 0.16489 0.13185
#
# Static dielectric constant tensor:
#      x y z
#    x 2.289710 0.000000 -0.087360 
#    y 0.000000 2.077900 0.000000 
#    z -0.087360 0.000000 2.217290 
# 
# From -- ./inp_files/2024.got.cif
#   From: 2010.05.17/outbox.cif.g08.bks.cpg/sg8_2_cif.got.tgz:2024.got - 2010.06.03 19:46:02.
