data_PCOD9133560
_publ_section_title
;
Structure prediction by ZEFSAII (Michael W. Deem and Ramdas Pophale) SiO2 
 PCOD9133560
Probable space group: C M
;
_chemical_formula_sum "Si O2"
_cell_formula_units_Z 20
_cell_length_a 8.989898
_cell_length_b 22.954006
_cell_length_c 6.004025
_cell_angle_alpha 90.000000
_cell_angle_beta 130.335314
_cell_angle_gamma 90.000000
_cell_volume 944.418122
_symmetry_space_group_name_H-M "C M"
_symmetry_group_IT_number 8
_symmetry_cell_setting 'monoclinic'
loop_
_space_group_symop_operation_xyz
x,y,z
x,-y,z
1/2+x,1/2+y,z
1/2+x,1/2-y,z
loop_
_atom_site_type_symbol
_atom_site_label
_atom_site_fract_x
_atom_site_fract_y
_atom_site_fract_z
Si Si1 0.002770 0.889992 0.045160
Si Si2 0.280210 0.189461 0.589584
Si Si3 0.440892 0.688192 0.586534
Si Si4 0.498378 0.000000 0.056362
Si Si5 0.286337 0.000000 0.345630
Si Si6 0.157235 0.615279 0.033253
O O1 0.118572 0.834812 0.262336
O O2 0.801894 0.904039 0.976874
O O3 0.148312 0.943645 0.201833
O O4 0.952193 0.867896 0.753780
O O5 0.371483 0.251535 0.623009
O O6 0.155758 0.195118 0.693569
O O7 0.450055 0.141599 0.762418
O O8 0.274376 0.669091 0.252959
O O9 0.386397 0.000000 0.695949
O O10 0.618397 0.940027 0.152770
O O11 0.399709 0.000000 0.211104
#
# Coordination Sequence:
#
# PCOD9133560 Si02
#       6
#     4   4   4   2   2   4
#     4  11  25  44  70  99 140 182 236 292 352 424
#     4  11  23  44  65 101 141 179 237 287 358 418
#     4  11  25  40  69 100 137 185 232 297 345 429
#     4  12  27  47  76 105 142 192 234 298 357 424
#     4  12  27  47  76 103 146 186 240 294 359 422
#     4  11  25  44  70 101 138 183 238 286 360 418
#
# _framework density 21.177060000000001
#
# number of rings (size 3 to 8) (size 9 to 14) (size 15 to 20)
#    0.000    0.800    2.000    4.200    5.600    8.800 
#    0.000    0.000    0.000    0.000    0.000    0.000 
#    0.000    0.000    0.000    0.000    0.000    0.000 
#
# Total GULP energy -55776.281111 kJ/mol
# GULP energy per Si atom -5577.628111 kJ/mol
# Density = 2.112886 g / cm^3
# Si number density = 21.177060 Si / 1000 Ang^3
#
#
#
# Elastic Constant Matrix: (Units=GPa)
#
#
# Indices 1 2 3 4 5 6 
#
# 1 182.6609 44.0600 39.2059 0.0000 4.7579 0.0000
# 2 44.0600 109.6893 9.4789 0.0000 4.2406 0.0000
# 3 39.2059 9.4789 56.8776 0.0000 8.3458 0.0000
# 4 0.0000 0.0000 0.0000 19.5566 0.0000 2.3820
# 5 4.7579 4.2406 8.3458 0.0000 29.3148 0.0000
# 6 0.0000 0.0000 0.0000 2.3820 0.0000 43.1681
#
#
#
# Elastic Compliance Matrix: (Units=1/GPa)
#
#
# Indices 1 2 3 4 5 6 
#
# 1 0.007019 -0.002449 -0.004503 0.000000 0.000497 0.000000
# 2 -0.002449 0.010129 0.000164 0.000000 -0.001114 0.000000
# 3 -0.004503 0.000164 0.021451 0.000000 -0.005400 0.000000
# 4 0.000000 0.000000 0.000000 0.051480 0.000000 -0.002841
# 5 0.000497 -0.001114 -0.005400 0.000000 0.035730 0.000000
# 6 0.000000 0.000000 0.000000 -0.002841 0.000000 0.023322
#
#
# Mechanical properties :
#
#
# Convention : Reuss Voigt Hill
#
# Bulk Modulus (GPa) = 39.96511 59.41304 49.68908
# Shear Modulus (GPa) = 29.23140 35.50676 32.36908
#
# Velocity S-wave (km/s) = 3.71931 4.09915 3.91384
# Velocity P-wave (km/s) = 6.11206 7.10776 6.62863
#
# Compressibility (1/GPa) = 0.02502182
#
# Stress axis : x y z
#
# Youngs Moduli (GPa) = 142.46980 98.72161 46.61886
#
# Poissons Ratio (x) = 0.24182 0.20992
# Poissons Ratio (y) = 0.34898 -0.00764
# Poissons Ratio (z) = 0.64154 -0.01617
#
# Static dielectric constant tensor:
#      x y z
#    x 1.771390 0.000000 -0.059200 
#    y 0.000000 1.704760 0.000000 
#    z -0.059200 0.000000 1.813250 
# 
# From -- ./inp_files/1375.got.cif
#   From: 2010.05.17/outbox.cif.g08.bks.cpg/sg8_1_cif.got.tgz:1375.got - 2010.06.03 19:46:02.
