data_PCOD9133899
_publ_section_title
;
Structure prediction by ZEFSAII (Michael W. Deem and Ramdas Pophale) SiO2 
 PCOD9133899
Probable space group: C C
;
_chemical_formula_sum "Si O2"
_cell_formula_units_Z 28
_cell_length_a 16.367067
_cell_length_b 8.294232
_cell_length_c 10.244418
_cell_angle_alpha 90.000000
_cell_angle_beta 121.642029
_cell_angle_gamma 90.000000
_cell_volume 1183.964175
_symmetry_space_group_name_H-M "C C"
_symmetry_group_IT_number 9
_symmetry_cell_setting 'monoclinic'
loop_
_space_group_symop_operation_xyz
x,y,z
x,-y,1/2+z
1/2+x,1/2+y,z
1/2+x,1/2-y,1/2+z
loop_
_atom_site_type_symbol
_atom_site_label
_atom_site_fract_x
_atom_site_fract_y
_atom_site_fract_z
Si Si1 0.023150 0.290861 0.684220
Si Si2 0.325663 0.705158 0.581055
Si Si3 0.734400 0.490354 0.918352
Si Si4 0.181838 0.165139 0.633932
Si Si5 0.363971 0.383825 0.747451
Si Si6 0.967665 0.185181 0.898748
Si Si7 0.453411 0.134469 0.639132
O O1 0.092982 0.255592 0.624937
O O2 0.914093 0.240438 0.557678
O O3 0.036516 0.191951 0.830824
O O4 0.017287 0.478155 0.718382
O O5 0.241837 0.822236 0.471362
O O6 0.318559 0.514842 0.603323
O O7 0.372716 0.771442 0.756280
O O8 0.678188 0.387742 0.979929
O O9 0.844043 0.423949 0.014644
O O10 0.696029 0.508380 0.739431
O O11 0.274249 0.282793 0.724007
O O12 0.426961 0.507367 0.885610
O O13 0.435881 0.259999 0.739280
O O14 0.997238 0.273433 0.052250
#
# Coordination Sequence:
#
# PCOD9133899 Si02
#       7
#     4   4   4   4   4   4   4
#     4   8  20  38  54  83 121 153 205 248 300 350
#     4   7  17  38  54  90 111 161 197 242 290 368
#     4  10  21  35  68  84 127 161 202 246 306 372
#     4  11  21  41  57  97 121 160 200 258 309 354
#     4   8  20  32  59  87 116 150 202 246 291 362
#     4   8  18  37  55  85 114 153 204 242 293 365
#     4  10  17  37  63  82 114 168 202 244 297 365
#
# _framework density 23.649363000000001
#
# number of rings (size 3 to 8) (size 9 to 14) (size 15 to 20)
#    1.714    1.143    0.000    0.857    4.000    0.000 
#    7.714    1.429    0.000    0.000    0.000    0.000 
#    0.000    0.000    0.000    0.000    0.000    0.000 
#
# Total GULP energy -77965.793599 kJ/mol
# GULP energy per Si atom -5568.985257 kJ/mol
# Density = 2.359554 g / cm^3
# Si number density = 23.649363 Si / 1000 Ang^3
#
#
#
# Elastic Constant Matrix: (Units=GPa)
#
#
# Indices 1 2 3 4 5 6 
#
# 1 142.8506 44.8673 17.5301 0.0000 -20.8703 0.0000
# 2 44.8673 104.6566 13.5672 0.0000 -15.2972 0.0000
# 3 17.5301 13.5672 21.8776 0.0000 -9.7729 0.0000
# 4 0.0000 0.0000 0.0000 32.8142 0.0000 -11.4729
# 5 -20.8703 -15.2972 -9.7729 0.0000 25.8466 0.0000
# 6 0.0000 0.0000 0.0000 -11.4729 0.0000 30.0732
#
#
#
# Elastic Compliance Matrix: (Units=1/GPa)
#
#
# Indices 1 2 3 4 5 6 
#
# 1 0.008916 -0.002743 -0.003552 0.000000 0.004233 0.000000
# 2 -0.002743 0.011682 -0.003546 0.000000 0.003358 0.000000
# 3 -0.003552 -0.003546 0.058399 0.000000 0.017114 0.000000
# 4 0.000000 0.000000 0.000000 0.035165 0.000000 0.013415
# 5 0.004233 0.003358 0.017114 0.000000 0.050566 0.000000
# 6 0.000000 0.000000 0.000000 0.013415 0.000000 0.038370
#
#
# Mechanical properties :
#
#
# Convention : Reuss Voigt Hill
#
# Bulk Modulus (GPa) = 16.85955 46.81266 31.83610
# Shear Modulus (GPa) = 20.61401 30.64150 25.62775
#
# Velocity S-wave (km/s) = 2.95558 3.60343 3.29546
# Velocity P-wave (km/s) = 4.33494 6.09511 5.28877
#
# Compressibility (1/GPa) = 0.05931358
#
# Stress axis : x y z
#
# Youngs Moduli (GPa) = 112.15428 85.60446 17.12345
#
# Poissons Ratio (x) = 0.23484 0.06083
# Poissons Ratio (y) = 0.30767 0.06072
# Poissons Ratio (z) = 0.39841 0.30357
#
# Static dielectric constant tensor:
#      x y z
#    x 1.911670 0.000000 0.013350 
#    y 0.000000 1.907600 0.000000 
#    z 0.013350 0.000000 2.001440 
# 
# From -- ./inp_files/17810.got.cif
#   From: 2010.05.17/outbox.cif.g08.bks.cpg/sg9_9_cif.got.tgz:17810.got - 2010.06.03 20:04:27.
