data_PCOD9133121
_publ_section_title
;
Structure prediction by ZEFSAII (Michael W. Deem and Ramdas Pophale) SiO2 
 PCOD9133121
Probable space group: C M
;
_chemical_formula_sum "Si O2"
_cell_formula_units_Z 32
_cell_length_a 8.458128
_cell_length_b 18.696833
_cell_length_c 12.630559
_cell_angle_alpha 90.000000
_cell_angle_beta 132.114990
_cell_angle_gamma 90.000000
_cell_volume 1481.671564
_symmetry_space_group_name_H-M "C M"
_symmetry_group_IT_number 8
_symmetry_cell_setting 'monoclinic'
loop_
_space_group_symop_operation_xyz
x,y,z
x,-y,z
1/2+x,1/2+y,z
1/2+x,1/2-y,z
loop_
_atom_site_type_symbol
_atom_site_label
_atom_site_fract_x
_atom_site_fract_y
_atom_site_fract_z
Si Si1 0.813660 0.722834 0.791230
Si Si2 0.277718 0.081149 0.557199
Si Si3 0.394754 0.693713 0.377793
Si Si4 0.163829 0.356059 0.866660
Si Si5 0.867291 0.806287 0.597400
Si Si6 0.598217 0.356059 0.108533
Si Si7 0.448385 0.222834 0.183963
Si Si8 0.484327 0.918851 0.417994
O O1 0.758410 0.791752 0.836448
O O2 0.821947 0.753303 0.674176
O O3 0.613314 0.670479 0.720987
O O4 0.034898 0.681241 0.905393
O O5 0.472787 0.103992 0.721028
O O6 0.381023 0.083936 0.487597
O O7 0.071236 0.132504 0.464038
O O8 0.212503 0.000000 0.552034
O O9 0.381023 0.731062 0.487597
O O10 0.440098 0.746697 0.301018
O O11 0.148732 0.670479 0.254206
O O12 0.381023 0.398836 0.987597
O O13 0.690809 0.867496 0.511155
O O14 0.503635 0.291752 0.138746
O O15 0.727148 0.318759 0.069800
O O16 0.789258 0.396008 0.254165
O O17 0.549543 0.000000 0.423159
#
# Coordination Sequence:
#
# PCOD9133121 Si02
#       8
#     4   4   4   4   4   4   4   4
#     4  10  22  34  58  92 118 143 185 238 295 348
#     4  11  24  40  59  83 112 154 202 241 277 327
#     4  11  20  34  60  88 118 145 186 242 291 336
#     4  11  22  38  59  85 118 154 186 232 291 349
#     4  11  20  34  60  88 118 145 186 242 291 336
#     4  11  22  38  59  85 118 154 186 232 291 349
#     4  10  22  34  58  92 118 143 185 238 295 348
#     4  11  24  40  59  83 112 154 202 241 277 327
#
# _framework density 21.597228000000001
#
# number of rings (size 3 to 8) (size 9 to 14) (size 15 to 20)
#    0.000    1.250    5.000    1.500    3.500    1.000 
#    0.000    0.000    0.000    0.000    0.000    5.250 
#    0.000    0.000    0.000    0.000    0.000    0.000 
#
# Total GULP energy -89187.288439 kJ/mol
# GULP energy per Si atom -5574.205527 kJ/mol
# Density = 2.154807 g / cm^3
# Si number density = 21.597228 Si / 1000 Ang^3
#
#
#
# Elastic Constant Matrix: (Units=GPa)
#
#
# Indices 1 2 3 4 5 6 
#
# 1 111.4954 24.6470 46.4256 0.0000 42.3877 0.0000
# 2 24.6470 79.5654 41.1828 0.0000 24.7737 0.0000
# 3 46.4256 41.1828 105.5495 0.0000 51.8978 0.0000
# 4 0.0000 0.0000 0.0000 15.8757 0.0000 4.1753
# 5 42.3877 24.7737 51.8978 0.0000 62.4296 0.0000
# 6 0.0000 0.0000 0.0000 4.1753 0.0000 20.9065
#
#
#
# Elastic Compliance Matrix: (Units=1/GPa)
#
#
# Indices 1 2 3 4 5 6 
#
# 1 0.012432 -0.000817 -0.001959 0.000000 -0.006488 0.000000
# 2 -0.000817 0.015941 -0.005113 0.000000 -0.001521 0.000000
# 3 -0.001959 -0.005113 0.018062 0.000000 -0.011656 0.000000
# 4 0.000000 0.000000 0.000000 0.066481 0.000000 -0.013277
# 5 -0.006488 -0.001521 -0.011656 0.000000 0.030716 0.000000
# 6 0.000000 0.000000 0.000000 -0.013277 0.000000 0.050484
#
#
# Mechanical properties :
#
#
# Convention : Reuss Voigt Hill
#
# Bulk Modulus (GPa) = 32.61859 57.90235 45.26047
# Shear Modulus (GPa) = 22.71557 32.13266 27.42412
#
# Velocity S-wave (km/s) = 3.24664 3.86140 3.56729
# Velocity P-wave (km/s) = 5.40279 6.83731 6.16194
#
# Compressibility (1/GPa) = 0.03065736
#
# Stress axis : x y z
#
# Youngs Moduli (GPa) = 80.43788 62.73039 55.36517
#
# Poissons Ratio (x) = 0.05124 0.10848
# Poissons Ratio (y) = 0.06570 0.28306
# Poissons Ratio (z) = 0.15761 0.32072
#
# Static dielectric constant tensor:
#      x y z
#    x 1.808570 0.000000 0.003190 
#    y 0.000000 1.795380 0.000000 
#    z 0.003190 0.000000 1.973260 
# 
# From -- ./inp_files/25602.got.cif
#   From: 2010.05.17/outbox.cif.g08.bks.cpg/sg8_13_cif.got.tgz:25602.got - 2010.06.03 19:46:02.
