data_PCOD9133259
_publ_section_title
;
Structure prediction by ZEFSAII (Michael W. Deem and Ramdas Pophale) SiO2 
 PCOD9133259
Probable space group: C M
;
_chemical_formula_sum "Si O2"
_cell_formula_units_Z 26
_cell_length_a 22.469686
_cell_length_b 7.865027
_cell_length_c 7.154993
_cell_angle_alpha 90.000000
_cell_angle_beta 90.784537
_cell_angle_gamma 90.000000
_cell_volume 1264.345363
_symmetry_space_group_name_H-M "C M"
_symmetry_group_IT_number 8
_symmetry_cell_setting 'monoclinic'
loop_
_space_group_symop_operation_xyz
x,y,z
x,-y,z
1/2+x,1/2+y,z
1/2+x,1/2-y,z
loop_
_atom_site_type_symbol
_atom_site_label
_atom_site_fract_x
_atom_site_fract_y
_atom_site_fract_z
Si Si1 0.762151 0.000000 0.105680
Si Si2 0.934181 0.313809 0.867936
Si Si3 0.173924 0.798129 0.210096
Si Si4 0.352506 0.500000 0.813279
Si Si5 0.460475 0.812083 0.421933
Si Si6 0.561496 0.297455 0.936499
Si Si7 0.377839 0.500000 0.370056
Si Si8 0.588186 0.704720 0.516668
O O1 0.723990 0.168261 0.147741
O O2 0.820098 0.000000 0.240072
O O3 0.786860 0.000000 0.895453
O O4 0.909860 0.500000 0.909018
O O5 0.887684 0.163908 0.891795
O O6 0.949640 0.306726 0.646499
O O7 0.997669 0.286667 0.970767
O O8 0.149578 0.755351 0.416234
O O9 0.189677 0.000000 0.200947
O O10 0.115316 0.771442 0.079986
O O11 0.357909 0.500000 0.588434
O O12 0.419483 0.664173 0.339919
O O13 0.530702 0.778186 0.408567
O O14 0.444666 0.000000 0.354579
O O15 0.549431 0.500000 0.928306
O O16 0.583852 0.242264 0.731734
O O17 0.581589 0.500000 0.508504
#
# Coordination Sequence:
#
# PCOD9133259 Si02
#       8
#     2   4   4   2   4   4   2   4
#     4  12  28  42  58  82 110 164 214 228 268 340
#     4   9  17  32  59  92 117 143 183 232 294 354
#     4  10  24  41  55  81 117 150 198 243 270 332
#     4  10  22  42  60  82 120 152 189 244 284 332
#     4   9  17  32  59  92 117 143 183 232 294 354
#     4   9  17  34  60  87 119 149 176 231 300 346
#     4  10  22  42  60  82 120 152 189 244 284 332
#     4   9  17  34  60  87 119 149 176 231 300 346
#
# _framework density 20.564003
#
# number of rings (size 3 to 8) (size 9 to 14) (size 15 to 20)
#    0.000    2.462    1.538    0.000    2.154    3.692 
#    0.000    1.538    0.000    0.000    0.000    0.000 
#    0.000    0.000    0.000    0.000    0.000    0.000 
#
# Total GULP energy -72626.122446 kJ/mol
# GULP energy per Si atom -5586.624804 kJ/mol
# Density = 2.051720 g / cm^3
# Si number density = 20.564003 Si / 1000 Ang^3
#
#
#
# Elastic Constant Matrix: (Units=GPa)
#
#
# Indices 1 2 3 4 5 6 
#
# 1 72.8234 56.0051 10.8345 0.0000 -21.7584 0.0000
# 2 56.0051 117.5996 12.7852 0.0000 -14.1246 0.0000
# 3 10.8345 12.7852 61.1322 0.0000 -10.6913 0.0000
# 4 0.0000 0.0000 0.0000 4.7912 0.0000 -0.2887
# 5 -21.7584 -14.1246 -10.6913 0.0000 35.3169 0.0000
# 6 0.0000 0.0000 0.0000 -0.2887 0.0000 -6.8517
#
#
#
# Elastic Compliance Matrix: (Units=1/GPa)
#
#
# Indices 1 2 3 4 5 6 
#
# 1 0.025365 -0.010696 -0.000289 0.000000 0.011262 0.000000
# 2 -0.010696 0.013544 -0.001206 0.000000 -0.001538 0.000000
# 3 -0.000289 -0.001206 0.017471 0.000000 0.004629 0.000000
# 4 0.000000 0.000000 0.000000 0.208187 0.000000 -0.008772
# 5 0.011262 -0.001538 0.004629 0.000000 0.036040 0.000000
# 6 0.000000 0.000000 0.000000 -0.008772 0.000000 -0.145580
#
#
# Mechanical properties :
#
#
# Convention : Reuss Voigt Hill
#
# Bulk Modulus (GPa) = 31.25144 45.64497 38.44821
# Shear Modulus (GPa) = 26.30551 18.11333 22.20942
#
# Velocity S-wave (km/s) = 3.58047 2.97109 3.28992
# Velocity P-wave (km/s) = 5.68535 5.83220 5.75924
#
# Compressibility (1/GPa) = 0.03199852
#
# Stress axis : x y z
#
# Youngs Moduli (GPa) = 39.42374 73.83603 57.23816
#
# Poissons Ratio (x) = 0.78974 0.01654
# Poissons Ratio (y) = 0.42167 0.06902
# Poissons Ratio (z) = 0.01139 0.08904
#
# Static dielectric constant tensor:
#      x y z
#    x 1.670290 0.000000 -0.022130 
#    y 0.000000 1.729930 0.000000 
#    z -0.022130 0.000000 1.800030 
# 
# From -- ./inp_files/14486.got.cif
#   From: 2010.05.17/outbox.cif.g08.bks.cpg/sg8_8_cif.got.tgz:14486.got - 2010.06.03 19:46:02.
