data_PCOD9133725
_publ_section_title
;
Structure prediction by ZEFSAII (Michael W. Deem and Ramdas Pophale) SiO2 
 PCOD9133725
Probable space group: C C
;
_chemical_formula_sum "Si O2"
_cell_formula_units_Z 28
_cell_length_a 22.991687
_cell_length_b 7.707829
_cell_length_c 12.002335
_cell_angle_alpha 90.000000
_cell_angle_beta 29.520227
_cell_angle_gamma 90.000000
_cell_volume 1048.041198
_symmetry_space_group_name_H-M "C C"
_symmetry_group_IT_number 9
_symmetry_cell_setting 'monoclinic'
loop_
_space_group_symop_operation_xyz
x,y,z
x,-y,1/2+z
1/2+x,1/2+y,z
1/2+x,1/2-y,1/2+z
loop_
_atom_site_type_symbol
_atom_site_label
_atom_site_fract_x
_atom_site_fract_y
_atom_site_fract_z
Si Si1 0.683930 0.232495 0.242210
Si Si2 0.780913 0.391167 0.280239
Si Si3 0.398694 0.495255 0.574672
Si Si4 0.406817 0.519821 0.808712
Si Si5 0.199742 0.251990 0.121300
Si Si6 0.653843 0.875393 0.419718
Si Si7 0.530536 0.938476 0.830774
O O1 0.700524 0.383535 0.304494
O O2 0.585053 0.219009 0.312811
O O3 0.644636 0.063063 0.378118
O O4 0.810896 0.176703 0.980805
O O5 0.717574 0.402763 0.504875
O O6 0.899522 0.500841 0.075150
O O7 0.840136 0.197226 0.177928
O O8 0.456676 0.532103 0.598668
O O9 0.456827 0.504738 0.352945
O O10 0.281617 0.619549 0.764655
O O11 0.325617 0.345542 0.932910
O O12 0.152064 0.237816 0.324999
O O13 0.117074 0.396696 0.199894
O O14 0.545228 0.866931 0.682653
#
# Coordination Sequence:
#
# PCOD9133725 Si02
#       7
#     4   4   4   4   4   4   4
#     4   8  14  23  35  61  93 109 148 202 215 279
#     4   9  15  23  38  63  96 114 153 201 229 279
#     4   8  11  20  31  56  81 108 140 190 219 271
#     4   7  10  17  33  47  78 106 136 169 225 260
#     4   8  14  24  36  62  92 115 150 196 229 284
#     4   8  12  22  39  57  84 117 151 179 236 280
#     4  10  14  23  44  64  88 129 152 185 251 277
#
# _framework density 26.716507
#
# number of rings (size 3 to 8) (size 9 to 14) (size 15 to 20)
#    0.000    4.571    5.714    0.000    0.000    0.000 
#    0.000    0.000    0.000    1.714    0.000    0.000 
#   60.000    0.000    2.857    0.000    0.000    0.000 
#
# Total GULP energy -77993.068025 kJ/mol
# GULP energy per Si atom -5570.933430 kJ/mol
# Density = 2.665570 g / cm^3
# Si number density = 26.716507 Si / 1000 Ang^3
#
#
#
# Elastic Constant Matrix: (Units=GPa)
#
#
# Indices 1 2 3 4 5 6 
#
# 1 134.6881 13.6717 72.0899 0.0000 44.1122 0.0000
# 2 13.6717 48.9332 33.7545 0.0000 -4.2123 0.0000
# 3 72.0899 33.7545 74.4682 0.0000 26.4710 0.0000
# 4 0.0000 0.0000 0.0000 12.8988 0.0000 -15.7250
# 5 44.1122 -4.2123 26.4710 0.0000 53.3969 0.0000
# 6 0.0000 0.0000 0.0000 -15.7250 0.0000 4.4959
#
#
#
# Elastic Compliance Matrix: (Units=1/GPa)
#
#
# Indices 1 2 3 4 5 6 
#
# 1 0.019321 0.008517 -0.020794 0.000000 -0.004981 0.000000
# 2 0.008517 0.039909 -0.030290 0.000000 0.011129 0.000000
# 3 -0.020794 -0.030290 0.051022 0.000000 -0.010505 0.000000
# 4 0.000000 0.000000 0.000000 -0.023752 0.000000 -0.083076
# 5 -0.004981 0.011129 -0.010505 0.000000 0.028929 0.000000
# 6 0.000000 0.000000 0.000000 -0.083076 0.000000 -0.068145
#
#
# Mechanical properties :
#
#
# Convention : Reuss Voigt Hill
#
# Bulk Modulus (GPa) = 39.81254 55.23576 47.52415
# Shear Modulus (GPa) = 35.51369 23.39653 29.45511
#
# Velocity S-wave (km/s) = 3.64988 2.96249 3.32400
# Velocity P-wave (km/s) = 5.71808 5.69398 5.70604
#
# Compressibility (1/GPa) = 0.02511772
#
# Stress axis : x y z
#
# Youngs Moduli (GPa) = 51.75697 25.05705 19.59935
#
# Poissons Ratio (x) = -0.21340 0.40754
# Poissons Ratio (y) = -0.44079 0.59367
# Poissons Ratio (z) = 1.07622 0.75898
#
# Static dielectric constant tensor:
#      x y z
#    x 2.147150 0.000000 0.037160 
#    y 0.000000 2.098890 0.000000 
#    z 0.037160 0.000000 2.202610 
# 
# From -- ./inp_files/20974.got.cif
#   From: 2010.05.17/outbox.cif.g08.bks.cpg/sg9_11_cif.got.tgz:20974.got - 2010.06.03 20:04:27.
