data_PCOD9133290
_publ_section_title
;
Structure prediction by ZEFSAII (Michael W. Deem and Ramdas Pophale) SiO2 
 PCOD9133290
Probable space group: C M
;
_chemical_formula_sum "Si O2"
_cell_formula_units_Z 32
_cell_length_a 12.570959
_cell_length_b 21.823145
_cell_length_c 5.465879
_cell_angle_alpha 90.000000
_cell_angle_beta 117.832425
_cell_angle_gamma 90.000000
_cell_volume 1326.031020
_symmetry_space_group_name_H-M "C M"
_symmetry_group_IT_number 8
_symmetry_cell_setting 'monoclinic'
loop_
_space_group_symop_operation_xyz
x,y,z
x,-y,z
1/2+x,1/2+y,z
1/2+x,1/2-y,z
loop_
_atom_site_type_symbol
_atom_site_label
_atom_site_fract_x
_atom_site_fract_y
_atom_site_fract_z
Si Si1 0.318610 0.175738 0.702740
Si Si2 0.742056 0.931736 0.437753
Si Si3 0.242295 0.285532 0.963702
Si Si4 0.381699 0.400928 0.093246
Si Si5 0.546873 0.846550 0.419703
Si Si6 0.033682 0.749265 0.014351
Si Si7 0.118089 0.877614 0.139291
Si Si8 0.838859 0.572295 0.103529
O O1 0.260777 0.223777 0.832964
O O2 0.434828 0.214407 0.739724
O O3 0.214982 0.156275 0.410593
O O4 0.354472 0.112560 0.875297
O O5 0.818251 0.921167 0.770225
O O6 0.629370 0.886095 0.320353
O O7 0.692622 0.000000 0.395636
O O8 0.822306 0.926294 0.278110
O O9 0.358220 0.327870 0.101757
O O10 0.143273 0.327713 0.724299
O O11 0.173796 0.269114 0.134820
O O12 0.522236 0.414044 0.201263
O O13 0.437313 0.891428 0.376247
O O14 0.504475 0.784107 0.241111
O O15 0.038522 0.820966 0.948922
O O16 0.201739 0.915890 0.046883
O O17 0.861018 0.500000 0.109618
#
# Coordination Sequence:
#
# PCOD9133290 Si02
#       8
#     4   4   4   4   4   4   4   4
#     4  11  24  41  67 100 135 182 232 298 363 429
#     4  11  24  46  73 103 140 192 244 291 352 426
#     4  11  20  40  66 104 138 172 235 299 366 427
#     4  11  26  43  71 106 144 185 235 302 363 425
#     4  10  22  42  70 100 137 178 234 302 355 413
#     4  11  21  39  65 100 134 173 230 293 361 423
#     4  12  25  43  68  99 138 186 233 296 363 432
#     4  11  26  46  66  98 140 190 239 285 355 441
#
# _framework density 24.132164
#
# number of rings (size 3 to 8) (size 9 to 14) (size 15 to 20)
#    0.000    1.000    5.000    1.500    1.750    1.500 
#    2.250    0.000    0.000    0.000    0.000    0.000 
#    0.000    0.000    0.000    0.000    0.000    0.000 
#
# Total GULP energy -89266.299500 kJ/mol
# GULP energy per Si atom -5579.143719 kJ/mol
# Density = 2.407724 g / cm^3
# Si number density = 24.132164 Si / 1000 Ang^3
#
#
#
# Elastic Constant Matrix: (Units=GPa)
#
#
# Indices 1 2 3 4 5 6 
#
# 1 149.6803 12.5526 9.1746 0.0000 0.1795 0.0000
# 2 12.5526 145.2896 16.8726 0.0000 -1.7323 0.0000
# 3 9.1746 16.8726 67.9611 0.0000 -0.0202 0.0000
# 4 0.0000 0.0000 0.0000 11.9175 0.0000 3.1034
# 5 0.1795 -1.7323 -0.0202 0.0000 33.4340 0.0000
# 6 0.0000 0.0000 0.0000 3.1034 0.0000 20.7046
#
#
#
# Elastic Compliance Matrix: (Units=1/GPa)
#
#
# Indices 1 2 3 4 5 6 
#
# 1 0.006771 -0.000494 -0.000791 0.000000 -0.000062 0.000000
# 2 -0.000494 0.007128 -0.001703 0.000000 0.000371 0.000000
# 3 -0.000791 -0.001703 0.015244 0.000000 -0.000075 0.000000
# 4 0.000000 0.000000 0.000000 0.087319 0.000000 -0.013088
# 5 -0.000062 0.000371 -0.000075 0.000000 0.029929 0.000000
# 6 0.000000 0.000000 0.000000 -0.013088 0.000000 0.050260
#
#
# Mechanical properties :
#
#
# Convention : Reuss Voigt Hill
#
# Bulk Modulus (GPa) = 43.16625 48.90339 46.03482
# Shear Modulus (GPa) = 23.77006 34.83330 29.30168
#
# Velocity S-wave (km/s) = 3.14187 3.80338 3.48834
# Velocity P-wave (km/s) = 5.57567 6.29257 5.94493
#
# Compressibility (1/GPa) = 0.02316625
#
# Stress axis : x y z
#
# Youngs Moduli (GPa) = 147.69068 140.29890 65.60014
#
# Poissons Ratio (x) = 0.06928 0.05192
# Poissons Ratio (y) = 0.07293 0.11170
# Poissons Ratio (z) = 0.11689 0.23890
#
# Static dielectric constant tensor:
#      x y z
#    x 2.067760 0.000000 -0.021420 
#    y 0.000000 1.950980 0.000000 
#    z -0.021420 0.000000 1.989600 
# 
# From -- ./inp_files/3176.got.cif
#   From: 2010.05.17/outbox.cif.g08.bks.cpg/sg8_2_cif.got.tgz:3176.got - 2010.06.03 19:46:02.
