data_PCOD9133204
_publ_section_title
;
Structure prediction by ZEFSAII (Michael W. Deem and Ramdas Pophale) SiO2 
 PCOD9133204
Probable space group: C M
;
_chemical_formula_sum "Si O2"
_cell_formula_units_Z 26
_cell_length_a 9.958645
_cell_length_b 7.676516
_cell_length_c 22.845102
_cell_angle_alpha 90.000000
_cell_angle_beta 40.724301
_cell_angle_gamma 90.000000
_cell_volume 1139.422281
_symmetry_space_group_name_H-M "C M"
_symmetry_group_IT_number 8
_symmetry_cell_setting 'monoclinic'
loop_
_space_group_symop_operation_xyz
x,y,z
x,-y,z
1/2+x,1/2+y,z
1/2+x,1/2-y,z
loop_
_atom_site_type_symbol
_atom_site_label
_atom_site_fract_x
_atom_site_fract_y
_atom_site_fract_z
Si Si1 0.415190 0.500000 0.489401
Si Si2 0.621244 0.301465 0.636419
Si Si3 0.083493 0.198861 0.234186
Si Si4 0.644783 0.195981 0.339706
Si Si5 0.462978 0.788000 0.938096
Si Si6 0.664595 0.208067 0.749904
Si Si7 0.026049 0.201838 0.045442
O O1 0.285130 0.654019 0.567317
O O2 0.536236 0.345241 0.412517
O O3 0.684962 0.500000 0.600765
O O4 0.576837 0.293434 0.720540
O O5 0.410017 0.262499 0.671900
O O6 0.065047 0.305472 0.299812
O O7 0.305225 0.217846 0.131830
O O8 0.889739 0.235269 0.256827
O O9 0.064030 0.000000 0.259809
O O10 0.617459 0.000000 0.373378
O O11 0.569172 0.731574 0.842761
O O12 0.466827 0.000000 0.938797
O O13 0.566191 0.720027 0.962912
O O14 0.224809 0.728594 0.013700
O O15 0.630273 0.000000 0.757720
O O16 0.007239 0.000000 0.067531
#
# Coordination Sequence:
#
# PCOD9133204 Si02
#       7
#     2   4   4   4   4   4   4
#     4  12  26  48  70  98 134 172 222 284 338 392
#     4  11  25  44  69 100 130 179 221 273 336 400
#     4  11  24  45  68  96 136 178 220 271 337 392
#     4  11  26  46  69 100 131 177 221 275 334 401
#     4  10  22  40  63  97 135 174 220 270 319 391
#     4  10  22  44  67  96 138 177 220 274 334 389
#     4  11  23  37  63 100 133 175 223 269 321 393
#
# _framework density 22.818581999999999
#
# number of rings (size 3 to 8) (size 9 to 14) (size 15 to 20)
#    0.000    1.231    1.538    3.231    3.231    6.769 
#    0.000    0.000    0.000    0.000    0.000    0.000 
#    0.000    0.000    0.000    0.000    0.000    0.000 
#
# Total GULP energy -72450.705351 kJ/mol
# GULP energy per Si atom -5573.131181 kJ/mol
# Density = 2.276665 g / cm^3
# Si number density = 22.818582 Si / 1000 Ang^3
#
#
#
# Elastic Constant Matrix: (Units=GPa)
#
#
# Indices 1 2 3 4 5 6 
#
# 1 62.6216 -1.6907 -23.2200 0.0000 11.3837 0.0000
# 2 -1.6907 104.5281 27.1277 0.0000 5.8270 0.0000
# 3 -23.2200 27.1277 66.1126 0.0000 -2.9318 0.0000
# 4 0.0000 0.0000 0.0000 21.2031 0.0000 13.2477
# 5 11.3837 5.8270 -2.9318 0.0000 -36.0181 0.0000
# 6 0.0000 0.0000 0.0000 13.2477 0.0000 12.8936
#
#
#
# Elastic Compliance Matrix: (Units=1/GPa)
#
#
# Indices 1 2 3 4 5 6 
#
# 1 0.017728 -0.001843 0.007192 0.000000 0.004719 0.000000
# 2 -0.001843 0.010744 -0.004987 0.000000 0.001562 0.000000
# 3 0.007192 -0.004987 0.019692 0.000000 -0.000137 0.000000
# 4 0.000000 0.000000 0.000000 0.131726 0.000000 -0.135344
# 5 0.004719 0.001562 -0.000137 0.000000 -0.026008 0.000000
# 6 0.000000 0.000000 0.000000 -0.135344 0.000000 0.216619
#
#
# Mechanical properties :
#
#
# Convention : Reuss Voigt Hill
#
# Bulk Modulus (GPa) = 20.45462 26.41069 23.43266
# Shear Modulus (GPa) = 12.95096 15.01873 13.98485
#
# Velocity S-wave (km/s) = 2.38494 2.56828 2.47831
# Velocity P-wave (km/s) = 4.07031 4.51598 4.29893
#
# Compressibility (1/GPa) = 0.04888870
#
# Stress axis : x y z
#
# Youngs Moduli (GPa) = 56.40802 93.07455 50.78287
#
# Poissons Ratio (x) = 0.17152 -0.36522
# Poissons Ratio (y) = 0.10395 0.25323
# Poissons Ratio (z) = -0.40568 0.46412
#
# Static dielectric constant tensor:
#      x y z
#    x 1.823430 0.000000 -0.015080 
#    y 0.000000 1.827140 0.000000 
#    z -0.015080 0.000000 1.836690 
# 
# From -- ./inp_files/30313.got.cif
#   From: 2010.05.17/outbox.cif.g08.bks.cpg/sg8_16_cif.got.tgz:30313.got - 2010.06.03 19:46:02.
