data_PCOD9133911
_publ_section_title
;
Structure prediction by ZEFSAII (Michael W. Deem and Ramdas Pophale) SiO2 
 PCOD9133911
Probable space group: C C
;
_chemical_formula_sum "Si O2"
_cell_formula_units_Z 28
_cell_length_a 5.558939
_cell_length_b 23.059984
_cell_length_c 8.564097
_cell_angle_alpha 90.000000
_cell_angle_beta 98.158809
_cell_angle_gamma 90.000000
_cell_volume 1086.711806
_symmetry_space_group_name_H-M "C C"
_symmetry_group_IT_number 9
_symmetry_cell_setting 'monoclinic'
loop_
_space_group_symop_operation_xyz
x,y,z
x,-y,1/2+z
1/2+x,1/2+y,z
1/2+x,1/2-y,1/2+z
loop_
_atom_site_type_symbol
_atom_site_label
_atom_site_fract_x
_atom_site_fract_y
_atom_site_fract_z
Si Si1 0.957140 0.495237 0.715570
Si Si2 0.187842 0.736752 0.871305
Si Si3 0.083392 0.412171 0.015308
Si Si4 0.047539 0.893916 0.924014
Si Si5 0.613412 0.468482 0.420770
Si Si6 0.705446 0.245644 0.508316
Si Si7 0.459817 0.359248 0.557062
O O1 0.836676 0.460923 0.563055
O O2 0.039088 0.450429 0.853321
O O3 0.137260 0.541010 0.655712
O O4 0.740367 0.534440 0.766356
O O5 0.320059 0.882663 0.009728
O O6 0.448443 0.770008 0.902909
O O7 0.170906 0.725261 0.685129
O O8 0.236300 0.680972 0.985455
O O9 0.320885 0.374675 0.008885
O O10 0.947100 0.764391 0.926647
O O11 0.000898 0.873257 0.742505
O O12 0.032809 0.964751 0.922159
O O13 0.436963 0.418971 0.461049
O O14 0.677532 0.316740 0.521006
#
# Coordination Sequence:
#
# PCOD9133911 Si02
#       7
#     4   4   4   4   4   4   4
#     4   8  18  32  57  75 122 171 214 260 307 361
#     4  10  23  44  79  98 143 167 236 284 376 392
#     4  10  20  33  54  78 117 169 216 265 304 364
#     4  10  22  35  58  86 127 169 216 254 315 381
#     4  10  17  40  56  90 126 179 213 266 309 395
#     4  10  23  45  75 108 131 181 220 305 344 436
#     4  10  23  37  73  93 138 176 223 268 353 395
#
# _framework density 25.765799000000001
#
# number of rings (size 3 to 8) (size 9 to 14) (size 15 to 20)
#    0.857    1.714    2.857    0.857    4.000    0.000 
#    5.143    2.857    3.143    0.000    0.000    0.000 
#    0.000    0.000    0.000    0.000    0.000    0.000 
#
# Total GULP energy -78120.626790 kJ/mol
# GULP energy per Si atom -5580.044771 kJ/mol
# Density = 2.570715 g / cm^3
# Si number density = 25.765799 Si / 1000 Ang^3
#
#
#
# Elastic Constant Matrix: (Units=GPa)
#
#
# Indices 1 2 3 4 5 6 
#
# 1 174.1426 24.6303 45.0903 0.0000 -38.1295 0.0000
# 2 24.6303 87.7949 8.5866 0.0000 -0.6104 0.0000
# 3 45.0903 8.5866 104.2624 0.0000 -3.0496 0.0000
# 4 0.0000 0.0000 0.0000 46.4346 0.0000 1.0351
# 5 -38.1295 -0.6104 -3.0496 0.0000 40.6153 0.0000
# 6 0.0000 0.0000 0.0000 1.0351 0.0000 -1.9680
#
#
#
# Elastic Compliance Matrix: (Units=1/GPa)
#
#
# Indices 1 2 3 4 5 6 
#
# 1 0.008596 -0.002032 -0.003322 0.000000 0.007790 0.000000
# 2 -0.002032 0.011964 -0.000157 0.000000 -0.001740 0.000000
# 3 -0.003322 -0.000157 0.010974 0.000000 -0.002297 0.000000
# 4 0.000000 0.000000 0.000000 0.021286 0.000000 0.011195
# 5 0.007790 -0.001740 -0.002297 0.000000 0.031735 0.000000
# 6 0.000000 0.000000 0.000000 0.011195 0.000000 -0.502234
#
#
# Mechanical properties :
#
#
# Convention : Reuss Voigt Hill
#
# Bulk Modulus (GPa) = 48.75798 58.09047 53.42423
# Shear Modulus (GPa) = -12.50564 36.20922 11.85179
#
# Velocity S-wave (km/s) = -2.20547 3.75283 2.14704
# Velocity P-wave (km/s) = 3.53258 6.43217 5.18902
#
# Compressibility (1/GPa) = 0.02050946
#
# Stress axis : x y z
#
# Youngs Moduli (GPa) = 116.33813 83.58666 91.12729
#
# Poissons Ratio (x) = 0.16988 0.30274
# Poissons Ratio (y) = 0.23644 0.01433
# Poissons Ratio (z) = 0.38649 0.01314
#
# Static dielectric constant tensor:
#      x y z
#    x 2.131960 0.000000 -0.007230 
#    y 0.000000 2.102910 0.000000 
#    z -0.007230 0.000000 1.974970 
# 
# From -- ./inp_files/5471.got.cif
#   From: 2010.05.17/outbox.cif.g08.bks.cpg/sg9_3_cif.got.tgz:5471.got - 2010.06.03 20:04:27.
