data_PCOD9133511
_publ_section_title
;
Structure prediction by ZEFSAII (Michael W. Deem and Ramdas Pophale) SiO2 
 PCOD9133511
Probable space group: C M
;
_chemical_formula_sum "Si O2"
_cell_formula_units_Z 32
_cell_length_a 15.118859
_cell_length_b 25.932679
_cell_length_c 14.273210
_cell_angle_alpha 90.000000
_cell_angle_beta 160.747144
_cell_angle_gamma 90.000000
_cell_volume 1845.256173
_symmetry_space_group_name_H-M "C M"
_symmetry_group_IT_number 8
_symmetry_cell_setting 'monoclinic'
loop_
_space_group_symop_operation_xyz
x,y,z
x,-y,z
1/2+x,1/2+y,z
1/2+x,1/2-y,z
loop_
_atom_site_type_symbol
_atom_site_label
_atom_site_fract_x
_atom_site_fract_y
_atom_site_fract_z
Si Si1 0.911090 0.690202 0.988350
Si Si2 0.129296 0.940057 0.594478
Si Si3 0.557852 0.781125 0.426705
Si Si4 0.607727 0.878582 0.013135
Si Si5 0.411490 0.245186 0.488742
Si Si6 0.607837 0.121420 0.356945
Si Si7 0.057854 0.281138 0.843482
Si Si8 0.629392 0.440057 0.818741
O O1 0.999789 0.658211 0.987574
O O2 0.597821 0.703285 0.675098
O O3 0.999903 0.658202 0.166615
O O4 0.097504 0.741052 0.174760
O O5 0.390635 0.924268 0.796821
O O6 0.179411 0.933286 0.756674
O O7 0.059340 0.000000 0.511181
O O8 0.890536 0.902950 0.323432
O O9 0.489733 0.780350 0.468643
O O10 0.615696 0.839359 0.451355
O O11 0.809024 0.744715 0.650680
O O12 0.309023 0.755276 0.121838
O O13 0.615690 0.839369 0.934536
O O14 0.489732 0.219625 0.665304
O O15 0.890685 0.097057 0.612338
O O16 0.390783 0.075727 0.139108
O O17 0.559423 0.500000 0.762116
#
# Coordination Sequence:
#
# PCOD9133511 Si02
#       8
#     4   4   4   4   4   4   4   4
#     4  12  20  32  57  76 112 150 181 212 264 318
#     4  11  22  35  53  78 107 138 178 225 270 322
#     4  12  23  35  55  81 110 148 185 216 263 323
#     4  12  21  34  53  79 106 147 178 211 269 325
#     4  12  22  38  50  80 116 146 184 224 250 314
#     4  12  21  34  53  79 106 147 178 211 269 325
#     4  12  23  35  55  81 110 148 185 216 263 323
#     4  11  22  35  53  78 107 138 178 225 270 322
#
# _framework density 17.341764999999999
#
# number of rings (size 3 to 8) (size 9 to 14) (size 15 to 20)
#    0.000    0.250    7.500    3.750    0.000    2.000 
#    0.000    0.000    0.000    0.000    0.000    5.250 
#    0.000    0.000    0.000    0.000    0.000    0.000 
#
# Total GULP energy -89379.171034 kJ/mol
# GULP energy per Si atom -5586.198190 kJ/mol
# Density = 1.730229 g / cm^3
# Si number density = 17.341765 Si / 1000 Ang^3
#
#
#
# Elastic Constant Matrix: (Units=GPa)
#
#
# Indices 1 2 3 4 5 6 
#
# 1 70.1882 35.4585 -5.7912 -0.0021 -12.8352 0.0001
# 2 35.4585 80.1445 9.1997 -0.0036 -7.5877 0.0049
# 3 -5.7912 9.1997 59.2887 -0.0046 9.6943 0.0085
# 4 -0.0021 -0.0036 -0.0046 30.7778 0.0007 0.2530
# 5 -12.8352 -7.5877 9.6943 0.0007 22.2963 0.0022
# 6 0.0001 0.0049 0.0085 0.2530 0.0022 29.9240
#
#
#
# Elastic Compliance Matrix: (Units=1/GPa)
#
#
# Indices 1 2 3 4 5 6 
#
# 1 0.020071 -0.008364 0.001975 0.000001 0.007849 0.000000
# 2 -0.008364 0.016867 -0.003860 0.000001 0.002604 -0.000002
# 3 0.001975 -0.003860 0.019041 0.000003 -0.008456 -0.000004
# 4 0.000001 0.000001 0.000003 0.032493 -0.000002 -0.000275
# 5 0.007849 0.002604 -0.008456 -0.000002 0.053932 -0.000002
# 6 0.000000 -0.000002 -0.000004 -0.000275 -0.000002 0.033420
#
#
# Mechanical properties :
#
#
# Convention : Reuss Voigt Hill
#
# Bulk Modulus (GPa) = 28.18341 31.92840 30.05591
# Shear Modulus (GPa) = 24.02123 27.98326 26.00225
#
# Velocity S-wave (km/s) = 3.72582 4.02136 3.87641
# Velocity P-wave (km/s) = 5.89881 6.32559 6.11593
#
# Compressibility (1/GPa) = 0.03548186
#
# Stress axis : x y z
#
# Youngs Moduli (GPa) = 49.82330 59.28603 52.51812
#
# Poissons Ratio (x) = 0.49584 -0.10371
# Poissons Ratio (y) = 0.41670 0.20272
# Poissons Ratio (z) = -0.09839 0.22884
#
# Static dielectric constant tensor:
#      x y z
#    x 1.592480 0.000000 0.008840 
#    y 0.000000 1.613950 -0.000010 
#    z 0.008840 -0.000010 1.623040 
# 
# From -- ./inp_files/4227.got.cif
#   From: 2010.05.17/outbox.cif.g08.bks.cpg/sg8_3_cif.got.tgz:4227.got - 2010.06.03 19:46:02.
