data_PCOD9133517
_publ_section_title
;
Structure prediction by ZEFSAII (Michael W. Deem and Ramdas Pophale) SiO2 
 PCOD9133517
Probable space group: C M
;
_chemical_formula_sum "Si O2"
_cell_formula_units_Z 30
_cell_length_a 13.819361
_cell_length_b 16.551580
_cell_length_c 17.218243
_cell_angle_alpha 90.000000
_cell_angle_beta 155.726231
_cell_angle_gamma 90.000000
_cell_volume 1619.051347
_symmetry_space_group_name_H-M "C M"
_symmetry_group_IT_number 8
_symmetry_cell_setting 'monoclinic'
loop_
_space_group_symop_operation_xyz
x,y,z
x,-y,z
1/2+x,1/2+y,z
1/2+x,1/2-y,z
loop_
_atom_site_type_symbol
_atom_site_label
_atom_site_fract_x
_atom_site_fract_y
_atom_site_fract_z
Si Si1 0.662941 0.000000 0.198750
Si Si2 0.322282 0.754413 0.039976
Si Si3 0.100817 0.801840 0.034943
Si Si4 0.628916 0.906587 0.689142
Si Si5 0.071069 0.124005 0.551536
Si Si6 0.837375 0.708493 0.367420
Si Si7 0.329469 0.146168 0.894920
Si Si8 0.053038 0.409957 0.815426
O O1 0.850204 0.070065 0.366319
O O2 0.482544 0.071031 0.034934
O O3 0.245566 0.799086 0.061738
O O4 0.601495 0.743552 0.234858
O O5 0.235969 0.804908 0.901673
O O6 0.212699 0.664617 0.959042
O O7 0.258313 0.821592 0.225011
O O8 0.879868 0.861753 0.869793
O O9 0.995251 0.712300 0.973303
O O10 0.452595 0.860142 0.503721
O O11 0.537130 0.902862 0.710654
O O12 0.653525 0.000000 0.685634
O O13 0.135634 0.120675 0.690004
O O14 0.300917 0.097129 0.671829
O O15 0.015886 0.216990 0.490968
O O16 0.150669 0.500000 0.904629
#
# Coordination Sequence:
#
# PCOD9133517 Si02
#       8
#     2   4   4   4   4   4   4   4
#     4  12  24  40  66 102 126 166 220 266 326 386
#     4  11  22  42  67  94 127 172 217 258 326 390
#     4  11  22  44  67  91 131 171 211 266 321 383
#     4  11  24  44  65  94 129 168 218 265 317 388
#     4  12  22  42  66  96 134 168 210 267 329 386
#     4  11  23  41  67  93 126 172 214 263 324 380
#     4  11  23  43  66  93 134 169 208 274 323 376
#     4  11  22  37  65  99 130 164 205 266 331 385
#
# _framework density 18.529368999999999
#
# number of rings (size 3 to 8) (size 9 to 14) (size 15 to 20)
#    0.000    0.800    8.667    0.400    1.867    1.067 
#    3.600    0.000    2.933    0.000    0.000    0.000 
#    0.000    0.000    0.000    0.000    0.000    0.000 
#
# Total GULP energy -83521.143980 kJ/mol
# GULP energy per Si atom -5568.076265 kJ/mol
# Density = 1.848720 g / cm^3
# Si number density = 18.529369 Si / 1000 Ang^3
#
#
#
# Elastic Constant Matrix: (Units=GPa)
#
#
# Indices 1 2 3 4 5 6 
#
# 1 122.7603 23.3239 26.8727 0.0286 -5.1935 0.0056
# 2 23.3239 117.0762 24.6423 0.0305 3.4398 0.0102
# 3 26.8727 24.6423 71.3569 0.0337 -8.8305 0.0055
# 4 0.0286 0.0305 0.0337 43.2852 -0.0037 -7.1472
# 5 -5.1935 3.4398 -8.8305 -0.0037 11.9064 0.0032
# 6 0.0056 0.0102 0.0055 -7.1472 0.0032 14.7920
#
#
#
# Elastic Compliance Matrix: (Units=1/GPa)
#
#
# Indices 1 2 3 4 5 6 
#
# 1 0.009081 -0.001316 -0.002674 -0.000003 0.002358 -0.000004
# 2 -0.001316 0.009744 -0.003621 -0.000005 -0.006075 -0.000006
# 3 -0.002674 -0.003621 0.017900 -0.000010 0.013155 -0.000011
# 4 -0.000003 -0.000005 -0.000010 0.025106 -0.000003 0.012130
# 5 0.002358 -0.006075 0.013155 -0.000003 0.096529 -0.000024
# 6 -0.000004 -0.000006 -0.000011 0.012130 -0.000024 0.073465
#
#
# Mechanical properties :
#
#
# Convention : Reuss Voigt Hill
#
# Bulk Modulus (GPa) = 46.50426 51.20790 48.85608
# Shear Modulus (GPa) = 19.66849 29.75369 24.71109
#
# Velocity S-wave (km/s) = 3.26157 4.01154 3.65583
# Velocity P-wave (km/s) = 6.27183 7.01090 6.65163
#
# Compressibility (1/GPa) = 0.02150341
#
# Stress axis : x y z
#
# Youngs Moduli (GPa) = 110.12046 102.62451 55.86729
#
# Poissons Ratio (x) = 0.13502 0.14937
# Poissons Ratio (y) = 0.14488 0.20232
# Poissons Ratio (z) = 0.29443 0.37164
#
# Static dielectric constant tensor:
#      x y z
#    x 1.640600 0.000000 -0.013580 
#    y 0.000000 1.642270 -0.000010 
#    z -0.013580 -0.000010 1.623770 
# 
# From -- ./inp_files/29343.got.cif
#   From: 2010.05.17/outbox.cif.g08.bks.cpg/sg8_15_cif.got.tgz:29343.got - 2010.06.03 19:46:02.
