data_PCOD9133116
_publ_section_title
;
Structure prediction by ZEFSAII (Michael W. Deem and Ramdas Pophale) SiO2 
 PCOD9133116
Probable space group: C M
;
_chemical_formula_sum "Si O2"
_cell_formula_units_Z 20
_cell_length_a 14.258805
_cell_length_b 9.851180
_cell_length_c 17.625613
_cell_angle_alpha 90.000000
_cell_angle_beta 20.723872
_cell_angle_gamma 90.000000
_cell_volume 876.097993
_symmetry_space_group_name_H-M "C M"
_symmetry_group_IT_number 8
_symmetry_cell_setting 'monoclinic'
loop_
_space_group_symop_operation_xyz
x,y,z
x,-y,z
1/2+x,1/2+y,z
1/2+x,1/2-y,z
loop_
_atom_site_type_symbol
_atom_site_label
_atom_site_fract_x
_atom_site_fract_y
_atom_site_fract_z
Si Si1 0.845050 0.793284 0.980930
Si Si2 0.095383 0.793164 0.959260
Si Si3 0.403380 0.000000 0.333080
Si Si4 0.291714 0.500000 0.293025
Si Si5 0.518511 0.000000 0.821944
Si Si6 0.070077 0.500000 0.613672
Si Si7 0.276980 0.500000 0.789984
Si Si8 0.760124 0.500000 0.610538
O O1 0.850731 0.637205 0.954444
O O2 0.567481 0.869271 0.181632
O O3 0.067893 0.871263 0.763642
O O4 0.946210 0.810410 0.991347
O O5 0.156597 0.634128 0.919777
O O6 0.921282 0.869373 0.154219
O O7 0.376275 0.871243 0.747582
O O8 0.415005 0.000000 0.415302
O O9 0.093889 0.000000 0.550904
O O10 0.296658 0.500000 0.379790
O O11 0.979520 0.500000 0.509536
O O12 0.660340 0.000000 0.632867
O O13 0.698712 0.000000 0.760322
#
# Coordination Sequence:
#
# PCOD9133116 Si02
#       8
#     4   4   2   2   2   2   2   2
#     4  10  21  44  72 106 143 182 240 298 347 426
#     4  10  21  44  70 105 143 180 239 300 346 421
#     4  11  22  43  79 103 135 197 239 279 368 427
#     4  11  19  41  78 107 136 191 243 285 355 425
#     4  10  25  47  69 103 155 184 225 311 353 406
#     4  11  22  43  71 101 144 195 235 283 353 432
#     4  10  25  47  72 106 152 183 231 308 361 405
#     4  11  19  37  73 110 140 180 237 296 346 431
#
# _framework density 22.828495
#
# number of rings (size 3 to 8) (size 9 to 14) (size 15 to 20)
#    0.000    1.600    4.000    1.200    2.800    0.000 
#    7.200    4.000    0.000    0.000    0.000    0.000 
#    0.000    0.000    0.000    0.000    0.000    0.000 
#
# Total GULP energy -55986.821950 kJ/mol
# GULP energy per Si atom -5598.682195 kJ/mol
# Density = 2.277654 g / cm^3
# Si number density = 22.828495 Si / 1000 Ang^3
#
#
#
# Elastic Constant Matrix: (Units=GPa)
#
#
# Indices 1 2 3 4 5 6 
#
# 1 107.8429 32.9896 29.2755 -0.0032 22.7157 0.0006
# 2 32.9896 213.2892 70.4246 -0.0159 10.8440 0.0046
# 3 29.2755 70.4246 121.4213 -0.0249 15.1992 0.0118
# 4 -0.0032 -0.0159 -0.0249 -2.6850 0.0075 -0.2254
# 5 22.7157 10.8440 15.1992 0.0075 50.0711 -0.0021
# 6 0.0006 0.0046 0.0118 -0.2254 -0.0021 13.1154
#
#
#
# Elastic Compliance Matrix: (Units=1/GPa)
#
#
# Indices 1 2 3 4 5 6 
#
# 1 0.010880 -0.000960 -0.001533 -0.000005 -0.004263 0.000000
# 2 -0.000960 0.005887 -0.003199 -0.000004 0.000132 0.000001
# 3 -0.001533 -0.003199 0.010694 -0.000083 -0.001858 -0.000010
# 4 -0.000005 -0.000004 -0.000083 -0.371896 0.000084 -0.006390
# 5 -0.004263 0.000132 -0.001858 0.000084 0.022441 0.000007
# 6 0.000000 0.000001 -0.000010 -0.006390 0.000007 0.076136
#
#
# Mechanical properties :
#
#
# Convention : Reuss Voigt Hill
#
# Bulk Modulus (GPa) = 62.20392 78.65918 70.43155
# Shear Modulus (GPa) = -21.82315 32.75788 5.46736
#
# Velocity S-wave (km/s) = -3.09522 3.79219 1.54925
# Velocity P-wave (km/s) = 3.81231 7.32841 5.84121
#
# Compressibility (1/GPa) = 0.01607616
#
# Stress axis : x y z
#
# Youngs Moduli (GPa) = 91.90775 169.87727 93.51469
#
# Poissons Ratio (x) = 0.16308 0.14335
# Poissons Ratio (y) = 0.08823 0.29918
# Poissons Ratio (z) = 0.14089 0.54348
#
# Static dielectric constant tensor:
#      x y z
#    x 1.893350 0.000000 0.001150 
#    y 0.000000 1.833070 0.000010 
#    z 0.001150 0.000010 1.776890 
# 
# From -- ./inp_files/29183.got.cif
#   From: 2010.05.17/outbox.cif.g08.bks.cpg/sg8_15_cif.got.tgz:29183.got - 2010.06.03 19:46:02.
