data_PCOD9133568
_publ_section_title
;
Structure prediction by ZEFSAII (Michael W. Deem and Ramdas Pophale) SiO2 
 PCOD9133568
Probable space group: C M
;
_chemical_formula_sum "Si O2"
_cell_formula_units_Z 22
_cell_length_a 15.558902
_cell_length_b 10.743169
_cell_length_c 15.807755
_cell_angle_alpha 90.000000
_cell_angle_beta 19.051126
_cell_angle_gamma 90.000000
_cell_volume 862.476564
_symmetry_space_group_name_H-M "C M"
_symmetry_group_IT_number 8
_symmetry_cell_setting 'monoclinic'
loop_
_space_group_symop_operation_xyz
x,y,z
x,-y,z
1/2+x,1/2+y,z
1/2+x,1/2-y,z
loop_
_atom_site_type_symbol
_atom_site_label
_atom_site_fract_x
_atom_site_fract_y
_atom_site_fract_z
Si Si1 0.119401 0.000000 0.300810
Si Si2 0.795110 0.141894 0.314213
Si Si3 0.872080 0.798593 0.639148
Si Si4 0.937595 0.143403 0.982215
Si Si5 0.539545 0.000000 0.763224
Si Si6 0.765702 0.243893 0.977884
Si Si7 0.282714 0.500000 0.854064
O O1 0.090667 0.117280 0.390028
O O2 0.849258 0.000000 0.496533
O O3 0.370751 0.000000 0.007755
O O4 0.876468 0.143798 0.139135
O O5 0.989796 0.220333 0.191176
O O6 0.796890 0.000000 0.341643
O O7 0.506981 0.199491 0.575107
O O8 0.698797 0.726386 0.733068
O O9 0.717179 0.893192 0.842602
O O10 0.736415 0.205779 0.104067
O O11 0.981299 0.000000 0.919468
O O12 0.443466 0.869975 0.810206
O O13 0.860100 0.114061 0.847751
#
# Coordination Sequence:
#
# PCOD9133568 Si02
#       7
#     2   4   4   4   2   4   2
#     4  11  26  46  80 114 149 214 264 333 387 477
#     4  11  25  47  70 109 147 204 259 326 393 472
#     4  11  24  45  74 105 155 201 263 322 397 466
#     4  11  23  45  74 105 149 200 251 328 389 475
#     4  12  26  48  77 115 161 204 272 320 398 478
#     4  12  24  48  75 110 155 195 265 319 400 465
#     4  11  26  46  73 113 146 202 246 333 391 467
#
# _framework density 25.507940000000001
#
# number of rings (size 3 to 8) (size 9 to 14) (size 15 to 20)
#    0.000    0.727    5.455    1.636    0.000    2.909 
#    4.909    0.000    0.000    0.000    0.000    0.000 
#    0.000    0.000    0.000    0.000    0.000    0.000 
#
# Total GULP energy -61324.891049 kJ/mol
# GULP energy per Si atom -5574.990095 kJ/mol
# Density = 2.544988 g / cm^3
# Si number density = 25.507940 Si / 1000 Ang^3
#
#
#
# Elastic Constant Matrix: (Units=GPa)
#
#
# Indices 1 2 3 4 5 6 
#
# 1 153.7375 56.5409 31.2620 -0.0033 -24.6154 -0.0003
# 2 56.5409 207.9288 27.2517 -0.0281 -6.9964 0.0009
# 3 31.2620 27.2517 55.7755 -0.0291 -19.6402 -0.0028
# 4 -0.0033 -0.0281 -0.0291 22.7351 0.0055 -4.9956
# 5 -24.6154 -6.9964 -19.6402 0.0055 38.3368 0.0005
# 6 -0.0003 0.0009 -0.0028 -4.9956 0.0005 70.7891
#
#
#
# Elastic Compliance Matrix: (Units=1/GPa)
#
#
# Indices 1 2 3 4 5 6 
#
# 1 0.008259 -0.001801 -0.002437 -0.000005 0.003726 0.000000
# 2 -0.001801 0.005537 -0.002132 0.000004 -0.001238 0.000000
# 3 -0.002437 -0.002132 0.023973 0.000026 0.010328 0.000003
# 4 -0.000005 0.000004 0.000026 0.044678 0.000004 0.003153
# 5 0.003726 -0.001238 0.010328 0.000004 0.033542 0.000001
# 6 0.000000 0.000000 0.000003 0.003153 0.000001 0.014349
#
#
# Mechanical properties :
#
#
# Convention : Reuss Voigt Hill
#
# Bulk Modulus (GPa) = 39.95340 71.95010 55.95175
# Shear Modulus (GPa) = 33.02049 46.53134 39.77592
#
# Velocity S-wave (km/s) = 3.60184 4.27569 3.95315
# Velocity P-wave (km/s) = 5.74411 7.25559 6.54364
#
# Compressibility (1/GPa) = 0.02502916
#
# Stress axis : x y z
#
# Youngs Moduli (GPa) = 121.07808 180.60897 41.71288
#
# Poissons Ratio (x) = 0.32529 0.10167
# Poissons Ratio (y) = 0.21807 0.08892
# Poissons Ratio (z) = 0.29510 0.38501
#
# Static dielectric constant tensor:
#      x y z
#    x 2.087730 0.000000 0.115790 
#    y 0.000000 1.957710 0.000010 
#    z 0.115790 0.000010 2.024650 
# 
# From -- ./inp_files/29180.got.cif
#   From: 2010.05.17/outbox.cif.g08.bks.cpg/sg8_15_cif.got.tgz:29180.got - 2010.06.03 19:46:02.
