data_PCOD9133002
_publ_section_title
;
Structure prediction by ZEFSAII (Michael W. Deem and Ramdas Pophale) SiO2 
 PCOD9133002
Probable space group: C M
;
_chemical_formula_sum "Si O2"
_cell_formula_units_Z 32
_cell_length_a 19.894464
_cell_length_b 7.922683
_cell_length_c 12.251974
_cell_angle_alpha 90.000000
_cell_angle_beta 51.988206
_cell_angle_gamma 90.000000
_cell_volume 1521.503212
_symmetry_space_group_name_H-M "C M"
_symmetry_group_IT_number 8
_symmetry_cell_setting 'monoclinic'
loop_
_space_group_symop_operation_xyz
x,y,z
x,-y,z
1/2+x,1/2+y,z
1/2+x,1/2-y,z
loop_
_atom_site_type_symbol
_atom_site_label
_atom_site_fract_x
_atom_site_fract_y
_atom_site_fract_z
Si Si1 0.081550 0.807456 0.820660
Si Si2 0.217538 0.698730 0.860928
Si Si3 0.676522 0.204719 0.141860
Si Si4 0.253646 0.294498 0.285127
Si Si5 0.581561 0.196190 0.576524
Si Si6 0.945601 0.698730 0.132866
Si Si7 0.909498 0.294497 0.629210
Si Si8 0.986686 0.295281 0.331670
O O1 0.163802 0.775149 0.815087
O O2 0.081557 0.706063 0.707611
O O3 0.081561 0.000000 0.785098
O O4 0.999280 0.775165 0.979574
O O5 0.197604 0.500000 0.878136
O O6 0.318495 0.725570 0.755566
O O7 0.189226 0.768720 0.007037
O O8 0.739934 0.258487 0.173007
O O9 0.581601 0.247155 0.274791
O O10 0.682131 0.000000 0.130734
O O11 0.257480 0.500000 0.286848
O O12 0.170902 0.236305 0.437473
O O13 0.344642 0.225571 0.229524
O O14 0.492226 0.263697 0.616125
O O15 0.581563 0.000000 0.542345
O O16 0.965532 0.500000 0.110178
O O17 0.973990 0.768720 0.222246
O O18 0.905662 0.500000 0.638601
O O19 0.923254 0.241520 0.489632
O O20 0.981082 0.500000 0.331749
#
# Coordination Sequence:
#
# PCOD9133002 Si02
#       8
#     4   4   4   4   4   4   4   4
#     4  12  26  43  62  86 122 165 211 258 308 361
#     4  11  23  40  63  91 124 161 202 250 308 367
#     4   9  17  36  64  87 113 154 200 246 298 357
#     4  10  21  39  64  93 124 160 201 247 303 366
#     4  10  22  41  64  90 126 165 205 252 304 363
#     4  11  23  40  63  91 124 161 202 250 308 367
#     4  10  21  39  64  93 124 160 201 247 303 366
#     4   9  17  36  64  87 113 154 200 246 298 357
#
# _framework density 21.031831
#
# number of rings (size 3 to 8) (size 9 to 14) (size 15 to 20)
#    0.000    1.750    2.500    1.875    3.500    1.000 
#    0.000    1.250    0.000    0.000    0.000    0.000 
#    0.000    0.000    0.000    0.000    0.000    0.000 
#
# Total GULP energy -89322.067716 kJ/mol
# GULP energy per Si atom -5582.629232 kJ/mol
# Density = 2.098396 g / cm^3
# Si number density = 21.031831 Si / 1000 Ang^3
#
#
#
# Elastic Constant Matrix: (Units=GPa)
#
#
# Indices 1 2 3 4 5 6 
#
# 1 91.5738 -11.2264 34.6929 0.0000 -8.2830 0.0000
# 2 -11.2264 24.9308 -12.8492 0.0000 -2.8871 0.0000
# 3 34.6929 -12.8492 86.0594 0.0000 -2.4571 0.0000
# 4 0.0000 0.0000 0.0000 11.5045 0.0000 -10.9172
# 5 -8.2830 -2.8871 -2.4571 0.0000 36.8543 0.0000
# 6 0.0000 0.0000 0.0000 -10.9172 0.0000 17.5271
#
#
#
# Elastic Compliance Matrix: (Units=1/GPa)
#
#
# Indices 1 2 3 4 5 6 
#
# 1 0.013482 0.003970 -0.004756 0.000000 0.003024 0.000000
# 2 0.003970 0.045175 0.005281 0.000000 0.004783 0.000000
# 3 -0.004756 0.005281 0.014334 0.000000 0.000300 0.000000
# 4 0.000000 0.000000 0.000000 0.212566 0.000000 0.132403
# 5 0.003024 0.004783 0.000300 0.000000 0.028208 0.000000
# 6 0.000000 0.000000 0.000000 0.132403 0.000000 0.139526
#
#
# Mechanical properties :
#
#
# Convention : Reuss Voigt Hill
#
# Bulk Modulus (GPa) = 12.19794 24.86651 18.53222
# Shear Modulus (GPa) = 10.60158 25.97363 18.28760
#
# Velocity S-wave (km/s) = 2.24759 3.51802 2.95196
# Velocity P-wave (km/s) = 3.54230 5.32456 4.52210
#
# Compressibility (1/GPa) = 0.08198109
#
# Stress axis : x y z
#
# Youngs Moduli (GPa) = 74.17199 22.13636 69.76332
#
# Poissons Ratio (x) = -0.08788 0.33179
# Poissons Ratio (y) = -0.29447 -0.36842
# Poissons Ratio (z) = 0.35276 -0.11690
#
# Static dielectric constant tensor:
#      x y z
#    x 1.740390 0.000000 -0.001850 
#    y 0.000000 1.762500 0.000000 
#    z -0.001850 0.000000 1.739440 
# 
# From -- ./inp_files/23882.got.cif
#   From: 2010.05.17/outbox.cif.g08.bks.cpg/sg8_12_cif.got.tgz:23882.got - 2010.06.03 19:46:02.
