data_PCOD9133189
_publ_section_title
;
Structure prediction by ZEFSAII (Michael W. Deem and Ramdas Pophale) SiO2 
 PCOD9133189
Probable space group: C M
;
_chemical_formula_sum "Si O2"
_cell_formula_units_Z 32
_cell_length_a 15.081233
_cell_length_b 7.861512
_cell_length_c 11.110277
_cell_angle_alpha 90.000000
_cell_angle_beta 76.982863
_cell_angle_gamma 90.000000
_cell_volume 1283.399133
_symmetry_space_group_name_H-M "C M"
_symmetry_group_IT_number 8
_symmetry_cell_setting 'monoclinic'
loop_
_space_group_symop_operation_xyz
x,y,z
x,-y,z
1/2+x,1/2+y,z
1/2+x,1/2-y,z
loop_
_atom_site_type_symbol
_atom_site_label
_atom_site_fract_x
_atom_site_fract_y
_atom_site_fract_z
Si Si1 0.136730 0.196151 0.152750
Si Si2 0.363548 0.792908 0.307230
Si Si3 0.524463 0.808314 0.411405
Si Si4 0.459475 0.804322 0.791645
Si Si5 0.119104 0.704208 0.896786
Si Si6 0.692085 0.297330 0.500758
Si Si7 0.845886 0.197083 0.050933
Si Si8 0.792240 0.294509 0.707158
O O1 0.085895 0.300553 0.271361
O O2 0.241714 0.246617 0.102063
O O3 0.131931 0.000000 0.192559
O O4 0.094118 0.221387 0.033795
O O5 0.430404 0.729683 0.392666
O O6 0.260724 0.744936 0.373145
O O7 0.388804 0.722557 0.169765
O O8 0.368926 0.000000 0.299816
O O9 0.589076 0.743728 0.497748
O O10 0.501295 0.000000 0.451308
O O11 0.554099 0.727277 0.809628
O O12 0.392987 0.729704 0.709921
O O13 0.478483 0.000000 0.753216
O O14 0.398113 0.799781 0.932082
O O15 0.110504 0.500000 0.905680
O O16 0.222336 0.751319 0.834803
O O17 0.697314 0.500000 0.507880
O O18 0.739829 0.227229 0.605931
O O19 0.848771 0.000000 0.014879
O O20 0.799571 0.500000 0.696476
#
# Coordination Sequence:
#
# PCOD9133189 Si02
#       8
#     4   4   4   4   4   4   4   4
#     4  12  23  38  61  88 124 164 197 239 306 367
#     4  10  22  40  62  88 123 162 198 241 300 364
#     4  11  23  39  62  93 123 156 203 251 298 355
#     4  10  22  40  62  88 123 162 198 241 300 364
#     4  11  23  39  62  93 123 156 203 251 298 355
#     4  10  22  41  63  86 117 163 210 249 298 358
#     4  12  23  36  61  94 124 154 197 247 298 359
#     4  10  22  41  63  86 117 163 210 249 298 358
#
# _framework density 24.933788
#
# number of rings (size 3 to 8) (size 9 to 14) (size 15 to 20)
#    0.000    1.250    2.500    3.750    0.000    6.500 
#    0.000    2.500    0.000    0.000    0.000    0.000 
#    0.000    0.000    0.000    0.000    0.000    0.000 
#
# Total GULP energy -89521.752242 kJ/mol
# GULP energy per Si atom -5595.109515 kJ/mol
# Density = 2.487704 g / cm^3
# Si number density = 24.933788 Si / 1000 Ang^3
#
#
#
# Elastic Constant Matrix: (Units=GPa)
#
#
# Indices 1 2 3 4 5 6 
#
# 1 146.1126 -1.3049 11.2924 0.0000 32.8532 0.0000
# 2 -1.3049 57.8996 -3.5585 0.0000 3.4864 0.0000
# 3 11.2924 -3.5585 91.3458 0.0000 30.0960 0.0000
# 4 0.0000 0.0000 0.0000 17.1977 0.0000 9.3408
# 5 32.8532 3.4864 30.0960 0.0000 53.6124 0.0000
# 6 0.0000 0.0000 0.0000 9.3408 0.0000 22.6555
#
#
#
# Elastic Compliance Matrix: (Units=1/GPa)
#
#
# Indices 1 2 3 4 5 6 
#
# 1 0.007999 0.000555 0.000809 0.000000 -0.005392 0.000000
# 2 0.000555 0.017501 0.001350 0.000000 -0.002236 0.000000
# 3 0.000809 0.001350 0.013609 0.000000 -0.008224 0.000000
# 4 0.000000 0.000000 0.000000 0.074926 0.000000 -0.030892
# 5 -0.005392 -0.002236 -0.008224 0.000000 0.026718 0.000000
# 6 0.000000 0.000000 0.000000 -0.030892 0.000000 0.056876
#
#
# Mechanical properties :
#
#
# Convention : Reuss Voigt Hill
#
# Bulk Modulus (GPa) = 22.45313 34.24622 28.34968
# Shear Modulus (GPa) = 24.14900 37.95504 31.05202
#
# Velocity S-wave (km/s) = 3.11549 3.90581 3.53282
# Velocity P-wave (km/s) = 4.68683 5.83996 5.29488
#
# Compressibility (1/GPa) = 0.04453722
#
# Stress axis : x y z
#
# Youngs Moduli (GPa) = 125.01843 57.13841 73.47869
#
# Poissons Ratio (x) = -0.03169 -0.05947
# Poissons Ratio (y) = -0.06935 -0.09918
# Poissons Ratio (z) = -0.10118 -0.07713
#
# Static dielectric constant tensor:
#      x y z
#    x 1.993430 0.000000 0.060780 
#    y 0.000000 1.905370 0.000000 
#    z 0.060780 0.000000 2.031540 
# 
# From -- ./inp_files/21549.got.cif
#   From: 2010.05.17/outbox.cif.g08.bks.cpg/sg8_11_cif.got.tgz:21549.got - 2010.06.03 19:46:02.
