data_PCOD9133233
_publ_section_title
;
Structure prediction by ZEFSAII (Michael W. Deem and Ramdas Pophale) SiO2 
 PCOD9133233
Probable space group: C M
;
_chemical_formula_sum "Si O2"
_cell_formula_units_Z 32
_cell_length_a 14.883483
_cell_length_b 8.493199
_cell_length_c 22.832061
_cell_angle_alpha 90.000000
_cell_angle_beta 151.424577
_cell_angle_gamma 90.000000
_cell_volume 1380.496078
_symmetry_space_group_name_H-M "C M"
_symmetry_group_IT_number 8
_symmetry_cell_setting 'monoclinic'
loop_
_space_group_symop_operation_xyz
x,y,z
x,-y,z
1/2+x,1/2+y,z
1/2+x,1/2-y,z
loop_
_atom_site_type_symbol
_atom_site_label
_atom_site_fract_x
_atom_site_fract_y
_atom_site_fract_z
Si Si1 0.735820 0.684862 0.148430
Si Si2 0.319226 0.314438 0.504990
Si Si3 0.734623 0.312990 0.586447
Si Si4 0.326574 0.687444 0.947935
Si Si5 0.515492 0.685501 0.844968
Si Si6 0.327455 0.683216 0.319648
Si Si7 0.706058 0.810763 0.752515
Si Si8 0.551283 0.683381 0.251929
O O1 0.719582 0.500000 0.125682
O O2 0.846463 0.711477 0.272661
O O3 0.849930 0.763603 0.161317
O O4 0.531902 0.751555 0.049643
O O5 0.281126 0.500000 0.476581
O O6 0.276646 0.253852 0.546026
O O7 0.540577 0.279097 0.625123
O O8 0.194371 0.219723 0.387309
O O9 0.776166 0.500000 0.611575
O O10 0.861504 0.229223 0.707308
O O11 0.510315 0.291575 0.464868
O O12 0.347074 0.500000 0.963800
O O13 0.202582 0.723435 0.819476
O O14 0.212744 0.741572 0.939143
O O15 0.542736 0.500000 0.862253
O O16 0.410549 0.733203 0.844433
O O17 0.328833 0.500000 0.302720
O O18 0.140291 0.724439 0.248240
O O19 0.682488 0.000000 0.731371
O O20 0.550349 0.500000 0.236943
#
# Coordination Sequence:
#
# PCOD9133233 Si02
#       8
#     4   4   4   4   4   4   4   4
#     4  11  24  43  66  93 125 166 215 265 315 374
#     4  12  23  37  63  96 127 162 207 257 311 377
#     4  11  22  38  62  91 127 166 202 251 317 377
#     4  10  23  43  65  88 122 167 209 259 315 367
#     4  11  23  38  62  95 125 163 208 254 308 370
#     4  11  24  42  66  95 127 167 210 259 317 377
#     4  10  22  41  63  90 128 166 203 251 312 375
#     4  12  25  42  65  94 129 169 208 258 317 377
#
# _framework density 23.180074999999999
#
# number of rings (size 3 to 8) (size 9 to 14) (size 15 to 20)
#    0.000    1.000    2.500    4.500    0.000    6.500 
#    0.000    1.250    0.000    0.000    0.000    0.000 
#    0.000    0.000    0.000    0.000    0.000    0.000 
#
# Total GULP energy -89560.804880 kJ/mol
# GULP energy per Si atom -5597.550305 kJ/mol
# Density = 2.312732 g / cm^3
# Si number density = 23.180075 Si / 1000 Ang^3
#
#
#
# Elastic Constant Matrix: (Units=GPa)
#
#
# Indices 1 2 3 4 5 6 
#
# 1 114.3358 7.3010 9.6747 0.0000 25.5717 0.0000
# 2 7.3010 29.6781 0.4425 0.0002 13.2661 0.0000
# 3 9.6747 0.4425 60.6059 0.0013 27.8754 0.0001
# 4 0.0000 0.0002 0.0013 23.4458 0.0001 11.2197
# 5 25.5717 13.2661 27.8754 0.0001 46.1172 0.0000
# 6 0.0000 0.0000 0.0001 11.2197 0.0000 29.7714
#
#
#
# Elastic Compliance Matrix: (Units=1/GPa)
#
#
# Indices 1 2 3 4 5 6 
#
# 1 0.010066 0.000433 0.001405 0.000000 -0.006555 0.000000
# 2 0.000433 0.040751 0.007113 -0.000001 -0.016262 0.000000
# 3 0.001405 0.007113 0.024271 -0.000002 -0.017496 0.000001
# 4 0.000000 -0.000001 -0.000002 0.052036 0.000001 -0.019610
# 5 -0.006555 -0.016262 -0.017496 0.000001 0.040572 0.000000
# 6 0.000000 0.000000 0.000001 -0.019610 0.000000 0.040980
#
#
# Mechanical properties :
#
#
# Convention : Reuss Voigt Hill
#
# Bulk Modulus (GPa) = 10.75380 26.60624 18.68002
# Shear Modulus (GPa) = 22.54588 32.34699 27.44643
#
# Velocity S-wave (km/s) = 3.12210 3.73965 3.44474
# Velocity P-wave (km/s) = 4.20072 5.49086 4.88854
#
# Compressibility (1/GPa) = 0.09299036
#
# Stress axis : x y z
#
# Youngs Moduli (GPa) = 99.34697 24.53898 41.20159
#
# Poissons Ratio (x) = -0.01063 -0.05789
# Poissons Ratio (y) = -0.04302 -0.29307
# Poissons Ratio (z) = -0.13959 -0.17455
#
# Static dielectric constant tensor:
#      x y z
#    x 1.874520 0.000000 0.036410 
#    y 0.000000 1.780030 0.000000 
#    z 0.036410 0.000000 1.925030 
# 
# From -- ./inp_files/26530.got.cif
#   From: 2010.05.17/outbox.cif.g08.bks.cpg/sg8_14_cif.got.tgz:26530.got - 2010.06.03 19:46:02.
