data_PCOD9133105
_publ_section_title
;
Structure prediction by ZEFSAII (Michael W. Deem and Ramdas Pophale) SiO2 
 PCOD9133105
Probable space group: C M
;
_chemical_formula_sum "Si O2"
_cell_formula_units_Z 28
_cell_length_a 18.091826
_cell_length_b 14.146963
_cell_length_c 5.523291
_cell_angle_alpha 90.000000
_cell_angle_beta 56.191863
_cell_angle_gamma 90.000000
_cell_volume 1174.613955
_symmetry_space_group_name_H-M "C M"
_symmetry_group_IT_number 8
_symmetry_cell_setting 'monoclinic'
loop_
_space_group_symop_operation_xyz
x,y,z
x,-y,z
1/2+x,1/2+y,z
1/2+x,1/2-y,z
loop_
_atom_site_type_symbol
_atom_site_label
_atom_site_fract_x
_atom_site_fract_y
_atom_site_fract_z
Si Si1 0.989100 0.603424 0.940200
Si Si2 0.398143 0.500000 0.170867
Si Si3 0.274467 0.725723 0.568303
Si Si4 0.801102 0.399074 0.160648
Si Si5 0.965965 0.191303 0.243195
Si Si6 0.645807 0.320933 0.161647
Si Si7 0.671578 0.137115 0.371674
Si Si8 0.286783 0.500000 0.879508
O O1 0.979286 0.500000 0.091980
O O2 0.080892 0.595521 0.631622
O O3 0.905558 0.605595 0.904849
O O4 0.988540 0.703668 0.090013
O O5 0.451797 0.600739 0.091300
O O6 0.352899 0.500000 0.989077
O O7 0.340662 0.500000 0.530804
O O8 0.295764 0.812498 0.351815
O O9 0.366946 0.705915 0.537942
O O10 0.244240 0.640319 0.451816
O O11 0.190625 0.762682 0.864769
O O12 0.785980 0.500000 0.312775
O O13 0.724388 0.391065 0.099701
O O14 0.045725 0.156945 0.270679
O O15 0.643721 0.244514 0.376525
O O16 0.719183 0.087591 0.057435
#
# Coordination Sequence:
#
# PCOD9133105 Si02
#       8
#     4   2   4   4   4   4   4   2
#     4  10  21  43  70  99 140 188 240 305 366 439
#     4  12  28  48  76 113 151 206 242 316 378 450
#     4  10  21  43  64  93 134 182 233 304 363 441
#     4   9  22  41  62  91 132 181 235 291 363 438
#     4  11  24  44  71 103 144 189 252 298 374 447
#     4  11  24  39  66  98 134 189 234 303 368 442
#     4  11  22  41  68 103 140 185 242 307 377 444
#     4  12  26  48  78 111 151 192 252 318 390 440
#
# _framework density 23.837617999999999
#
# number of rings (size 3 to 8) (size 9 to 14) (size 15 to 20)
#    0.000    1.429    3.571    0.857    3.000    1.714 
#    1.286    0.000    0.000    0.000    0.000    0.000 
#    0.000    0.000    0.000    0.000    0.000    0.000 
#
# Total GULP energy -77939.429014 kJ/mol
# GULP energy per Si atom -5567.102072 kJ/mol
# Density = 2.378336 g / cm^3
# Si number density = 23.837618 Si / 1000 Ang^3
#
#
#
# Elastic Constant Matrix: (Units=GPa)
#
#
# Indices 1 2 3 4 5 6 
#
# 1 184.2258 33.5584 30.5145 0.0000 -26.7937 0.0000
# 2 33.5584 133.1152 11.3419 0.0000 -2.7048 0.0000
# 3 30.5145 11.3419 65.3155 0.0000 -10.0292 0.0000
# 4 0.0000 0.0000 0.0000 42.3870 0.0000 -7.6447
# 5 -26.7937 -2.7048 -10.0292 0.0000 30.3763 0.0000
# 6 0.0000 0.0000 0.0000 -7.6447 0.0000 27.3927
#
#
#
# Elastic Compliance Matrix: (Units=1/GPa)
#
#
# Indices 1 2 3 4 5 6 
#
# 1 0.006791 -0.001426 -0.002133 0.000000 0.005159 0.000000
# 2 -0.001426 0.007926 -0.000838 0.000000 -0.000828 0.000000
# 3 -0.002133 -0.000838 0.017015 0.000000 0.003661 0.000000
# 4 0.000000 0.000000 0.000000 0.024843 0.000000 0.006933
# 5 0.005159 -0.000828 0.003661 0.000000 0.038606 0.000000
# 6 0.000000 0.000000 0.000000 0.006933 0.000000 0.038441
#
#
# Mechanical properties :
#
#
# Convention : Reuss Voigt Hill
#
# Bulk Modulus (GPa) = 43.59242 59.27622 51.43432
# Shear Modulus (GPa) = 33.31975 40.51396 36.91685
#
# Velocity S-wave (km/s) = 3.74275 4.12707 3.93960
# Velocity P-wave (km/s) = 6.08313 6.90152 6.50521
#
# Compressibility (1/GPa) = 0.02293977
#
# Stress axis : x y z
#
# Youngs Moduli (GPa) = 147.24320 126.16373 58.77333
#
# Poissons Ratio (x) = 0.17985 0.12537
# Poissons Ratio (y) = 0.20990 0.04922
# Poissons Ratio (z) = 0.31409 0.10567
#
# Static dielectric constant tensor:
#      x y z
#    x 1.951590 0.000000 0.012380 
#    y 0.000000 2.012520 0.000000 
#    z 0.012380 0.000000 1.896290 
# 
# From -- ./inp_files/4946.got.cif
#   From: 2010.05.17/outbox.cif.g08.bks.cpg/sg8_3_cif.got.tgz:4946.got - 2010.06.03 19:46:02.
