data_PCOD9133542
_publ_section_title
;
Structure prediction by ZEFSAII (Michael W. Deem and Ramdas Pophale) SiO2 
 PCOD9133542
Probable space group: C M
;
_chemical_formula_sum "Si O2"
_cell_formula_units_Z 32
_cell_length_a 24.582628
_cell_length_b 7.575497
_cell_length_c 13.971574
_cell_angle_alpha 90.000000
_cell_angle_beta 31.069752
_cell_angle_gamma 90.000000
_cell_volume 1342.773687
_symmetry_space_group_name_H-M "C M"
_symmetry_group_IT_number 8
_symmetry_cell_setting 'monoclinic'
loop_
_space_group_symop_operation_xyz
x,y,z
x,-y,z
1/2+x,1/2+y,z
1/2+x,1/2-y,z
loop_
_atom_site_type_symbol
_atom_site_label
_atom_site_fract_x
_atom_site_fract_y
_atom_site_fract_z
Si Si1 0.287580 0.205711 0.283370
Si Si2 0.259924 0.298793 0.909902
Si Si3 0.216031 0.215082 0.191910
Si Si4 0.481436 0.283195 0.610564
Si Si5 0.041396 0.206151 0.722141
Si Si6 0.835809 0.292756 0.410973
Si Si7 0.553017 0.704165 0.111748
Si Si8 0.108581 0.217388 0.820047
O O1 0.284188 0.278912 0.180783
O O2 0.164809 0.212380 0.503541
O O3 0.347848 0.283654 0.284411
O O4 0.316184 0.000000 0.229383
O O5 0.259823 0.500000 0.876809
O O6 0.249279 0.289716 0.040452
O O7 0.155840 0.217727 0.021442
O O8 0.376275 0.222489 0.715110
O O9 0.093608 0.263353 0.396110
O O10 0.220757 0.000000 0.181625
O O11 0.478695 0.500000 0.617633
O O12 0.481401 0.217548 0.721071
O O13 0.039590 0.277723 0.832711
O O14 0.013171 0.000000 0.770931
O O15 0.816945 0.500000 0.424183
O O16 0.729123 0.225161 0.619134
O O17 0.941059 0.277216 0.314103
O O18 0.531232 0.500000 0.131067
O O19 0.576048 0.783444 0.972650
O O20 0.106818 0.000000 0.822730
#
# Coordination Sequence:
#
# PCOD9133542 Si02
#       8
#     4   4   4   4   4   4   4   4
#     4   7  12  25  51  81 106 131 162 197 245 306
#     4  11  23  37  51  73 102 136 177 220 258 298
#     4   9  17  34  57  80 105 136 169 205 249 305
#     4   8  16  31  53  77 103 133 166 203 251 305
#     4   7  10  23  48  77 102 127 160 199 243 304
#     4   9  17  34  57  80 105 136 169 205 249 305
#     4  11  23  37  51  73 102 136 177 220 258 298
#     4   8  16  31  53  77 103 133 166 203 251 305
#
# _framework density 23.831268999999999
#
# number of rings (size 3 to 8) (size 9 to 14) (size 15 to 20)
#    0.000    3.250    0.000    3.750    0.000    2.000 
#    0.000    6.875    0.000    0.000    0.000    3.500 
#    0.000    0.000    0.000    0.000    0.000    0.000 
#
# Total GULP energy -89269.262998 kJ/mol
# GULP energy per Si atom -5579.328937 kJ/mol
# Density = 2.377703 g / cm^3
# Si number density = 23.831269 Si / 1000 Ang^3
#
#
#
# Elastic Constant Matrix: (Units=GPa)
#
#
# Indices 1 2 3 4 5 6 
#
# 1 66.4059 -0.8330 27.2218 0.0000 -34.3247 0.0000
# 2 -0.8330 54.5646 -2.7125 -0.0006 -3.2062 0.0003
# 3 27.2218 -2.7125 56.2835 -0.0003 -22.1174 0.0002
# 4 0.0000 -0.0006 -0.0003 4.3089 0.0002 6.4584
# 5 -34.3247 -3.2062 -22.1174 0.0002 41.4332 -0.0001
# 6 0.0000 0.0003 0.0002 6.4584 -0.0001 -7.5480
#
#
#
# Elastic Compliance Matrix: (Units=1/GPa)
#
#
# Indices 1 2 3 4 5 6 
#
# 1 0.027729 0.001340 -0.005415 0.000000 0.020185 -0.000001
# 2 0.001340 0.018626 0.001585 0.000001 0.003397 0.000001
# 3 -0.005415 0.001585 0.023724 0.000000 0.008301 0.000001
# 4 0.000000 0.000001 0.000000 0.101678 -0.000001 0.087000
# 5 0.020185 0.003397 0.008301 -0.000001 0.045551 -0.000001
# 6 -0.000001 0.000001 0.000001 0.087000 -0.000001 -0.058044
#
#
# Mechanical properties :
#
#
# Convention : Reuss Voigt Hill
#
# Bulk Modulus (GPa) = 15.36124 24.95628 20.15876
# Shear Modulus (GPa) = 26.88996 17.87735 22.38365
#
# Velocity S-wave (km/s) = 3.36273 2.74188 3.06805
# Velocity P-wave (km/s) = 4.64081 4.52976 4.58562
#
# Compressibility (1/GPa) = 0.06509890
#
# Stress axis : x y z
#
# Youngs Moduli (GPa) = 36.06384 53.68908 42.15058
#
# Poissons Ratio (x) = -0.07195 0.22823
# Poissons Ratio (y) = -0.04833 -0.06679
# Poissons Ratio (z) = 0.19527 -0.08507
#
# Static dielectric constant tensor:
#      x y z
#    x 1.916910 0.000000 -0.009580 
#    y 0.000000 1.873770 0.000000 
#    z -0.009580 0.000000 1.948600 
# 
# From -- ./inp_files/28314.got.cif
#   From: 2010.05.17/outbox.cif.g08.bks.cpg/sg8_15_cif.got.tgz:28314.got - 2010.06.03 19:46:02.
