data_PCOD9133871
_publ_section_title
;
Structure prediction by ZEFSAII (Michael W. Deem and Ramdas Pophale) SiO2 
 PCOD9133871
Probable space group: C C
;
_chemical_formula_sum "Si O2"
_cell_formula_units_Z 32
_cell_length_a 17.539226
_cell_length_b 7.108482
_cell_length_c 10.909158
_cell_angle_alpha 90.000000
_cell_angle_beta 63.036437
_cell_angle_gamma 90.000000
_cell_volume 1212.271854
_symmetry_space_group_name_H-M "C C"
_symmetry_group_IT_number 9
_symmetry_cell_setting 'monoclinic'
loop_
_space_group_symop_operation_xyz
x,y,z
x,-y,1/2+z
1/2+x,1/2+y,z
1/2+x,1/2-y,1/2+z
loop_
_atom_site_type_symbol
_atom_site_label
_atom_site_fract_x
_atom_site_fract_y
_atom_site_fract_z
Si Si1 0.008430 0.695682 0.987570
Si Si2 0.960788 0.114752 0.741498
Si Si3 0.224881 0.210423 0.629697
Si Si4 0.407722 0.752421 0.352731
Si Si5 0.158457 0.210507 0.193539
Si Si6 0.426314 0.866994 0.960416
Si Si7 0.222038 0.780974 0.395249
Si Si8 0.267877 0.232175 0.337798
O O1 0.079256 0.726800 0.833364
O O2 0.926336 0.794532 0.981748
O O3 0.979246 0.480306 0.022610
O O4 0.026320 0.794684 0.100531
O O5 0.972751 0.188200 0.870911
O O6 0.962558 0.891435 0.733614
O O7 0.865680 0.198424 0.780853
O O8 0.199728 0.299911 0.778201
O O9 0.221938 0.304091 0.497358
O O10 0.173507 0.014041 0.669235
O O11 0.327978 0.167185 0.567743
O O12 0.424746 0.974477 0.351698
O O13 0.312983 0.711708 0.378907
O O14 0.235615 0.279809 0.225488
O O15 0.158946 0.268472 0.051687
O O16 0.243600 0.006970 0.365106
#
# Coordination Sequence:
#
# PCOD9133871 Si02
#       8
#     4   4   4   4   4   4   4   4
#     4  10  22  37  56  87 125 163 197 250 300 370
#     4  11  20  37  63  87 116 158 203 252 306 362
#     4   9  17  32  65  86 109 161 202 249 305 353
#     4  10  21  35  59  93 118 147 200 258 302 352
#     4  10  18  33  59  83 123 163 193 243 300 362
#     4   9  20  40  58  87 116 154 202 254 305 346
#     4  10  17  34  60  89 114 157 203 246 303 355
#     4   9  17  34  58  84 115 155 198 250 297 350
#
# _framework density 26.396719999999998
#
# number of rings (size 3 to 8) (size 9 to 14) (size 15 to 20)
#    0.750    1.500    3.750    2.250    0.000    5.000 
#    0.000    1.250    0.000    7.500    0.000    0.000 
#    0.000    0.000    0.000    0.000    0.000    0.000 
#
# Total GULP energy -89216.141230 kJ/mol
# GULP energy per Si atom -5576.008827 kJ/mol
# Density = 2.633664 g / cm^3
# Si number density = 26.396720 Si / 1000 Ang^3
#
#
#
# Elastic Constant Matrix: (Units=GPa)
#
#
# Indices 1 2 3 4 5 6 
#
# 1 49.7067 -3.8237 25.3990 0.0000 1.0969 0.0000
# 2 -3.8237 96.3221 28.7145 0.0000 -3.3937 0.0000
# 3 25.3990 28.7145 164.5019 0.0000 21.7759 0.0000
# 4 0.0000 0.0000 0.0000 15.4430 0.0000 -8.5915
# 5 1.0969 -3.3937 21.7759 0.0000 38.4730 0.0000
# 6 0.0000 0.0000 0.0000 -8.5915 0.0000 4.6395
#
#
#
# Elastic Compliance Matrix: (Units=1/GPa)
#
#
# Indices 1 2 3 4 5 6 
#
# 1 0.022324 0.002165 -0.004071 0.000000 0.001859 0.000000
# 2 0.002165 0.011339 -0.002635 0.000000 0.002430 0.000000
# 3 -0.004071 -0.002635 0.007765 0.000000 -0.004511 0.000000
# 4 0.000000 0.000000 0.000000 -2.141598 0.000000 -3.965851
# 5 0.001859 0.002430 -0.004511 0.000000 0.028707 0.000000
# 6 0.000000 0.000000 0.000000 -3.965851 0.000000 -7.128496
#
#
# Mechanical properties :
#
#
# Convention : Reuss Voigt Hill
#
# Bulk Modulus (GPa) = 30.91606 45.67894 38.29750
# Shear Modulus (GPa) = -0.54466 29.06050 14.25792
#
# Velocity S-wave (km/s) = -0.45473 3.32160 2.32661
# Velocity P-wave (km/s) = 3.38553 5.66154 4.66449
#
# Compressibility (1/GPa) = 0.03234565
#
# Stress axis : x y z
#
# Youngs Moduli (GPa) = 44.79567 88.19126 128.78903
#
# Poissons Ratio (x) = -0.19095 0.52426
# Poissons Ratio (y) = -0.09699 0.33939
# Poissons Ratio (z) = 0.18235 0.23241
#
# Static dielectric constant tensor:
#      x y z
#    x 2.215780 0.000000 0.024710 
#    y 0.000000 2.110510 0.000000 
#    z 0.024710 0.000000 2.074090 
# 
# From -- ./inp_files/20111.got.cif
#   From: 2010.05.17/outbox.cif.g08.bks.cpg/sg9_11_cif.got.tgz:20111.got - 2010.06.03 20:04:27.
