data_PCOD9133963
_publ_section_title
;
Structure prediction by ZEFSAII (Michael W. Deem and Ramdas Pophale) SiO2 
 PCOD9133963
Probable space group: C C
;
_chemical_formula_sum "Si O2"
_cell_formula_units_Z 28
_cell_length_a 33.066113
_cell_length_b 7.108754
_cell_length_c 5.356596
_cell_angle_alpha 90.000000
_cell_angle_beta 99.549876
_cell_angle_gamma 90.000000
_cell_volume 1241.665983
_symmetry_space_group_name_H-M "C C"
_symmetry_group_IT_number 9
_symmetry_cell_setting 'monoclinic'
loop_
_space_group_symop_operation_xyz
x,y,z
x,-y,1/2+z
1/2+x,1/2+y,z
1/2+x,1/2-y,1/2+z
loop_
_atom_site_type_symbol
_atom_site_label
_atom_site_fract_x
_atom_site_fract_y
_atom_site_fract_z
Si Si1 0.823940 0.714622 0.132300
Si Si2 0.440529 0.619414 0.379059
Si Si3 0.228354 0.215087 0.037290
Si Si4 0.518813 0.875700 0.408105
Si Si5 0.111850 0.622991 0.041999
Si Si6 0.194990 0.210616 0.503507
Si Si7 0.357109 0.788259 0.166651
O O1 0.776199 0.709905 0.149220
O O2 0.841351 0.502008 0.120138
O O3 0.849300 0.799115 0.387267
O O4 0.830593 0.797406 0.864752
O O5 0.436462 0.530498 0.649669
O O6 0.484341 0.718604 0.397363
O O7 0.404043 0.768503 0.295076
O O8 0.203084 0.298751 0.241212
O O9 0.211149 0.002234 0.990096
O O10 0.221132 0.297837 0.756089
O O11 0.565509 0.801133 0.471835
O O12 0.514087 0.982560 0.138590
O O13 0.116095 0.527596 0.318939
O O14 0.147862 0.771918 0.033786
#
# Coordination Sequence:
#
# PCOD9133963 Si02
#       7
#     4   4   4   4   4   4   4
#     4  10  19  35  60  90 107 155 215 271 273 344
#     4  12  26  43  61  95 134 162 194 263 336 370
#     4  10  19  33  57  86 119 146 201 263 289 327
#     4  10  23  43  70  90 119 167 219 257 290 380
#     4  10  21  39  59  85 116 154 200 245 292 354
#     4  10  18  32  54  83 113 153 181 246 302 348
#     4  10  20  33  59  83 114 155 200 243 306 361
#
# _framework density 22.550348
#
# number of rings (size 3 to 8) (size 9 to 14) (size 15 to 20)
#    0.000    1.714    0.000    6.857    4.000    0.000 
#    5.143    0.000    0.000   29.143    0.000    0.000 
#    0.000    0.000    0.000    0.000    0.000    0.000 
#
# Total GULP energy -78213.715620 kJ/mol
# GULP energy per Si atom -5586.693973 kJ/mol
# Density = 2.249902 g / cm^3
# Si number density = 22.550348 Si / 1000 Ang^3
#
#
#
# Elastic Constant Matrix: (Units=GPa)
#
#
# Indices 1 2 3 4 5 6 
#
# 1 122.3005 -3.5490 -1.2707 0.0000 7.0098 0.0000
# 2 -3.5490 43.0726 -18.1542 0.0000 5.4629 0.0000
# 3 -1.2707 -18.1542 142.3313 0.0000 -17.4830 0.0000
# 4 0.0000 0.0000 0.0000 5.5492 0.0000 -1.6659
# 5 7.0098 5.4629 -17.4830 0.0000 41.1980 0.0000
# 6 0.0000 0.0000 0.0000 -1.6659 0.0000 27.9215
#
#
#
# Elastic Compliance Matrix: (Units=1/GPa)
#
#
# Indices 1 2 3 4 5 6 
#
# 1 0.008290 0.000876 -0.000002 0.000000 -0.001527 0.000000
# 2 0.000876 0.024790 0.002899 0.000000 -0.002206 0.000000
# 3 -0.000002 0.002899 0.007753 0.000000 0.002906 0.000000
# 4 0.000000 0.000000 0.000000 0.183494 0.000000 0.010948
# 5 -0.001527 -0.002206 0.002906 0.000000 0.026059 0.000000
# 6 0.000000 0.000000 0.000000 0.010948 0.000000 0.036468
#
#
# Mechanical properties :
#
#
# Convention : Reuss Voigt Hill
#
# Bulk Modulus (GPa) = 20.67044 29.08405 24.87724
# Shear Modulus (GPa) = 16.92432 36.97895 26.95163
#
# Velocity S-wave (km/s) = 2.74252 4.05389 3.46088
# Velocity P-wave (km/s) = 4.38347 5.90232 5.19866
#
# Compressibility (1/GPa) = 0.04837827
#
# Stress axis : x y z
#
# Youngs Moduli (GPa) = 120.63418 40.33817 128.99026
#
# Poissons Ratio (x) = -0.03533 0.00024
# Poissons Ratio (y) = -0.10567 -0.37392
# Poissons Ratio (z) = 0.00023 -0.11693
#
# Static dielectric constant tensor:
#      x y z
#    x 1.792530 0.000000 -0.026900 
#    y 0.000000 1.695830 0.000000 
#    z -0.026900 0.000000 1.918620 
# 
# From -- ./inp_files/3391.got.cif
#   From: 2010.05.17/outbox.cif.g08.bks.cpg/sg9_2_cif.got.tgz:3391.got - 2010.06.03 20:04:27.
