data_PCOD9133971
_publ_section_title
;
Structure prediction by ZEFSAII (Michael W. Deem and Ramdas Pophale) SiO2 
 PCOD9133971
Probable space group: C C
;
_chemical_formula_sum "Si O2"
_cell_formula_units_Z 32
_cell_length_a 15.463071
_cell_length_b 9.519923
_cell_length_c 20.592749
_cell_angle_alpha 90.000000
_cell_angle_beta 154.711081
_cell_angle_gamma 90.000000
_cell_volume 1294.963355
_symmetry_space_group_name_H-M "C C"
_symmetry_group_IT_number 9
_symmetry_cell_setting 'monoclinic'
loop_
_space_group_symop_operation_xyz
x,y,z
x,-y,1/2+z
1/2+x,1/2+y,z
1/2+x,1/2-y,1/2+z
loop_
_atom_site_type_symbol
_atom_site_label
_atom_site_fract_x
_atom_site_fract_y
_atom_site_fract_z
Si Si1 0.300030 0.881377 0.020120
Si Si2 0.848126 0.417915 0.766624
Si Si3 0.840806 0.073048 0.204449
Si Si4 0.578035 0.341235 0.045072
Si Si5 0.417960 0.947983 0.951437
Si Si6 0.252860 0.441506 0.509632
Si Si7 0.675798 0.273150 0.248151
Si Si8 0.032221 0.604075 0.265854
O O1 0.319158 0.713715 0.037719
O O2 0.431774 0.970992 0.160691
O O3 0.069071 0.917338 0.883669
O O4 0.355414 0.911911 0.982225
O O5 0.650441 0.502003 0.609945
O O6 0.868316 0.353836 0.852334
O O7 0.914182 0.332054 0.747921
O O8 0.021113 0.542065 0.879201
O O9 0.745205 0.231783 0.130496
O O10 0.874488 0.011954 0.154646
O O11 0.657500 0.985065 0.111849
O O12 0.548802 0.275538 0.096922
O O13 0.366378 0.330381 0.865451
O O14 0.281500 0.080405 0.836498
O O15 0.237314 0.541505 0.437151
O O16 0.556718 0.216930 0.227762
#
# Coordination Sequence:
#
# PCOD9133971 Si02
#       8
#     4   4   4   4   4   4   4   4
#     4  12  20  34  62  94 117 148 203 248 289 344
#     4   8  17  35  54  84 112 150 192 233 300 331
#     4  10  19  35  57  86 115 152 193 242 294 335
#     4  10  18  32  59  85 114 145 192 257 278 334
#     4   9  21  37  57  88 114 155 194 244 292 345
#     4   9  19  34  56  86 114 154 191 238 297 345
#     4  10  21  36  56  87 122 145 203 241 293 345
#     4  10  21  35  57  90 114 155 190 249 287 349
#
# _framework density 24.711124000000002
#
# number of rings (size 3 to 8) (size 9 to 14) (size 15 to 20)
#    0.750    1.500    1.250    3.750    1.750    2.000 
#    0.000    0.000    0.000    6.000    0.000    0.000 
#    0.000    0.000    0.000    0.000    0.000    0.000 
#
# Total GULP energy -89230.986901 kJ/mol
# GULP energy per Si atom -5576.936681 kJ/mol
# Density = 2.465488 g / cm^3
# Si number density = 24.711124 Si / 1000 Ang^3
#
#
#
# Elastic Constant Matrix: (Units=GPa)
#
#
# Indices 1 2 3 4 5 6 
#
# 1 175.4262 26.2417 14.5269 -0.0003 -15.8348 -0.0001
# 2 26.2417 30.0636 6.2612 0.0012 -0.0273 0.0003
# 3 14.5269 6.2612 36.1477 0.0027 5.5412 0.0006
# 4 -0.0003 0.0012 0.0027 9.7298 -0.0002 2.1285
# 5 -15.8348 -0.0273 5.5412 -0.0002 29.8212 -0.0004
# 6 -0.0001 0.0003 0.0006 2.1285 -0.0004 42.2771
#
#
#
# Elastic Compliance Matrix: (Units=1/GPa)
#
#
# Indices 1 2 3 4 5 6 
#
# 1 0.007149 -0.005708 -0.002538 0.000002 0.004262 0.000000
# 2 -0.005708 0.039105 -0.004138 -0.000004 -0.002226 0.000000
# 3 -0.002538 -0.004138 0.030476 -0.000008 -0.007014 0.000000
# 4 0.000002 -0.000004 -0.000008 0.103922 0.000003 -0.005232
# 5 0.004262 -0.002226 -0.007014 0.000003 0.037098 0.000000
# 6 0.000000 0.000000 0.000000 -0.005232 0.000000 0.023917
#
#
# Mechanical properties :
#
#
# Convention : Reuss Voigt Hill
#
# Bulk Modulus (GPa) = 19.24477 37.29971 28.27224
# Shear Modulus (GPa) = 17.62082 29.33948 23.48015
#
# Velocity S-wave (km/s) = 2.67324 3.44946 3.08585
# Velocity P-wave (km/s) = 4.16330 5.56705 4.91554
#
# Compressibility (1/GPa) = 0.05196217
#
# Stress axis : x y z
#
# Youngs Moduli (GPa) = 139.87697 25.57226 32.81249
#
# Poissons Ratio (x) = 0.14596 0.08327
# Poissons Ratio (y) = 0.79840 0.13579
# Poissons Ratio (z) = 0.35498 0.10583
#
# Static dielectric constant tensor:
#      x y z
#    x 2.066470 0.000000 -0.005860 
#    y 0.000000 1.996250 0.000000 
#    z -0.005860 0.000000 1.958870 
# 
# From -- ./inp_files/33775.got.cif
#   From: 2010.05.17/outbox.cif.g08.bks.cpg/sg9_17_cif.got.tgz:33775.got - 2010.06.03 20:04:27.
