data_PCOD9133266
_publ_section_title
;
Structure prediction by ZEFSAII (Michael W. Deem and Ramdas Pophale) SiO2 
 PCOD9133266
Probable space group: C M
;
_chemical_formula_sum "Si O2"
_cell_formula_units_Z 28
_cell_length_a 11.672308
_cell_length_b 18.950687
_cell_length_c 5.236949
_cell_angle_alpha 90.000000
_cell_angle_beta 86.630675
_cell_angle_gamma 90.000000
_cell_volume 1156.401608
_symmetry_space_group_name_H-M "C M"
_symmetry_group_IT_number 8
_symmetry_cell_setting 'monoclinic'
loop_
_space_group_symop_operation_xyz
x,y,z
x,-y,z
1/2+x,1/2+y,z
1/2+x,1/2-y,z
loop_
_atom_site_type_symbol
_atom_site_label
_atom_site_fract_x
_atom_site_fract_y
_atom_site_fract_z
Si Si1 0.262760 0.580535 0.326540
Si Si2 0.504057 0.579653 0.998519
Si Si3 0.902144 0.182963 0.625913
Si Si4 0.098236 0.799696 0.266016
Si Si5 0.882987 0.584619 0.667743
Si Si6 0.019374 0.585356 0.146748
Si Si7 0.730348 0.290558 0.762170
O O1 0.243456 0.500000 0.422208
O O2 0.374619 0.578369 0.130537
O O3 0.301284 0.631687 0.546142
O O4 0.148142 0.606591 0.204071
O O5 0.536550 0.500000 0.928752
O O6 0.584817 0.616595 0.198360
O O7 0.491360 0.633252 0.764314
O O8 0.844020 0.244445 0.790534
O O9 0.970795 0.217115 0.380813
O O10 0.181249 0.779521 0.485343
O O11 0.143133 0.769407 0.995460
O O12 0.865558 0.500000 0.673850
O O13 0.770341 0.628086 0.758028
O O14 0.931165 0.606053 0.383327
O O15 0.976877 0.603991 0.871168
O O16 0.021127 0.500000 0.150974
#
# Coordination Sequence:
#
# PCOD9133266 Si02
#       7
#     4   4   4   4   4   4   4
#     4   9  20  38  67 102 137 179 225 287 360 415
#     4  10  22  45  74 105 143 182 239 302 350 419
#     4  11  25  46  69 106 144 178 238 295 351 426
#     4  11  26  49  69 102 139 186 235 286 355 423
#     4  10  22  42  64  95 134 178 233 284 333 406
#     4   9  19  38  63  96 132 168 219 275 339 405
#     4  12  27  46  72 100 141 187 237 287 356 422
#
# _framework density 24.213042000000002
#
# number of rings (size 3 to 8) (size 9 to 14) (size 15 to 20)
#    0.000    1.714    1.429    1.286    6.000    2.857 
#    2.571    0.000    0.000    0.000    0.000    0.000 
#    0.000    0.000    0.000    0.000    0.000    0.000 
#
# Total GULP energy -78275.377144 kJ/mol
# GULP energy per Si atom -5591.098367 kJ/mol
# Density = 2.415793 g / cm^3
# Si number density = 24.213042 Si / 1000 Ang^3
#
#
#
# Elastic Constant Matrix: (Units=GPa)
#
#
# Indices 1 2 3 4 5 6 
#
# 1 35.0240 16.2578 0.9812 0.0000 -1.2867 0.0000
# 2 16.2578 96.5895 28.1024 0.0000 -2.0575 0.0000
# 3 0.9812 28.1024 94.4465 0.0000 1.8086 0.0000
# 4 0.0000 0.0000 0.0000 21.6994 0.0000 2.8760
# 5 -1.2867 -2.0575 1.8086 0.0000 43.3208 0.0000
# 6 0.0000 0.0000 0.0000 2.8760 0.0000 30.7165
#
#
#
# Elastic Compliance Matrix: (Units=1/GPa)
#
#
# Indices 1 2 3 4 5 6 
#
# 1 0.031144 -0.005618 0.001337 0.000000 0.000602 0.000000
# 2 -0.005618 0.012368 -0.003633 0.000000 0.000572 0.000000
# 3 0.001337 -0.003633 0.011667 0.000000 -0.000620 0.000000
# 4 0.000000 0.000000 0.000000 0.046663 0.000000 -0.004369
# 5 0.000602 0.000572 -0.000620 0.000000 0.023155 0.000000
# 6 0.000000 0.000000 0.000000 -0.004369 0.000000 0.032965
#
#
# Mechanical properties :
#
#
# Convention : Reuss Voigt Hill
#
# Bulk Modulus (GPa) = 25.41253 35.19364 30.30308
# Shear Modulus (GPa) = 26.75125 31.19526 28.97325
#
# Velocity S-wave (km/s) = 3.32750 3.59328 3.46294
# Velocity P-wave (km/s) = 5.02804 5.63756 5.34150
#
# Compressibility (1/GPa) = 0.03935067
#
# Stress axis : x y z
#
# Youngs Moduli (GPa) = 32.10845 80.85498 85.71283
#
# Poissons Ratio (x) = 0.45426 -0.11456
# Poissons Ratio (y) = 0.18039 0.31136
# Poissons Ratio (z) = -0.04292 0.29371
#
# Static dielectric constant tensor:
#      x y z
#    x 1.915910 0.000000 -0.016840 
#    y 0.000000 1.946630 0.000000 
#    z -0.016840 0.000000 1.934610 
# 
# From -- ./inp_files/2833.got.cif
#   From: 2010.05.17/outbox.cif.g08.bks.cpg/sg8_2_cif.got.tgz:2833.got - 2010.06.03 19:46:02.
