data_PCOD9133244
_publ_section_title
;
Structure prediction by ZEFSAII (Michael W. Deem and Ramdas Pophale) SiO2 
 PCOD9133244
Probable space group: C M
;
_chemical_formula_sum "Si O2"
_cell_formula_units_Z 30
_cell_length_a 27.444980
_cell_length_b 12.044856
_cell_length_c 7.123594
_cell_angle_alpha 90.000000
_cell_angle_beta 147.841554
_cell_angle_gamma 90.000000
_cell_volume 1253.399460
_symmetry_space_group_name_H-M "C M"
_symmetry_group_IT_number 8
_symmetry_cell_setting 'monoclinic'
loop_
_space_group_symop_operation_xyz
x,y,z
x,-y,z
1/2+x,1/2+y,z
1/2+x,1/2-y,z
loop_
_atom_site_type_symbol
_atom_site_label
_atom_site_fract_x
_atom_site_fract_y
_atom_site_fract_z
Si Si1 0.969790 0.680772 0.277520
Si Si2 0.463521 0.375060 0.964589
Si Si3 0.267388 0.124013 0.713188
Si Si4 0.505677 0.192272 0.839589
Si Si5 0.198067 0.379784 0.440654
Si Si6 0.305524 0.118193 0.280226
Si Si7 0.248669 0.653134 0.191705
Si Si8 0.113265 0.500000 0.584915
O O1 0.992949 0.695933 0.574090
O O2 0.039123 0.597058 0.405290
O O3 0.971629 0.797527 0.173641
O O4 0.866693 0.633518 0.938390
O O5 0.495064 0.500000 0.098670
O O6 0.515998 0.312674 0.967498
O O7 0.355866 0.376813 0.555650
O O8 0.230009 0.251897 0.573215
O O9 0.226965 0.000000 0.531771
O O10 0.282322 0.117172 0.985196
O O11 0.413917 0.143702 0.633823
O O12 0.593461 0.117882 0.169449
O O13 0.243120 0.500000 0.640087
O O14 0.199160 0.385705 0.217692
O O15 0.247584 0.215089 0.181175
O O16 0.286079 0.000000 0.301441
O O17 0.196263 0.596580 0.851211
#
# Coordination Sequence:
#
# PCOD9133244 Si02
#       8
#     4   4   4   4   4   4   4   2
#     4  11  22  42  70 100 132 177 228 283 346 405
#     4  11  24  45  68 100 142 180 225 285 352 415
#     4  10  22  41  65  94 134 176 222 284 345 410
#     4  10  23  42  68  99 133 180 230 283 342 409
#     4  12  22  41  67  97 133 177 229 282 340 406
#     4   9  21  42  65  94 131 173 222 279 351 409
#     4  11  21  40  69  95 131 178 222 286 343 401
#     4  12  22  42  72  98 136 176 234 294 332 412
#
# _framework density 23.934905000000001
#
# number of rings (size 3 to 8) (size 9 to 14) (size 15 to 20)
#    0.000    1.333    4.667    0.400    0.933    2.667 
#    9.600    3.333    0.000    0.000    0.000    0.000 
#    0.000    0.000    0.000    0.000    0.000    0.000 
#
# Total GULP energy -83544.488441 kJ/mol
# GULP energy per Si atom -5569.632563 kJ/mol
# Density = 2.388043 g / cm^3
# Si number density = 23.934905 Si / 1000 Ang^3
#
#
#
# Elastic Constant Matrix: (Units=GPa)
#
#
# Indices 1 2 3 4 5 6 
#
# 1 81.3435 27.6076 4.5481 0.0000 -2.0377 0.0000
# 2 27.6076 277.1008 38.0714 0.0000 3.1746 0.0000
# 3 4.5481 38.0714 56.1421 0.0000 -0.6727 0.0000
# 4 0.0000 0.0000 0.0000 36.8187 0.0000 2.8361
# 5 -2.0377 3.1746 -0.6727 0.0000 35.6609 0.0000
# 6 0.0000 0.0000 0.0000 2.8361 0.0000 6.9308
#
#
#
# Elastic Compliance Matrix: (Units=1/GPa)
#
#
# Indices 1 2 3 4 5 6 
#
# 1 0.012751 -0.001256 -0.000171 0.000000 0.000837 0.000000
# 2 -0.001256 0.004109 -0.002691 0.000000 -0.000488 0.000000
# 3 -0.000171 -0.002691 0.019658 0.000000 0.000601 0.000000
# 4 0.000000 0.000000 0.000000 0.028044 0.000000 -0.011476
# 5 0.000837 -0.000488 0.000601 0.000000 0.028145 0.000000
# 6 0.000000 0.000000 0.000000 -0.011476 0.000000 0.148980
#
#
# Mechanical properties :
#
#
# Convention : Reuss Voigt Hill
#
# Bulk Modulus (GPa) = 35.35892 61.67117 48.51504
# Shear Modulus (GPa) = 19.27907 38.83937 29.05922
#
# Velocity S-wave (km/s) = 2.84118 4.03266 3.48817
# Velocity P-wave (km/s) = 5.05649 6.89240 6.04455
#
# Compressibility (1/GPa) = 0.02828140
#
# Stress axis : x y z
#
# Youngs Moduli (GPa) = 78.42828 243.35379 50.87098
#
# Poissons Ratio (x) = 0.30576 0.00869
# Poissons Ratio (y) = 0.09854 0.13688
# Poissons Ratio (z) = 0.01340 0.65478
#
# Static dielectric constant tensor:
#      x y z
#    x 1.952840 0.000000 -0.075200 
#    y 0.000000 1.906790 0.000000 
#    z -0.075200 0.000000 1.960800 
# 
# From -- ./inp_files/17812.got.cif
#   From: 2010.05.17/outbox.cif.g08.bks.cpg/sg8_9_cif.got.tgz:17812.got - 2010.06.03 19:46:02.
