data_PCOD9133239
_publ_section_title
;
Structure prediction by ZEFSAII (Michael W. Deem and Ramdas Pophale) SiO2 
 PCOD9133239
Probable space group: C M
;
_chemical_formula_sum "Si O2"
_cell_formula_units_Z 28
_cell_length_a 13.481797
_cell_length_b 11.309082
_cell_length_c 8.179295
_cell_angle_alpha 90.000000
_cell_angle_beta 102.778154
_cell_angle_gamma 90.000000
_cell_volume 1216.185256
_symmetry_space_group_name_H-M "C M"
_symmetry_group_IT_number 8
_symmetry_cell_setting 'monoclinic'
loop_
_space_group_symop_operation_xyz
x,y,z
x,-y,z
1/2+x,1/2+y,z
1/2+x,1/2-y,z
loop_
_atom_site_type_symbol
_atom_site_label
_atom_site_fract_x
_atom_site_fract_y
_atom_site_fract_z
Si Si1 0.394940 0.869291 0.511110
Si Si2 0.835005 0.865778 0.855677
Si Si3 0.214418 0.179525 0.659077
Si Si4 0.330562 0.699848 0.213169
Si Si5 0.106876 0.632785 0.136660
Si Si6 0.532748 0.279895 0.401005
Si Si7 0.070587 0.131231 0.908148
O O1 0.322990 0.869838 0.642371
O O2 0.334750 0.814810 0.332087
O O3 0.490893 0.781879 0.550636
O O4 0.429543 0.000000 0.490665
O O5 0.748185 0.814748 0.706584
O O6 0.949232 0.866018 0.826702
O O7 0.811133 0.000000 0.896518
O O8 0.833781 0.785937 0.019155
O O9 0.138275 0.161698 0.480309
O O10 0.151165 0.132615 0.789274
O O11 0.227656 0.632708 0.215060
O O12 0.439511 0.642798 0.300314
O O13 0.076742 0.500000 0.071422
O O14 0.049335 0.674437 0.278425
O O15 0.090811 0.747151 0.013998
O O16 0.084586 0.000000 0.995737
#
# Coordination Sequence:
#
# PCOD9133239 Si02
#       7
#     4   4   4   4   4   4   4
#     4  10  22  41  64  94 131 173 220 272 329 395
#     4  11  24  44  68  98 136 177 225 280 339 400
#     4  12  23  43  64  99 135 178 223 273 335 404
#     4  10  22  43  66  96 131 171 223 281 327 397
#     4  12  23  44  72 102 130 174 233 282 334 400
#     4  10  22  43  67  96 137 173 220 281 338 392
#     4  11  25  44  66  99 139 180 223 275 341 406
#
# _framework density 23.022808999999999
#
# number of rings (size 3 to 8) (size 9 to 14) (size 15 to 20)
#    0.857    0.286    4.286    2.143    0.000    1.714 
#    0.000    5.714    0.000    0.000    0.000    0.000 
#    0.000    0.000    0.000    0.000    0.000    0.000 
#
# Total GULP energy -77943.009738 kJ/mol
# GULP energy per Si atom -5567.357838 kJ/mol
# Density = 2.297041 g / cm^3
# Si number density = 23.022809 Si / 1000 Ang^3
#
#
#
# Elastic Constant Matrix: (Units=GPa)
#
#
# Indices 1 2 3 4 5 6 
#
# 1 130.5352 15.0158 12.3968 0.0000 -10.6701 0.0000
# 2 15.0158 113.3574 21.1218 0.0000 -1.0698 0.0000
# 3 12.3968 21.1218 40.7939 0.0000 -7.2099 0.0000
# 4 0.0000 0.0000 0.0000 10.9816 0.0000 0.3733
# 5 -10.6701 -1.0698 -7.2099 0.0000 51.4677 0.0000
# 6 0.0000 0.0000 0.0000 0.3733 0.0000 18.1440
#
#
#
# Elastic Compliance Matrix: (Units=1/GPa)
#
#
# Indices 1 2 3 4 5 6 
#
# 1 0.008030 -0.000710 -0.001826 0.000000 0.001394 0.000000
# 2 -0.000710 0.009840 -0.004992 0.000000 -0.000642 0.000000
# 3 -0.001826 -0.004992 0.028268 0.000000 0.003478 0.000000
# 4 0.000000 0.000000 0.000000 0.091125 0.000000 -0.001875
# 5 0.001394 -0.000642 0.003478 0.000000 0.020193 0.000000
# 6 0.000000 0.000000 0.000000 -0.001875 0.000000 0.055153
#
#
# Mechanical properties :
#
#
# Convention : Reuss Voigt Hill
#
# Bulk Modulus (GPa) = 32.17478 42.41726 37.29602
# Shear Modulus (GPa) = 21.00609 31.86212 26.43411
#
# Velocity S-wave (km/s) = 3.02388 3.72417 3.39214
# Velocity P-wave (km/s) = 5.11833 6.07919 5.61934
#
# Compressibility (1/GPa) = 0.03108024
#
# Stress axis : x y z
#
# Youngs Moduli (GPa) = 124.53542 101.62678 35.37578
#
# Poissons Ratio (x) = 0.07218 0.06460
# Poissons Ratio (y) = 0.08845 0.17661
# Poissons Ratio (z) = 0.22740 0.50737
#
# Static dielectric constant tensor:
#      x y z
#    x 1.871440 0.000000 -0.018340 
#    y 0.000000 1.921970 0.000000 
#    z -0.018340 0.000000 1.900840 
# 
# From -- ./inp_files/12682.got.cif
#   From: 2010.05.17/outbox.cif.g08.bks.cpg/sg8_7_cif.got.tgz:12682.got - 2010.06.03 19:46:02.
