data_PCOD9133531
_publ_section_title
;
Structure prediction by ZEFSAII (Michael W. Deem and Ramdas Pophale) SiO2 
 PCOD9133531
Probable space group: C M
;
_chemical_formula_sum "Si O2"
_cell_formula_units_Z 30
_cell_length_a 14.852576
_cell_length_b 11.749291
_cell_length_c 9.225556
_cell_angle_alpha 90.000000
_cell_angle_beta 113.581132
_cell_angle_gamma 90.000000
_cell_volume 1475.488622
_symmetry_space_group_name_H-M "C M"
_symmetry_group_IT_number 8
_symmetry_cell_setting 'monoclinic'
loop_
_space_group_symop_operation_xyz
x,y,z
x,-y,z
1/2+x,1/2+y,z
1/2+x,1/2-y,z
loop_
_atom_site_type_symbol
_atom_site_label
_atom_site_fract_x
_atom_site_fract_y
_atom_site_fract_z
Si Si1 0.738100 0.695416 0.269720
Si Si2 0.918339 0.632961 0.786207
Si Si3 0.231058 0.365448 0.013688
Si Si4 0.590304 0.500000 0.105914
Si Si5 0.448320 0.285362 0.075278
Si Si6 0.960598 0.627023 0.345962
Si Si7 0.070118 0.288209 0.675834
Si Si8 0.692146 0.369023 0.557912
O O1 0.719943 0.807704 0.163962
O O2 0.676022 0.598434 0.150088
O O3 0.852473 0.657996 0.339462
O O4 0.702027 0.697356 0.412575
O O5 0.948435 0.500000 0.785297
O O6 0.800659 0.634885 0.697328
O O7 0.968727 0.714705 0.699714
O O8 0.952623 0.686660 0.958273
O O9 0.231923 0.500000 0.027602
O O10 0.335012 0.320253 0.021789
O O11 0.148519 0.330117 0.844155
O O12 0.508357 0.397773 0.074981
O O13 0.482426 0.225677 0.245257
O O14 0.955779 0.500000 0.279662
O O15 0.041363 0.630395 0.524290
O O16 0.114418 0.178486 0.623201
O O17 0.668432 0.500000 0.501581
#
# Coordination Sequence:
#
# PCOD9133531 Si02
#       8
#     4   4   4   2   4   4   4   4
#     4  11  23  43  73  96 134 183 231 283 343 410
#     4  11  23  45  70 100 139 186 232 284 339 411
#     4  11  24  46  68 101 142 178 225 283 348 415
#     4  12  22  42  66  96 130 182 220 284 342 398
#     4  11  24  42  68 100 141 178 227 287 346 407
#     4  11  22  41  69 104 131 177 238 281 337 415
#     4  12  24  42  71 105 137 180 227 288 351 397
#     4  11  23  45  70 101 140 181 233 288 338 414
#
# _framework density 20.332249000000001
#
# number of rings (size 3 to 8) (size 9 to 14) (size 15 to 20)
#    0.000    0.800    4.667    3.200    0.000    0.000 
#    4.800    5.333    1.467    0.000    0.000    0.000 
#    0.000    0.000    0.000    0.000    0.000    0.000 
#
# Total GULP energy -83503.084760 kJ/mol
# GULP energy per Si atom -5566.872317 kJ/mol
# Density = 2.028597 g / cm^3
# Si number density = 20.332249 Si / 1000 Ang^3
#
#
#
# Elastic Constant Matrix: (Units=GPa)
#
#
# Indices 1 2 3 4 5 6 
#
# 1 74.6688 29.4140 23.9292 0.0000 1.6718 0.0000
# 2 29.4140 75.8265 40.7677 0.0000 -3.0482 0.0000
# 3 23.9292 40.7677 85.3078 0.0000 3.9006 0.0000
# 4 0.0000 0.0000 0.0000 20.6509 0.0000 -0.1609
# 5 1.6718 -3.0482 3.9006 0.0000 32.6373 0.0000
# 6 0.0000 0.0000 0.0000 -0.1609 0.0000 35.4186
#
#
#
# Elastic Compliance Matrix: (Units=1/GPa)
#
#
# Indices 1 2 3 4 5 6 
#
# 1 0.016109 -0.005234 -0.001968 0.000000 -0.001079 0.000000
# 2 -0.005234 0.019686 -0.008080 0.000000 0.003072 0.000000
# 3 -0.001968 -0.008080 0.016254 0.000000 -0.002596 0.000000
# 4 0.000000 0.000000 0.000000 0.048426 0.000000 0.000220
# 5 -0.001079 0.003072 -0.002596 0.000000 0.031292 0.000000
# 6 0.000000 0.000000 0.000000 0.000220 0.000000 0.028235
#
#
# Mechanical properties :
#
#
# Convention : Reuss Voigt Hill
#
# Bulk Modulus (GPa) = 46.54374 47.11388 46.82881
# Shear Modulus (GPa) = 25.28715 27.18750 26.23733
#
# Velocity S-wave (km/s) = 3.53043 3.66069 3.59615
# Velocity P-wave (km/s) = 6.28967 6.41013 6.35019
#
# Compressibility (1/GPa) = 0.02148516
#
# Stress axis : x y z
#
# Youngs Moduli (GPa) = 62.07628 50.79716 61.52190
#
# Poissons Ratio (x) = 0.26589 0.12107
# Poissons Ratio (y) = 0.32492 0.49710
# Poissons Ratio (z) = 0.12216 0.41044
#
# Static dielectric constant tensor:
#      x y z
#    x 1.763590 0.000000 -0.013040 
#    y 0.000000 1.672940 0.000000 
#    z -0.013040 0.000000 1.760260 
# 
# From -- ./inp_files/12739.got.cif
#   From: 2010.05.17/outbox.cif.g08.bks.cpg/sg8_7_cif.got.tgz:12739.got - 2010.06.03 19:46:02.
