data_PCOD9133875
_publ_section_title
;
Structure prediction by ZEFSAII (Michael W. Deem and Ramdas Pophale) SiO2 
 PCOD9133875
Probable space group: C C
;
_chemical_formula_sum "Si O2"
_cell_formula_units_Z 32
_cell_length_a 5.295134
_cell_length_b 17.413488
_cell_length_c 14.246167
_cell_angle_alpha 90.000000
_cell_angle_beta 81.179550
_cell_angle_gamma 90.000000
_cell_volume 1298.057870
_symmetry_space_group_name_H-M "C C"
_symmetry_group_IT_number 9
_symmetry_cell_setting 'monoclinic'
loop_
_space_group_symop_operation_xyz
x,y,z
x,-y,1/2+z
1/2+x,1/2+y,z
1/2+x,1/2-y,1/2+z
loop_
_atom_site_type_symbol
_atom_site_label
_atom_site_fract_x
_atom_site_fract_y
_atom_site_fract_z
Si Si1 0.125000 0.842731 0.320520
Si Si2 0.208847 0.537784 0.691011
Si Si3 0.513822 0.514430 0.399081
Si Si4 0.466979 0.939163 0.999129
Si Si5 0.736842 0.711007 0.592892
Si Si6 0.717404 0.447232 0.711218
Si Si7 0.638177 0.199481 0.806809
Si Si8 0.219979 0.794489 0.620110
O O1 0.191037 0.823795 0.204464
O O2 0.361731 0.809562 0.363830
O O3 0.873379 0.796658 0.361719
O O4 0.075009 0.930726 0.350799
O O5 0.493490 0.503004 0.681718
O O6 0.183958 0.617491 0.749026
O O7 0.098882 0.550861 0.593638
O O8 0.986825 0.479598 0.734157
O O9 0.710725 0.520417 0.474226
O O10 0.590881 0.577320 0.316540
O O11 0.212575 0.529513 0.428138
O O12 0.355994 0.853307 0.019150
O O13 0.464373 0.744271 0.576697
O O14 0.951665 0.776460 0.587399
O O15 0.775738 0.383689 0.630197
O O16 0.666236 0.264800 0.729156
#
# Coordination Sequence:
#
# PCOD9133875 Si02
#       8
#     4   4   4   4   4   4   4   4
#     4  10  18  34  59  85 112 154 204 252 293 347
#     4  12  21  40  64  90 120 163 217 262 305 362
#     4  12  23  35  57  96 135 156 194 273 339 358
#     4  12  24  36  62  93 127 166 211 255 324 385
#     4  10  20  39  63  88 112 170 227 249 280 391
#     4  12  24  40  64  97 128 157 210 277 312 360
#     4  10  17  34  63  85 108 157 211 250 280 360
#     4  10  21  36  64  90 114 153 212 258 311 353
#
# _framework density 24.652213
#
# number of rings (size 3 to 8) (size 9 to 14) (size 15 to 20)
#    0.000    1.000    5.000    3.750    3.500    0.000 
#    0.000    0.000    0.000   30.000    0.000    0.000 
#    0.000    0.000    0.000    0.000    0.000    0.000 
#
# Total GULP energy -89172.686662 kJ/mol
# GULP energy per Si atom -5573.292916 kJ/mol
# Density = 2.459610 g / cm^3
# Si number density = 24.652213 Si / 1000 Ang^3
#
#
#
# Elastic Constant Matrix: (Units=GPa)
#
#
# Indices 1 2 3 4 5 6 
#
# 1 187.3346 19.5008 31.2387 0.0000 4.4230 0.0000
# 2 19.5008 40.8327 13.9084 0.0000 9.8733 0.0000
# 3 31.2387 13.9084 51.9338 0.0000 15.7792 0.0000
# 4 0.0000 0.0000 0.0000 23.9267 0.0000 4.6915
# 5 4.4230 9.8733 15.7792 0.0000 32.4714 0.0000
# 6 0.0000 0.0000 0.0000 4.6915 0.0000 18.8156
#
#
#
# Elastic Compliance Matrix: (Units=1/GPa)
#
#
# Indices 1 2 3 4 5 6 
#
# 1 0.006116 -0.002070 -0.003593 0.000000 0.001542 0.000000
# 2 -0.002070 0.028513 -0.004508 0.000000 -0.006197 0.000000
# 3 -0.003593 -0.004508 0.025880 0.000000 -0.010716 0.000000
# 4 0.000000 0.000000 0.000000 0.043943 0.000000 -0.010957
# 5 0.001542 -0.006197 -0.010716 0.000000 0.037678 0.000000
# 6 0.000000 0.000000 0.000000 -0.010957 0.000000 0.055879
#
#
# Mechanical properties :
#
#
# Convention : Reuss Voigt Hill
#
# Bulk Modulus (GPa) = 24.89654 45.48855 35.19255
# Shear Modulus (GPa) = 21.57591 29.40629 25.49110
#
# Velocity S-wave (km/s) = 2.96161 3.45751 3.21912
# Velocity P-wave (km/s) = 4.67074 5.86782 5.30317
#
# Compressibility (1/GPa) = 0.04016622
#
# Stress axis : x y z
#
# Youngs Moduli (GPa) = 163.49763 35.07207 38.64019
#
# Poissons Ratio (x) = 0.07260 0.13884
# Poissons Ratio (y) = 0.33844 0.17419
# Poissons Ratio (z) = 0.58749 0.15810
#
# Static dielectric constant tensor:
#      x y z
#    x 2.099910 0.000000 -0.074190 
#    y 0.000000 1.994420 0.000000 
#    z -0.074190 0.000000 2.134440 
# 
# From -- ./inp_files/22072.got.cif
#   From: 2010.05.17/outbox.cif.g08.bks.cpg/sg9_12_cif.got.tgz:22072.got - 2010.06.03 20:04:27.
