data_PCOD9133344
_publ_section_title
;
Structure prediction by ZEFSAII (Michael W. Deem and Ramdas Pophale) SiO2 
 PCOD9133344
Probable space group: C M
;
_chemical_formula_sum "Si O2"
_cell_formula_units_Z 26
_cell_length_a 11.725479
_cell_length_b 22.270820
_cell_length_c 9.651588
_cell_angle_alpha 90.000000
_cell_angle_beta 26.297195
_cell_angle_gamma 90.000000
_cell_volume 1116.595996
_symmetry_space_group_name_H-M "C M"
_symmetry_group_IT_number 8
_symmetry_cell_setting 'monoclinic'
loop_
_space_group_symop_operation_xyz
x,y,z
x,-y,z
1/2+x,1/2+y,z
1/2+x,1/2-y,z
loop_
_atom_site_type_symbol
_atom_site_label
_atom_site_fract_x
_atom_site_fract_y
_atom_site_fract_z
Si Si1 0.916430 0.927845 0.086710
Si Si2 0.399202 0.240771 0.118032
Si Si3 0.441617 0.258865 0.407437
Si Si4 0.188433 0.000000 0.246535
Si Si5 0.971965 0.571920 0.361943
Si Si6 0.454922 0.101443 0.081267
Si Si7 0.924000 0.899018 0.387998
O O1 0.676105 0.911701 0.255000
O O2 0.883887 0.897156 0.269307
O O3 0.915016 0.000000 0.110122
O O4 0.185096 0.912475 0.721686
O O5 0.415979 0.248849 0.267915
O O6 0.394624 0.168484 0.103895
O O7 0.171325 0.263234 0.261454
O O8 0.671969 0.263290 0.763442
O O9 0.454462 0.331470 0.405754
O O10 0.226114 0.946461 0.322025
O O11 0.148566 0.946201 0.174544
O O12 0.986791 0.500000 0.325900
O O13 0.048403 0.602729 0.136073
O O14 0.677282 0.074536 0.739571
#
# Coordination Sequence:
#
# PCOD9133344 Si02
#       7
#     4   4   4   2   4   4   4
#     4  10  23  37  56  86 127 168 211 260 322 389
#     4  11  25  46  71 102 135 177 233 286 341 404
#     4  11  25  46  71 102 135 177 233 286 341 404
#     4  12  22  40  68  96 140 168 232 266 344 390
#     4  10  23  37  56  86 127 168 211 260 322 389
#     4  11  25  40  68  98 133 178 227 275 336 402
#     4  11  25  40  68  98 133 178 227 275 336 402
#
# _framework density 23.285055
#
# number of rings (size 3 to 8) (size 9 to 14) (size 15 to 20)
#    0.000    1.231    3.077    1.385    4.308    2.462 
#    0.000    0.000    0.000    0.000    0.000    0.000 
#    0.000    0.000    0.000    0.000    0.000    0.000 
#
# Total GULP energy -72373.127013 kJ/mol
# GULP energy per Si atom -5567.163616 kJ/mol
# Density = 2.323206 g / cm^3
# Si number density = 23.285055 Si / 1000 Ang^3
#
#
#
# Elastic Constant Matrix: (Units=GPa)
#
#
# Indices 1 2 3 4 5 6 
#
# 1 166.7599 -12.3024 52.7887 0.0085 -10.5055 -0.0421
# 2 -12.3024 79.4397 -12.4514 0.0276 -15.2354 0.0850
# 3 52.7887 -12.4514 115.1826 0.0241 0.7320 0.0173
# 4 0.0085 0.0276 0.0241 1.3025 -0.0049 -59.4061
# 5 -10.5055 -15.2354 0.7320 -0.0049 44.8742 0.0116
# 6 -0.0421 0.0850 0.0173 -59.4061 0.0116 -272.5425
#
#
#
# Elastic Compliance Matrix: (Units=1/GPa)
#
#
# Indices 1 2 3 4 5 6 
#
# 1 0.007220 0.001015 -0.003212 -0.000004 0.002087 0.000000
# 2 0.001015 0.013846 0.001000 -0.000009 0.004922 0.000006
# 3 -0.003212 0.001000 0.010266 -0.000012 -0.000580 0.000004
# 4 -0.000004 -0.000009 -0.000012 0.070169 0.000008 -0.015295
# 5 0.002087 0.004922 -0.000580 0.000008 0.024454 0.000000
# 6 0.000000 0.000006 0.000004 -0.015295 0.000000 -0.000335
#
#
# Mechanical properties :
#
#
# Convention : Reuss Voigt Hill
#
# Bulk Modulus (GPa) = 34.55709 46.38357 40.47033
# Shear Modulus (GPa) = 36.32136 -23.05000 6.63568
#
# Velocity S-wave (km/s) = 3.95379 -3.14969 1.68995
# Velocity P-wave (km/s) = 5.97632 2.59533 4.60717
#
# Compressibility (1/GPa) = 0.02893762
#
# Stress axis : x y z
#
# Youngs Moduli (GPa) = 138.50536 72.22235 97.40895
#
# Poissons Ratio (x) = -0.07330 0.31292
# Poissons Ratio (y) = -0.14057 -0.09745
# Poissons Ratio (z) = 0.44495 -0.07225
#
# Static dielectric constant tensor:
#      x y z
#    x 2.040100 0.000350 -0.028560 
#    y 0.000350 2.696400 0.000200 
#    z -0.028560 0.000200 1.927810 
# 
# From -- ./inp_files/11578.got.cif
#   From: 2010.05.17/outbox.cif.g08.bks.cpg/sg8_6_cif.got.tgz:11578.got - 2010.06.03 19:46:02.
