data_PCOD9133506
_publ_section_title
;
Structure prediction by ZEFSAII (Michael W. Deem and Ramdas Pophale) SiO2 
 PCOD9133506
Probable space group: C M
;
_chemical_formula_sum "Si O2"
_cell_formula_units_Z 32
_cell_length_a 11.790186
_cell_length_b 15.055671
_cell_length_c 18.570724
_cell_angle_alpha 90.000000
_cell_angle_beta 153.571502
_cell_angle_gamma 90.000000
_cell_volume 1467.196589
_symmetry_space_group_name_H-M "C M"
_symmetry_group_IT_number 8
_symmetry_cell_setting 'monoclinic'
loop_
_space_group_symop_operation_xyz
x,y,z
x,-y,z
1/2+x,1/2+y,z
1/2+x,1/2-y,z
loop_
_atom_site_type_symbol
_atom_site_label
_atom_site_fract_x
_atom_site_fract_y
_atom_site_fract_z
Si Si1 0.797970 0.897697 0.445110
Si Si2 0.988511 0.825582 0.702921
Si Si3 0.035054 0.779116 0.263249
Si Si4 0.500885 0.595561 0.856740
Si Si5 0.335079 0.143865 0.678549
Si Si6 0.381468 0.394841 0.040870
Si Si7 0.403918 0.905435 0.554577
Si Si8 0.515173 0.274215 0.984037
O O1 0.840376 0.868883 0.552563
O O2 0.617821 0.823873 0.306396
O O3 0.073928 0.887660 0.564555
O O4 0.712798 0.000000 0.392019
O O5 0.054262 0.894132 0.803126
O O6 0.832744 0.748058 0.655947
O O7 0.251669 0.779005 0.827293
O O8 0.248348 0.825433 0.432980
O O9 0.009989 0.835809 0.176070
O O10 0.757987 0.783786 0.143426
O O11 0.595612 0.500000 0.937226
O O12 0.594023 0.680066 0.953933
O O13 0.196627 0.597677 0.697215
O O14 0.575682 0.121657 0.866009
O O15 0.388610 0.098907 0.631938
O O16 0.432265 0.500000 0.075303
O O17 0.471739 0.352674 0.016617
O O18 0.294635 0.000000 0.467493
#
# Coordination Sequence:
#
# PCOD9133506 Si02
#       8
#     4   4   4   4   4   4   4   4
#     4  12  26  43  66  98 137 181 224 274 335 396
#     4  11  21  42  69 100 129 173 223 279 330 393
#     4  12  26  42  61  98 139 176 215 270 335 395
#     4  11  22  41  69  99 128 167 226 278 324 388
#     4  11  22  43  72  97 127 172 229 278 327 392
#     4  11  23  42  70  97 128 172 223 275 329 393
#     4  11  22  42  70  98 128 171 225 277 330 390
#     4  11  23  41  65  95 134 178 215 267 334 395
#
# _framework density 21.810302
#
# number of rings (size 3 to 8) (size 9 to 14) (size 15 to 20)
#    0.000    0.750    3.750    6.000    1.750    2.000 
#    0.000    1.875    0.000    0.000    0.000    0.000 
#    0.000    0.000    0.000    0.000    0.000    0.000 
#
# Total GULP energy -89468.518448 kJ/mol
# GULP energy per Si atom -5591.782403 kJ/mol
# Density = 2.176066 g / cm^3
# Si number density = 21.810302 Si / 1000 Ang^3
#
#
#
# Elastic Constant Matrix: (Units=GPa)
#
#
# Indices 1 2 3 4 5 6 
#
# 1 52.1052 12.7886 11.0769 0.0011 -20.0896 0.0009
# 2 12.7886 141.9441 27.0410 0.0055 -13.6239 0.0019
# 3 11.0769 27.0410 77.1442 0.0137 -17.2834 0.0044
# 4 0.0011 0.0055 0.0137 24.0959 0.0023 -12.3102
# 5 -20.0896 -13.6239 -17.2834 0.0023 20.0844 0.0008
# 6 0.0009 0.0019 0.0044 -12.3102 0.0008 10.4241
#
#
#
# Elastic Compliance Matrix: (Units=1/GPa)
#
#
# Indices 1 2 3 4 5 6 
#
# 1 0.031860 -0.000170 0.003220 -0.000025 0.034524 -0.000036
# 2 -0.000170 0.007757 -0.001925 -0.000004 0.003435 -0.000005
# 3 0.003220 -0.001925 0.016853 -0.000038 0.016418 -0.000053
# 4 -0.000025 -0.000004 -0.000038 0.104621 -0.000077 0.123551
# 5 0.034524 0.003435 0.016418 -0.000077 0.100780 -0.000109
# 6 -0.000036 -0.000005 -0.000053 0.123551 -0.000109 0.241838
#
#
# Mechanical properties :
#
#
# Convention : Reuss Voigt Hill
#
# Bulk Modulus (GPa) = 17.03020 41.44517 29.23768
# Shear Modulus (GPa) = 9.59631 25.60670 17.60150
#
# Velocity S-wave (km/s) = 2.09987 3.43018 2.84390
# Velocity P-wave (km/s) = 3.70196 5.89339 4.92121
#
# Compressibility (1/GPa) = 0.05871923
#
# Stress axis : x y z
#
# Youngs Moduli (GPa) = 31.38717 128.91978 59.33522
#
# Poissons Ratio (x) = 0.02194 -0.19104
# Poissons Ratio (y) = 0.00534 0.11422
# Poissons Ratio (z) = -0.10105 0.24816
#
# Static dielectric constant tensor:
#      x y z
#    x 1.783000 0.000000 -0.015950 
#    y 0.000000 1.855940 0.000000 
#    z -0.015950 0.000000 1.780300 
# 
# From -- ./inp_files/28878.got.cif
#   From: 2010.05.17/outbox.cif.g08.bks.cpg/sg8_15_cif.got.tgz:28878.got - 2010.06.03 19:46:02.
