data_PCOD9133823
_publ_section_title
;
Structure prediction by ZEFSAII (Michael W. Deem and Ramdas Pophale) SiO2 
 PCOD9133823
Probable space group: C C
;
_chemical_formula_sum "Si O2"
_cell_formula_units_Z 32
_cell_length_a 9.201226
_cell_length_b 30.119850
_cell_length_c 5.463456
_cell_angle_alpha 90.000000
_cell_angle_beta 53.043785
_cell_angle_gamma 90.000000
_cell_volume 1209.941751
_symmetry_space_group_name_H-M "C C"
_symmetry_group_IT_number 9
_symmetry_cell_setting 'monoclinic'
loop_
_space_group_symop_operation_xyz
x,y,z
x,-y,1/2+z
1/2+x,1/2+y,z
1/2+x,1/2-y,1/2+z
loop_
_atom_site_type_symbol
_atom_site_label
_atom_site_fract_x
_atom_site_fract_y
_atom_site_fract_z
Si Si1 0.264280 0.854908 0.179810
Si Si2 0.716668 0.404631 0.735756
Si Si3 0.832640 0.171300 0.551000
Si Si4 0.017278 0.983920 0.725231
Si Si5 0.795654 0.737585 0.587910
Si Si6 0.698153 0.841165 0.684716
Si Si7 0.005873 0.742972 0.879159
Si Si8 0.932284 0.516154 0.174203
O O1 0.245603 0.873073 0.473350
O O2 0.173812 0.806145 0.239903
O O3 0.188469 0.883814 0.031825
O O4 0.484215 0.852002 0.914840
O O5 0.551950 0.435914 0.809803
O O6 0.896546 0.435069 0.600484
O O7 0.803732 0.145716 0.326195
O O8 0.009979 0.203141 0.393015
O O9 0.787659 0.143787 0.839075
O O10 0.674286 0.209541 0.704206
O O11 0.935700 0.987633 0.534381
O O12 0.225117 0.999823 0.448528
O O13 0.726078 0.787499 0.647450
O O14 0.895382 0.729873 0.231403
O O15 0.909307 0.734648 0.720621
O O16 0.013846 0.511980 0.364818
#
# Coordination Sequence:
#
# PCOD9133823 Si02
#       8
#     4   4   4   4   4   4   4   4
#     4  12  18  27  40  54  78  92 140 178 210 229
#     4  10  18  23  38  60  72  98 126 172 200 227
#     4  10  17  29  43  57  72  94 128 166 220 257
#     4   8  13  24  36  50  76 100 122 148 184 228
#     4  10  20  30  41  53  75 102 130 171 228 252
#     4  10  20  30  41  53  75 102 130 171 228 252
#     4  10  17  29  43  57  72  94 128 166 220 257
#     4   8  13  24  36  50  76 100 122 148 184 228
#
# _framework density 26.447554
#
# number of rings (size 3 to 8) (size 9 to 14) (size 15 to 20)
#    0.000    2.500    2.500    4.500    0.000    0.000 
#    0.000    0.000    0.000    0.000    0.000    0.000 
#    0.000    0.000    0.000    0.000    0.000    0.000 
#
# Total GULP energy -89270.667522 kJ/mol
# GULP energy per Si atom -5579.416720 kJ/mol
# Density = 2.638736 g / cm^3
# Si number density = 26.447554 Si / 1000 Ang^3
#
#
#
# Elastic Constant Matrix: (Units=GPa)
#
#
# Indices 1 2 3 4 5 6 
#
# 1 105.0791 23.0992 55.4568 0.0000 24.7078 0.0000
# 2 23.0992 62.0482 34.5136 0.0000 10.1325 0.0000
# 3 55.4568 34.5136 223.9199 0.0000 69.4017 0.0000
# 4 0.0000 0.0000 0.0000 34.9418 0.0000 30.4025
# 5 24.7078 10.1325 69.4017 0.0000 53.6986 0.0000
# 6 0.0000 0.0000 0.0000 30.4025 0.0000 -22.0855
#
#
#
# Elastic Compliance Matrix: (Units=1/GPa)
#
#
# Indices 1 2 3 4 5 6 
#
# 1 0.011657 -0.003018 -0.001561 0.000000 -0.002776 0.000000
# 2 -0.003018 0.018412 -0.002409 0.000000 0.001028 0.000000
# 3 -0.001561 -0.002409 0.008108 0.000000 -0.009306 0.000000
# 4 0.000000 0.000000 0.000000 0.013022 0.000000 0.017926
# 5 -0.002776 0.001028 -0.009306 0.000000 0.031734 0.000000
# 6 0.000000 0.000000 0.000000 0.017926 0.000000 -0.020602
#
#
# Mechanical properties :
#
#
# Convention : Reuss Voigt Hill
#
# Bulk Modulus (GPa) = 41.32109 68.57628 54.94869
# Shear Modulus (GPa) = 59.25967 31.84281 45.55124
#
# Velocity S-wave (km/s) = 4.73868 3.47363 4.15459
# Velocity P-wave (km/s) = 6.75262 6.48642 6.62086
#
# Compressibility (1/GPa) = 0.02420072
#
# Stress axis : x y z
#
# Youngs Moduli (GPa) = 85.78659 54.31203 123.32934
#
# Poissons Ratio (x) = 0.16390 0.19257
# Poissons Ratio (y) = 0.25888 0.29712
# Poissons Ratio (z) = 0.13395 0.13085
#
# Static dielectric constant tensor:
#      x y z
#    x 2.309810 0.000000 -0.014720 
#    y 0.000000 2.166560 0.000000 
#    z -0.014720 0.000000 2.167000 
# 
# From -- ./inp_files/2249.got.cif
#   From: 2010.05.17/outbox.cif.g08.bks.cpg/sg9_2_cif.got.tgz:2249.got - 2010.06.03 20:04:27.
