data_PCOD9133816
_publ_section_title
;
Structure prediction by ZEFSAII (Michael W. Deem and Ramdas Pophale) SiO2 
 PCOD9133816
Probable space group: C C
;
_chemical_formula_sum "Si O2"
_cell_formula_units_Z 32
_cell_length_a 11.555905
_cell_length_b 27.085675
_cell_length_c 5.376685
_cell_angle_alpha 90.000000
_cell_angle_beta 126.339502
_cell_angle_gamma 90.000000
_cell_volume 1355.609212
_symmetry_space_group_name_H-M "C C"
_symmetry_group_IT_number 9
_symmetry_cell_setting 'monoclinic'
loop_
_space_group_symop_operation_xyz
x,y,z
x,-y,1/2+z
1/2+x,1/2+y,z
1/2+x,1/2-y,1/2+z
loop_
_atom_site_type_symbol
_atom_site_label
_atom_site_fract_x
_atom_site_fract_y
_atom_site_fract_z
Si Si1 0.021930 0.974692 0.601560
Si Si2 0.137901 0.519036 0.324443
Si Si3 0.440584 0.101675 0.072763
Si Si4 0.995654 0.136745 0.188655
Si Si5 0.352048 0.049448 0.455157
Si Si6 0.055371 0.217114 0.910158
Si Si7 0.392360 0.268411 0.686282
Si Si8 0.259402 0.810659 0.292976
O O1 0.196970 0.972765 0.810732
O O2 0.972803 0.920776 0.633250
O O3 0.982807 0.986695 0.267692
O O4 0.208716 0.502987 0.158844
O O5 0.098089 0.576616 0.296778
O O6 0.982243 0.490100 0.107906
O O7 0.387951 0.083468 0.736302
O O8 0.404813 0.159093 0.023974
O O9 0.355975 0.079586 0.202748
O O10 0.864976 0.173016 0.105762
O O11 0.131356 0.151772 0.539431
O O12 0.035216 0.160004 0.970746
O O13 0.964640 0.231599 0.551133
O O14 0.210518 0.217922 0.977929
O O15 0.993722 0.243908 0.078332
O O16 0.274924 0.227204 0.584649
#
# Coordination Sequence:
#
# PCOD9133816 Si02
#       8
#     4   4   4   4   4   4   4   4
#     4  12  22  28  47  69 100 144 172 200 250 314
#     4   8  14  23  31  48  82 114 143 191 210 266
#     4  10  18  24  41  62  84 119 168 201 233 287
#     4   9  22  37  50  75 111 136 187 220 255 320
#     4  10  17  26  35  58  92 122 158 202 222 290
#     4   9  21  35  51  72 102 132 180 226 261 314
#     4   9  22  35  53  72 102 137 184 223 265 307
#     4  11  20  34  56  72  97 144 180 223 276 304
#
# _framework density 23.605622
#
# number of rings (size 3 to 8) (size 9 to 14) (size 15 to 20)
#    0.750    1.500    1.250    3.750    5.250    0.000 
#    0.000    0.000    0.000    0.000    0.000    0.000 
#    0.000    0.000    0.000   63.000    0.000    1.750 
#
# Total GULP energy -89092.064423 kJ/mol
# GULP energy per Si atom -5568.254026 kJ/mol
# Density = 2.355189 g / cm^3
# Si number density = 23.605622 Si / 1000 Ang^3
#
#
#
# Elastic Constant Matrix: (Units=GPa)
#
#
# Indices 1 2 3 4 5 6 
#
# 1 43.0424 13.3182 33.9561 0.0000 -28.1230 0.0000
# 2 13.3182 87.8947 15.1791 0.0000 -13.9814 0.0000
# 3 33.9561 15.1791 122.8670 0.0000 -42.2626 0.0000
# 4 0.0000 0.0000 0.0000 15.2977 0.0000 -12.2434
# 5 -28.1230 -13.9814 -42.2626 0.0000 50.2386 0.0000
# 6 0.0000 0.0000 0.0000 -12.2434 0.0000 15.6418
#
#
#
# Elastic Compliance Matrix: (Units=1/GPa)
#
#
# Indices 1 2 3 4 5 6 
#
# 1 0.038796 -0.002354 -0.004483 0.000000 0.017291 0.000000
# 2 -0.002354 0.012066 -0.000195 0.000000 0.001877 0.000000
# 3 -0.004483 -0.000195 0.011989 0.000000 0.007522 0.000000
# 4 0.000000 0.000000 0.000000 0.174998 0.000000 0.136976
# 5 0.017291 0.001877 0.007522 0.000000 0.036434 0.000000
# 6 0.000000 0.000000 0.000000 0.136976 0.000000 0.171147
#
#
# Mechanical properties :
#
#
# Convention : Reuss Voigt Hill
#
# Bulk Modulus (GPa) = 20.49726 42.07897 31.28811
# Shear Modulus (GPa) = 10.50960 28.99234 19.75097
#
# Velocity S-wave (km/s) = 2.11230 3.50837 2.89573
# Velocity P-wave (km/s) = 3.82768 5.85457 4.94607
#
# Compressibility (1/GPa) = 0.04878701
#
# Stress axis : x y z
#
# Youngs Moduli (GPa) = 25.77618 82.87727 83.40761
#
# Poissons Ratio (x) = 0.19508 0.37396
# Poissons Ratio (y) = 0.06067 0.01623
# Poissons Ratio (z) = 0.11557 0.01613
#
# Static dielectric constant tensor:
#      x y z
#    x 1.979660 0.000000 0.061220 
#    y 0.000000 1.958560 0.000000 
#    z 0.061220 0.000000 1.965590 
# 
# From -- ./inp_files/1990.got.cif
#   From: 2010.05.17/outbox.cif.g08.bks.cpg/sg9_1_cif.got.tgz:1990.got - 2010.06.03 20:04:27.
