data_PCOD9133228
_publ_section_title
;
Structure prediction by ZEFSAII (Michael W. Deem and Ramdas Pophale) SiO2 
 PCOD9133228
Probable space group: C M
;
_chemical_formula_sum "Si O2"
_cell_formula_units_Z 18
_cell_length_a 21.275949
_cell_length_b 8.022898
_cell_length_c 13.906031
_cell_angle_alpha 90.000000
_cell_angle_beta 160.872402
_cell_angle_gamma 90.000000
_cell_volume 777.793105
_symmetry_space_group_name_H-M "C M"
_symmetry_group_IT_number 8
_symmetry_cell_setting 'monoclinic'
loop_
_space_group_symop_operation_xyz
x,y,z
x,-y,z
1/2+x,1/2+y,z
1/2+x,1/2-y,z
loop_
_atom_site_type_symbol
_atom_site_label
_atom_site_fract_x
_atom_site_fract_y
_atom_site_fract_z
Si Si1 0.397750 0.188712 0.552020
Si Si2 0.167702 0.500000 0.471585
Si Si3 0.966480 0.697698 0.439594
Si Si4 0.073447 0.000000 0.129181
Si Si5 0.490281 0.500000 0.793389
Si Si6 0.905550 0.812515 0.140733
O O1 0.373338 0.247326 0.406882
O O2 0.519168 0.332732 0.776479
O O3 0.484042 0.000000 0.674365
O O4 0.205288 0.159997 0.339242
O O5 0.274139 0.500000 0.523395
O O6 0.043838 0.664876 0.306874
O O7 0.346139 0.500000 0.807474
O O8 0.930194 0.500000 0.369694
O O9 0.907189 0.796315 0.259018
O O10 0.194428 0.714341 0.791585
O O11 0.103023 0.000000 0.055312
O O12 0.470833 0.500000 0.207681
#
# Coordination Sequence:
#
# PCOD9133228 Si02
#       6
#     4   2   4   2   2   4
#     4   9  21  41  63  93 125 160 210 273 314 372
#     4  10  24  44  62  88 134 172 214 260 306 392
#     4  10  23  42  67  97 133 164 214 275 320 380
#     4   8  22  43  57  95 119 168 210 263 308 373
#     4  10  22  41  61  93 119 174 208 253 326 369
#     4  11  25  42  63 100 126 176 215 258 327 379
#
# _framework density 23.142401
#
# number of rings (size 3 to 8) (size 9 to 14) (size 15 to 20)
#    1.333    0.889    1.111    0.000    6.222    2.667 
#    4.000    0.000    0.000    0.000    0.000    0.000 
#    0.000    0.000    0.000    0.000    0.000    0.000 
#
# Total GULP energy -50170.698142 kJ/mol
# GULP energy per Si atom -5574.522016 kJ/mol
# Density = 2.308973 g / cm^3
# Si number density = 23.142401 Si / 1000 Ang^3
#
#
#
# Elastic Constant Matrix: (Units=GPa)
#
#
# Indices 1 2 3 4 5 6 
#
# 1 66.7458 24.9520 5.3176 0.0000 -1.9378 0.0000
# 2 24.9520 121.8045 38.9832 0.0000 0.7507 0.0000
# 3 5.3176 38.9832 89.6544 0.0000 9.3895 0.0000
# 4 0.0000 0.0000 0.0000 29.0050 0.0000 1.6339
# 5 -1.9378 0.7507 9.3895 0.0000 47.1046 0.0000
# 6 0.0000 0.0000 0.0000 1.6339 0.0000 37.6979
#
#
#
# Elastic Compliance Matrix: (Units=1/GPa)
#
#
# Indices 1 2 3 4 5 6 
#
# 1 0.016267 -0.003492 0.000488 0.000000 0.000628 0.000000
# 2 -0.003492 0.010309 -0.004334 0.000000 0.000556 0.000000
# 3 0.000488 -0.004334 0.013277 0.000000 -0.002557 0.000000
# 4 0.000000 0.000000 0.000000 0.034561 0.000000 -0.001498
# 5 0.000628 0.000556 -0.002557 0.000000 0.021756 0.000000
# 6 0.000000 0.000000 0.000000 -0.001498 0.000000 0.026592
#
#
# Mechanical properties :
#
#
# Convention : Reuss Voigt Hill
#
# Bulk Modulus (GPa) = 39.71843 46.30113 43.00978
# Shear Modulus (GPa) = 34.28643 36.69163 35.48903
#
# Velocity S-wave (km/s) = 3.85326 3.98612 3.92025
# Velocity P-wave (km/s) = 6.08249 6.42153 6.25430
#
# Compressibility (1/GPa) = 0.02517723
#
# Stress axis : x y z
#
# Youngs Moduli (GPa) = 61.47355 97.00438 75.31749
#
# Poissons Ratio (x) = 0.33878 -0.03676
# Poissons Ratio (y) = 0.21469 0.32639
# Poissons Ratio (z) = -0.03000 0.42037
#
# Static dielectric constant tensor:
#      x y z
#    x 1.911320 0.000000 0.035730 
#    y 0.000000 1.825000 0.000000 
#    z 0.035730 0.000000 1.889500 
# 
# From -- ./inp_files/15722.got.cif
#   From: 2010.05.17/outbox.cif.g08.bks.cpg/sg8_8_cif.got.tgz:15722.got - 2010.06.03 19:46:02.
