data_PCOD9133111
_publ_section_title
;
Structure prediction by ZEFSAII (Michael W. Deem and Ramdas Pophale) SiO2 
 PCOD9133111
Probable space group: C M
;
_chemical_formula_sum "Si O2"
_cell_formula_units_Z 20
_cell_length_a 8.924585
_cell_length_b 17.076060
_cell_length_c 11.152804
_cell_angle_alpha 90.000000
_cell_angle_beta 30.149714
_cell_angle_gamma 90.000000
_cell_volume 853.668815
_symmetry_space_group_name_H-M "C M"
_symmetry_group_IT_number 8
_symmetry_cell_setting 'monoclinic'
loop_
_space_group_symop_operation_xyz
x,y,z
x,-y,z
1/2+x,1/2+y,z
1/2+x,1/2-y,z
loop_
_atom_site_type_symbol
_atom_site_label
_atom_site_fract_x
_atom_site_fract_y
_atom_site_fract_z
Si Si1 0.279480 0.500000 0.642120
Si Si2 0.984553 0.500000 0.115035
Si Si3 0.351112 0.215168 0.702005
Si Si4 0.913864 0.916064 0.972578
Si Si5 0.977307 0.652775 0.859523
Si Si6 0.358764 0.592662 0.298998
O O1 0.631597 0.500000 0.379313
O O2 0.133012 0.578117 0.691069
O O3 0.156023 0.500000 0.867313
O O4 0.119002 0.426258 0.097534
O O5 0.339271 0.207387 0.853014
O O6 0.657094 0.170104 0.460572
O O7 0.113530 0.157121 0.804312
O O8 0.240057 0.300843 0.743476
O O9 0.075853 0.000000 0.837872
O O10 0.863543 0.911472 0.149554
O O11 0.686628 0.616302 0.124308
O O12 0.302824 0.500000 0.368117
#
# Coordination Sequence:
#
# PCOD9133111 Si02
#       6
#     2   2   4   4   4   4
#     4  12  28  49  70 109 150 207 238 318 370 462
#     4  10  26  41  78 103 152 181 264 292 374 434
#     4  11  25  42  72 101 148 187 250 310 373 438
#     4   8  20  40  67 106 133 192 235 300 361 452
#     4  11  28  44  69 106 144 192 251 304 382 437
#     4  10  21  43  73  98 143 195 244 298 373 456
#
# _framework density 23.428287999999998
#
# number of rings (size 3 to 8) (size 9 to 14) (size 15 to 20)
#    0.600    1.200    1.000    0.600   11.200    4.800 
#    0.000    0.000    0.000    0.000    0.000    0.000 
#    0.000    0.000    0.000    0.000    0.000    0.000 
#
# Total GULP energy -55675.906909 kJ/mol
# GULP energy per Si atom -5567.590691 kJ/mol
# Density = 2.337496 g / cm^3
# Si number density = 23.428288 Si / 1000 Ang^3
#
#
#
# Elastic Constant Matrix: (Units=GPa)
#
#
# Indices 1 2 3 4 5 6 
#
# 1 71.7611 26.7878 22.6310 -0.0140 -11.5729 -0.0090
# 2 26.7878 114.1925 37.1916 -0.0028 -5.9674 -0.0118
# 3 22.6310 37.1916 121.7688 -0.0161 -28.8684 -0.0263
# 4 -0.0140 -0.0028 -0.0161 26.8216 0.0138 -22.2945
# 5 -11.5729 -5.9674 -28.8684 0.0138 31.1519 0.0014
# 6 -0.0090 -0.0118 -0.0263 -22.2945 0.0014 52.6241
#
#
#
# Elastic Compliance Matrix: (Units=1/GPa)
#
#
# Indices 1 2 3 4 5 6 
#
# 1 0.016174 -0.003251 -0.000943 0.000010 0.004512 0.000006
# 2 -0.003251 0.010410 -0.003061 -0.000002 -0.002051 0.000000
# 3 -0.000943 -0.003061 0.011663 0.000008 0.009871 0.000008
# 4 0.000010 -0.000002 0.000008 0.057549 -0.000016 0.024381
# 5 0.004512 -0.002051 0.009871 -0.000016 0.042531 -0.000003
# 6 0.000006 0.000000 0.000008 0.024381 -0.000003 0.029332
#
#
# Mechanical properties :
#
#
# Convention : Reuss Voigt Hill
#
# Bulk Modulus (GPa) = 42.13249 53.43814 47.78532
# Shear Modulus (GPa) = 26.30439 36.86034 31.58237
#
# Velocity S-wave (km/s) = 3.35440 3.97082 3.67556
# Velocity P-wave (km/s) = 5.74676 6.62435 6.20110
#
# Compressibility (1/GPa) = 0.02373465
#
# Stress axis : x y z
#
# Youngs Moduli (GPa) = 61.82830 96.06423 85.74258
#
# Poissons Ratio (x) = 0.31232 0.08089
# Poissons Ratio (y) = 0.20101 0.26249
# Poissons Ratio (z) = 0.05833 0.29409
#
# Static dielectric constant tensor:
#      x y z
#    x 1.909190 -0.000010 0.030590 
#    y -0.000010 1.940920 0.000010 
#    z 0.030590 0.000010 1.978520 
# 
# From -- ./inp_files/19070.got.cif
#   From: 2010.05.17/outbox.cif.g08.bks.cpg/sg8_10_cif.got.tgz:19070.got - 2010.06.03 19:46:02.
