data_PCOD9133047
_publ_section_title
;
Structure prediction by ZEFSAII (Michael W. Deem and Ramdas Pophale) SiO2 
 PCOD9133047
Probable space group: C M
;
_chemical_formula_sum "Si O2"
_cell_formula_units_Z 26
_cell_length_a 19.074301
_cell_length_b 7.834698
_cell_length_c 13.744081
_cell_angle_alpha 90.000000
_cell_angle_beta 29.596484
_cell_angle_gamma 90.000000
_cell_volume 1014.414666
_symmetry_space_group_name_H-M "C M"
_symmetry_group_IT_number 8
_symmetry_cell_setting 'monoclinic'
loop_
_space_group_symop_operation_xyz
x,y,z
x,-y,z
1/2+x,1/2+y,z
1/2+x,1/2-y,z
loop_
_atom_site_type_symbol
_atom_site_label
_atom_site_fract_x
_atom_site_fract_y
_atom_site_fract_z
Si Si1 0.167020 0.808791 0.420500
Si Si2 0.598997 0.500000 0.847491
Si Si3 0.943185 0.811203 0.146538
Si Si4 0.758699 0.704745 0.985688
Si Si5 0.942330 0.304076 0.362029
Si Si6 0.532307 0.806252 0.777901
Si Si7 0.420597 0.204866 0.595314
O O1 0.337876 0.806267 0.214645
O O2 0.084563 0.745533 0.425996
O O3 0.120144 0.698863 0.570190
O O4 0.119410 0.000000 0.497054
O O5 0.584795 0.654662 0.783069
O O6 0.606901 0.343012 0.925500
O O7 0.915463 0.789094 0.292824
O O8 0.909743 0.000000 0.139842
O O9 0.729628 0.500000 0.015658
O O10 0.871147 0.727783 0.936747
O O11 0.836472 0.760452 0.792343
O O12 0.611690 0.802313 0.169766
O O13 0.888028 0.500000 0.418851
O O14 0.888574 0.224209 0.526969
O O15 0.544859 0.000000 0.801601
O O16 0.410076 0.000000 0.600000
#
# Coordination Sequence:
#
# PCOD9133047 Si02
#       7
#     4   2   4   4   4   4   4
#     4  11  21  38  66  96 130 164 211 265 321 383
#     4  10  24  42  66  90 130 170 212 270 324 384
#     4  10  24  42  58  85 128 166 210 269 313 382
#     4   9  20  38  62  91 128 160 207 267 314 379
#     4  11  23  40  63  87 125 171 214 264 321 385
#     4  10  21  40  67 100 128 164 214 269 324 379
#     4   9  21  40  63  91 122 168 212 258 320 377
#
# _framework density 25.630545999999999
#
# number of rings (size 3 to 8) (size 9 to 14) (size 15 to 20)
#    0.462    1.538    0.769    3.231    3.231    3.077 
#    2.769    0.000    0.000    0.000    0.000    0.000 
#    0.000    0.000    0.000    0.000    0.000    0.000 
#
# Total GULP energy -72395.944601 kJ/mol
# GULP energy per Si atom -5568.918815 kJ/mol
# Density = 2.557221 g / cm^3
# Si number density = 25.630546 Si / 1000 Ang^3
#
#
#
# Elastic Constant Matrix: (Units=GPa)
#
#
# Indices 1 2 3 4 5 6 
#
# 1 130.8485 30.0113 47.2463 0.0000 24.9195 0.0000
# 2 30.0113 104.6193 15.3989 -0.0001 6.7939 0.0001
# 3 47.2463 15.3989 66.2590 0.0000 3.6748 0.0000
# 4 0.0000 -0.0001 0.0000 25.9549 0.0000 4.6449
# 5 24.9195 6.7939 3.6748 0.0000 53.5549 0.0000
# 6 0.0000 0.0001 0.0000 4.6449 0.0000 36.9150
#
#
#
# Elastic Compliance Matrix: (Units=1/GPa)
#
#
# Indices 1 2 3 4 5 6 
#
# 1 0.011749 -0.001937 -0.007667 0.000000 -0.004695 0.000000
# 2 -0.001937 0.010282 -0.000990 0.000000 -0.000335 0.000000
# 3 -0.007667 -0.000990 0.020663 0.000000 0.002275 0.000000
# 4 0.000000 0.000000 0.000000 0.039416 0.000000 -0.004960
# 5 -0.004695 -0.000335 0.002275 0.000000 0.020744 0.000000
# 6 0.000000 0.000000 0.000000 -0.004960 0.000000 0.027713
#
#
# Mechanical properties :
#
#
# Convention : Reuss Voigt Hill
#
# Bulk Modulus (GPa) = 46.49838 54.11554 50.30696
# Shear Modulus (GPa) = 31.46156 37.22298 34.34227
#
# Velocity S-wave (km/s) = 3.50737 3.81503 3.66443
# Velocity P-wave (km/s) = 5.88077 6.36910 6.12980
#
# Compressibility (1/GPa) = 0.02150613
#
# Stress axis : x y z
#
# Youngs Moduli (GPa) = 85.11081 97.26164 48.39478
#
# Poissons Ratio (x) = 0.18839 0.37106
# Poissons Ratio (y) = 0.16486 0.04790
# Poissons Ratio (z) = 0.65258 0.09626
#
# Static dielectric constant tensor:
#      x y z
#    x 2.058980 0.000000 -0.172000 
#    y 0.000000 1.907780 0.000000 
#    z -0.172000 0.000000 2.525660 
# 
# From -- ./inp_files/21268.got.cif
#   From: 2010.05.17/outbox.cif.g08.bks.cpg/sg8_11_cif.got.tgz:21268.got - 2010.06.03 19:46:02.
