data_PCOD9133044
_publ_section_title
;
Structure prediction by ZEFSAII (Michael W. Deem and Ramdas Pophale) SiO2 
 PCOD9133044
Probable space group: C M
;
_chemical_formula_sum "Si O2"
_cell_formula_units_Z 32
_cell_length_a 11.078452
_cell_length_b 17.452865
_cell_length_c 12.136185
_cell_angle_alpha 90.000000
_cell_angle_beta 142.408509
_cell_angle_gamma 90.000000
_cell_volume 1431.454035
_symmetry_space_group_name_H-M "C M"
_symmetry_group_IT_number 8
_symmetry_cell_setting 'monoclinic'
loop_
_space_group_symop_operation_xyz
x,y,z
x,-y,z
1/2+x,1/2+y,z
1/2+x,1/2-y,z
loop_
_atom_site_type_symbol
_atom_site_label
_atom_site_fract_x
_atom_site_fract_y
_atom_site_fract_z
Si Si1 0.893420 0.362133 0.142100
Si Si2 0.761893 0.088524 0.543990
Si Si3 0.465034 0.819583 0.946622
Si Si4 0.890440 0.194433 0.249951
Si Si5 0.632672 0.867345 0.695184
Si Si6 0.037354 0.195524 0.597518
Si Si7 0.549841 0.362247 0.037779
Si Si8 0.706170 0.585715 0.376906
O O1 0.912291 0.275585 0.204616
O O2 0.067643 0.408712 0.325850
O O3 0.920461 0.357577 0.031921
O O4 0.674974 0.388146 0.022232
O O5 0.697163 0.126297 0.613047
O O6 0.927783 0.138752 0.601956
O O7 0.819196 0.000000 0.602634
O O8 0.263167 0.829931 0.732828
O O9 0.505082 0.728392 0.993728
O O10 0.682116 0.843747 0.063547
O O11 0.904343 0.204437 0.392045
O O12 0.072377 0.141503 0.350628
O O13 0.571580 0.779342 0.674999
O O14 0.435297 0.913437 0.573583
O O15 0.831639 0.895176 0.897982
O O16 0.687511 0.382202 0.239462
O O17 0.628621 0.500000 0.325235
#
# Coordination Sequence:
#
# PCOD9133044 Si02
#       8
#     4   4   4   4   4   4   4   4
#     4  11  19  40  67  91 125 161 207 265 315 375
#     4  12  24  40  66  99 131 168 211 268 329 378
#     4  10  21  40  66  97 119 157 214 266 311 371
#     4  11  22  40  63  92 124 166 216 256 306 380
#     4  11  23  42  67  95 124 167 215 261 316 383
#     4  11  23  41  70  94 125 167 214 263 316 378
#     4  10  22  38  65  95 122 157 213 263 311 374
#     4  12  25  41  60  89 129 171 208 256 317 377
#
# _framework density 22.354890999999999
#
# number of rings (size 3 to 8) (size 9 to 14) (size 15 to 20)
#    0.000    1.000    5.000    2.625    0.000    2.500 
#    0.000    2.500    0.000    0.000    0.000    0.000 
#    0.000    0.000    0.000    0.000    0.000    0.000 
#
# Total GULP energy -89433.787533 kJ/mol
# GULP energy per Si atom -5589.611721 kJ/mol
# Density = 2.230401 g / cm^3
# Si number density = 22.354891 Si / 1000 Ang^3
#
#
#
# Elastic Constant Matrix: (Units=GPa)
#
#
# Indices 1 2 3 4 5 6 
#
# 1 41.2012 30.2456 12.2375 0.0000 13.7224 0.0000
# 2 30.2456 80.5469 15.9388 0.0000 23.4662 0.0000
# 3 12.2375 15.9388 107.1504 0.0000 38.3518 0.0000
# 4 0.0000 0.0000 0.0000 -0.1947 0.0000 -9.7606
# 5 13.7224 23.4662 38.3518 0.0000 32.7849 0.0000
# 6 0.0000 0.0000 0.0000 -9.7606 0.0000 -23.3203
#
#
#
# Elastic Compliance Matrix: (Units=1/GPa)
#
#
# Indices 1 2 3 4 5 6 
#
# 1 0.034585 -0.011067 0.000073 0.000000 -0.006640 0.000000
# 2 -0.011067 0.019769 0.002976 0.000000 -0.012999 0.000000
# 3 0.000073 0.002976 0.016609 0.000000 -0.021590 0.000000
# 4 0.000000 0.000000 0.000000 0.257033 0.000000 -0.107580
# 5 -0.006640 -0.012999 -0.021590 0.000000 0.067842 0.000000
# 6 0.000000 0.000000 0.000000 -0.107580 0.000000 0.002146
#
#
# Mechanical properties :
#
#
# Convention : Reuss Voigt Hill
#
# Bulk Modulus (GPa) = 18.20586 38.41584 28.31085
# Shear Modulus (GPa) = 11.56526 13.21907 12.39216
#
# Velocity S-wave (km/s) = 2.27700 2.43436 2.35699
# Velocity P-wave (km/s) = 3.88261 5.01232 4.48319
#
# Compressibility (1/GPa) = 0.05492738
#
# Stress axis : x y z
#
# Youngs Moduli (GPa) = 28.91425 50.58450 60.20709
#
# Poissons Ratio (x) = 0.55981 -0.00439
# Poissons Ratio (y) = 0.31999 -0.17917
# Poissons Ratio (z) = -0.00211 -0.15054
#
# Static dielectric constant tensor:
#      x y z
#    x 1.819910 0.000000 0.017530 
#    y 0.000000 1.811120 0.000000 
#    z 0.017530 0.000000 1.887290 
# 
# From -- ./inp_files/26253.got.cif
#   From: 2010.05.17/outbox.cif.g08.bks.cpg/sg8_14_cif.got.tgz:26253.got - 2010.06.03 19:46:02.
