data_PCOD9133995
_publ_section_title
;
Structure prediction by ZEFSAII (Michael W. Deem and Ramdas Pophale) SiO2 
 PCOD9133995
Probable space group: C C
;
_chemical_formula_sum "Si O2"
_cell_formula_units_Z 32
_cell_length_a 21.314723
_cell_length_b 7.866436
_cell_length_c 13.868565
_cell_angle_alpha 90.000000
_cell_angle_beta 144.835691
_cell_angle_gamma 90.000000
_cell_volume 1339.225761
_symmetry_space_group_name_H-M "C C"
_symmetry_group_IT_number 9
_symmetry_cell_setting 'monoclinic'
loop_
_space_group_symop_operation_xyz
x,y,z
x,-y,1/2+z
1/2+x,1/2+y,z
1/2+x,1/2-y,1/2+z
loop_
_atom_site_type_symbol
_atom_site_label
_atom_site_fract_x
_atom_site_fract_y
_atom_site_fract_z
Si Si1 0.916190 0.374071 0.164840
Si Si2 0.197036 0.035594 0.849831
Si Si3 0.267250 0.079727 0.730715
Si Si4 0.935648 0.276305 0.968298
Si Si5 0.575626 0.009897 0.527029
Si Si6 0.164021 0.610964 0.329013
Si Si7 0.818017 0.065696 0.352347
Si Si8 0.708168 0.772349 0.472798
O O1 0.837160 0.228001 0.108667
O O2 0.003233 0.424807 0.354027
O O3 0.825943 0.522843 0.037800
O O4 0.951811 0.328732 0.101506
O O5 0.191486 0.065899 0.729273
O O6 0.150518 0.197390 0.846638
O O7 0.156457 0.849071 0.825461
O O8 0.342428 0.246031 0.845669
O O9 0.200261 0.150260 0.555544
O O10 0.336613 0.906948 0.811008
O O11 0.902163 0.080018 0.934167
O O12 0.025198 0.312116 0.998456
O O13 0.577237 0.917672 0.634191
O O14 0.703179 0.001236 0.662067
O O15 0.278282 0.589307 0.413176
O O16 0.164740 0.460768 0.406087
#
# Coordination Sequence:
#
# PCOD9133995 Si02
#       8
#     4   4   4   4   4   4   4   4
#     4   9  18  34  59  85 117 156 202 241 301 361
#     4   8  18  35  57  80 121 155 199 246 303 364
#     4  10  19  34  62  87 112 164 203 246 306 362
#     4  11  19  40  64  82 124 169 191 251 320 360
#     4  10  21  37  61  93 120 154 205 258 301 355
#     4   9  18  37  56  81 121 154 194 257 293 352
#     4   9  21  38  58  87 121 156 207 249 297 368
#     4  10  18  33  61  87 112 168 203 232 317 366
#
# _framework density 23.894404000000002
#
# number of rings (size 3 to 8) (size 9 to 14) (size 15 to 20)
#    1.500    1.000    2.500    0.000    0.000    3.000 
#    0.000    2.500    5.500    1.500    0.000    0.000 
#    0.000    0.000    0.000    0.000    0.000    0.000 
#
# Total GULP energy -89078.929354 kJ/mol
# GULP energy per Si atom -5567.433085 kJ/mol
# Density = 2.384002 g / cm^3
# Si number density = 23.894404 Si / 1000 Ang^3
#
#
#
# Elastic Constant Matrix: (Units=GPa)
#
#
# Indices 1 2 3 4 5 6 
#
# 1 42.4882 4.6292 20.6372 0.0000 -7.6988 0.0000
# 2 4.6292 86.4134 -13.8430 0.0000 -7.4670 0.0000
# 3 20.6372 -13.8430 78.2470 0.0000 -19.7860 0.0000
# 4 0.0000 0.0000 0.0000 22.9329 0.0000 4.4853
# 5 -7.6988 -7.4670 -19.7860 0.0000 35.3314 0.0000
# 6 0.0000 0.0000 0.0000 4.4853 0.0000 24.6796
#
#
#
# Elastic Compliance Matrix: (Units=1/GPa)
#
#
# Indices 1 2 3 4 5 6 
#
# 1 0.027654 -0.002552 -0.007407 0.000000 0.001339 0.000000
# 2 -0.002552 0.012736 0.004038 0.000000 0.004397 0.000000
# 3 -0.007407 0.004038 0.017772 0.000000 0.009192 0.000000
# 4 0.000000 0.000000 0.000000 0.045213 0.000000 -0.008217
# 5 0.001339 0.004397 0.009192 0.000000 0.034672 0.000000
# 6 0.000000 0.000000 0.000000 -0.008217 0.000000 0.042013
#
#
# Mechanical properties :
#
#
# Convention : Reuss Voigt Hill
#
# Bulk Modulus (GPa) = 21.58867 25.55505 23.57186
# Shear Modulus (GPa) = 24.11481 29.63712 26.87597
#
# Velocity S-wave (km/s) = 3.18028 3.52566 3.35741
# Velocity P-wave (km/s) = 4.74765 5.22417 4.99160
#
# Compressibility (1/GPa) = 0.04632060
#
# Stress axis : x y z
#
# Youngs Moduli (GPa) = 36.16101 78.51878 56.26742
#
# Poissons Ratio (x) = 0.20040 0.41675
# Poissons Ratio (y) = 0.09229 -0.22721
# Poissons Ratio (z) = 0.26783 -0.31707
#
# Static dielectric constant tensor:
#      x y z
#    x 1.984030 0.000000 0.008560 
#    y 0.000000 1.930540 0.000000 
#    z 0.008560 0.000000 1.982790 
# 
# From -- ./inp_files/27947.got.cif
#   From: 2010.05.17/outbox.cif.g08.bks.cpg/sg9_14_cif.got.tgz:27947.got - 2010.06.03 20:04:27.
