data_PCOD9133620
_publ_section_title
;
Structure prediction by ZEFSAII (Michael W. Deem and Ramdas Pophale) SiO2 
 PCOD9133620
Probable space group: C M
;
_chemical_formula_sum "Si O2"
_cell_formula_units_Z 24
_cell_length_a 8.644893
_cell_length_b 14.275066
_cell_length_c 8.273440
_cell_angle_alpha 90.000000
_cell_angle_beta 88.266498
_cell_angle_gamma 90.000000
_cell_volume 1020.528330
_symmetry_space_group_name_H-M "C M"
_symmetry_group_IT_number 8
_symmetry_cell_setting 'monoclinic'
loop_
_space_group_symop_operation_xyz
x,y,z
x,-y,z
1/2+x,1/2+y,z
1/2+x,1/2-y,z
loop_
_atom_site_type_symbol
_atom_site_label
_atom_site_fract_x
_atom_site_fract_y
_atom_site_fract_z
Si Si1 0.844150 0.809145 0.170830
Si Si2 0.816741 0.000000 0.135621
Si Si3 0.282379 0.500000 0.522806
Si Si4 0.122184 0.182927 0.392363
Si Si5 0.156474 0.000000 0.953679
Si Si6 0.147337 0.000000 0.566261
Si Si7 0.833432 0.318579 0.893810
Si Si8 0.619808 0.817898 0.679869
O O1 0.757407 0.897263 0.091786
O O2 0.735483 0.745720 0.283085
O O3 0.980284 0.846126 0.282243
O O4 0.910445 0.746614 0.026663
O O5 0.773818 0.000000 0.328748
O O6 0.988740 0.000000 0.044966
O O7 0.462669 0.500000 0.555475
O O8 0.210299 0.405832 0.601518
O O9 0.063167 0.249254 0.538255
O O10 0.201522 0.092984 0.471843
O O11 0.165493 0.000000 0.757289
O O12 0.242994 0.902450 0.985971
O O13 0.723135 0.250496 0.790538
O O14 0.970289 0.355442 0.777635
#
# Coordination Sequence:
#
# PCOD9133620 Si02
#       8
#     4   2   2   4   2   2   4   4
#     4  12  26  45  71 104 145 188 237 299 364 437
#     4  12  24  46  67 105 138 193 235 296 365 432
#     4  12  25  46  72 105 146 189 246 302 362 438
#     4  12  23  45  70 106 137 188 241 295 362 432
#     4  12  27  46  74 107 147 191 249 298 370 429
#     4  12  24  44  75 105 137 191 242 306 353 437
#     4  12  27  47  73 110 149 194 239 307 362 439
#     4  12  25  46  73 108 145 190 249 294 367 428
#
# _framework density 23.517232
#
# number of rings (size 3 to 8) (size 9 to 14) (size 15 to 20)
#    0.000    0.000    5.000    5.500    2.333    0.000 
#    0.000    4.167    0.000    0.000    0.000    0.000 
#    0.000    0.000    0.000    0.000    0.000    0.000 
#
# Total GULP energy -67115.923116 kJ/mol
# GULP energy per Si atom -5592.993593 kJ/mol
# Density = 2.346371 g / cm^3
# Si number density = 23.517232 Si / 1000 Ang^3
#
#
#
# Elastic Constant Matrix: (Units=GPa)
#
#
# Indices 1 2 3 4 5 6 
#
# 1 39.2626 8.1488 20.0063 0.0000 -19.1530 0.0000
# 2 8.1488 162.6007 38.9196 0.0000 -18.0995 0.0000
# 3 20.0063 38.9196 87.0523 0.0000 -16.6493 0.0000
# 4 0.0000 0.0000 0.0000 52.6127 0.0000 -12.2843
# 5 -19.1530 -18.0995 -16.6493 0.0000 48.0913 0.0000
# 6 0.0000 0.0000 0.0000 -12.2843 0.0000 34.8591
#
#
#
# Elastic Compliance Matrix: (Units=1/GPa)
#
#
# Indices 1 2 3 4 5 6 
#
# 1 0.034134 0.001060 -0.006043 0.000000 0.011902 0.000000
# 2 0.001060 0.007042 -0.003003 0.000000 0.002033 0.000000
# 3 -0.006043 -0.003003 0.014503 0.000000 0.001484 0.000000
# 4 0.000000 0.000000 0.000000 0.020711 0.000000 0.007298
# 5 0.011902 0.002033 0.001484 0.000000 0.026813 0.000000
# 6 0.000000 0.000000 0.000000 0.007298 0.000000 0.031259
#
#
# Mechanical properties :
#
#
# Convention : Reuss Voigt Hill
#
# Bulk Modulus (GPa) = 25.18380 47.00722 36.09551
# Shear Modulus (GPa) = 30.54964 41.90200 36.22582
#
# Velocity S-wave (km/s) = 3.60812 4.22567 3.92904
# Velocity P-wave (km/s) = 5.29999 6.62119 5.99709
#
# Compressibility (1/GPa) = 0.03970806
#
# Stress axis : x y z
#
# Youngs Moduli (GPa) = 29.29614 142.00441 68.95317
#
# Poissons Ratio (x) = -0.15059 0.41665
# Poissons Ratio (y) = -0.03107 0.20709
# Poissons Ratio (z) = 0.17702 0.42648
#
# Static dielectric constant tensor:
#      x y z
#    x 1.866950 0.000000 0.039720 
#    y 0.000000 1.907850 0.000000 
#    z 0.039720 0.000000 1.877320 
# 
# From -- ./inp_files/7872.got.cif
#   From: 2010.05.17/outbox.cif.g08.bks.cpg/sg8_4_cif.got.tgz:7872.got - 2010.06.03 19:46:02.
