data_PCOD9133583
_publ_section_title
;
Structure prediction by ZEFSAII (Michael W. Deem and Ramdas Pophale) SiO2 
 PCOD9133583
Probable space group: C M
;
_chemical_formula_sum "Si O2"
_cell_formula_units_Z 20
_cell_length_a 10.603307
_cell_length_b 13.340192
_cell_length_c 10.559650
_cell_angle_alpha 90.000000
_cell_angle_beta 36.202955
_cell_angle_gamma 90.000000
_cell_volume 882.228640
_symmetry_space_group_name_H-M "C M"
_symmetry_group_IT_number 8
_symmetry_cell_setting 'monoclinic'
loop_
_space_group_symop_operation_xyz
x,y,z
x,-y,z
1/2+x,1/2+y,z
1/2+x,1/2-y,z
loop_
_atom_site_type_symbol
_atom_site_label
_atom_site_fract_x
_atom_site_fract_y
_atom_site_fract_z
Si Si1 0.189550 0.336043 0.821200
Si Si2 0.490999 0.781233 0.429606
Si Si3 0.933171 0.207983 0.205086
Si Si4 0.602339 0.500000 0.966021
Si Si5 0.554009 0.500000 0.501773
Si Si6 0.354566 0.000000 0.013581
Si Si7 0.356560 0.000000 0.496757
O O1 0.268197 0.239649 0.680777
O O2 0.396587 0.406354 0.652740
O O3 0.099846 0.291622 0.022699
O O4 0.000548 0.402219 0.916793
O O5 0.696322 0.761452 0.351196
O O6 0.471197 0.709122 0.324011
O O7 0.491301 0.897911 0.392921
O O8 0.976736 0.101285 0.104343
O O9 0.698093 0.500000 0.747340
O O10 0.786657 0.500000 0.923327
O O11 0.667658 0.500000 0.271789
O O12 0.731352 0.500000 0.466183
#
# Coordination Sequence:
#
# PCOD9133583 Si02
#       7
#     4   4   4   2   2   2   2
#     4  11  24  45  74 100 142 191 238 289 348 442
#     4  12  27  46  73 104 144 190 240 292 361 429
#     4  12  27  46  73 104 144 190 240 292 361 429
#     4  12  26  45  71 107 147 180 235 306 360 407
#     4  11  25  47  72 104 143 194 240 286 359 442
#     4  11  25  47  72 104 143 194 240 286 359 442
#     4  12  26  45  71 107 147 180 235 306 360 407
#
# _framework density 22.66986
#
# number of rings (size 3 to 8) (size 9 to 14) (size 15 to 20)
#    0.000    0.400    2.000    6.600    5.600    4.800 
#    0.000    0.000    0.000    0.000    0.000    0.000 
#    0.000    0.000    0.000    0.000    0.000    0.000 
#
# Total GULP energy -55920.890126 kJ/mol
# GULP energy per Si atom -5592.089013 kJ/mol
# Density = 2.261826 g / cm^3
# Si number density = 22.669860 Si / 1000 Ang^3
#
#
#
# Elastic Constant Matrix: (Units=GPa)
#
#
# Indices 1 2 3 4 5 6 
#
# 1 85.8648 9.4730 17.4617 -0.0013 -1.3886 0.0013
# 2 9.4730 110.9970 25.3569 -0.0014 -15.8226 0.0025
# 3 17.4617 25.3569 73.0537 -0.0038 -8.1044 0.0066
# 4 -0.0013 -0.0014 -0.0038 81.0590 0.0014 -59.6627
# 5 -1.3886 -15.8226 -8.1044 0.0014 30.7158 -0.0012
# 6 0.0013 0.0025 0.0066 -59.6627 -0.0012 136.7357
#
#
#
# Elastic Compliance Matrix: (Units=1/GPa)
#
#
# Indices 1 2 3 4 5 6 
#
# 1 0.012264 -0.000464 -0.002818 0.000000 -0.000428 0.000000
# 2 -0.000464 0.010378 -0.002988 0.000000 0.004537 0.000000
# 3 -0.002818 -0.002988 0.015673 0.000000 0.002469 -0.000001
# 4 0.000000 0.000000 0.000000 0.018173 0.000000 0.007930
# 5 -0.000428 0.004537 0.002469 0.000000 0.035526 0.000000
# 6 0.000000 0.000000 -0.000001 0.007930 0.000000 0.010773
#
#
# Mechanical properties :
#
#
# Convention : Reuss Voigt Hill
#
# Bulk Modulus (GPa) = 38.79688 41.61098 40.20393
# Shear Modulus (GPa) = 40.34920 64.21036 52.27978
#
# Velocity S-wave (km/s) = 4.22342 5.32781 4.80743
# Velocity P-wave (km/s) = 6.39797 7.49950 6.97053
#
# Compressibility (1/GPa) = 0.02577527
#
# Stress axis : x y z
#
# Youngs Moduli (GPa) = 81.54271 96.35608 63.80357
#
# Poissons Ratio (x) = 0.04470 0.17978
# Poissons Ratio (y) = 0.03783 0.19065
# Poissons Ratio (z) = 0.22977 0.28792
#
# Static dielectric constant tensor:
#      x y z
#    x 1.804080 0.000000 0.008390 
#    y 0.000000 1.844430 0.000000 
#    z 0.008390 0.000000 1.807340 
# 
# From -- ./inp_files/2424.got.cif
#   From: 2010.05.17/outbox.cif.g08.bks.cpg/sg8_2_cif.got.tgz:2424.got - 2010.06.03 19:46:02.
