data_PCOD9133486
_publ_section_title
;
Structure prediction by ZEFSAII (Michael W. Deem and Ramdas Pophale) SiO2 
 PCOD9133486
Probable space group: C M
;
_chemical_formula_sum "Si O2"
_cell_formula_units_Z 32
_cell_length_a 14.797180
_cell_length_b 17.001755
_cell_length_c 13.038839
_cell_angle_alpha 90.000000
_cell_angle_beta 154.241134
_cell_angle_gamma 90.000000
_cell_volume 1425.561614
_symmetry_space_group_name_H-M "C M"
_symmetry_group_IT_number 8
_symmetry_cell_setting 'monoclinic'
loop_
_space_group_symop_operation_xyz
x,y,z
x,-y,z
1/2+x,1/2+y,z
1/2+x,1/2-y,z
loop_
_atom_site_type_symbol
_atom_site_label
_atom_site_fract_x
_atom_site_fract_y
_atom_site_fract_z
Si Si1 0.998700 0.735154 0.368620
Si Si2 0.978954 0.131227 0.046707
Si Si3 0.270265 0.870689 0.726465
Si Si4 0.321123 0.084208 0.558897
Si Si5 0.801635 0.911089 0.646119
Si Si6 0.035129 0.864240 0.682229
Si Si7 0.695734 0.805928 0.903232
Si Si8 0.669766 0.787206 0.184710
O O1 0.800685 0.730489 0.241927
O O2 0.166066 0.785217 0.602832
O O3 0.118949 0.656330 0.456061
O O4 0.896495 0.794215 0.181034
O O5 0.155003 0.091493 0.296846
O O6 0.037776 0.223463 0.109739
O O7 0.934150 0.102447 0.886076
O O8 0.759140 0.133136 0.879839
O O9 0.223231 0.915191 0.573096
O O10 0.176847 0.903360 0.737754
O O11 0.514174 0.851947 0.981127
O O12 0.479691 0.157491 0.721820
O O13 0.431124 0.000000 0.659942
O O14 0.956447 0.903721 0.706593
O O15 0.715206 0.000000 0.559113
O O16 0.149861 0.783771 0.828639
O O17 0.827828 0.835606 0.413972
#
# Coordination Sequence:
#
# PCOD9133486 Si02
#       8
#     4   4   4   4   4   4   4   4
#     4  11  22  41  74 101 134 182 238 291 339 403
#     4  12  23  44  70 102 140 182 226 283 348 419
#     4  11  22  44  73 103 130 176 243 292 342 403
#     4  12  27  44  67 105 146 179 221 285 364 425
#     4  12  27  46  66 104 155 189 227 284 352 433
#     4  11  24  42  73 102 132 183 242 289 335 402
#     4  12  22  42  73 104 135 179 237 294 337 411
#     4  11  20  41  74 103 129 174 240 298 332 398
#
# _framework density 22.447292000000001
#
# number of rings (size 3 to 8) (size 9 to 14) (size 15 to 20)
#    0.000    0.500    6.250    3.375    0.000    1.500 
#    0.000    3.125    0.000    0.000    0.000    0.000 
#    0.000    0.000    0.000    0.000    0.000    0.000 
#
# Total GULP energy -89201.913039 kJ/mol
# GULP energy per Si atom -5575.119565 kJ/mol
# Density = 2.239620 g / cm^3
# Si number density = 22.447292 Si / 1000 Ang^3
#
#
#
# Elastic Constant Matrix: (Units=GPa)
#
#
# Indices 1 2 3 4 5 6 
#
# 1 142.1755 24.9238 39.8491 0.0000 -14.7830 0.0000
# 2 24.9238 90.3094 17.7175 0.0000 -0.1700 0.0000
# 3 39.8491 17.7175 89.1655 0.0000 -6.4104 0.0001
# 4 0.0000 0.0000 0.0000 6.1564 0.0000 5.7593
# 5 -14.7830 -0.1700 -6.4104 0.0000 28.6714 0.0000
# 6 0.0000 0.0000 0.0001 5.7593 0.0000 -13.1133
#
#
#
# Elastic Compliance Matrix: (Units=1/GPa)
#
#
# Indices 1 2 3 4 5 6 
#
# 1 0.008635 -0.001739 -0.003246 0.000000 0.003716 0.000000
# 2 -0.001739 0.011878 -0.001669 0.000000 -0.001199 0.000000
# 3 -0.003246 -0.001669 0.013087 0.000000 0.001242 0.000000
# 4 0.000000 0.000000 0.000000 0.115129 0.000000 0.050564
# 5 0.003716 -0.001199 0.001242 0.000000 0.037065 0.000000
# 6 0.000000 0.000000 0.000000 0.050564 0.000000 -0.054051
#
#
# Mechanical properties :
#
#
# Convention : Reuss Voigt Hill
#
# Bulk Modulus (GPa) = 49.28391 54.07011 51.67701
# Shear Modulus (GPa) = 32.93475 20.28690 26.61082
#
# Velocity S-wave (km/s) = 3.83456 3.00952 3.44682
# Velocity P-wave (km/s) = 6.45044 6.01798 6.23796
#
# Compressibility (1/GPa) = 0.02029060
#
# Stress axis : x y z
#
# Youngs Moduli (GPa) = 115.81233 84.18749 76.41246
#
# Poissons Ratio (x) = 0.14642 0.24805
# Poissons Ratio (y) = 0.20142 0.12755
# Poissons Ratio (z) = 0.37595 0.14053
#
# Static dielectric constant tensor:
#      x y z
#    x 2.000300 0.000000 -0.046550 
#    y 0.000000 1.797700 0.000000 
#    z -0.046550 0.000000 1.839410 
# 
# From -- ./inp_files/22417.got.cif
#   From: 2010.05.17/outbox.cif.g08.bks.cpg/sg8_12_cif.got.tgz:22417.got - 2010.06.03 19:46:02.
