data_PCOD9133974
_publ_section_title
;
Structure prediction by ZEFSAII (Michael W. Deem and Ramdas Pophale) SiO2 
 PCOD9133974
Probable space group: C C
;
_chemical_formula_sum "Si O2"
_cell_formula_units_Z 24
_cell_length_a 5.311280
_cell_length_b 23.981684
_cell_length_c 7.576344
_cell_angle_alpha 90.000000
_cell_angle_beta 116.102292
_cell_angle_gamma 90.000000
_cell_volume 866.602066
_symmetry_space_group_name_H-M "C C"
_symmetry_group_IT_number 9
_symmetry_cell_setting 'monoclinic'
loop_
_space_group_symop_operation_xyz
x,y,z
x,-y,1/2+z
1/2+x,1/2+y,z
1/2+x,1/2-y,1/2+z
loop_
_atom_site_type_symbol
_atom_site_label
_atom_site_fract_x
_atom_site_fract_y
_atom_site_fract_z
Si Si1 0.563410 0.165608 0.070350
Si Si2 0.285732 0.322498 0.043784
Si Si3 0.852177 0.056614 0.659846
Si Si4 0.609467 0.376664 0.655940
Si Si5 0.735122 0.474384 0.951373
Si Si6 0.253833 0.217641 0.496566
O O1 0.680751 0.175528 0.307825
O O2 0.259735 0.142412 0.023799
O O3 0.773495 0.121184 0.047965
O O4 0.614863 0.221782 0.975534
O O5 0.242009 0.380545 0.127322
O O6 0.613703 0.310434 0.125488
O O7 0.089128 0.277824 0.080235
O O8 0.565409 0.020873 0.591365
O O9 0.032976 0.053401 0.534649
O O10 0.076717 0.031755 0.863236
O O11 0.721143 0.433483 0.776712
O O12 0.679784 0.326429 0.818287
#
# Coordination Sequence:
#
# PCOD9133974 Si02
#       6
#     4   4   4   4   4   4
#     4  10  18  32  61  86 119 167 217 257 336 400
#     4  10  19  37  58  89 129 167 214 276 341 395
#     4  12  23  43  72 101 137 187 231 287 352 412
#     4  10  19  37  58  89 129 167 214 276 341 395
#     4  12  23  43  72 101 137 187 231 287 352 412
#     4  10  18  32  61  86 119 167 217 257 336 400
#
# _framework density 27.694374
#
# number of rings (size 3 to 8) (size 9 to 14) (size 15 to 20)
#    0.000    1.333    6.667    2.000    0.000    0.000 
#    0.000    0.000   29.333    0.000    0.000    0.000 
#    0.000    0.000    0.000    0.000    0.000    0.000 
#
# Total GULP energy -67132.646261 kJ/mol
# GULP energy per Si atom -5594.387188 kJ/mol
# Density = 2.763134 g / cm^3
# Si number density = 27.694374 Si / 1000 Ang^3
#
#
#
# Elastic Constant Matrix: (Units=GPa)
#
#
# Indices 1 2 3 4 5 6 
#
# 1 269.4139 24.0555 26.2212 0.0000 -7.0153 0.0000
# 2 24.0555 101.2782 20.2881 0.0000 20.9033 0.0000
# 3 26.2212 20.2881 106.9542 0.0000 -4.4576 0.0000
# 4 0.0000 0.0000 0.0000 24.6689 0.0000 5.3314
# 5 -7.0153 20.9033 -4.4576 0.0000 21.9815 0.0000
# 6 0.0000 0.0000 0.0000 5.3314 0.0000 46.4340
#
#
#
# Elastic Compliance Matrix: (Units=1/GPa)
#
#
# Indices 1 2 3 4 5 6 
#
# 1 0.003951 -0.001304 -0.000622 0.000000 0.002374 0.000000
# 2 -0.001304 0.013635 -0.002849 0.000000 -0.013960 0.000000
# 3 -0.000622 -0.002849 0.010234 0.000000 0.004586 0.000000
# 4 0.000000 0.000000 0.000000 0.041568 0.000000 -0.004773
# 5 0.002374 -0.013960 0.004586 0.000000 0.060456 0.000000
# 6 0.000000 0.000000 0.000000 -0.004773 0.000000 0.022084
#
#
# Mechanical properties :
#
#
# Convention : Reuss Voigt Hill
#
# Bulk Modulus (GPa) = 54.73326 68.75287 61.74306
# Shear Modulus (GPa) = 29.83868 45.75565 37.79716
#
# Velocity S-wave (km/s) = 3.28598 4.06909 3.69832
# Velocity P-wave (km/s) = 5.84834 6.85246 6.37021
#
# Compressibility (1/GPa) = 0.01827043
#
# Stress axis : x y z
#
# Youngs Moduli (GPa) = 253.12857 73.33824 97.71509
#
# Poissons Ratio (x) = 0.09561 0.06080
# Poissons Ratio (y) = 0.33002 0.27836
# Poissons Ratio (z) = 0.15751 0.20892
#
# Static dielectric constant tensor:
#      x y z
#    x 2.304300 0.000000 0.129190 
#    y 0.000000 2.128560 0.000000 
#    z 0.129190 0.000000 2.271320 
# 
# From -- ./inp_files/3933.got.cif
#   From: 2010.05.17/outbox.cif.g08.bks.cpg/sg9_2_cif.got.tgz:3933.got - 2010.06.03 20:04:27.
