data_PCOD9133454
_publ_section_title
;
Structure prediction by ZEFSAII (Michael W. Deem and Ramdas Pophale) SiO2 
 PCOD9133454
Probable space group: C M
;
_chemical_formula_sum "Si O2"
_cell_formula_units_Z 28
_cell_length_a 10.111479
_cell_length_b 26.174209
_cell_length_c 5.197906
_cell_angle_alpha 90.000000
_cell_angle_beta 61.214192
_cell_angle_gamma 90.000000
_cell_volume 1205.679608
_symmetry_space_group_name_H-M "C M"
_symmetry_group_IT_number 8
_symmetry_cell_setting 'monoclinic'
loop_
_space_group_symop_operation_xyz
x,y,z
x,-y,z
1/2+x,1/2+y,z
1/2+x,1/2-y,z
loop_
_atom_site_type_symbol
_atom_site_label
_atom_site_fract_x
_atom_site_fract_y
_atom_site_fract_z
Si Si1 0.866620 0.786244 0.120840
Si Si2 0.949687 0.607673 0.516055
Si Si3 0.692046 0.139328 0.621251
Si Si4 0.486993 0.397736 0.532596
Si Si5 0.617451 0.644295 0.906239
Si Si6 0.316047 0.000000 0.501994
Si Si7 0.567690 0.206719 0.115872
Si Si8 0.607753 0.500000 0.204141
O O1 0.802519 0.838460 0.301001
O O2 0.724700 0.770340 0.079217
O O3 0.922209 0.742703 0.263662
O O4 0.031945 0.805683 0.869976
O O5 0.795186 0.635512 0.740649
O O6 0.909737 0.552592 0.440232
O O7 0.067908 0.600678 0.637369
O O8 0.028259 0.650999 0.268124
O O9 0.811759 0.117748 0.711503
O O10 0.604411 0.190201 0.790825
O O11 0.558818 0.396897 0.747989
O O12 0.508111 0.450799 0.363616
O O13 0.573317 0.360716 0.249116
O O14 0.237741 0.000000 0.298773
O O15 0.192082 0.000000 0.851101
#
# Coordination Sequence:
#
# PCOD9133454 Si02
#       8
#     4   4   4   4   4   2   4   2
#     4  10  25  43  66  99 139 190 239 291 362 433
#     4  11  26  44  69 106 140 191 238 303 358 427
#     4  10  25  44  64 100 143 183 239 296 362 428
#     4  11  22  44  70  97 141 181 234 295 345 422
#     4  11  23  43  70  99 140 184 228 296 351 421
#     4  12  26  45  73 106 146 186 247 300 359 431
#     4  11  25  44  68 100 144 187 241 298 362 434
#     4  12  22  43  71 108 132 188 249 294 359 425
#
# _framework density 23.223414999999999
#
# number of rings (size 3 to 8) (size 9 to 14) (size 15 to 20)
#    0.000    1.143    4.286    0.000    8.000    2.857 
#    0.000    0.714    0.000    0.000    0.000    0.000 
#    0.000    0.000    0.000    0.000    0.000    0.000 
#
# Total GULP energy -77999.705206 kJ/mol
# GULP energy per Si atom -5571.407515 kJ/mol
# Density = 2.317056 g / cm^3
# Si number density = 23.223415 Si / 1000 Ang^3
#
#
#
# Elastic Constant Matrix: (Units=GPa)
#
#
# Indices 1 2 3 4 5 6 
#
# 1 124.1141 30.2189 35.6842 0.0000 -19.4187 0.0000
# 2 30.2189 93.5132 12.6862 0.0000 -14.2534 0.0000
# 3 35.6842 12.6862 63.1223 0.0000 -1.7974 0.0000
# 4 0.0000 0.0000 0.0000 25.2578 0.0000 -4.5014
# 5 -19.4187 -14.2534 -1.7974 0.0000 34.0966 0.0000
# 6 0.0000 0.0000 0.0000 -4.5014 0.0000 30.4242
#
#
#
# Elastic Compliance Matrix: (Units=1/GPa)
#
#
# Indices 1 2 3 4 5 6 
#
# 1 0.010969 -0.001998 -0.005654 0.000000 0.005114 0.000000
# 2 -0.001998 0.012088 -0.001190 0.000000 0.003852 0.000000
# 3 -0.005654 -0.001190 0.019201 0.000000 -0.002705 0.000000
# 4 0.000000 0.000000 0.000000 0.040664 0.000000 0.006016
# 5 0.005114 0.003852 -0.002705 0.000000 0.033709 0.000000
# 6 0.000000 0.000000 0.000000 0.006016 0.000000 0.033759
#
#
# Mechanical properties :
#
#
# Convention : Reuss Voigt Hill
#
# Bulk Modulus (GPa) = 40.69427 48.65869 44.67648
# Shear Modulus (GPa) = 28.36636 31.43306 29.89971
#
# Velocity S-wave (km/s) = 3.49872 3.68300 3.59204
# Velocity P-wave (km/s) = 5.82086 6.25171 6.04013
#
# Compressibility (1/GPa) = 0.02457349
#
# Stress axis : x y z
#
# Youngs Moduli (GPa) = 91.16353 82.72636 52.08150
#
# Poissons Ratio (x) = 0.16531 0.29446
# Poissons Ratio (y) = 0.18217 0.06198
# Poissons Ratio (z) = 0.51543 0.09845
#
# Static dielectric constant tensor:
#      x y z
#    x 1.907570 0.000000 0.030970 
#    y 0.000000 1.963070 0.000000 
#    z 0.030970 0.000000 2.002860 
# 
# From -- ./inp_files/1926.got.cif
#   From: 2010.05.17/outbox.cif.g08.bks.cpg/sg8_1_cif.got.tgz:1926.got - 2010.06.03 19:46:02.
