data_PCOD9133882
_publ_section_title
;
Structure prediction by ZEFSAII (Michael W. Deem and Ramdas Pophale) SiO2 
 PCOD9133882
Probable space group: C C
;
_chemical_formula_sum "Si O2"
_cell_formula_units_Z 28
_cell_length_a 25.354746
_cell_length_b 8.849801
_cell_length_c 14.182171
_cell_angle_alpha 90.000000
_cell_angle_beta 21.591457
_cell_angle_gamma 90.000000
_cell_volume 1171.026393
_symmetry_space_group_name_H-M "C C"
_symmetry_group_IT_number 9
_symmetry_cell_setting 'monoclinic'
loop_
_space_group_symop_operation_xyz
x,y,z
x,-y,1/2+z
1/2+x,1/2+y,z
1/2+x,1/2-y,1/2+z
loop_
_atom_site_type_symbol
_atom_site_label
_atom_site_fract_x
_atom_site_fract_y
_atom_site_fract_z
Si Si1 0.489720 0.545096 0.573970
Si Si2 0.371366 0.072381 0.503996
Si Si3 0.121812 0.012672 0.547323
Si Si4 0.245374 0.988742 0.027780
Si Si5 0.165271 0.428189 0.601693
Si Si6 0.524027 0.818643 0.025828
Si Si7 0.546439 0.803640 0.200148
O O1 0.540092 0.588422 0.596246
O O2 0.617956 0.582387 0.289448
O O3 0.492752 0.360084 0.566678
O O4 0.332867 0.603533 0.808660
O O5 0.255056 0.080605 0.778933
O O6 0.528980 0.132263 0.266064
O O7 0.308505 0.114399 0.507205
O O8 0.396248 0.890762 0.458715
O O9 0.180971 0.091975 0.542568
O O10 0.026391 0.873387 0.743081
O O11 0.374854 0.091578 0.777522
O O12 0.146564 0.607696 0.606953
O O13 0.118052 0.387697 0.785929
O O14 0.591919 0.841448 0.016692
#
# Coordination Sequence:
#
# PCOD9133882 Si02
#       7
#     4   4   4   4   4   4   4
#     4  10  23  35  55  89 107 140 192 226 269 328
#     4   8  18  30  53  84 107 141 187 219 269 336
#     4  10  17  35  57  77 111 149 180 224 274 322
#     4  10  18  36  58  79 111 147 181 224 275 323
#     4  10  19  33  55  86 112 135 189 231 265 327
#     4  10  19  38  60  76 111 153 176 223 282 322
#     4   8  18  31  56  85 101 143 189 213 272 330
#
# _framework density 23.910648999999999
#
# number of rings (size 3 to 8) (size 9 to 14) (size 15 to 20)
#    0.857    1.714    1.429    0.857    0.000    1.143 
#    0.000    4.286    0.000    6.857    0.000    0.000 
#    0.000    0.000    0.000    0.000    0.000    0.000 
#
# Total GULP energy -77990.751350 kJ/mol
# GULP energy per Si atom -5570.767954 kJ/mol
# Density = 2.385623 g / cm^3
# Si number density = 23.910649 Si / 1000 Ang^3
#
#
#
# Elastic Constant Matrix: (Units=GPa)
#
#
# Indices 1 2 3 4 5 6 
#
# 1 164.2339 17.5689 44.9337 0.0000 -12.5960 0.0000
# 2 17.5689 42.9051 18.2466 0.0000 1.0283 0.0000
# 3 44.9337 18.2466 143.1321 0.0000 -24.5907 0.0000
# 4 0.0000 0.0000 0.0000 25.6818 0.0000 -8.8372
# 5 -12.5960 1.0283 -24.5907 0.0000 37.3696 0.0000
# 6 0.0000 0.0000 0.0000 -8.8372 0.0000 28.7026
#
#
#
# Elastic Compliance Matrix: (Units=1/GPa)
#
#
# Indices 1 2 3 4 5 6 
#
# 1 0.006871 -0.002136 -0.001665 0.000000 0.001279 0.000000
# 2 -0.002136 0.025629 -0.003204 0.000000 -0.003533 0.000000
# 3 -0.001665 -0.003204 0.008835 0.000000 0.005341 0.000000
# 4 0.000000 0.000000 0.000000 0.043552 0.000000 0.013409
# 5 0.001279 -0.003533 0.005341 0.000000 0.030803 0.000000
# 6 0.000000 0.000000 0.000000 0.013409 0.000000 0.038969
#
#
# Mechanical properties :
#
#
# Convention : Reuss Voigt Hill
#
# Bulk Modulus (GPa) = 36.59544 56.86326 46.72935
# Shear Modulus (GPa) = 28.12517 36.31893 32.22205
#
# Velocity S-wave (km/s) = 3.43339 3.90159 3.67495
# Velocity P-wave (km/s) = 5.57278 6.64302 6.13130
#
# Compressibility (1/GPa) = 0.02732581
#
# Stress axis : x y z
#
# Youngs Moduli (GPa) = 145.53878 39.01820 113.18327
#
# Poissons Ratio (x) = 0.08335 0.18844
# Poissons Ratio (y) = 0.31089 0.36260
# Poissons Ratio (z) = 0.24231 0.12500
#
# Static dielectric constant tensor:
#      x y z
#    x 1.969100 0.000000 -0.009970 
#    y 0.000000 1.940300 0.000000 
#    z -0.009970 0.000000 1.891980 
# 
# From -- ./inp_files/23031.got.cif
#   From: 2010.05.17/outbox.cif.g08.bks.cpg/sg9_12_cif.got.tgz:23031.got - 2010.06.03 20:04:27.
