data_PCOD9133518
_publ_section_title
;
Structure prediction by ZEFSAII (Michael W. Deem and Ramdas Pophale) SiO2 
 PCOD9133518
Probable space group: C M
;
_chemical_formula_sum "Si O2"
_cell_formula_units_Z 32
_cell_length_a 32.839149
_cell_length_b 8.083653
_cell_length_c 12.648594
_cell_angle_alpha 90.000000
_cell_angle_beta 26.809718
_cell_angle_gamma 90.000000
_cell_volume 1514.419544
_symmetry_space_group_name_H-M "C M"
_symmetry_group_IT_number 8
_symmetry_cell_setting 'monoclinic'
loop_
_space_group_symop_operation_xyz
x,y,z
x,-y,z
1/2+x,1/2+y,z
1/2+x,1/2-y,z
loop_
_atom_site_type_symbol
_atom_site_label
_atom_site_fract_x
_atom_site_fract_y
_atom_site_fract_z
Si Si1 0.714990 0.806275 0.862030
Si Si2 0.411583 0.701055 0.731086
Si Si3 0.140899 0.299096 0.491901
Si Si4 0.459351 0.696116 0.028483
Si Si5 0.212779 0.299706 0.105985
Si Si6 0.408251 0.186732 0.373317
Si Si7 0.529767 0.308732 0.270697
Si Si8 0.838358 0.798301 0.118900
O O1 0.801578 0.718966 0.613072
O O2 0.736558 0.000000 0.817398
O O3 0.698286 0.741628 0.020520
O O4 0.620270 0.780672 0.023877
O O5 0.417791 0.500000 0.716859
O O6 0.489947 0.763306 0.472726
O O7 0.315221 0.741958 0.901622
O O8 0.402726 0.756787 0.872535
O O9 0.136390 0.500000 0.503804
O O10 0.054267 0.229024 0.751262
O O11 0.149669 0.243144 0.348873
O O12 0.235576 0.251168 0.329362
O O13 0.447766 0.500000 0.071103
O O14 0.452444 0.779933 0.157909
O O15 0.380534 0.756302 0.131565
O O16 0.206420 0.500000 0.119659
O O17 0.452012 0.297333 0.363273
O O18 0.424759 0.000000 0.369004
O O19 0.552798 0.500000 0.233429
O O20 0.839658 0.000000 0.115176
#
# Coordination Sequence:
#
# PCOD9133518 Si02
#       8
#     4   4   4   4   4   4   4   4
#     4  11  22  39  62  92 126 163 205 250 305 367
#     4   8  14  30  57  87 120 156 192 239 296 358
#     4   9  18  36  60  87 119 158 201 242 293 359
#     4  11  23  39  61  88 119 157 202 253 308 365
#     4   8  15  31  58  87 121 160 195 241 299 359
#     4  12  26  45  63  84 119 164 215 264 309 360
#     4  11  22  38  63  93 124 160 203 253 310 368
#     4   8  17  34  58  86 118 156 195 236 294 360
#
# _framework density 21.130206000000001
#
# number of rings (size 3 to 8) (size 9 to 14) (size 15 to 20)
#    0.000    2.250    1.250    3.750    1.750    1.000 
#    0.000    5.625    0.000    0.000    0.000    0.000 
#    0.000    0.000    0.000    0.000    0.000    0.000 
#
# Total GULP energy -89336.932213 kJ/mol
# GULP energy per Si atom -5583.558263 kJ/mol
# Density = 2.108211 g / cm^3
# Si number density = 21.130206 Si / 1000 Ang^3
#
#
#
# Elastic Constant Matrix: (Units=GPa)
#
#
# Indices 1 2 3 4 5 6 
#
# 1 23.2664 0.0518 -0.5694 0.0000 5.4701 0.0000
# 2 0.0518 31.5216 1.0074 0.0000 1.5525 0.0000
# 3 -0.5694 1.0074 94.4750 0.0000 5.9505 0.0000
# 4 0.0000 0.0000 0.0000 25.4635 0.0000 0.0678
# 5 5.4701 1.5525 5.9505 0.0000 25.0458 0.0000
# 6 0.0000 0.0000 0.0000 0.0678 0.0000 11.6024
#
#
#
# Elastic Compliance Matrix: (Units=1/GPa)
#
#
# Indices 1 2 3 4 5 6 
#
# 1 0.045389 0.000396 0.000909 0.000000 -0.010154 0.000000
# 2 0.000396 0.031829 -0.000210 0.000000 -0.002010 0.000000
# 3 0.000909 -0.000210 0.010765 0.000000 -0.002743 0.000000
# 4 0.000000 0.000000 0.000000 0.039273 0.000000 -0.000230
# 5 -0.010154 -0.002010 -0.002743 0.000000 0.042921 0.000000
# 6 0.000000 0.000000 0.000000 -0.000230 0.000000 0.086190
#
#
# Mechanical properties :
#
#
# Convention : Reuss Voigt Hill
#
# Bulk Modulus (GPa) = 11.08974 16.69361 13.89168
# Shear Modulus (GPa) = 17.59105 22.34054 19.96580
#
# Velocity S-wave (km/s) = 2.88845 3.25511 3.07725
# Velocity P-wave (km/s) = 4.04770 4.69523 4.38344
#
# Compressibility (1/GPa) = 0.09017343
#
# Stress axis : x y z
#
# Youngs Moduli (GPa) = 22.03182 31.41753 92.89093
#
# Poissons Ratio (x) = -0.01246 -0.08443
# Poissons Ratio (y) = -0.00874 0.01955
# Poissons Ratio (z) = -0.02002 0.00661
#
# Static dielectric constant tensor:
#      x y z
#    x 1.763010 0.000000 -0.003830 
#    y 0.000000 1.746370 0.000000 
#    z -0.003830 0.000000 1.741480 
# 
# From -- ./inp_files/24784.got.cif
#   From: 2010.05.17/outbox.cif.g08.bks.cpg/sg8_13_cif.got.tgz:24784.got - 2010.06.03 19:46:02.
