data_PCOD9133595
_publ_section_title
;
Structure prediction by ZEFSAII (Michael W. Deem and Ramdas Pophale) SiO2 
 PCOD9133595
Probable space group: C M
;
_chemical_formula_sum "Si O2"
_cell_formula_units_Z 20
_cell_length_a 6.834878
_cell_length_b 25.038204
_cell_length_c 5.004131
_cell_angle_alpha 90.000000
_cell_angle_beta 102.126703
_cell_angle_gamma 90.000000
_cell_volume 837.262725
_symmetry_space_group_name_H-M "C M"
_symmetry_group_IT_number 8
_symmetry_cell_setting 'monoclinic'
loop_
_space_group_symop_operation_xyz
x,y,z
x,-y,z
1/2+x,1/2+y,z
1/2+x,1/2-y,z
loop_
_atom_site_type_symbol
_atom_site_label
_atom_site_fract_x
_atom_site_fract_y
_atom_site_fract_z
Si Si1 0.407740 0.332058 0.910440
Si Si2 0.231369 0.287139 0.360234
Si Si3 0.915528 0.943423 0.010981
Si Si4 0.697576 0.558771 0.588563
Si Si5 0.299954 0.830838 0.363431
O O1 0.380831 0.319230 0.595481
O O2 0.300549 0.388777 0.933583
O O3 0.302620 0.289411 0.074636
O O4 0.633206 0.337156 0.083362
O O5 0.235192 0.226624 0.468071
O O6 0.020477 0.316587 0.324478
O O7 0.100593 0.941273 0.854222
O O8 0.809530 0.000000 0.938825
O O9 0.008970 0.942299 0.331529
O O10 0.799535 0.500000 0.580611
O O11 0.801953 0.614734 0.538333
#
# Coordination Sequence:
#
# PCOD9133595 Si02
#       5
#     4   4   4   4   4
#     4  11  25  44  63  96 132 167 215 268 316 386
#     4  12  27  39  66  96 129 174 215 257 331 377
#     4   9  18  36  65  91 122 168 213 259 318 375
#     4   9  19  37  64  93 122 168 212 257 319 376
#     4  11  25  44  66  94 135 169 213 271 314 386
#
# _framework density 23.887364000000002
#
# number of rings (size 3 to 8) (size 9 to 14) (size 15 to 20)
#    0.000    1.600    2.000    2.400    2.800    6.400 
#    0.000    2.000    0.000    0.000    0.000    0.000 
#    0.000    0.000    0.000    0.000    0.000    0.000 
#
# Total GULP energy -55801.787486 kJ/mol
# GULP energy per Si atom -5580.178749 kJ/mol
# Density = 2.383300 g / cm^3
# Si number density = 23.887364 Si / 1000 Ang^3
#
#
#
# Elastic Constant Matrix: (Units=GPa)
#
#
# Indices 1 2 3 4 5 6 
#
# 1 76.2428 5.4845 14.0912 0.0000 5.0908 0.0000
# 2 5.4845 192.2609 7.3044 0.0000 0.3553 0.0000
# 3 14.0912 7.3044 58.1216 0.0000 2.2885 0.0000
# 4 0.0000 0.0000 0.0000 26.8970 0.0000 -13.8863
# 5 5.0908 0.3553 2.2885 0.0000 24.0428 0.0000
# 6 0.0000 0.0000 0.0000 -13.8863 0.0000 20.3547
#
#
#
# Elastic Compliance Matrix: (Units=1/GPa)
#
#
# Indices 1 2 3 4 5 6 
#
# 1 0.013909 -0.000269 -0.003235 0.000000 -0.002633 0.000000
# 2 -0.000269 0.005231 -0.000594 0.000000 0.000036 0.000000
# 3 -0.003235 -0.000594 0.018105 0.000000 -0.001030 0.000000
# 4 0.000000 0.000000 0.000000 0.057394 0.000000 0.039155
# 5 -0.002633 0.000036 -0.001030 0.000000 0.042248 0.000000
# 6 0.000000 0.000000 0.000000 0.039155 0.000000 0.075841
#
#
# Mechanical properties :
#
#
# Convention : Reuss Voigt Hill
#
# Bulk Modulus (GPa) = 34.42289 42.26506 38.34398
# Shear Modulus (GPa) = 21.68209 34.24192 27.96201
#
# Velocity S-wave (km/s) = 3.01604 3.79023 3.42508
# Velocity P-wave (km/s) = 5.15465 6.07342 5.63280
#
# Compressibility (1/GPa) = 0.02905044
#
# Stress axis : x y z
#
# Youngs Moduli (GPa) = 71.89592 191.15245 55.23432
#
# Poissons Ratio (x) = 0.05142 0.17866
# Poissons Ratio (y) = 0.01934 0.03279
# Poissons Ratio (z) = 0.23256 0.11348
#
# Static dielectric constant tensor:
#      x y z
#    x 1.906160 0.000000 0.016310 
#    y 0.000000 2.033250 0.000000 
#    z 0.016310 0.000000 1.851830 
# 
# From -- ./inp_files/1667.got.cif
#   From: 2010.05.17/outbox.cif.g08.bks.cpg/sg8_1_cif.got.tgz:1667.got - 2010.06.03 19:46:02.
