data_PCOD9133092
_publ_section_title
;
Structure prediction by ZEFSAII (Michael W. Deem and Ramdas Pophale) SiO2 
 PCOD9133092
Probable space group: C M
;
_chemical_formula_sum "Si O2"
_cell_formula_units_Z 28
_cell_length_a 13.611113
_cell_length_b 17.792103
_cell_length_c 8.010438
_cell_angle_alpha 90.000000
_cell_angle_beta 43.450646
_cell_angle_gamma 90.000000
_cell_volume 1334.119815
_symmetry_space_group_name_H-M "C M"
_symmetry_group_IT_number 8
_symmetry_cell_setting 'monoclinic'
loop_
_space_group_symop_operation_xyz
x,y,z
x,-y,z
1/2+x,1/2+y,z
1/2+x,1/2-y,z
loop_
_atom_site_type_symbol
_atom_site_label
_atom_site_fract_x
_atom_site_fract_y
_atom_site_fract_z
Si Si1 0.952150 0.851030 0.847830
Si Si2 0.631462 0.373886 0.304969
Si Si3 0.626915 0.196822 0.687123
Si Si4 0.096500 0.913783 0.989352
Si Si5 0.837010 0.318672 0.532859
Si Si6 0.653253 0.195634 0.276278
Si Si7 0.409988 0.086085 0.120910
O O1 0.034767 0.885511 0.588396
O O2 0.017113 0.767361 0.799897
O O3 0.986291 0.894043 0.977703
O O4 0.784992 0.842238 0.020288
O O5 0.668436 0.285551 0.253170
O O6 0.784262 0.413894 0.137755
O O7 0.552420 0.398034 0.233657
O O8 0.768067 0.236630 0.587822
O O9 0.660055 0.170134 0.459900
O O10 0.547118 0.133048 0.890177
O O11 0.232023 0.860490 0.788659
O O12 0.138118 0.000000 0.920462
O O13 0.839826 0.366428 0.358675
O O14 0.997485 0.318580 0.397194
O O15 0.442457 0.000000 0.127048
#
# Coordination Sequence:
#
# PCOD9133092 Si02
#       7
#     4   4   4   4   4   4   4
#     4  10  22  44  67  99 136 173 237 283 338 407
#     4  11  23  38  68 102 136 178 225 295 340 412
#     4  10  21  42  66 102 130 178 229 285 336 413
#     4  11  24  43  69  98 134 184 231 280 352 419
#     4  11  24  40  71 100 140 180 234 284 346 417
#     4  11  23  41  68 100 132 176 236 288 341 404
#     4  12  23  42  70 105 143 179 228 293 355 410
#
# _framework density 20.98762
#
# number of rings (size 3 to 8) (size 9 to 14) (size 15 to 20)
#    0.000    1.143    5.714    1.714    8.000    0.571 
#    0.000    2.857    0.000    0.000    0.000    0.000 
#    0.000    0.000    0.000    0.000    0.000    0.000 
#
# Total GULP energy -78249.383240 kJ/mol
# GULP energy per Si atom -5589.241660 kJ/mol
# Density = 2.093985 g / cm^3
# Si number density = 20.987620 Si / 1000 Ang^3
#
#
#
# Elastic Constant Matrix: (Units=GPa)
#
#
# Indices 1 2 3 4 5 6 
#
# 1 114.3735 26.2632 62.9195 0.0000 -10.4158 0.0000
# 2 26.2632 66.1825 30.9021 0.0000 2.0801 0.0000
# 3 62.9195 30.9021 83.9919 0.0000 -6.5665 0.0000
# 4 0.0000 0.0000 0.0000 8.3541 0.0000 1.5631
# 5 -10.4158 2.0801 -6.5665 0.0000 44.8039 0.0000
# 6 0.0000 0.0000 0.0000 1.5631 0.0000 14.6681
#
#
#
# Elastic Compliance Matrix: (Units=1/GPa)
#
#
# Indices 1 2 3 4 5 6 
#
# 1 0.015081 -0.001019 -0.010768 0.000000 0.001975 0.000000
# 2 -0.001019 0.018466 -0.006187 0.000000 -0.002001 0.000000
# 3 -0.010768 -0.006187 0.022331 0.000000 0.001057 0.000000
# 4 0.000000 0.000000 0.000000 0.122136 0.000000 -0.013015
# 5 0.001975 -0.002001 0.001057 0.000000 0.023026 0.000000
# 6 0.000000 0.000000 0.000000 -0.013015 0.000000 0.069562
#
#
# Mechanical properties :
#
#
# Convention : Reuss Voigt Hill
#
# Bulk Modulus (GPa) = 50.17531 56.07972 53.12752
# Shear Modulus (GPa) = 15.96453 23.19610 19.58032
#
# Velocity S-wave (km/s) = 2.76101 3.32810 3.05773
# Velocity P-wave (km/s) = 5.84151 6.44568 6.15101
#
# Compressibility (1/GPa) = 0.01993012
#
# Stress axis : x y z
#
# Youngs Moduli (GPa) = 66.30938 54.15404 44.77999
#
# Poissons Ratio (x) = 0.05517 0.48219
# Poissons Ratio (y) = 0.06755 0.27706
# Poissons Ratio (z) = 0.71402 0.33506
#
# Static dielectric constant tensor:
#      x y z
#    x 1.808380 0.000000 0.015970 
#    y 0.000000 1.739390 0.000000 
#    z 0.015970 0.000000 1.771840 
# 
# From -- ./inp_files/13558.got.cif
#   From: 2010.05.17/outbox.cif.g08.bks.cpg/sg8_7_cif.got.tgz:13558.got - 2010.06.03 19:46:02.
