data_PCOD9133704
_publ_section_title
;
Structure prediction by ZEFSAII (Michael W. Deem and Ramdas Pophale) SiO2 
 PCOD9133704
Probable space group: C M
;
_chemical_formula_sum "Si O2"
_cell_formula_units_Z 16
_cell_length_a 15.000000
_cell_length_b 9.000000
_cell_length_c 24.000000
_cell_angle_alpha 90.000000
_cell_angle_beta 30.000000
_cell_angle_gamma 90.000000
_cell_volume 1620.000000
_symmetry_space_group_name_H-M "C M"
_symmetry_group_IT_number 8
_symmetry_cell_setting 'monoclinic'
loop_
_space_group_symop_operation_xyz
x,y,z
x,-y,z
1/2+x,1/2+y,z
1/2+x,1/2-y,z
loop_
_atom_site_type_symbol
_atom_site_label
_atom_site_fract_x
_atom_site_fract_y
_atom_site_fract_z
Si Si1 0.977130 0.677169 0.251960
Si Si2 0.212544 0.675672 0.315894
Si Si3 0.460135 0.321063 0.665098
Si Si4 0.129191 0.823770 0.792189
Si Si5 0.852031 0.824138 0.849931
Si Si6 0.346971 0.823056 0.029390
Si Si7 0.988193 0.174336 0.064010
Si Si8 0.372218 0.819786 0.433531
O O1 0.002493 0.500000 0.234422
O O2 0.797696 0.728344 0.318609
O O3 0.954903 0.719318 0.328739
O O4 0.147544 0.757883 0.132724
O O5 0.205232 0.500000 0.334555
O O6 0.353757 0.689127 0.188471
O O7 0.016988 0.725829 0.401425
O O8 0.457121 0.500000 0.659681
O O9 0.323204 0.246740 0.696206
O O10 0.381163 0.288268 0.769327
O O11 0.666665 0.270705 0.549946
O O12 0.037555 0.800930 0.781809
O O13 0.138513 0.000000 0.797873
O O14 0.987820 0.749313 0.910889
O O15 0.807736 0.000000 0.878690
O O16 0.690496 0.729865 0.963469
O O17 0.413761 0.773702 0.054158
O O18 0.345510 0.000000 0.023770
O O19 0.989144 0.000000 0.047588
O O20 0.368149 0.000000 0.437974
#
# Coordination Sequence:
#
# PCOD9133704 Si02
#       8
#     4   4   4   4   4   4   4   4
#     4  11  22  39  61  89 121 157 198 245 294 346
#     4  10  21  39  61  88 119 157 198 239 295 357
#     4  10  21  40  63  85 114 160 205 245 293 349
#     4  11  23  39  60  90 123 155 194 246 297 347
#     4  10  22  38  58  87 120 155 195 237 292 354
#     4  12  23  37  60  89 120 157 196 238 296 360
#     4  11  21  36  61  89 120 153 190 240 300 355
#     4   9  20  40  62  83 117 160 202 244 295 348
#
# _framework density 9.8765429999999999
#
# number of rings (size 3 to 8) (size 9 to 14) (size 15 to 20)
#    0.000    1.500    2.500    3.000    0.000    5.000 
#    0.000    3.125    0.000    0.000    0.000    0.000 
#    0.000    0.000    0.000    0.000    0.000    0.000 
#
# Total GULP energy -89413.136645 kJ/mol
# GULP energy per Si atom -5588.321040 kJ/mol
# Density = 0.985406 g / cm^3
# Si number density = 9.876543 Si / 1000 Ang^3
#
#
#
# Elastic Constant Matrix: (Units=GPa)
#
#
# Indices 1 2 3 4 5 6 
#
# 1 90.1081 22.8998 10.8995 0.0001 -34.3656 0.0000
# 2 22.8998 58.2387 17.2537 0.0000 -11.4266 0.0000
# 3 10.8995 17.2537 72.9260 -0.0004 -40.1284 0.0001
# 4 0.0001 0.0000 -0.0004 25.1502 0.0000 -10.9908
# 5 -34.3656 -11.4266 -40.1284 0.0000 38.2603 0.0000
# 6 0.0000 0.0000 0.0001 -10.9908 0.0000 31.5909
#
#
#
# Elastic Compliance Matrix: (Units=1/GPa)
#
#
# Indices 1 2 3 4 5 6 
#
# 1 0.029920 -0.009395 0.026000 0.000000 0.051338 0.000000
# 2 -0.009395 0.021494 -0.011333 0.000000 -0.013905 0.000000
# 3 0.026000 -0.011333 0.055563 0.000001 0.078245 0.000000
# 4 0.000000 0.000000 0.000001 0.046890 0.000001 0.016314
# 5 0.051338 -0.013905 0.078245 0.000001 0.150161 0.000000
# 6 0.000000 0.000000 0.000000 0.016314 0.000000 0.037330
#
#
# Mechanical properties :
#
#
# Convention : Reuss Voigt Hill
#
# Bulk Modulus (GPa) = 8.50901 35.93098 22.21999
# Shear Modulus (GPa) = 13.51398 30.34826 21.93112
#
# Velocity S-wave (km/s) = 2.61845 3.92392 3.33568
# Velocity P-wave (km/s) = 3.66862 6.22568 5.10969
#
# Compressibility (1/GPa) = 0.11752255
#
# Stress axis : x y z
#
# Youngs Moduli (GPa) = 33.42277 46.52467 17.99757
#
# Poissons Ratio (x) = 0.43709 -0.46794
# Poissons Ratio (y) = 0.31400 0.20396
# Poissons Ratio (z) = -0.86900 0.52725
#
# Static dielectric constant tensor:
#      x y z
#    x 1.736930 0.000000 -0.008660 
#    y 0.000000 1.660400 0.000000 
#    z -0.008660 0.000000 1.675850 
# 
# From -- ./inp_files/26553.got.cif
#   From: 2010.05.17/outbox.ucp.g08.bks.cvg/sg8_14_cif.got.tgz:26553.got - 2010.06.11 13:00:03.
