data_PCOD9133966
_publ_section_title
;
Structure prediction by ZEFSAII (Michael W. Deem and Ramdas Pophale) SiO2 
 PCOD9133966
Probable space group: C C
;
_chemical_formula_sum "Si O2"
_cell_formula_units_Z 28
_cell_length_a 11.186459
_cell_length_b 17.618784
_cell_length_c 5.282057
_cell_angle_alpha 90.000000
_cell_angle_beta 102.217260
_cell_angle_gamma 90.000000
_cell_volume 1017.472641
_symmetry_space_group_name_H-M "C C"
_symmetry_group_IT_number 9
_symmetry_cell_setting 'monoclinic'
loop_
_space_group_symop_operation_xyz
x,y,z
x,-y,1/2+z
1/2+x,1/2+y,z
1/2+x,1/2-y,1/2+z
loop_
_atom_site_type_symbol
_atom_site_label
_atom_site_fract_x
_atom_site_fract_y
_atom_site_fract_z
Si Si1 0.585390 0.689163 0.988530
Si Si2 0.940157 0.699887 0.061354
Si Si3 0.671209 0.819477 0.296972
Si Si4 0.378615 0.347315 0.777897
Si Si5 0.140034 0.533594 0.513921
Si Si6 0.035644 0.052558 0.650925
Si Si7 0.364050 0.969333 0.483495
O O1 0.499235 0.753791 0.820787
O O2 0.613089 0.626891 0.785559
O O3 0.688508 0.735947 0.187604
O O4 0.503698 0.651433 0.170516
O O5 0.051819 0.682556 0.918889
O O6 0.861362 0.762650 0.879153
O O7 0.880465 0.617697 0.073340
O O8 0.774680 0.853520 0.522253
O O9 0.646656 0.877733 0.058949
O O10 0.407336 0.402900 0.026032
O O11 0.196334 0.506643 0.280735
O O12 0.998566 0.504835 0.474060
O O13 0.044660 0.001669 0.400765
O O14 0.302710 0.016434 0.683058
#
# Coordination Sequence:
#
# PCOD9133966 Si02
#       7
#     4   4   4   4   4   4   4
#     4  10  22  41  65  94 125 177 215 265 330 382
#     4  10  21  38  59  87 133 168 214 254 321 392
#     4  11  22  38  63  92 133 168 219 264 316 396
#     4  10  24  40  62  98 127 172 214 271 330 383
#     4  10  19  33  52  89 122 158 194 243 308 376
#     4  11  22  44  67  92 131 173 216 275 329 395
#     4  10  18  32  56  86 115 158 196 240 302 372
#
# _framework density 27.519165999999998
#
# number of rings (size 3 to 8) (size 9 to 14) (size 15 to 20)
#    0.000    1.714    4.286    1.714    2.000    3.429 
#    0.000    0.000    0.000    1.714    0.000    0.000 
#    0.000    0.000    0.000    0.000    0.000    0.000 
#
# Total GULP energy -78331.568649 kJ/mol
# GULP energy per Si atom -5595.112046 kJ/mol
# Density = 2.745653 g / cm^3
# Si number density = 27.519166 Si / 1000 Ang^3
#
#
#
# Elastic Constant Matrix: (Units=GPa)
#
#
# Indices 1 2 3 4 5 6 
#
# 1 56.3439 25.0285 30.7668 0.0000 -4.6723 0.0000
# 2 25.0285 198.2177 95.7535 0.0000 15.3652 0.0000
# 3 30.7668 95.7535 182.3509 0.0000 -26.0297 0.0000
# 4 0.0000 0.0000 0.0000 82.4999 0.0000 -13.3832
# 5 -4.6723 15.3652 -26.0297 0.0000 47.9276 0.0000
# 6 0.0000 0.0000 0.0000 -13.3832 0.0000 27.2247
#
#
#
# Elastic Compliance Matrix: (Units=1/GPa)
#
#
# Indices 1 2 3 4 5 6 
#
# 1 0.019796 -0.001391 -0.002461 0.000000 0.001039 0.000000
# 2 -0.001391 0.007857 -0.004629 0.000000 -0.005169 0.000000
# 3 -0.002461 -0.004629 0.009223 0.000000 0.006253 0.000000
# 4 0.000000 0.000000 0.000000 0.013172 0.000000 0.006475
# 5 0.001039 -0.005169 0.006253 0.000000 0.026019 0.000000
# 6 0.000000 0.000000 0.000000 0.006475 0.000000 0.039914
#
#
# Mechanical properties :
#
#
# Convention : Reuss Voigt Hill
#
# Bulk Modulus (GPa) = 50.21791 82.22336 66.22063
# Shear Modulus (GPa) = 35.82122 50.55471 43.18796
#
# Velocity S-wave (km/s) = 3.61180 4.29076 3.96583
# Velocity P-wave (km/s) = 5.97339 7.38180 6.71462
#
# Compressibility (1/GPa) = 0.01991321
#
# Stress axis : x y z
#
# Youngs Moduli (GPa) = 50.51454 127.26733 108.43024
#
# Poissons Ratio (x) = 0.17706 0.26687
# Poissons Ratio (y) = 0.07028 0.50193
# Poissons Ratio (z) = 0.12433 0.58913
#
# Static dielectric constant tensor:
#      x y z
#    x 2.233520 0.000000 0.102620 
#    y 0.000000 2.161980 0.000000 
#    z 0.102620 0.000000 2.269770 
# 
# From -- ./inp_files/2455.got.cif
#   From: 2010.05.17/outbox.cif.g08.bks.cpg/sg9_2_cif.got.tgz:2455.got - 2010.06.03 20:04:27.
