data_PCOD9133826
_publ_section_title
;
Structure prediction by ZEFSAII (Michael W. Deem and Ramdas Pophale) SiO2 
 PCOD9133826
Probable space group: C C
;
_chemical_formula_sum "Si O2"
_cell_formula_units_Z 32
_cell_length_a 10.931490
_cell_length_b 17.919367
_cell_length_c 10.220463
_cell_angle_alpha 90.000000
_cell_angle_beta 50.043558
_cell_angle_gamma 90.000000
_cell_volume 1534.628960
_symmetry_space_group_name_H-M "C C"
_symmetry_group_IT_number 9
_symmetry_cell_setting 'monoclinic'
loop_
_space_group_symop_operation_xyz
x,y,z
x,-y,1/2+z
1/2+x,1/2+y,z
1/2+x,1/2-y,1/2+z
loop_
_atom_site_type_symbol
_atom_site_label
_atom_site_fract_x
_atom_site_fract_y
_atom_site_fract_z
Si Si1 0.648200 0.369277 0.789820
Si Si2 0.726473 0.215348 0.802672
Si Si3 0.110664 0.134300 0.760675
Si Si4 0.049688 0.292495 0.683422
Si Si5 0.371591 0.485151 0.310742
Si Si6 0.860282 0.426100 0.876820
Si Si7 0.190264 0.927367 0.491624
Si Si8 0.798520 0.924234 0.094312
O O1 0.614181 0.284025 0.844034
O O2 0.780284 0.404091 0.793400
O O3 0.708221 0.372426 0.600878
O O4 0.488562 0.413415 0.937779
O O5 0.894689 0.254773 0.720888
O O6 0.732643 0.156331 0.681357
O O7 0.665823 0.187552 0.984609
O O8 0.245085 0.103629 0.570226
O O9 0.156852 0.110432 0.875626
O O10 0.102932 0.223483 0.739753
O O11 0.952064 0.088010 0.823995
O O12 0.010592 0.370739 0.780845
O O13 0.275797 0.467939 0.244931
O O14 0.261198 0.529940 0.489263
O O15 0.528046 0.529189 0.147967
O O16 0.839924 0.515291 0.891418
#
# Coordination Sequence:
#
# PCOD9133826 Si02
#       8
#     4   4   4   4   4   4   4   4
#     4  10  18  32  54  85 103 147 188 235 277 342
#     4  11  19  36  58  83 109 150 194 238 277 350
#     4  11  17  32  55  87 110 149 193 242 279 339
#     4  11  20  33  60  85 113 145 199 236 285 337
#     4  10  17  29  51  85 104 141 182 240 274 329
#     4  10  18  33  56  82 109 145 198 235 279 339
#     4  10  19  31  55  85 117 139 192 241 283 333
#     4  11  18  32  57  80 107 136 190 233 276 329
#
# _framework density 20.851946999999999
#
# number of rings (size 3 to 8) (size 9 to 14) (size 15 to 20)
#    0.000    1.500    8.750    1.500    0.000    0.000 
#    0.000    2.500   11.000    0.000    0.000    0.000 
#    0.000    0.000    0.000    0.000    0.000    0.000 
#
# Total GULP energy -89095.855691 kJ/mol
# GULP energy per Si atom -5568.490981 kJ/mol
# Density = 2.080449 g / cm^3
# Si number density = 20.851947 Si / 1000 Ang^3
#
#
#
# Elastic Constant Matrix: (Units=GPa)
#
#
# Indices 1 2 3 4 5 6 
#
# 1 8.8661 5.3769 44.4256 0.0000 25.5146 0.0000
# 2 5.3769 68.6455 42.1636 0.0000 12.2795 0.0000
# 3 44.4256 42.1636 102.6258 0.0000 20.1444 0.0000
# 4 0.0000 0.0000 0.0000 49.5983 0.0000 -2.4874
# 5 25.5146 12.2795 20.1444 0.0000 29.2241 0.0000
# 6 0.0000 0.0000 0.0000 -2.4874 0.0000 15.6683
#
#
#
# Elastic Compliance Matrix: (Units=1/GPa)
#
#
# Indices 1 2 3 4 5 6 
#
# 1 -0.038040 -0.011659 0.015932 0.000000 0.027128 0.000000
# 2 -0.011659 0.016155 -0.002609 0.000000 0.005189 0.000000
# 3 0.015932 -0.002609 0.007441 0.000000 -0.017943 0.000000
# 4 0.000000 0.000000 0.000000 0.020324 0.000000 0.003227
# 5 0.027128 0.005189 -0.017943 0.000000 0.020721 0.000000
# 6 0.000000 0.000000 0.000000 0.003227 0.000000 0.064335
#
#
# Mechanical properties :
#
#
# Convention : Reuss Voigt Hill
#
# Bulk Modulus (GPa) = -89.96826 40.45218 -24.75804
# Shear Modulus (GPa) = 59.59266 24.77623 42.18445
#
# Velocity S-wave (km/s) = 5.35173 3.45076 4.50271
# Velocity P-wave (km/s) = 2.24764 5.94297 3.89018
#
# Compressibility (1/GPa) = -0.01111503
#
# Stress axis : x y z
#
# Youngs Moduli (GPa) = -26.28829 61.90069 134.38911
#
# Poissons Ratio (x) = 0.72170 -2.14110
# Poissons Ratio (y) = -0.30650 0.35059
# Poissons Ratio (z) = 0.41883 0.16148
#
# Static dielectric constant tensor:
#      x y z
#    x 1.778540 0.000000 -0.023110 
#    y 0.000000 1.821310 0.000000 
#    z -0.023110 0.000000 1.745490 
# 
# From -- ./inp_files/8009.got.cif
#   From: 2010.05.17/outbox.cif.g08.bks.cpg/sg9_5_cif.got.tgz:8009.got - 2010.06.03 20:04:27.
