data_PCOD9133231
_publ_section_title
;
Structure prediction by ZEFSAII (Michael W. Deem and Ramdas Pophale) SiO2 
 PCOD9133231
Probable space group: C M
;
_chemical_formula_sum "Si O2"
_cell_formula_units_Z 32
_cell_length_a 8.010452
_cell_length_b 29.360391
_cell_length_c 5.387036
_cell_angle_alpha 90.000000
_cell_angle_beta 92.724989
_cell_angle_gamma 90.000000
_cell_volume 1265.544359
_symmetry_space_group_name_H-M "C M"
_symmetry_group_IT_number 8
_symmetry_cell_setting 'monoclinic'
loop_
_space_group_symop_operation_xyz
x,y,z
x,-y,z
1/2+x,1/2+y,z
1/2+x,1/2-y,z
loop_
_atom_site_type_symbol
_atom_site_label
_atom_site_fract_x
_atom_site_fract_y
_atom_site_fract_z
Si Si1 0.743750 0.854954 0.557030
Si Si2 0.779055 0.240604 0.974057
Si Si3 0.060930 0.806398 0.695030
Si Si4 0.230514 0.097172 0.616567
Si Si5 0.986559 0.685646 0.215625
Si Si6 0.045622 0.398846 0.914009
Si Si7 0.244692 0.450822 0.270063
Si Si8 0.613770 0.550732 0.107345
O O1 0.575140 0.827080 0.478827
O O2 0.713798 0.873560 0.832492
O O3 0.755816 0.902925 0.415638
O O4 0.902795 0.822902 0.513581
O O5 0.699944 0.266336 0.726162
O O6 0.940709 0.210521 0.914142
O O7 0.635136 0.210343 0.078309
O O8 0.833046 0.280480 0.169478
O O9 0.171484 0.851674 0.675960
O O10 0.427641 0.091226 0.674382
O O11 0.177507 0.081830 0.339579
O O12 0.150778 0.067732 0.833541
O O13 0.952292 0.637757 0.080218
O O14 0.092199 0.442865 0.071798
O O15 0.230951 0.500000 0.402396
O O16 0.415595 0.452104 0.129019
O O17 0.684229 0.500000 0.147240
#
# Coordination Sequence:
#
# PCOD9133231 Si02
#       8
#     4   4   4   4   4   4   4   4
#     4  11  23  42  68  98 135 179 234 287 355 426
#     4  10  22  41  65  92 139 176 235 291 351 426
#     4  11  22  41  67 100 137 184 236 295 357 419
#     4  12  26  45  74 104 147 192 235 299 364 429
#     4  10  22  41  62  94 131 175 227 290 344 418
#     4  11  24  44  66  98 138 185 234 288 358 427
#     4  10  24  44  70 101 137 181 232 291 355 430
#     4  11  26  48  74 107 142 186 241 295 359 435
#
# _framework density 25.285564000000001
#
# number of rings (size 3 to 8) (size 9 to 14) (size 15 to 20)
#    0.000    1.250    3.750    1.125    5.250    2.500 
#    0.000    2.500    0.000    0.000    0.000    0.000 
#    0.000    0.000    0.000    0.000    0.000    0.000 
#
# Total GULP energy -89284.096286 kJ/mol
# GULP energy per Si atom -5580.256018 kJ/mol
# Density = 2.522801 g / cm^3
# Si number density = 25.285564 Si / 1000 Ang^3
#
#
#
# Elastic Constant Matrix: (Units=GPa)
#
#
# Indices 1 2 3 4 5 6 
#
# 1 76.2763 18.5177 5.0079 0.0000 6.9530 0.0000
# 2 18.5177 125.5534 38.8450 0.0000 -5.1681 0.0000
# 3 5.0079 38.8450 62.6958 0.0000 -3.9330 0.0000
# 4 0.0000 0.0000 0.0000 27.2835 0.0000 5.9305
# 5 6.9530 -5.1681 -3.9330 0.0000 35.0593 0.0000
# 6 0.0000 0.0000 0.0000 5.9305 0.0000 23.4420
#
#
#
# Elastic Compliance Matrix: (Units=1/GPa)
#
#
# Indices 1 2 3 4 5 6 
#
# 1 0.013921 -0.002197 0.000056 0.000000 -0.003078 0.000000
# 2 -0.002197 0.010221 -0.006078 0.000000 0.001261 0.000000
# 3 0.000056 -0.006078 0.019794 0.000000 0.001313 0.000000
# 4 0.000000 0.000000 0.000000 0.038785 0.000000 -0.009812
# 5 -0.003078 0.001261 0.001313 0.000000 0.029467 0.000000
# 6 0.000000 0.000000 0.000000 -0.009812 0.000000 0.045141
#
#
# Mechanical properties :
#
#
# Convention : Reuss Voigt Hill
#
# Bulk Modulus (GPa) = 36.36716 43.25185 39.80950
# Shear Modulus (GPa) = 27.33248 30.63395 28.98322
#
# Velocity S-wave (km/s) = 3.29135 3.48446 3.38928
# Velocity P-wave (km/s) = 5.37194 5.77331 5.57624
#
# Compressibility (1/GPa) = 0.02749733
#
# Stress axis : x y z
#
# Youngs Moduli (GPa) = 71.83611 97.83528 50.52059
#
# Poissons Ratio (x) = 0.21497 -0.00285
# Poissons Ratio (y) = 0.15784 0.30708
# Poissons Ratio (z) = -0.00405 0.59467
#
# Static dielectric constant tensor:
#      x y z
#    x 2.021860 0.000000 0.031360 
#    y 0.000000 2.009280 0.000000 
#    z 0.031360 0.000000 2.062760 
# 
# From -- ./inp_files/1988.got.cif
#   From: 2010.05.17/outbox.cif.g08.bks.cpg/sg8_1_cif.got.tgz:1988.got - 2010.06.03 19:46:02.
