data_PCOD9133513
_publ_section_title
;
Structure prediction by ZEFSAII (Michael W. Deem and Ramdas Pophale) SiO2 
 PCOD9133513
Probable space group: C M
;
_chemical_formula_sum "Si O2"
_cell_formula_units_Z 32
_cell_length_a 33.527407
_cell_length_b 7.853091
_cell_length_c 12.753810
_cell_angle_alpha 90.000000
_cell_angle_beta 153.512831
_cell_angle_gamma 90.000000
_cell_volume 1497.658701
_symmetry_space_group_name_H-M "C M"
_symmetry_group_IT_number 8
_symmetry_cell_setting 'monoclinic'
loop_
_space_group_symop_operation_xyz
x,y,z
x,-y,z
1/2+x,1/2+y,z
1/2+x,1/2-y,z
loop_
_atom_site_type_symbol
_atom_site_label
_atom_site_fract_x
_atom_site_fract_y
_atom_site_fract_z
Si Si1 0.443470 0.697787 0.630830
Si Si2 0.256330 0.291312 0.100777
Si Si3 0.865136 0.709594 0.878868
Si Si4 0.669715 0.304576 0.447346
Si Si5 0.568959 0.797914 0.751412
Si Si6 0.475580 0.803955 0.938923
Si Si7 0.174244 0.299481 0.692460
Si Si8 0.977843 0.299065 0.334818
O O1 0.444081 0.500000 0.605316
O O2 0.349922 0.770832 0.367115
O O3 0.528556 0.773047 0.770545
O O4 0.450331 0.716901 0.771136
O O5 0.256743 0.500000 0.103744
O O6 0.168921 0.234200 0.961420
O O7 0.238404 0.241667 0.937844
O O8 0.867562 0.500000 0.887960
O O9 0.763107 0.761058 0.621890
O O10 0.927101 0.765703 0.928613
O O11 0.904057 0.772160 0.081881
O O12 0.656859 0.500000 0.384216
O O13 0.581301 0.206355 0.207193
O O14 0.681240 0.296480 0.600045
O O15 0.498851 0.726942 0.499461
O O16 0.573608 0.000000 0.742316
O O17 0.448362 0.000000 0.864399
O O18 0.190238 0.500000 0.709913
O O19 0.073116 0.286175 0.498903
O O20 0.956730 0.500000 0.297312
#
# Coordination Sequence:
#
# PCOD9133513 Si02
#       8
#     4   4   4   4   4   4   4   4
#     4  11  23  39  58  84 119 150 185 241 296 329
#     4   8  18  36  58  83 115 154 191 232 279 332
#     4   9  19  35  57  84 113 149 188 231 283 335
#     4  11  22  35  56  89 120 145 181 239 298 331
#     4   9  18  35  60  86 112 151 197 227 269 342
#     4  11  23  43  63  78 107 155 204 234 272 345
#     4   9  16  33  59  83 114 156 193 223 272 343
#     4   8  14  30  57  83 112 150 189 227 265 327
#
# _framework density 21.366685
#
# number of rings (size 3 to 8) (size 9 to 14) (size 15 to 20)
#    0.000    2.500    1.250    2.625    1.750    1.000 
#    0.000    9.375    0.000    0.000    0.000    0.000 
#    0.000    0.000    0.000    0.000    0.000    0.000 
#
# Total GULP energy -89304.926872 kJ/mol
# GULP energy per Si atom -5581.557929 kJ/mol
# Density = 2.131805 g / cm^3
# Si number density = 21.366685 Si / 1000 Ang^3
#
#
#
# Elastic Constant Matrix: (Units=GPa)
#
#
# Indices 1 2 3 4 5 6 
#
# 1 30.6622 -1.5619 15.2403 0.0000 -5.3936 0.0000
# 2 -1.5619 23.2310 -2.2566 0.0000 4.0844 0.0000
# 3 15.2403 -2.2566 89.3176 0.0000 -2.1049 0.0000
# 4 0.0000 0.0000 0.0000 14.8832 0.0000 -5.8865
# 5 -5.3936 4.0844 -2.1049 0.0000 19.3031 0.0000
# 6 0.0000 0.0000 0.0000 -5.8865 0.0000 14.9275
#
#
#
# Elastic Compliance Matrix: (Units=1/GPa)
#
#
# Indices 1 2 3 4 5 6 
#
# 1 0.037391 0.000206 -0.006145 0.000000 0.009734 0.000000
# 2 0.000206 0.044784 0.000877 0.000000 -0.009323 0.000000
# 3 -0.006145 0.000877 0.012253 0.000000 -0.000566 0.000000
# 4 0.000000 0.000000 0.000000 0.079606 0.000000 0.031392
# 5 0.009734 -0.009323 -0.000566 0.000000 0.056436 0.000000
# 6 0.000000 0.000000 0.000000 0.031392 0.000000 0.079370
#
#
# Mechanical properties :
#
#
# Convention : Reuss Voigt Hill
#
# Bulk Modulus (GPa) = 11.86212 18.45046 15.15629
# Shear Modulus (GPa) = 14.36507 18.60868 16.48688
#
# Velocity S-wave (km/s) = 2.59571 2.95434 2.78081
# Velocity P-wave (km/s) = 3.81410 4.50460 4.17365
#
# Compressibility (1/GPa) = 0.08430197
#
# Stress axis : x y z
#
# Youngs Moduli (GPa) = 26.74461 22.32937 81.61008
#
# Poissons Ratio (x) = -0.00459 0.50153
# Poissons Ratio (y) = -0.00550 -0.07155
# Poissons Ratio (z) = 0.16436 -0.01958
#
# Static dielectric constant tensor:
#      x y z
#    x 1.756280 0.000000 0.015040 
#    y 0.000000 1.765070 0.000000 
#    z 0.015040 0.000000 1.772920 
# 
# From -- ./inp_files/24811.got.cif
#   From: 2010.05.17/outbox.cif.g08.bks.cpg/sg8_13_cif.got.tgz:24811.got - 2010.06.03 19:46:02.
