data_PCOD9133194
_publ_section_title
;
Structure prediction by ZEFSAII (Michael W. Deem and Ramdas Pophale) SiO2 
 PCOD9133194
Probable space group: C M
;
_chemical_formula_sum "Si O2"
_cell_formula_units_Z 24
_cell_length_a 9.620344
_cell_length_b 25.331413
_cell_length_c 8.960720
_cell_angle_alpha 90.000000
_cell_angle_beta 30.554640
_cell_angle_gamma 90.000000
_cell_volume 1110.105218
_symmetry_space_group_name_H-M "C M"
_symmetry_group_IT_number 8
_symmetry_cell_setting 'monoclinic'
loop_
_space_group_symop_operation_xyz
x,y,z
x,-y,z
1/2+x,1/2+y,z
1/2+x,1/2-y,z
loop_
_atom_site_type_symbol
_atom_site_label
_atom_site_fract_x
_atom_site_fract_y
_atom_site_fract_z
Si Si1 0.638500 0.127829 0.594420
Si Si2 0.059221 0.121288 0.971452
Si Si3 0.057359 0.561507 0.967644
Si Si4 0.702100 0.779744 0.192864
Si Si5 0.636566 0.560470 0.596168
Si Si6 0.672849 0.752238 0.550626
O O1 0.349544 0.135765 0.776545
O O2 0.585455 0.095962 0.793702
O O3 0.753439 0.187041 0.513944
O O4 0.860516 0.098406 0.284406
O O5 0.124895 0.085871 0.768532
O O6 0.872306 0.168936 0.082531
O O7 0.988173 0.500000 0.993946
O O8 0.340054 0.561347 0.795868
O O9 0.837297 0.584568 0.286967
O O10 0.682550 0.746450 0.363769
O O11 0.393755 0.786173 0.421489
O O12 0.876861 0.755358 0.896771
O O13 0.729081 0.500000 0.529244
#
# Coordination Sequence:
#
# PCOD9133194 Si02
#       6
#     4   4   4   4   4   4
#     4  11  23  40  61  89 122 159 204 250 300 360
#     4  11  23  40  61  89 122 159 204 250 300 360
#     4  10  22  40  62  92 126 159 201 250 299 358
#     4  11  23  40  59  85 118 154 199 249 298 353
#     4  10  22  40  62  92 126 159 201 250 299 358
#     4  11  23  40  59  85 118 154 199 249 298 353
#
# _framework density 21.619574
#
# number of rings (size 3 to 8) (size 9 to 14) (size 15 to 20)
#    0.000    1.333    0.000    7.000    0.000    5.333 
#    0.000    0.000    0.000    0.000    0.000    0.000 
#    0.000    0.000    0.000    0.000    0.000    0.000 
#
# Total GULP energy -67069.777085 kJ/mol
# GULP energy per Si atom -5589.148090 kJ/mol
# Density = 2.157037 g / cm^3
# Si number density = 21.619574 Si / 1000 Ang^3
#
#
#
# Elastic Constant Matrix: (Units=GPa)
#
#
# Indices 1 2 3 4 5 6 
#
# 1 76.3282 21.0036 41.0856 0.0000 11.1556 0.0000
# 2 21.0036 39.5520 18.0469 0.0000 15.6872 0.0000
# 3 41.0856 18.0469 175.0841 0.0000 34.0764 0.0000
# 4 0.0000 0.0000 0.0000 40.0368 0.0000 -23.8965
# 5 11.1556 15.6872 34.0764 0.0000 48.9858 0.0000
# 6 0.0000 0.0000 0.0000 -23.8965 0.0000 105.0609
#
#
#
# Elastic Compliance Matrix: (Units=1/GPa)
#
#
# Indices 1 2 3 4 5 6 
#
# 1 0.016922 -0.007850 -0.003355 0.000000 0.000994 0.000000
# 2 -0.007850 0.032888 0.000178 0.000000 -0.008868 0.000000
# 3 -0.003355 0.000178 0.007336 0.000000 -0.004396 0.000000
# 4 0.000000 0.000000 0.000000 0.028901 0.000000 0.006574
# 5 0.000994 -0.008868 -0.004396 0.000000 0.026086 0.000000
# 6 0.000000 0.000000 0.000000 0.006574 0.000000 0.011013
#
#
# Mechanical properties :
#
#
# Convention : Reuss Voigt Hill
#
# Bulk Modulus (GPa) = 28.49632 50.13739 39.31685
# Shear Modulus (GPa) = 31.86800 52.87191 42.36996
#
# Velocity S-wave (km/s) = 3.84348 4.95062 4.43176
# Velocity P-wave (km/s) = 5.73636 7.47792 6.66428
#
# Compressibility (1/GPa) = 0.03509225
#
# Stress axis : x y z
#
# Youngs Moduli (GPa) = 59.09411 30.40648 136.31034
#
# Poissons Ratio (x) = 0.23868 0.45737
# Poissons Ratio (y) = 0.46387 -0.02428
# Poissons Ratio (z) = 0.19828 -0.00542
#
# Static dielectric constant tensor:
#      x y z
#    x 1.744670 0.000000 0.036960 
#    y 0.000000 1.793150 0.000000 
#    z 0.036960 0.000000 1.792200 
# 
# From -- ./inp_files/9315.got.cif
#   From: 2010.05.17/outbox.cif.g08.bks.cpg/sg8_5_cif.got.tgz:9315.got - 2010.06.03 19:46:02.
