data_PCOD9133147
_publ_section_title
;
Structure prediction by ZEFSAII (Michael W. Deem and Ramdas Pophale) SiO2 
 PCOD9133147
Probable space group: C M
;
_chemical_formula_sum "Si O2"
_cell_formula_units_Z 18
_cell_length_a 7.613955
_cell_length_b 20.750687
_cell_length_c 5.373953
_cell_angle_alpha 90.000000
_cell_angle_beta 118.999285
_cell_angle_gamma 90.000000
_cell_volume 742.606783
_symmetry_space_group_name_H-M "C M"
_symmetry_group_IT_number 8
_symmetry_cell_setting 'monoclinic'
loop_
_space_group_symop_operation_xyz
x,y,z
x,-y,z
1/2+x,1/2+y,z
1/2+x,1/2-y,z
loop_
_atom_site_type_symbol
_atom_site_label
_atom_site_fract_x
_atom_site_fract_y
_atom_site_fract_z
Si Si1 0.826000 0.393580 0.789010
Si Si2 0.009687 0.500000 0.223283
Si Si3 0.904114 0.292150 0.216614
Si Si4 0.513938 0.651134 0.221964
Si Si5 0.170958 0.392467 0.641134
O O1 0.990956 0.416904 0.700485
O O2 0.892643 0.322921 0.932814
O O3 0.610522 0.388192 0.514299
O O4 0.849648 0.443328 0.027967
O O5 0.167683 0.443107 0.417541
O O6 0.706854 0.320880 0.210203
O O7 0.901958 0.215854 0.230936
O O8 0.095607 0.323609 0.485853
O O9 0.369139 0.613114 0.939167
#
# Coordination Sequence:
#
# PCOD9133147 Si02
#       5
#     4   2   4   4   4
#     4  10  22  40  62  87 122 160 198 247 297 351
#     4  10  22  42  62  86 122 158 204 254 290 344
#     4  10  22  38  60  92 126 154 194 247 300 359
#     4  11  22  38  63  92 121 159 199 241 301 362
#     4  10  22  40  61  88 121 160 201 245 297 353
#
# _framework density 24.238935999999999
#
# number of rings (size 3 to 8) (size 9 to 14) (size 15 to 20)
#    0.000    1.778    0.000    3.333    0.000    9.778 
#    0.000   11.111    0.000    0.000    0.000    0.000 
#    0.000    0.000    0.000    0.000    0.000    0.000 
#
# Total GULP energy -50111.490326 kJ/mol
# GULP energy per Si atom -5567.943370 kJ/mol
# Density = 2.418377 g / cm^3
# Si number density = 24.238936 Si / 1000 Ang^3
#
#
#
# Elastic Constant Matrix: (Units=GPa)
#
#
# Indices 1 2 3 4 5 6 
#
# 1 48.6227 13.0645 17.2719 0.0000 9.5524 0.0000
# 2 13.0645 106.5955 69.6944 0.0000 33.8541 0.0000
# 3 17.2719 69.6944 226.8141 0.0000 66.1208 0.0000
# 4 0.0000 0.0000 0.0000 -188.7355 0.0000 116.6778
# 5 9.5524 33.8541 66.1208 0.0000 37.8360 0.0000
# 6 0.0000 0.0000 0.0000 116.6778 0.0000 -57.1774
#
#
#
# Elastic Compliance Matrix: (Units=1/GPa)
#
#
# Indices 1 2 3 4 5 6 
#
# 1 0.021766 -0.001290 0.000009 0.000000 -0.004357 0.000000
# 2 -0.001290 0.013355 -0.001258 0.000000 -0.009427 0.000000
# 3 0.000009 -0.001258 0.009107 0.000000 -0.014792 0.000000
# 4 0.000000 0.000000 0.000000 0.020259 0.000000 0.041341
# 5 -0.004357 -0.009427 -0.014792 0.000000 0.061813 0.000000
# 6 0.000000 0.000000 0.000000 0.041341 0.000000 0.066873
#
#
# Mechanical properties :
#
#
# Convention : Reuss Voigt Hill
#
# Bulk Modulus (GPa) = 25.54210 64.67711 45.10960
# Shear Modulus (GPa) = 23.66296 -22.81528 0.42384
#
# Velocity S-wave (km/s) = 3.12787 -3.07133 0.41862
# Velocity P-wave (km/s) = 4.85853 3.76346 4.34562
#
# Compressibility (1/GPa) = 0.03915105
#
# Stress axis : x y z
#
# Youngs Moduli (GPa) = 45.94360 74.87623 109.80989
#
# Poissons Ratio (x) = 0.09658 -0.00098
# Poissons Ratio (y) = 0.05926 0.13809
# Poissons Ratio (z) = -0.00041 0.09416
#
# Static dielectric constant tensor:
#      x y z
#    x 2.043240 0.000000 -0.113580 
#    y 0.000000 2.004510 0.000000 
#    z -0.113580 0.000000 1.977960 
# 
# From -- ./inp_files/1320.got.cif
#   From: 2010.05.17/outbox.cif.g08.bks.cpg/sg8_1_cif.got.tgz:1320.got - 2010.06.03 19:46:02.
