data_PCOD9133779
_publ_section_title
;
Structure prediction by ZEFSAII (Michael W. Deem and Ramdas Pophale) SiO2 
 PCOD9133779
Probable space group: C C
;
_chemical_formula_sum "Si O2"
_cell_formula_units_Z 28
_cell_length_a 7.956037
_cell_length_b 32.883293
_cell_length_c 6.742811
_cell_angle_alpha 90.000000
_cell_angle_beta 137.156423
_cell_angle_gamma 90.000000
_cell_volume 1199.558565
_symmetry_space_group_name_H-M "C C"
_symmetry_group_IT_number 9
_symmetry_cell_setting 'monoclinic'
loop_
_space_group_symop_operation_xyz
x,y,z
x,-y,1/2+z
1/2+x,1/2+y,z
1/2+x,1/2-y,1/2+z
loop_
_atom_site_type_symbol
_atom_site_label
_atom_site_fract_x
_atom_site_fract_y
_atom_site_fract_z
Si Si1 0.309320 0.738954 0.888570
Si Si2 0.722643 0.638868 0.690355
Si Si3 0.772315 0.146447 0.990593
Si Si4 0.375545 0.561924 0.942021
Si Si5 0.204457 0.771322 0.238417
Si Si6 0.869860 0.467037 0.951297
Si Si7 0.732971 0.445763 0.425682
O O1 0.296110 0.691642 0.928797
O O2 0.259856 0.765897 0.046323
O O3 0.081447 0.750333 0.554516
O O4 0.987342 0.639776 0.806830
O O5 0.721958 0.681424 0.809634
O O6 0.723008 0.597123 0.811882
O O7 0.475796 0.641736 0.341688
O O8 0.840153 0.110123 0.900848
O O9 0.106868 0.052231 0.288258
O O10 0.119163 0.541946 0.783286
O O11 0.474597 0.545694 0.816822
O O12 0.929271 0.754468 0.020057
O O13 0.910146 0.445480 0.772616
O O14 0.814028 0.514615 0.875444
#
# Coordination Sequence:
#
# PCOD9133779 Si02
#       7
#     4   4   4   4   4   4   4
#     4  10  16  31  52  88 119 158 198 246 285 347
#     4  12  23  35  65  97 121 159 205 258 296 357
#     4  12  22  35  64  94 124 155 208 254 301 349
#     4  10  26  43  62  92 121 160 195 255 304 368
#     4  10  16  33  51  89 122 155 200 245 289 345
#     4  10  25  45  65  86 121 160 202 247 308 370
#     4  10  28  42  67  88 124 157 206 249 311 362
#
# _framework density 23.341919999999998
#
# number of rings (size 3 to 8) (size 9 to 14) (size 15 to 20)
#    0.857    0.571    5.714    0.857    8.000    0.000 
#    0.000    0.000    0.000    1.714    0.000    0.000 
#    0.000    0.000    0.000    0.000    0.000    0.000 
#
# Total GULP energy -78140.978968 kJ/mol
# GULP energy per Si atom -5581.498498 kJ/mol
# Density = 2.328879 g / cm^3
# Si number density = 23.341920 Si / 1000 Ang^3
#
#
#
# Elastic Constant Matrix: (Units=GPa)
#
#
# Indices 1 2 3 4 5 6 
#
# 1 65.6121 22.8669 42.9932 0.0000 29.9285 0.0000
# 2 22.8669 147.3188 2.8017 0.0000 11.4358 0.0000
# 3 42.9932 2.8017 111.3370 0.0000 44.6188 0.0000
# 4 0.0000 0.0000 0.0000 20.0828 0.0000 12.7811
# 5 29.9285 11.4358 44.6188 0.0000 44.1510 0.0000
# 6 0.0000 0.0000 0.0000 12.7811 0.0000 18.9786
#
#
#
# Elastic Compliance Matrix: (Units=1/GPa)
#
#
# Indices 1 2 3 4 5 6 
#
# 1 0.024450 -0.002868 -0.005084 0.000000 -0.010693 0.000000
# 2 -0.002868 0.007320 0.001519 0.000000 -0.001487 0.000000
# 3 -0.005084 0.001519 0.016274 0.000000 -0.013394 0.000000
# 4 0.000000 0.000000 0.000000 0.087143 0.000000 -0.058686
# 5 -0.010693 -0.001487 -0.013394 0.000000 0.043819 0.000000
# 6 0.000000 0.000000 0.000000 -0.058686 0.000000 0.092213
#
#
# Mechanical properties :
#
#
# Convention : Reuss Voigt Hill
#
# Bulk Modulus (GPa) = 28.42682 51.28793 39.85738
# Shear Modulus (GPa) = 16.90271 33.68289 25.29280
#
# Velocity S-wave (km/s) = 2.69390 3.80283 3.29535
# Velocity P-wave (km/s) = 4.67771 6.42668 5.62064
#
# Compressibility (1/GPa) = 0.03517805
#
# Stress axis : x y z
#
# Youngs Moduli (GPa) = 40.90059 136.61641 61.44585
#
# Poissons Ratio (x) = 0.39186 0.31238
# Poissons Ratio (y) = 0.11732 -0.09336
# Poissons Ratio (z) = 0.20793 -0.20757
#
# Static dielectric constant tensor:
#      x y z
#    x 1.918060 0.000000 -0.020750 
#    y 0.000000 1.822200 0.000000 
#    z -0.020750 0.000000 1.929340 
# 
# From -- ./inp_files/6456.got.cif
#   From: 2010.05.17/outbox.cif.g08.bks.cpg/sg9_4_cif.got.tgz:6456.got - 2010.06.03 20:04:27.
