data_PCOD9133321
_publ_section_title
;
Structure prediction by ZEFSAII (Michael W. Deem and Ramdas Pophale) SiO2 
 PCOD9133321
Probable space group: C M
;
_chemical_formula_sum "Si O2"
_cell_formula_units_Z 24
_cell_length_a 9.565911
_cell_length_b 21.371469
_cell_length_c 7.756318
_cell_angle_alpha 90.000000
_cell_angle_beta 51.023556
_cell_angle_gamma 90.000000
_cell_volume 1232.717153
_symmetry_space_group_name_H-M "C M"
_symmetry_group_IT_number 8
_symmetry_cell_setting 'monoclinic'
loop_
_space_group_symop_operation_xyz
x,y,z
x,-y,z
1/2+x,1/2+y,z
1/2+x,1/2-y,z
loop_
_atom_site_type_symbol
_atom_site_label
_atom_site_fract_x
_atom_site_fract_y
_atom_site_fract_z
Si Si1 0.411030 0.679285 0.925230
Si Si2 0.767263 0.744209 0.716836
Si Si3 0.488514 0.427873 0.591480
Si Si4 0.888912 0.574347 0.179298
Si Si5 0.144050 0.623075 0.685781
Si Si6 0.546822 0.857690 0.385596
O O1 0.586650 0.704444 0.884155
O O2 0.348268 0.730099 0.831851
O O3 0.460329 0.617973 0.774997
O O4 0.243498 0.665047 0.176167
O O5 0.711529 0.805325 0.650908
O O6 0.911621 0.700769 0.509779
O O7 0.498171 0.500000 0.639123
O O8 0.676276 0.411984 0.352732
O O9 0.317947 0.417788 0.600041
O O10 0.914202 0.500000 0.137105
O O11 0.972234 0.596957 0.295639
O O12 0.994171 0.610094 0.947038
O O13 0.065472 0.611463 0.558546
#
# Coordination Sequence:
#
# PCOD9133321 Si02
#       6
#     4   4   4   4   4   4
#     4  11  24  40  67  97 134 176 215 275 328 397
#     4  11  23  41  59 101 135 168 216 269 329 397
#     4  10  22  44  68  93 133 177 220 275 331 386
#     4  11  24  45  70  95 134 177 222 277 328 392
#     4  11  25  41  66  98 133 178 217 272 331 397
#     4  12  25  41  68 100 130 176 220 272 335 393
#
# _framework density 19.469187000000002
#
# number of rings (size 3 to 8) (size 9 to 14) (size 15 to 20)
#    0.000    1.000    6.667    0.500    2.333    5.333 
#    0.000    0.000    0.000    0.000    0.000    0.000 
#    0.000    0.000    0.000    0.000    0.000    0.000 
#
# Total GULP energy -67081.202538 kJ/mol
# GULP energy per Si atom -5590.100212 kJ/mol
# Density = 1.942487 g / cm^3
# Si number density = 19.469187 Si / 1000 Ang^3
#
#
#
# Elastic Constant Matrix: (Units=GPa)
#
#
# Indices 1 2 3 4 5 6 
#
# 1 72.9360 29.7800 66.5273 0.0000 -10.7898 0.0000
# 2 29.7800 59.1837 32.7541 0.0000 -16.6138 0.0000
# 3 66.5273 32.7541 117.4658 0.0000 -21.1572 0.0000
# 4 0.0000 0.0000 0.0000 7.0843 0.0000 -15.8433
# 5 -10.7898 -16.6138 -21.1572 0.0000 43.7367 0.0000
# 6 0.0000 0.0000 0.0000 -15.8433 0.0000 18.0821
#
#
#
# Elastic Compliance Matrix: (Units=1/GPa)
#
#
# Indices 1 2 3 4 5 6 
#
# 1 0.030869 -0.007558 -0.015907 0.000000 -0.002950 0.000000
# 2 -0.007558 0.023048 -0.000992 0.000000 0.006411 0.000000
# 3 -0.015907 -0.000992 0.018649 0.000000 0.004720 0.000000
# 4 0.000000 0.000000 0.000000 -0.147117 0.000000 -0.128902
# 5 -0.002950 0.006411 0.004720 0.000000 0.026855 0.000000
# 6 0.000000 0.000000 0.000000 -0.128902 0.000000 -0.057638
#
#
# Mechanical properties :
#
#
# Convention : Reuss Voigt Hill
#
# Bulk Modulus (GPa) = 42.27721 56.41201 49.34461
# Shear Modulus (GPa) = -103.01239 21.81557 -40.59841
#
# Velocity S-wave (km/s) = -7.28185 3.35105 -4.57142
# Velocity P-wave (km/s) = 6.99560 6.63405 1.56968
#
# Compressibility (1/GPa) = 0.02365341
#
# Stress axis : x y z
#
# Youngs Moduli (GPa) = 32.39471 43.38807 53.62276
#
# Poissons Ratio (x) = 0.32791 0.85298
# Poissons Ratio (y) = 0.24482 0.05318
# Poissons Ratio (z) = 0.51530 0.04303
#
# Static dielectric constant tensor:
#      x y z
#    x 1.679460 0.000000 -0.012350 
#    y 0.000000 1.675240 0.000000 
#    z -0.012350 0.000000 1.650790 
# 
# From -- ./inp_files/8916.got.cif
#   From: 2010.05.17/outbox.cif.g08.bks.cpg/sg8_5_cif.got.tgz:8916.got - 2010.06.03 19:46:02.
