data_PCOD9133829
_publ_section_title
;
Structure prediction by ZEFSAII (Michael W. Deem and Ramdas Pophale) SiO2 
 PCOD9133829
Probable space group: C C
;
_chemical_formula_sum "Si O2"
_cell_formula_units_Z 32
_cell_length_a 9.486240
_cell_length_b 16.515033
_cell_length_c 7.694503
_cell_angle_alpha 90.000000
_cell_angle_beta 100.663145
_cell_angle_gamma 90.000000
_cell_volume 1184.647752
_symmetry_space_group_name_H-M "C C"
_symmetry_group_IT_number 9
_symmetry_cell_setting 'monoclinic'
loop_
_space_group_symop_operation_xyz
x,y,z
x,-y,1/2+z
1/2+x,1/2+y,z
1/2+x,1/2-y,1/2+z
loop_
_atom_site_type_symbol
_atom_site_label
_atom_site_fract_x
_atom_site_fract_y
_atom_site_fract_z
Si Si1 0.764380 0.849201 0.700890
Si Si2 0.442233 0.146488 0.204987
Si Si3 0.863399 0.810942 0.083753
Si Si4 0.218324 0.892271 0.949633
Si Si5 0.290566 0.511058 0.577874
Si Si6 0.578544 0.937388 0.272503
Si Si7 0.787447 0.437944 0.345748
Si Si8 0.653244 0.229799 0.843145
O O1 0.604048 0.885001 0.709620
O O2 0.756034 0.795352 0.527298
O O3 0.851109 0.932856 0.691854
O O4 0.812804 0.799595 0.876520
O O5 0.472994 0.242372 0.169196
O O6 0.361422 0.137007 0.372231
O O7 0.335856 0.111216 0.029564
O O8 0.886553 0.908235 0.101140
O O9 0.734140 0.785063 0.181826
O O10 0.110375 0.821905 0.862924
O O11 0.194643 0.984837 0.886256
O O12 0.228006 0.892835 0.161356
O O13 0.229634 0.462501 0.395816
O O14 0.133281 0.548348 0.593219
O O15 0.432411 0.977940 0.294807
O O16 0.543421 0.844355 0.312161
#
# Coordination Sequence:
#
# PCOD9133829 Si02
#       8
#     4   4   4   4   4   4   4   4
#     4  11  20  36  61  83 112 158 190 235 290 342
#     4  11  23  36  54  92 117 147 198 239 290 346
#     4  10  22  35  53  86 124 148 179 245 295 336
#     4  11  23  34  54  85 121 148 186 242 291 340
#     4  10  17  30  52  80 110 141 181 226 283 337
#     4  10  18  30  52  81 109 137 180 230 278 333
#     4  12  20  34  57  82 115 145 191 240 286 334
#     4   9  21  37  49  83 120 146 187 231 289 344
#
# _framework density 27.012249000000001
#
# number of rings (size 3 to 8) (size 9 to 14) (size 15 to 20)
#    0.000    1.500    5.000    2.250    3.500    0.000 
#    0.000    0.000    0.000    0.000    6.500    0.000 
#    0.000    0.000    0.000    0.000    0.000    0.000 
#
# Total GULP energy -89234.876988 kJ/mol
# GULP energy per Si atom -5577.179812 kJ/mol
# Density = 2.695077 g / cm^3
# Si number density = 27.012249 Si / 1000 Ang^3
#
#
#
# Elastic Constant Matrix: (Units=GPa)
#
#
# Indices 1 2 3 4 5 6 
#
# 1 52.3360 21.6925 24.4826 0.0000 -0.0210 0.0000
# 2 21.6925 171.0967 35.8966 0.0000 10.2912 0.0000
# 3 24.4826 35.8966 127.0847 0.0000 -9.7336 0.0000
# 4 0.0000 0.0000 0.0000 44.4264 0.0000 2.3854
# 5 -0.0210 10.2912 -9.7336 0.0000 11.1540 0.0000
# 6 0.0000 0.0000 0.0000 2.3854 0.0000 37.1299
#
#
#
# Elastic Compliance Matrix: (Units=1/GPa)
#
#
# Indices 1 2 3 4 5 6 
#
# 1 0.021637 -0.001863 -0.003758 0.000000 -0.001520 0.000000
# 2 -0.001863 0.007075 -0.002293 0.000000 -0.008532 0.000000
# 3 -0.003758 -0.002293 0.010075 0.000000 0.010901 0.000000
# 4 0.000000 0.000000 0.000000 0.022587 0.000000 -0.001451
# 5 -0.001520 -0.008532 0.010901 0.000000 0.107036 0.000000
# 6 0.000000 0.000000 0.000000 -0.001451 0.000000 0.027026
#
#
# Mechanical properties :
#
#
# Convention : Reuss Voigt Hill
#
# Bulk Modulus (GPa) = 43.55735 57.18454 50.37095
# Shear Modulus (GPa) = 22.83950 36.43843 29.63897
#
# Velocity S-wave (km/s) = 2.91094 3.67680 3.31606
# Velocity P-wave (km/s) = 5.24005 6.26426 5.77491
#
# Compressibility (1/GPa) = 0.02295824
#
# Stress axis : x y z
#
# Youngs Moduli (GPa) = 46.21669 141.33906 99.25131
#
# Poissons Ratio (x) = 0.26336 0.37303
# Poissons Ratio (y) = 0.08612 0.22758
# Poissons Ratio (z) = 0.17370 0.32409
#
# Static dielectric constant tensor:
#      x y z
#    x 2.077550 0.000000 -0.077140 
#    y 0.000000 2.300110 0.000000 
#    z -0.077140 0.000000 2.302780 
# 
# From -- ./inp_files/9462.got.cif
#   From: 2010.05.17/outbox.cif.g08.bks.cpg/sg9_5_cif.got.tgz:9462.got - 2010.06.03 20:04:27.
