data_PCOD9133003
_publ_section_title
;
Structure prediction by ZEFSAII (Michael W. Deem and Ramdas Pophale) SiO2 
 PCOD9133003
Probable space group: C M
;
_chemical_formula_sum "Si O2"
_cell_formula_units_Z 28
_cell_length_a 13.932903
_cell_length_b 8.867697
_cell_length_c 20.552923
_cell_angle_alpha 90.000000
_cell_angle_beta 152.119306
_cell_angle_gamma 90.000000
_cell_volume 1187.490862
_symmetry_space_group_name_H-M "C M"
_symmetry_group_IT_number 8
_symmetry_cell_setting 'monoclinic'
loop_
_space_group_symop_operation_xyz
x,y,z
x,-y,z
1/2+x,1/2+y,z
1/2+x,1/2-y,z
loop_
_atom_site_type_symbol
_atom_site_label
_atom_site_fract_x
_atom_site_fract_y
_atom_site_fract_z
Si Si1 0.473630 0.672243 0.190500
Si Si2 0.116567 0.331157 0.654187
Si Si3 0.545887 0.245779 0.759379
Si Si4 0.497792 0.829621 0.066232
Si Si5 0.508762 0.156426 0.880275
Si Si6 0.104459 0.819327 0.517070
Si Si7 0.887351 0.677931 0.266864
O O1 0.555377 0.500000 0.233697
O O2 0.507580 0.773613 0.147057
O O3 0.517754 0.752454 0.285244
O O4 0.226563 0.660182 0.043789
O O5 0.074102 0.500000 0.607022
O O6 0.044921 0.313409 0.685309
O O7 0.360067 0.294813 0.803168
O O8 0.036431 0.218891 0.550003
O O9 0.557915 0.149900 0.833010
O O10 0.305563 0.287211 0.624641
O O11 0.763200 0.331156 0.898863
O O12 0.643584 0.713320 0.115824
O O13 0.577562 0.000000 0.108261
O O14 0.399297 0.000000 0.833629
O O15 0.950117 0.766352 0.369578
O O16 0.146560 0.000000 0.536384
O O17 0.919677 0.500000 0.290613
#
# Coordination Sequence:
#
# PCOD9133003 Si02
#       7
#     4   4   4   4   4   4   4
#     4  10  21  39  64  93 128 168 211 261 320 382
#     4  11  21  35  59  90 122 159 208 261 314 373
#     4  10  22  39  65  93 124 163 206 255 313 376
#     4  11  24  42  67  99 132 168 215 266 318 381
#     4   9  19  36  57  87 125 163 203 249 308 376
#     4  11  25  45  64  87 126 170 213 261 320 386
#     4  12  26  44  66  93 129 171 218 269 323 382
#
# _framework density 23.579128999999998
#
# number of rings (size 3 to 8) (size 9 to 14) (size 15 to 20)
#    0.000    1.429    0.000    6.000    0.000   13.714 
#    0.000    4.286    0.000    0.000    0.000    0.000 
#    0.000    0.000    0.000    0.000    0.000    0.000 
#
# Total GULP energy -78017.510079 kJ/mol
# GULP energy per Si atom -5572.679291 kJ/mol
# Density = 2.352546 g / cm^3
# Si number density = 23.579129 Si / 1000 Ang^3
#
#
#
# Elastic Constant Matrix: (Units=GPa)
#
#
# Indices 1 2 3 4 5 6 
#
# 1 121.2692 28.4557 23.4445 -0.0003 -30.7077 0.0001
# 2 28.4557 103.1823 18.1826 0.0011 -18.8928 -0.0002
# 3 23.4445 18.1826 74.6315 -0.0005 -10.2569 0.0012
# 4 -0.0003 0.0011 -0.0005 12.0328 0.0005 6.5339
# 5 -30.7077 -18.8928 -10.2569 0.0005 34.0891 0.0000
# 6 0.0001 -0.0002 0.0012 6.5339 0.0000 4.8462
#
#
#
# Elastic Compliance Matrix: (Units=1/GPa)
#
#
# Indices 1 2 3 4 5 6 
#
# 1 0.011123 -0.001100 -0.002016 -0.000001 0.008803 0.000002
# 2 -0.001100 0.011155 -0.001730 -0.000007 0.004671 0.000010
# 3 -0.002016 -0.001730 0.014680 0.000010 0.001642 -0.000017
# 4 -0.000001 -0.000007 0.000010 0.310210 -0.000007 -0.418239
# 5 0.008803 0.004671 0.001642 -0.000007 0.040348 0.000009
# 6 0.000002 0.000010 -0.000017 -0.418239 0.000009 0.770234
#
#
# Mechanical properties :
#
#
# Convention : Reuss Voigt Hill
#
# Bulk Modulus (GPa) = 36.67775 48.80540 42.74158
# Shear Modulus (GPa) = 4.24978 25.46031 14.85505
#
# Velocity S-wave (km/s) = 1.34397 3.28957 2.51272
# Velocity P-wave (km/s) = 4.24232 5.93059 5.15602
#
# Compressibility (1/GPa) = 0.02726449
#
# Stress axis : x y z
#
# Youngs Moduli (GPa) = 89.90130 89.64489 68.12125
#
# Poissons Ratio (x) = 0.09864 0.13735
# Poissons Ratio (y) = 0.09892 0.11786
# Poissons Ratio (z) = 0.18127 0.15510
#
# Static dielectric constant tensor:
#      x y z
#    x 1.906180 0.000000 0.002600 
#    y 0.000000 1.900280 0.000000 
#    z 0.002600 0.000000 1.965550 
# 
# From -- ./inp_files/30763.got.cif
#   From: 2010.05.17/outbox.cif.g08.bks.cpg/sg8_16_cif.got.tgz:30763.got - 2010.06.03 19:46:02.
