data_PCOD9133957
_publ_section_title
;
Structure prediction by ZEFSAII (Michael W. Deem and Ramdas Pophale) SiO2 
 PCOD9133957
Probable space group: C C
;
_chemical_formula_sum "Si O2"
_cell_formula_units_Z 24
_cell_length_a 16.720456
_cell_length_b 7.977297
_cell_length_c 8.939702
_cell_angle_alpha 90.000000
_cell_angle_beta 83.429653
_cell_angle_gamma 90.000000
_cell_volume 1184.581968
_symmetry_space_group_name_H-M "C C"
_symmetry_group_IT_number 9
_symmetry_cell_setting 'monoclinic'
loop_
_space_group_symop_operation_xyz
x,y,z
x,-y,1/2+z
1/2+x,1/2+y,z
1/2+x,1/2-y,1/2+z
loop_
_atom_site_type_symbol
_atom_site_label
_atom_site_fract_x
_atom_site_fract_y
_atom_site_fract_z
Si Si1 0.989260 0.423500 0.108430
Si Si2 0.596229 0.463522 0.307730
Si Si3 0.819533 0.737649 0.116883
Si Si4 0.653569 0.728182 0.071690
Si Si5 0.375096 0.051673 0.387450
Si Si6 0.997862 0.813531 0.062084
O O1 0.932667 0.443972 0.264645
O O2 0.008923 0.613290 0.053084
O O3 0.071132 0.327124 0.118259
O O4 0.934589 0.348896 0.986876
O O5 0.652167 0.571865 0.186393
O O6 0.645491 0.339587 0.404677
O O7 0.534225 0.370381 0.212284
O O8 0.546113 0.586907 0.426186
O O9 0.735955 0.823246 0.091278
O O10 0.826848 0.423705 0.503587
O O11 0.825129 0.668368 0.285737
O O12 0.401784 0.659589 0.575154
#
# Coordination Sequence:
#
# PCOD9133957 Si02
#       6
#     4   4   4   4   4   4
#     4  10  18  34  58  78  98 140 182 210 248 314
#     4  10  21  36  53  76 108 142 172 208 261 316
#     4  10  18  32  52  80 106 132 172 218 256 298
#     4  11  20  32  54  81 108 136 172 221 258 294
#     4   8  17  32  53  74 102 140 176 202 251 324
#     4   9  20  38  56  75 102 140 178 207 256 320
#
# _framework density 20.260314000000001
#
# number of rings (size 3 to 8) (size 9 to 14) (size 15 to 20)
#    0.000    2.667    0.000    5.000    0.000    0.000 
#    0.000    5.000    0.000   12.000    0.000    0.000 
#    0.000    0.000    0.000    0.000    0.000    0.000 
#
# Total GULP energy -66939.756158 kJ/mol
# GULP energy per Si atom -5578.313013 kJ/mol
# Density = 2.021420 g / cm^3
# Si number density = 20.260314 Si / 1000 Ang^3
#
#
#
# Elastic Constant Matrix: (Units=GPa)
#
#
# Indices 1 2 3 4 5 6 
#
# 1 123.4272 -0.4012 31.3409 0.0000 33.9544 0.0000
# 2 -0.4012 20.0661 5.9726 0.0000 10.7652 0.0000
# 3 31.3409 5.9726 115.1445 0.0000 25.2305 0.0000
# 4 0.0000 0.0000 0.0000 24.5377 0.0000 1.0627
# 5 33.9544 10.7652 25.2305 0.0000 20.0055 0.0000
# 6 0.0000 0.0000 0.0000 1.0627 0.0000 20.0562
#
#
#
# Elastic Compliance Matrix: (Units=1/GPa)
#
#
# Indices 1 2 3 4 5 6 
#
# 1 0.028108 0.040819 0.007598 0.000000 -0.079253 0.000000
# 2 0.040819 0.132920 0.017755 0.000000 -0.163198 0.000000
# 3 0.007598 0.017755 0.014669 0.000000 -0.040950 0.000000
# 4 0.000000 0.000000 0.000000 0.040847 0.000000 -0.002164
# 5 -0.079253 -0.163198 -0.040950 0.000000 0.323963 0.000000
# 6 0.000000 0.000000 0.000000 -0.002164 0.000000 0.049975
#
#
# Mechanical properties :
#
#
# Convention : Reuss Voigt Hill
#
# Bulk Modulus (GPa) = 3.24632 36.94025 20.09329
# Shear Modulus (GPa) = 8.91555 27.70158 18.30856
#
# Velocity S-wave (km/s) = 2.10001 3.70169 3.00937
# Velocity P-wave (km/s) = 2.73603 6.04503 4.69192
#
# Compressibility (1/GPa) = 0.30804099
#
# Stress axis : x y z
#
# Youngs Moduli (GPa) = 35.57756 7.52330 68.17271
#
# Poissons Ratio (x) = -0.30709 -0.51799
# Poissons Ratio (y) = -1.45224 -1.21041
# Poissons Ratio (z) = -0.27033 -0.13358
#
# Static dielectric constant tensor:
#      x y z
#    x 1.763720 0.000000 0.010820 
#    y 0.000000 1.731660 0.000000 
#    z 0.010820 0.000000 1.741480 
# 
# From -- ./inp_files/10346.got.cif
#   From: 2010.05.17/outbox.cif.g08.bks.cpg/sg9_6_cif.got.tgz:10346.got - 2010.06.03 20:04:27.
