data_PCOD9133354
_publ_section_title
;
Structure prediction by ZEFSAII (Michael W. Deem and Ramdas Pophale) SiO2 
 PCOD9133354
Probable space group: C M
;
_chemical_formula_sum "Si O2"
_cell_formula_units_Z 26
_cell_length_a 14.698118
_cell_length_b 7.447036
_cell_length_c 19.290905
_cell_angle_alpha 90.000000
_cell_angle_beta 152.741255
_cell_angle_gamma 90.000000
_cell_volume 967.102188
_symmetry_space_group_name_H-M "C M"
_symmetry_group_IT_number 8
_symmetry_cell_setting 'monoclinic'
loop_
_space_group_symop_operation_xyz
x,y,z
x,-y,z
1/2+x,1/2+y,z
1/2+x,1/2-y,z
loop_
_atom_site_type_symbol
_atom_site_label
_atom_site_fract_x
_atom_site_fract_y
_atom_site_fract_z
Si Si1 0.603160 0.796964 0.557630
Si Si2 0.470332 0.282392 0.729585
Si Si3 0.351699 0.200325 0.196050
Si Si4 0.589597 0.787590 0.136128
Si Si5 0.716027 0.703399 0.364799
Si Si6 0.252238 0.786325 0.800507
Si Si7 0.181331 0.500000 0.975300
O O1 0.744496 0.725942 0.593467
O O2 0.410162 0.707401 0.461906
O O3 0.748688 0.800441 0.723367
O O4 0.544644 0.000000 0.499721
O O5 0.488960 0.500000 0.754887
O O6 0.547814 0.256266 0.703829
O O7 0.605109 0.159044 0.869715
O O8 0.296941 0.246846 0.238187
O O9 0.583900 0.206551 0.333471
O O10 0.280417 0.000000 0.133406
O O11 0.243810 0.345774 0.075756
O O12 0.575339 0.695770 0.200685
O O13 0.564885 0.000000 0.130122
O O14 0.423867 0.726903 0.969197
O O15 0.761250 0.500000 0.416643
O O16 0.281030 0.000000 0.808253
#
# Coordination Sequence:
#
# PCOD9133354 Si02
#       7
#     4   4   4   4   4   4   2
#     4  10  24  43  68  98 139 182 229 278 342 415
#     4  10  23  43  65  99 139 179 222 286 345 414
#     4  12  25  43  67 100 138 184 231 291 345 408
#     4  11  23  42  67 105 138 179 233 285 343 415
#     4  11  24  45  68 101 141 186 233 285 343 417
#     4  10  23  40  66 100 135 173 229 280 341 409
#     4  12  22  40  70  98 136 174 236 276 358 394
#
# _framework density 26.884436999999998
#
# number of rings (size 3 to 8) (size 9 to 14) (size 15 to 20)
#    0.000    1.231    1.538    3.231    4.308    6.154 
#    0.000    1.538    0.000    0.000    0.000    0.000 
#    0.000    0.000    0.000    0.000    0.000    0.000 
#
# Total GULP energy -72571.822576 kJ/mol
# GULP energy per Si atom -5582.447890 kJ/mol
# Density = 2.682325 g / cm^3
# Si number density = 26.884437 Si / 1000 Ang^3
#
#
#
# Elastic Constant Matrix: (Units=GPa)
#
#
# Indices 1 2 3 4 5 6 
#
# 1 159.7730 11.0347 19.3451 0.0000 19.4894 -0.0001
# 2 11.0347 163.0722 -0.3709 0.0005 -10.4809 0.0000
# 3 19.3451 -0.3709 63.0418 0.0018 6.6094 0.0001
# 4 0.0000 0.0005 0.0018 35.4618 0.0002 -16.1890
# 5 19.4894 -10.4809 6.6094 0.0002 55.3995 -0.0001
# 6 -0.0001 0.0000 0.0001 -16.1890 -0.0001 12.2534
#
#
#
# Elastic Compliance Matrix: (Units=1/GPa)
#
#
# Indices 1 2 3 4 5 6 
#
# 1 0.006805 -0.000612 -0.001852 0.000000 -0.002289 0.000000
# 2 -0.000612 0.006263 0.000079 0.000000 0.001391 0.000000
# 3 -0.001852 0.000079 0.016569 -0.000002 -0.001310 -0.000003
# 4 0.000000 0.000000 -0.000002 0.071057 0.000000 0.093880
# 5 -0.002289 0.001391 -0.001310 0.000000 0.019275 0.000000
# 6 0.000000 0.000000 -0.000003 0.093880 0.000000 0.205642
#
#
# Mechanical properties :
#
#
# Convention : Reuss Voigt Hill
#
# Bulk Modulus (GPa) = 40.21410 49.54497 44.87954
# Shear Modulus (GPa) = 14.76368 44.34815 29.55592
#
# Velocity S-wave (km/s) = 2.34594 4.06591 3.31927
# Velocity P-wave (km/s) = 4.72531 6.36483 5.60534
#
# Compressibility (1/GPa) = 0.02486690
#
# Stress axis : x y z
#
# Youngs Moduli (GPa) = 146.96149 159.66243 60.35534
#
# Poissons Ratio (x) = 0.09767 0.11176
# Poissons Ratio (y) = 0.08990 -0.00475
# Poissons Ratio (z) = 0.27213 -0.01258
#
# Static dielectric constant tensor:
#      x y z
#    x 2.067370 0.000000 0.109710 
#    y 0.000000 1.959450 0.000000 
#    z 0.109710 0.000000 2.288600 
# 
# From -- ./inp_files/30723.got.cif
#   From: 2010.05.17/outbox.cif.g08.bks.cpg/sg8_16_cif.got.tgz:30723.got - 2010.06.03 19:46:02.
