data_PCOD9133332
_publ_section_title
;
Structure prediction by ZEFSAII (Michael W. Deem and Ramdas Pophale) SiO2 
 PCOD9133332
Probable space group: C M
;
_chemical_formula_sum "Si O2"
_cell_formula_units_Z 28
_cell_length_a 13.838761
_cell_length_b 16.383344
_cell_length_c 4.940466
_cell_angle_alpha 90.000000
_cell_angle_beta 78.979752
_cell_angle_gamma 90.000000
_cell_volume 1099.472546
_symmetry_space_group_name_H-M "C M"
_symmetry_group_IT_number 8
_symmetry_cell_setting 'monoclinic'
loop_
_space_group_symop_operation_xyz
x,y,z
x,-y,z
1/2+x,1/2+y,z
1/2+x,1/2-y,z
loop_
_atom_site_type_symbol
_atom_site_label
_atom_site_fract_x
_atom_site_fract_y
_atom_site_fract_z
Si Si1 0.955590 0.907471 0.973400
Si Si2 0.252495 0.747177 0.575269
Si Si3 0.937604 0.591886 0.727797
Si Si4 0.973933 0.199793 0.482417
Si Si5 0.586301 0.184503 0.013454
Si Si6 0.735784 0.088686 0.212469
Si Si7 0.801625 0.409392 0.296785
O O1 0.004608 0.843165 0.744217
O O2 0.991120 0.000000 0.924787
O O3 0.964397 0.874688 0.273138
O O4 0.837018 0.907193 0.986480
O O5 0.366824 0.739459 0.593481
O O6 0.236102 0.666105 0.407242
O O7 0.239724 0.831123 0.418364
O O8 0.176471 0.738663 0.856764
O O9 0.977760 0.500000 0.747169
O O10 0.897876 0.593767 0.442307
O O11 0.012284 0.657493 0.814663
O O12 0.840671 0.598517 0.970993
O O13 0.035690 0.265586 0.281186
O O14 0.638304 0.102359 0.091371
O O15 0.736122 0.000000 0.348062
O O16 0.757311 0.500000 0.356512
#
# Coordination Sequence:
#
# PCOD9133332 Si02
#       7
#     4   4   4   4   4   4   4
#     4  10  22  45  69  94 134 181 230 285 341 402
#     4  11  25  42  68  97 142 180 228 279 347 409
#     4  10  23  41  67  99 130 171 222 281 342 402
#     4  11  24  41  67  99 134 179 230 277 343 410
#     4  12  25  39  69  99 142 177 227 280 353 414
#     4  10  24  43  68 106 142 179 228 290 354 419
#     4  10  23  45  70  96 134 179 228 278 335 400
#
# _framework density 25.466754000000002
#
# number of rings (size 3 to 8) (size 9 to 14) (size 15 to 20)
#    0.000    1.429    2.857    0.857    8.000    1.714 
#    0.000    1.429    0.000    0.000    0.000    0.000 
#    0.000    0.000    0.000    0.000    0.000    0.000 
#
# Total GULP energy -78406.378064 kJ/mol
# GULP energy per Si atom -5600.455576 kJ/mol
# Density = 2.540879 g / cm^3
# Si number density = 25.466754 Si / 1000 Ang^3
#
#
#
# Elastic Constant Matrix: (Units=GPa)
#
#
# Indices 1 2 3 4 5 6 
#
# 1 58.2549 14.9633 19.9254 0.0000 -7.7483 0.0000
# 2 14.9633 184.2312 36.7031 0.0000 -18.8400 0.0000
# 3 19.9254 36.7031 110.5035 0.0000 -14.0464 0.0000
# 4 0.0000 0.0000 0.0000 33.8045 0.0000 5.3102
# 5 -7.7483 -18.8400 -14.0464 0.0000 38.7365 0.0000
# 6 0.0000 0.0000 0.0000 5.3102 0.0000 29.2971
#
#
#
# Elastic Compliance Matrix: (Units=1/GPa)
#
#
# Indices 1 2 3 4 5 6 
#
# 1 0.018627 -0.000709 -0.002824 0.000000 0.002357 0.000000
# 2 -0.000709 0.006029 -0.001593 0.000000 0.002213 0.000000
# 3 -0.002824 -0.001593 0.010397 0.000000 0.002430 0.000000
# 4 0.000000 0.000000 0.000000 0.030449 0.000000 -0.005519
# 5 0.002357 0.002213 0.002430 0.000000 0.028244 0.000000
# 6 0.000000 0.000000 0.000000 -0.005519 0.000000 0.035133
#
#
# Mechanical properties :
#
#
# Convention : Reuss Voigt Hill
#
# Bulk Modulus (GPa) = 40.32127 55.13035 47.72581
# Shear Modulus (GPa) = 33.92136 39.12746 36.52441
#
# Velocity S-wave (km/s) = 3.65360 3.92396 3.79119
# Velocity P-wave (km/s) = 5.80221 6.49807 6.15998
#
# Compressibility (1/GPa) = 0.02480080
#
# Stress axis : x y z
#
# Youngs Moduli (GPa) = 53.68427 165.85654 96.18371
#
# Poissons Ratio (x) = 0.11765 0.27158
# Poissons Ratio (y) = 0.03808 0.15326
# Poissons Ratio (z) = 0.15158 0.26428
#
# Static dielectric constant tensor:
#      x y z
#    x 2.034780 0.000000 0.014320 
#    y 0.000000 2.021190 0.000000 
#    z 0.014320 0.000000 1.963750 
# 
# From -- ./inp_files/4937.got.cif
#   From: 2010.05.17/outbox.cif.g08.bks.cpg/sg8_3_cif.got.tgz:4937.got - 2010.06.03 19:46:02.
