data_PCOD9133999
_publ_section_title
;
Structure prediction by ZEFSAII (Michael W. Deem and Ramdas Pophale) SiO2 
 PCOD9133999
Probable space group: C C
;
_chemical_formula_sum "Si O2"
_cell_formula_units_Z 28
_cell_length_a 15.170778
_cell_length_b 17.612344
_cell_length_c 12.162013
_cell_angle_alpha 90.000000
_cell_angle_beta 153.678968
_cell_angle_gamma 90.000000
_cell_volume 1440.875314
_symmetry_space_group_name_H-M "C C"
_symmetry_group_IT_number 9
_symmetry_cell_setting 'monoclinic'
loop_
_space_group_symop_operation_xyz
x,y,z
x,-y,1/2+z
1/2+x,1/2+y,z
1/2+x,1/2-y,1/2+z
loop_
_atom_site_type_symbol
_atom_site_label
_atom_site_fract_x
_atom_site_fract_y
_atom_site_fract_z
Si Si1 0.383850 0.638816 0.067250
Si Si2 0.490297 0.884131 0.030744
Si Si3 0.302491 0.504340 0.631802
Si Si4 0.491364 0.914858 0.410325
Si Si5 0.220635 0.943221 0.552706
Si Si6 0.435174 0.950543 0.582718
Si Si7 0.326409 0.804979 0.047922
O O1 0.360223 0.565213 0.116143
O O2 0.316396 0.715334 0.055006
O O3 0.612675 0.654929 0.300034
O O4 0.229105 0.624253 0.794198
O O5 0.420930 0.818279 0.034283
O O6 0.436456 0.963209 0.034861
O O7 0.365210 0.886297 0.780029
O O8 0.195490 0.461670 0.614558
O O9 0.126568 0.550662 0.375870
O O10 0.501703 0.553768 0.859875
O O11 0.463674 0.898621 0.507778
O O12 0.454397 0.846082 0.285826
O O13 0.318798 0.974594 0.185599
O O14 0.247045 0.933890 0.450783
#
# Coordination Sequence:
#
# PCOD9133999 Si02
#       7
#     4   4   4   4   4   4   4
#     4  11  20  33  55  78 110 136 177 224 277 315
#     4  10  20  33  50  82 107 135 181 215 270 324
#     4  10  18  34  51  81 107 142 175 217 271 323
#     4  10  19  32  50  80 114 136 178 221 264 322
#     4  10  19  33  53  76 112 144 174 216 271 322
#     4   9  19  33  49  76 115 137 173 219 263 322
#     4  12  19  34  54  81 107 140 174 224 272 322
#
# _framework density 19.432632999999999
#
# number of rings (size 3 to 8) (size 9 to 14) (size 15 to 20)
#    0.000    1.714    7.143    0.000    0.000    6.857 
#    0.000    0.000    0.000    0.000    7.429    0.000 
#    0.000    0.000    0.000    0.000    0.000    0.000 
#
# Total GULP energy -77978.554265 kJ/mol
# GULP energy per Si atom -5569.896733 kJ/mol
# Density = 1.938840 g / cm^3
# Si number density = 19.432633 Si / 1000 Ang^3
#
#
#
# Elastic Constant Matrix: (Units=GPa)
#
#
# Indices 1 2 3 4 5 6 
#
# 1 96.2508 0.9246 46.9091 0.0000 2.9910 0.0000
# 2 0.9246 36.3815 14.6079 0.0000 -8.4875 0.0000
# 3 46.9091 14.6079 73.1476 0.0000 14.0416 0.0000
# 4 0.0000 0.0000 0.0000 26.3599 0.0000 2.8942
# 5 2.9910 -8.4875 14.0416 0.0000 34.8797 0.0000
# 6 0.0000 0.0000 0.0000 2.8942 0.0000 17.6780
#
#
#
# Elastic Compliance Matrix: (Units=1/GPa)
#
#
# Indices 1 2 3 4 5 6 
#
# 1 0.016321 0.005838 -0.012611 0.000000 0.005098 0.000000
# 2 0.005838 0.035984 -0.013563 0.000000 0.013716 0.000000
# 3 -0.012611 -0.013563 0.026978 0.000000 -0.013080 0.000000
# 4 0.000000 0.000000 0.000000 0.038631 0.000000 -0.006325
# 5 0.005098 0.013716 -0.013080 0.000000 0.036836 0.000000
# 6 0.000000 0.000000 0.000000 -0.006325 0.000000 0.057603
#
#
# Mechanical properties :
#
#
# Convention : Reuss Voigt Hill
#
# Bulk Modulus (GPa) = 25.89955 36.74035 31.31995
# Shear Modulus (GPa) = 18.80443 25.33941 22.07192
#
# Velocity S-wave (km/s) = 3.11412 3.61496 3.37384
# Velocity P-wave (km/s) = 5.12710 6.03088 5.59726
#
# Compressibility (1/GPa) = 0.03861071
#
# Stress axis : x y z
#
# Youngs Moduli (GPa) = 61.26957 27.79040 37.06732
#
# Poissons Ratio (x) = -0.16225 0.46747
# Poissons Ratio (y) = -0.35771 0.50274
# Poissons Ratio (z) = 0.77269 0.37692
#
# Static dielectric constant tensor:
#      x y z
#    x 1.767770 0.000000 0.025390 
#    y 0.000000 1.684040 0.000000 
#    z 0.025390 0.000000 1.750280 
# 
# From -- ./inp_files/16935.got.cif
#   From: 2010.05.17/outbox.cif.g08.bks.cpg/sg9_9_cif.got.tgz:16935.got - 2010.06.03 20:04:27.
