data_PCOD9133562
_publ_section_title
;
Structure prediction by ZEFSAII (Michael W. Deem and Ramdas Pophale) SiO2 
 PCOD9133562
Probable space group: C M
;
_chemical_formula_sum "Si O2"
_cell_formula_units_Z 28
_cell_length_a 10.274910
_cell_length_b 25.703795
_cell_length_c 6.789338
_cell_angle_alpha 90.000000
_cell_angle_beta 130.824629
_cell_angle_gamma 90.000000
_cell_volume 1356.858428
_symmetry_space_group_name_H-M "C M"
_symmetry_group_IT_number 8
_symmetry_cell_setting 'monoclinic'
loop_
_space_group_symop_operation_xyz
x,y,z
x,-y,z
1/2+x,1/2+y,z
1/2+x,1/2-y,z
loop_
_atom_site_type_symbol
_atom_site_label
_atom_site_fract_x
_atom_site_fract_y
_atom_site_fract_z
Si Si1 0.949370 0.559377 0.478250
Si Si2 0.241138 0.561030 0.098697
Si Si3 0.598288 0.399436 0.267743
Si Si4 0.570894 0.302233 0.501280
Si Si5 0.090316 0.367448 0.297139
Si Si6 0.915487 0.261053 0.010405
Si Si7 0.941686 0.164820 0.781316
O O1 0.964010 0.500000 0.421481
O O2 0.768330 0.566768 0.410914
O O3 0.964339 0.599074 0.310804
O O4 0.105164 0.568632 0.785756
O O5 0.239628 0.500000 0.150324
O O6 0.432189 0.576095 0.211511
O O7 0.176048 0.595677 0.216981
O O8 0.643974 0.346626 0.430142
O O9 0.536345 0.380729 0.991123
O O10 0.441733 0.266804 0.246989
O O11 0.482048 0.330958 0.593211
O O12 0.722902 0.269204 0.746398
O O13 0.239093 0.345901 0.588530
O O14 0.002623 0.317404 0.110581
O O15 0.992132 0.219410 0.932580
#
# Coordination Sequence:
#
# PCOD9133562 Si02
#       7
#     4   4   4   4   4   4   4
#     4  11  25  45  70 100 133 178 230 282 345 405
#     4  11  24  44  71 100 134 179 229 283 342 403
#     4  11  23  44  69  99 139 176 225 281 348 400
#     4  11  24  41  63 100 136 182 229 276 341 411
#     4  12  23  45  70  97 138 179 223 282 341 401
#     4  11  25  40  65  99 138 181 226 281 337 410
#     4  11  24  41  65 101 131 183 224 275 342 414
#
# _framework density 20.635902999999999
#
# number of rings (size 3 to 8) (size 9 to 14) (size 15 to 20)
#    0.000    0.857    4.286    2.571    2.000    2.286 
#    0.000    0.000    0.000    0.000    0.000    0.000 
#    0.000    0.000    0.000    0.000    0.000    0.000 
#
# Total GULP energy -78216.000789 kJ/mol
# GULP energy per Si atom -5586.857199 kJ/mol
# Density = 2.058893 g / cm^3
# Si number density = 20.635903 Si / 1000 Ang^3
#
#
#
# Elastic Constant Matrix: (Units=GPa)
#
#
# Indices 1 2 3 4 5 6 
#
# 1 77.9983 17.3819 16.4379 0.0000 -11.5869 0.0000
# 2 17.3819 96.1164 29.2045 0.0000 -19.8607 0.0000
# 3 16.4379 29.2045 92.4314 0.0000 -1.9707 0.0000
# 4 0.0000 0.0000 0.0000 32.0056 0.0000 -0.4056
# 5 -11.5869 -19.8607 -1.9707 0.0000 28.6229 0.0000
# 6 0.0000 0.0000 0.0000 -0.4056 0.0000 24.2728
#
#
#
# Elastic Compliance Matrix: (Units=1/GPa)
#
#
# Indices 1 2 3 4 5 6 
#
# 1 0.014211 -0.000889 -0.002140 0.000000 0.004989 0.000000
# 2 -0.000889 0.013580 -0.003945 0.000000 0.008791 0.000000
# 3 -0.002140 -0.003945 0.012387 0.000000 -0.002751 0.000000
# 4 0.000000 0.000000 0.000000 0.031251 0.000000 0.000522
# 5 0.004989 0.008791 -0.002751 0.000000 0.042867 0.000000
# 6 0.000000 0.000000 0.000000 0.000522 0.000000 0.041207
#
#
# Mechanical properties :
#
#
# Convention : Reuss Voigt Hill
#
# Bulk Modulus (GPa) = 38.12422 43.62165 40.87293
# Shear Modulus (GPa) = 28.05906 30.54839 29.30372
#
# Velocity S-wave (km/s) = 3.69144 3.85171 3.77242
# Velocity P-wave (km/s) = 6.05671 6.40043 6.23094
#
# Compressibility (1/GPa) = 0.02623004
#
# Stress axis : x y z
#
# Youngs Moduli (GPa) = 70.36817 73.63700 80.72787
#
# Poissons Ratio (x) = 0.06546 0.17276
# Poissons Ratio (y) = 0.06255 0.31849
# Poissons Ratio (z) = 0.15059 0.29052
#
# Static dielectric constant tensor:
#      x y z
#    x 1.766730 0.000000 0.011120 
#    y 0.000000 1.735860 0.000000 
#    z 0.011120 0.000000 1.723600 
# 
# From -- ./inp_files/1952.got.cif
#   From: 2010.05.17/outbox.cif.g08.bks.cpg/sg8_1_cif.got.tgz:1952.got - 2010.06.03 19:46:02.
