data_PCOD9133399
_publ_section_title
;
Structure prediction by ZEFSAII (Michael W. Deem and Ramdas Pophale) SiO2 
 PCOD9133399
Probable space group: C M
;
_chemical_formula_sum "Si O2"
_cell_formula_units_Z 28
_cell_length_a 8.782174
_cell_length_b 27.047968
_cell_length_c 5.080327
_cell_angle_alpha 90.000000
_cell_angle_beta 104.122100
_cell_angle_gamma 90.000000
_cell_volume 1170.309325
_symmetry_space_group_name_H-M "C M"
_symmetry_group_IT_number 8
_symmetry_cell_setting 'monoclinic'
loop_
_space_group_symop_operation_xyz
x,y,z
x,-y,z
1/2+x,1/2+y,z
1/2+x,1/2-y,z
loop_
_atom_site_type_symbol
_atom_site_label
_atom_site_fract_x
_atom_site_fract_y
_atom_site_fract_z
Si Si1 0.139290 0.314055 0.278010
Si Si2 0.442914 0.500000 0.497851
Si Si3 0.818632 0.600891 0.282296
Si Si4 0.351690 0.241814 0.125789
Si Si5 0.140716 0.000000 0.089853
Si Si6 0.079771 0.824023 0.969217
Si Si7 0.040088 0.384973 0.870233
Si Si8 0.320640 0.601679 0.660564
O O1 0.258960 0.269692 0.314771
O O2 0.096860 0.329037 0.958127
O O3 0.218007 0.360520 0.444909
O O4 0.975412 0.294823 0.312493
O O5 0.488295 0.500000 0.212150
O O6 0.355659 0.449468 0.533846
O O7 0.592515 0.500000 0.762982
O O8 0.734369 0.548601 0.210964
O O9 0.683313 0.642875 0.214739
O O10 0.206804 0.590574 0.862244
O O11 0.941284 0.603094 0.090410
O O12 0.221005 0.210113 0.910220
O O13 0.452638 0.284406 0.022704
O O14 0.978711 0.866729 0.782914
O O15 0.918819 0.394634 0.587599
#
# Coordination Sequence:
#
# PCOD9133399 Si02
#       8
#     4   2   4   4   2   4   4   4
#     4  11  24  48  70 114 154 204 255 317 382 455
#     4  12  30  48  83 119 150 201 258 314 395 460
#     4  12  27  49  80 107 154 202 253 321 379 458
#     4  10  23  44  71 109 155 203 263 303 390 459
#     4  12  28  52  77 119 148 201 258 314 393 464
#     4  11  23  44  71 111 149 203 251 321 375 452
#     4  12  25  50  74 111 153 200 251 314 385 442
#     4  12  27  48  79 112 158 202 253 329 380 462
#
# _framework density 23.925301999999999
#
# number of rings (size 3 to 8) (size 9 to 14) (size 15 to 20)
#    0.000    0.571    5.714    0.857    4.000    2.286 
#   10.286    0.714    0.000    0.000    0.000    0.000 
#    0.000    0.000    0.000    0.000    0.000    0.000 
#
# Total GULP energy -78199.204438 kJ/mol
# GULP energy per Si atom -5585.657460 kJ/mol
# Density = 2.387085 g / cm^3
# Si number density = 23.925302 Si / 1000 Ang^3
#
#
#
# Elastic Constant Matrix: (Units=GPa)
#
#
# Indices 1 2 3 4 5 6 
#
# 1 138.1731 56.6101 31.6947 0.0000 23.3108 0.0000
# 2 56.6101 145.8321 19.0451 0.0000 22.3589 0.0000
# 3 31.6947 19.0451 96.9232 0.0000 11.9570 0.0000
# 4 0.0000 0.0000 0.0000 28.7050 0.0000 16.2936
# 5 23.3108 22.3589 11.9570 0.0000 37.9090 0.0000
# 6 0.0000 0.0000 0.0000 16.2936 0.0000 41.7385
#
#
#
# Elastic Compliance Matrix: (Units=1/GPa)
#
#
# Indices 1 2 3 4 5 6 
#
# 1 0.009484 -0.002874 -0.002108 0.000000 -0.003472 0.000000
# 2 -0.002874 0.008499 -0.000343 0.000000 -0.003137 0.000000
# 3 -0.002108 -0.000343 0.011330 0.000000 -0.002075 0.000000
# 4 0.000000 0.000000 0.000000 0.044754 0.000000 -0.017471
# 5 -0.003472 -0.003137 -0.002075 0.000000 0.031019 0.000000
# 6 0.000000 0.000000 0.000000 -0.017471 0.000000 0.030779
#
#
# Mechanical properties :
#
#
# Convention : Reuss Voigt Hill
#
# Bulk Modulus (GPa) = 53.58452 66.18091 59.88272
# Shear Modulus (GPa) = 32.73622 39.90905 36.32264
#
# Velocity S-wave (km/s) = 3.70302 4.08863 3.90060
# Velocity P-wave (km/s) = 6.38188 7.07183 6.73569
#
# Compressibility (1/GPa) = 0.01866211
#
# Stress axis : x y z
#
# Youngs Moduli (GPa) = 105.43935 117.66621 88.25898
#
# Poissons Ratio (x) = 0.33817 0.18608
# Poissons Ratio (y) = 0.30303 0.03028
# Poissons Ratio (z) = 0.22230 0.04038
#
# Static dielectric constant tensor:
#      x y z
#    x 1.960580 0.000000 -0.015980 
#    y 0.000000 1.955720 0.000000 
#    z -0.015980 0.000000 1.961460 
# 
# From -- ./inp_files/2046.got.cif
#   From: 2010.05.17/outbox.cif.g08.bks.cpg/sg8_2_cif.got.tgz:2046.got - 2010.06.03 19:46:02.
