data_PCOD9133776
_publ_section_title
;
Structure prediction by ZEFSAII (Michael W. Deem and Ramdas Pophale) SiO2 
 PCOD9133776
Probable space group: C C
;
_chemical_formula_sum "Si O2"
_cell_formula_units_Z 28
_cell_length_a 8.326870
_cell_length_b 14.894235
_cell_length_c 9.187094
_cell_angle_alpha 90.000000
_cell_angle_beta 76.548662
_cell_angle_gamma 90.000000
_cell_volume 1108.148722
_symmetry_space_group_name_H-M "C C"
_symmetry_group_IT_number 9
_symmetry_cell_setting 'monoclinic'
loop_
_space_group_symop_operation_xyz
x,y,z
x,-y,1/2+z
1/2+x,1/2+y,z
1/2+x,1/2-y,1/2+z
loop_
_atom_site_type_symbol
_atom_site_label
_atom_site_fract_x
_atom_site_fract_y
_atom_site_fract_z
Si Si1 0.776330 0.601812 0.530280
Si Si2 0.103899 0.712989 0.503521
Si Si3 0.226842 0.560212 0.654731
Si Si4 0.399548 0.059605 0.189382
Si Si5 0.635505 0.780071 0.648521
Si Si6 0.481542 0.387252 0.589665
Si Si7 0.935329 0.979179 0.361321
O O1 0.935756 0.655442 0.552608
O O2 0.798965 0.583686 0.355301
O O3 0.791289 0.504462 0.605949
O O4 0.635540 0.677040 0.589285
O O5 0.101073 0.802722 0.595929
O O6 0.228001 0.646292 0.554623
O O7 0.124782 0.723046 0.326671
O O8 0.358071 0.500244 0.536878
O O9 0.300124 0.574723 0.797551
O O10 0.058187 0.503780 0.700153
O O11 0.491837 0.152141 0.121327
O O12 0.810809 0.831321 0.587285
O O13 0.567518 0.418321 0.413807
O O14 0.469759 0.439458 0.747403
#
# Coordination Sequence:
#
# PCOD9133776 Si02
#       7
#     4   4   4   4   4   4   4
#     4   9  20  31  56  84 108 151 192 229 292 348
#     4   9  18  32  53  79 108 149 185 231 293 339
#     4  10  16  30  56  81 104 145 189 225 291 341
#     4  10  17  32  56  83 110 147 188 237 287 345
#     4  10  17  33  56  78 111 149 188 234 284 342
#     4  10  19  31  54  79 111 140 189 235 279 349
#     4  10  17  29  55  82 102 141 183 223 284 340
#
# _framework density 25.267364000000001
#
# number of rings (size 3 to 8) (size 9 to 14) (size 15 to 20)
#    0.000    2.286    4.286    1.714    0.000    0.000 
#    0.000    1.429   15.714    0.000    0.000    0.000 
#    0.000    0.000    0.000    0.000    0.000    0.000 
#
# Total GULP energy -77986.396455 kJ/mol
# GULP energy per Si atom -5570.456890 kJ/mol
# Density = 2.520985 g / cm^3
# Si number density = 25.267364 Si / 1000 Ang^3
#
#
#
# Elastic Constant Matrix: (Units=GPa)
#
#
# Indices 1 2 3 4 5 6 
#
# 1 49.4343 9.2677 12.3819 0.0000 4.7864 0.0000
# 2 9.2677 112.0692 45.7796 0.0000 -0.3749 0.0000
# 3 12.3819 45.7796 106.2286 0.0000 5.8830 0.0000
# 4 0.0000 0.0000 0.0000 40.1606 0.0000 -7.7169
# 5 4.7864 -0.3749 5.8830 0.0000 24.5958 0.0000
# 6 0.0000 0.0000 0.0000 -7.7169 0.0000 18.5698
#
#
#
# Elastic Compliance Matrix: (Units=1/GPa)
#
#
# Indices 1 2 3 4 5 6 
#
# 1 0.021238 -0.001021 -0.001830 0.000000 -0.003711 0.000000
# 2 -0.001021 0.010920 -0.004669 0.000000 0.001482 0.000000
# 3 -0.001830 -0.004669 0.011779 0.000000 -0.002533 0.000000
# 4 0.000000 0.000000 0.000000 0.027061 0.000000 0.011245
# 5 -0.003711 0.001482 -0.002533 0.000000 0.042008 0.000000
# 6 0.000000 0.000000 0.000000 0.011245 0.000000 0.058524
#
#
# Mechanical properties :
#
#
# Convention : Reuss Voigt Hill
#
# Bulk Modulus (GPa) = 34.60577 44.73227 39.66902
# Shear Modulus (GPa) = 25.48396 30.01878 27.75137
#
# Velocity S-wave (km/s) = 3.17925 3.45054 3.31767
# Velocity P-wave (km/s) = 5.21559 5.79802 5.51450
#
# Compressibility (1/GPa) = 0.02889692
#
# Stress axis : x y z
#
# Youngs Moduli (GPa) = 47.08552 91.57770 84.89484
#
# Poissons Ratio (x) = 0.09352 0.15535
# Poissons Ratio (y) = 0.04809 0.39637
# Poissons Ratio (z) = 0.08616 0.42757
#
# Static dielectric constant tensor:
#      x y z
#    x 2.094300 0.000000 -0.100330 
#    y 0.000000 2.345190 0.000000 
#    z -0.100330 0.000000 1.900580 
# 
# From -- ./inp_files/7164.got.cif
#   From: 2010.05.17/outbox.cif.g08.bks.cpg/sg9_4_cif.got.tgz:7164.got - 2010.06.03 20:04:27.
