data_PCOD9133421
_publ_section_title
;
Structure prediction by ZEFSAII (Michael W. Deem and Ramdas Pophale) SiO2 
 PCOD9133421
Probable space group: C M
;
_chemical_formula_sum "Si O2"
_cell_formula_units_Z 28
_cell_length_a 9.247797
_cell_length_b 9.594792
_cell_length_c 23.406578
_cell_angle_alpha 90.000000
_cell_angle_beta 37.797001
_cell_angle_gamma 90.000000
_cell_volume 1272.849597
_symmetry_space_group_name_H-M "C M"
_symmetry_group_IT_number 8
_symmetry_cell_setting 'monoclinic'
loop_
_space_group_symop_operation_xyz
x,y,z
x,-y,z
1/2+x,1/2+y,z
1/2+x,1/2-y,z
loop_
_atom_site_type_symbol
_atom_site_label
_atom_site_fract_x
_atom_site_fract_y
_atom_site_fract_z
Si Si1 0.344740 0.150807 0.161650
Si Si2 0.588264 0.160559 0.884745
Si Si3 0.961159 0.660559 0.698298
Si Si4 0.838451 0.250000 0.291522
Si Si5 0.574510 0.340820 0.998623
Si Si6 0.325254 0.849193 0.421393
Si Si7 0.402914 0.159180 0.584420
O O1 0.371307 0.171357 0.221151
O O2 0.068783 0.157110 0.231140
O O3 0.443289 0.000000 0.113701
O O4 0.464627 0.276578 0.090230
O O5 0.792039 0.250000 0.791522
O O6 0.514915 0.238340 0.965612
O O7 0.356902 0.159097 0.917480
O O8 0.660622 0.000000 0.872368
O O9 0.984009 0.500000 0.710675
O O10 0.860737 0.659097 0.665563
O O11 0.211275 0.738340 0.617432
O O12 0.589823 0.171358 0.361893
O O13 0.827262 0.342889 0.351902
O O14 0.496088 0.500000 0.013795
O O15 0.159458 0.723422 0.492814
O O16 0.232009 0.000000 0.469342
O O17 0.385182 0.000000 0.569248
#
# Coordination Sequence:
#
# PCOD9133421 Si02
#       7
#     4   4   4   4   4   4   4
#     4  11  23  41  64  90 123 163 207 255 308 365
#     4  11  24  42  65  93 125 162 205 252 305 365
#     4  11  24  42  65  93 125 162 205 252 305 365
#     4  10  24  40  62  92 124 160 206 258 310 364
#     4  11  25  42  63  93 127 163 205 253 306 365
#     4  11  23  41  64  90 123 163 207 255 308 365
#     4  11  25  42  63  93 127 163 205 253 306 365
#
# _framework density 21.997886000000001
#
# number of rings (size 3 to 8) (size 9 to 14) (size 15 to 20)
#    0.000    1.143    0.000    5.143    0.000   18.286 
#    0.000    0.000    0.000    0.000    0.000    0.000 
#    0.000    0.000    0.000    0.000    0.000    0.000 
#
# Total GULP energy -78324.609957 kJ/mol
# GULP energy per Si atom -5594.614997 kJ/mol
# Density = 2.194782 g / cm^3
# Si number density = 21.997886 Si / 1000 Ang^3
#
#
#
# Elastic Constant Matrix: (Units=GPa)
#
#
# Indices 1 2 3 4 5 6 
#
# 1 106.0367 30.3304 11.2534 0.0000 -2.2073 0.0000
# 2 30.3304 183.2707 32.1256 -0.0001 0.1551 0.0000
# 3 11.2534 32.1256 70.4956 -0.0007 -0.8617 0.0000
# 4 0.0000 -0.0001 -0.0007 28.4803 0.0000 1.4182
# 5 -2.2073 0.1551 -0.8617 0.0000 34.7228 0.0000
# 6 0.0000 0.0000 0.0000 1.4182 0.0000 12.0480
#
#
#
# Elastic Compliance Matrix: (Units=1/GPa)
#
#
# Indices 1 2 3 4 5 6 
#
# 1 0.009966 -0.001491 -0.000904 0.000000 0.000618 0.000000
# 2 -0.001491 0.006154 -0.002568 0.000000 -0.000186 0.000000
# 3 -0.000904 -0.002568 0.015504 0.000000 0.000339 0.000000
# 4 0.000000 0.000000 0.000000 0.035319 0.000000 -0.004157
# 5 0.000618 -0.000186 0.000339 0.000000 0.028848 0.000000
# 6 0.000000 0.000000 0.000000 -0.004157 0.000000 0.083491
#
#
# Mechanical properties :
#
#
# Convention : Reuss Voigt Hill
#
# Bulk Modulus (GPa) = 46.09009 56.35798 51.22404
# Shear Modulus (GPa) = 25.45294 34.12314 29.78804
#
# Velocity S-wave (km/s) = 3.40525 3.94280 3.68385
# Velocity P-wave (km/s) = 6.03809 6.81197 6.43667
#
# Compressibility (1/GPa) = 0.02169664
#
# Stress axis : x y z
#
# Youngs Moduli (GPa) = 100.34048 162.50605 64.49888
#
# Poissons Ratio (x) = 0.24237 0.05829
# Poissons Ratio (y) = 0.14965 0.16566
# Poissons Ratio (z) = 0.09068 0.41739
#
# Static dielectric constant tensor:
#      x y z
#    x 1.781650 0.000000 0.000620 
#    y 0.000000 1.777930 0.000000 
#    z 0.000620 0.000000 1.788890 
# 
# From -- ./inp_files/32750.got.cif
#   From: 2010.05.17/outbox.cif.g08.bks.cpg/sg8_17_cif.got.tgz:32750.got - 2010.06.03 19:46:02.
