data_PCOD9133478
_publ_section_title
;
Structure prediction by ZEFSAII (Michael W. Deem and Ramdas Pophale) SiO2 
 PCOD9133478
Probable space group: C M
;
_chemical_formula_sum "Si O2"
_cell_formula_units_Z 32
_cell_length_a 20.984604
_cell_length_b 7.745687
_cell_length_c 25.594674
_cell_angle_alpha 90.000000
_cell_angle_beta 157.193919
_cell_angle_gamma 90.000000
_cell_volume 1612.534941
_symmetry_space_group_name_H-M "C M"
_symmetry_group_IT_number 8
_symmetry_cell_setting 'monoclinic'
loop_
_space_group_symop_operation_xyz
x,y,z
x,-y,z
1/2+x,1/2+y,z
1/2+x,1/2-y,z
loop_
_atom_site_type_symbol
_atom_site_label
_atom_site_fract_x
_atom_site_fract_y
_atom_site_fract_z
Si Si1 0.949370 0.210557 0.650090
Si Si2 0.767847 0.799494 0.332541
Si Si3 0.639253 0.199524 0.621339
Si Si4 0.761343 0.699402 0.825301
Si Si5 0.639488 0.789987 0.343786
Si Si6 0.629322 0.299530 0.118539
Si Si7 0.924445 0.710282 0.273764
Si Si8 0.732014 0.210528 0.579302
O O1 0.806559 0.257981 0.500893
O O2 0.883761 0.264890 0.657359
O O3 0.124417 0.272802 0.761531
O O4 0.954441 0.000000 0.653856
O O5 0.659276 0.733453 0.299138
O O6 0.674512 0.786643 0.207482
O O7 0.943829 0.707653 0.463962
O O8 0.806671 0.000000 0.372456
O O9 0.685698 0.290486 0.710178
O O10 0.723920 0.270883 0.632729
O O11 0.688569 0.000000 0.664981
O O12 0.787936 0.500000 0.859421
O O13 0.938802 0.784633 0.961307
O O14 0.488571 0.728896 0.265739
O O15 0.631059 0.000000 0.337340
O O16 0.671825 0.500000 0.157992
O O17 0.749362 0.231841 0.163509
O O18 0.923191 0.500000 0.270425
O O19 0.065418 0.758866 0.422362
O O20 0.732398 0.000000 0.581172
#
# Coordination Sequence:
#
# PCOD9133478 Si02
#       8
#     4   4   4   4   4   4   4   4
#     4   8  14  28  51  77 103 133 175 219 256 300
#     4  11  20  33  55  83 110 138 175 221 266 313
#     4  11  20  33  55  83 110 138 175 221 266 313
#     4  11  22  37  55  78 108 144 178 218 266 318
#     4   8  14  27  51  80 103 129 173 223 258 298
#     4  11  22  37  55  78 108 144 178 218 266 318
#     4   8  14  28  51  77 103 133 175 219 256 300
#     4   8  14  27  51  80 103 129 173 223 258 298
#
# _framework density 19.844529999999999
#
# number of rings (size 3 to 8) (size 9 to 14) (size 15 to 20)
#    0.000    2.500    2.500    3.000    0.000    0.000 
#    0.000    1.250    0.000   15.000    0.000    0.000 
#    0.000    0.000    0.000    0.000    0.000    0.000 
#
# Total GULP energy -89234.257127 kJ/mol
# GULP energy per Si atom -5577.141070 kJ/mol
# Density = 1.979936 g / cm^3
# Si number density = 19.844530 Si / 1000 Ang^3
#
#
#
# Elastic Constant Matrix: (Units=GPa)
#
#
# Indices 1 2 3 4 5 6 
#
# 1 172.4315 2.5485 61.7651 -0.0007 38.7153 0.0002
# 2 2.5485 32.1165 -5.3818 0.0000 3.7507 -0.0005
# 3 61.7651 -5.3818 87.5365 0.0007 25.4063 -0.0013
# 4 -0.0007 0.0000 0.0007 19.3377 0.0003 -4.9159
# 5 38.7153 3.7507 25.4063 0.0003 32.9678 0.0000
# 6 0.0002 -0.0005 -0.0013 -4.9159 0.0000 7.0761
#
#
#
# Elastic Compliance Matrix: (Units=1/GPa)
#
#
# Indices 1 2 3 4 5 6 
#
# 1 0.008942 -0.000592 -0.004273 0.000000 -0.007140 -0.000001
# 2 -0.000592 0.032631 0.004250 0.000001 -0.006293 0.000004
# 3 -0.004273 0.004250 0.017240 0.000000 -0.008751 0.000004
# 4 0.000000 0.000001 0.000000 0.062804 -0.000001 0.043631
# 5 -0.007140 -0.006293 -0.008751 -0.000001 0.046178 -0.000002
# 6 -0.000001 0.000004 0.000004 0.043631 -0.000002 0.171631
#
#
# Mechanical properties :
#
#
# Convention : Reuss Voigt Hill
#
# Bulk Modulus (GPa) = 17.36628 45.54979 31.45804
# Shear Modulus (GPa) = 13.89465 27.41983 20.65724
#
# Velocity S-wave (km/s) = 2.64895 3.72120 3.22988
# Velocity P-wave (km/s) = 4.25748 6.43943 5.45859
#
# Compressibility (1/GPa) = 0.05758284
#
# Stress axis : x y z
#
# Youngs Moduli (GPa) = 111.83027 30.64596 58.00354
#
# Poissons Ratio (x) = 0.01814 0.24788
# Poissons Ratio (y) = 0.06618 -0.24652
# Poissons Ratio (z) = 0.47790 -0.13025
#
# Static dielectric constant tensor:
#      x y z
#    x 1.732990 0.000000 0.039120 
#    y 0.000000 1.747380 0.000000 
#    z 0.039120 0.000000 1.641590 
# 
# From -- ./inp_files/33067.got.cif
#   From: 2010.05.17/outbox.cif.g08.bks.cpg/sg8_17_cif.got.tgz:33067.got - 2010.06.03 19:46:02.
