data_PCOD9133770
_publ_section_title
;
Structure prediction by ZEFSAII (Michael W. Deem and Ramdas Pophale) SiO2 
 PCOD9133770
Probable space group: C C
;
_chemical_formula_sum "Si O2"
_cell_formula_units_Z 28
_cell_length_a 28.823790
_cell_length_b 7.523951
_cell_length_c 5.458323
_cell_angle_alpha 90.000000
_cell_angle_beta 79.452625
_cell_angle_gamma 90.000000
_cell_volume 1163.739271
_symmetry_space_group_name_H-M "C C"
_symmetry_group_IT_number 9
_symmetry_cell_setting 'monoclinic'
loop_
_space_group_symop_operation_xyz
x,y,z
x,-y,1/2+z
1/2+x,1/2+y,z
1/2+x,1/2-y,1/2+z
loop_
_atom_site_type_symbol
_atom_site_label
_atom_site_fract_x
_atom_site_fract_y
_atom_site_fract_z
Si Si1 0.928490 0.897648 0.802950
Si Si2 0.793318 0.802228 0.565008
Si Si3 0.830418 0.784615 0.030145
Si Si4 0.125237 0.395696 0.647146
Si Si5 0.700612 0.611832 0.556362
Si Si6 0.539920 0.600712 0.229076
Si Si7 0.026377 0.523865 0.743397
O O1 0.885422 0.770551 0.910113
O O2 0.983357 0.852465 0.780092
O O3 0.922151 0.955524 0.526441
O O4 0.802434 0.716426 0.821289
O O5 0.739054 0.770216 0.548826
O O6 0.812185 0.006577 0.565633
O O7 0.820937 0.715473 0.310440
O O8 0.139027 0.501459 0.384846
O O9 0.150003 0.205795 0.618334
O O10 0.068170 0.379344 0.702868
O O11 0.706165 0.516263 0.287606
O O12 0.550239 0.500331 0.469302
O O13 0.558344 0.799353 0.212332
O O14 0.998684 0.499850 0.520185
#
# Coordination Sequence:
#
# PCOD9133770 Si02
#       7
#     4   4   4   4   4   4   4
#     4  10  16  30  51  89 125 148 200 257 286 346
#     4  10  20  31  57  82 118 156 203 245 296 344
#     4  10  17  32  55  94 107 159 206 251 274 350
#     4  10  23  43  67  90 117 160 208 254 301 379
#     4  12  26  43  61  90 130 162 202 262 322 362
#     4  10  21  35  62  96 125 158 198 262 314 353
#     4  10  21  42  63  89 122 163 201 251 305 384
#
# _framework density 24.060371
#
# number of rings (size 3 to 8) (size 9 to 14) (size 15 to 20)
#    0.000    1.714    2.857    2.571    4.000    0.000 
#    0.000   17.143    0.000    5.143    0.000    0.000 
#    0.000    0.000    0.000    0.000    0.000    0.000 
#
# Total GULP energy -78100.290912 kJ/mol
# GULP energy per Si atom -5578.592208 kJ/mol
# Density = 2.400561 g / cm^3
# Si number density = 24.060371 Si / 1000 Ang^3
#
#
#
# Elastic Constant Matrix: (Units=GPa)
#
#
# Indices 1 2 3 4 5 6 
#
# 1 57.5059 -11.8152 -16.8272 0.0000 -2.8604 0.0000
# 2 -11.8152 54.7600 37.4283 0.0000 5.6250 0.0000
# 3 -16.8272 37.4283 215.7734 0.0000 17.5214 0.0000
# 4 0.0000 0.0000 0.0000 29.3495 0.0000 4.6133
# 5 -2.8604 5.6250 17.5214 0.0000 26.0161 0.0000
# 6 0.0000 0.0000 0.0000 4.6133 0.0000 10.5082
#
#
#
# Elastic Compliance Matrix: (Units=1/GPa)
#
#
# Indices 1 2 3 4 5 6 
#
# 1 0.018345 0.003340 0.000789 0.000000 0.000763 0.000000
# 2 0.003340 0.021443 -0.003293 0.000000 -0.002052 0.000000
# 3 0.000789 -0.003293 0.005503 0.000000 -0.002908 0.000000
# 4 0.000000 0.000000 0.000000 0.036598 0.000000 -0.016067
# 5 0.000763 -0.002052 -0.002908 0.000000 0.040924 0.000000
# 6 0.000000 0.000000 0.000000 -0.016067 0.000000 0.102218
#
#
# Mechanical properties :
#
#
# Convention : Reuss Voigt Hill
#
# Bulk Modulus (GPa) = 21.29227 38.40123 29.84675
# Shear Modulus (GPa) = 20.91950 34.45830 27.68890
#
# Velocity S-wave (km/s) = 2.95186 3.78849 3.39604
# Velocity P-wave (km/s) = 4.52622 5.92722 5.27345
#
# Compressibility (1/GPa) = 0.04696540
#
# Stress axis : x y z
#
# Youngs Moduli (GPa) = 54.51157 46.63445 181.70997
#
# Poissons Ratio (x) = -0.15577 -0.14341
# Poissons Ratio (y) = -0.18208 0.59828
# Poissons Ratio (z) = -0.04302 0.15354
#
# Static dielectric constant tensor:
#      x y z
#    x 1.962590 0.000000 0.006700 
#    y 0.000000 1.993010 0.000000 
#    z 0.006700 0.000000 1.999510 
# 
# From -- ./inp_files/3368.got.cif
#   From: 2010.05.17/outbox.cif.g08.bks.cpg/sg9_2_cif.got.tgz:3368.got - 2010.06.03 20:04:27.
