data_PCOD9133884
_publ_section_title
;
Structure prediction by ZEFSAII (Michael W. Deem and Ramdas Pophale) SiO2 
 PCOD9133884
Probable space group: C C
;
_chemical_formula_sum "Si O2"
_cell_formula_units_Z 24
_cell_length_a 7.842334
_cell_length_b 12.896421
_cell_length_c 10.021134
_cell_angle_alpha 90.000000
_cell_angle_beta 59.464566
_cell_angle_gamma 90.000000
_cell_volume 872.958251
_symmetry_space_group_name_H-M "C C"
_symmetry_group_IT_number 9
_symmetry_cell_setting 'monoclinic'
loop_
_space_group_symop_operation_xyz
x,y,z
x,-y,1/2+z
1/2+x,1/2+y,z
1/2+x,1/2-y,1/2+z
loop_
_atom_site_type_symbol
_atom_site_label
_atom_site_fract_x
_atom_site_fract_y
_atom_site_fract_z
Si Si1 0.603820 0.327950 0.705400
Si Si2 0.825950 0.012823 0.440436
Si Si3 0.219483 0.894504 0.378165
Si Si4 0.235195 0.379016 0.244252
Si Si5 0.677371 0.715224 0.623888
Si Si6 0.415107 0.891744 0.794370
O O1 0.663662 0.325570 0.528029
O O2 0.592306 0.217877 0.782479
O O3 0.783845 0.382094 0.713126
O O4 0.414018 0.396492 0.811786
O O5 0.727898 0.061078 0.608226
O O6 0.321698 0.183959 0.445869
O O7 0.013286 0.950457 0.421290
O O8 0.265653 0.832688 0.224386
O O9 0.365936 0.990060 0.356507
O O10 0.464396 0.337604 0.169495
O O11 0.200339 0.444010 0.390295
O O12 0.621731 0.835062 0.676135
#
# Coordination Sequence:
#
# PCOD9133884 Si02
#       6
#     4   4   4   4   4   4
#     4  10  19  33  59  90 117 160 205 250 304 371
#     4  10  17  35  59  84 117 154 202 248 303 361
#     4  10  18  36  61  87 117 166 208 249 307 373
#     4  10  19  33  59  89 116 156 205 250 303 364
#     4  10  20  35  60  96 119 162 211 253 307 376
#     4  10  19  36  62  90 126 160 207 258 310 365
#
# _framework density 27.492725
#
# number of rings (size 3 to 8) (size 9 to 14) (size 15 to 20)
#    0.000    2.000    5.000    2.000    0.000    0.000 
#    3.000    0.000    0.000   14.000    0.000    0.000 
#    0.000    0.000    0.000    0.000    0.000    0.000 
#
# Total GULP energy -67330.760358 kJ/mol
# GULP energy per Si atom -5610.896696 kJ/mol
# Density = 2.743015 g / cm^3
# Si number density = 27.492725 Si / 1000 Ang^3
#
#
#
# Elastic Constant Matrix: (Units=GPa)
#
#
# Indices 1 2 3 4 5 6 
#
# 1 115.2615 41.2408 56.8718 0.0000 10.9641 0.0000
# 2 41.2408 160.3757 62.5862 0.0000 10.9631 0.0000
# 3 56.8718 62.5862 202.9687 0.0000 20.5705 0.0000
# 4 0.0000 0.0000 0.0000 56.8993 0.0000 12.8473
# 5 10.9641 10.9631 20.5705 0.0000 43.0306 0.0000
# 6 0.0000 0.0000 0.0000 12.8473 0.0000 28.9542
#
#
#
# Elastic Compliance Matrix: (Units=1/GPa)
#
#
# Indices 1 2 3 4 5 6 
#
# 1 0.010541 -0.001734 -0.002303 0.000000 -0.001143 0.000000
# 2 -0.001734 0.007400 -0.001734 0.000000 -0.000615 0.000000
# 3 -0.002303 -0.001734 0.006308 0.000000 -0.001987 0.000000
# 4 0.000000 0.000000 0.000000 0.019532 0.000000 -0.008666
# 5 -0.001143 -0.000615 -0.001987 0.000000 0.024637 0.000000
# 6 0.000000 0.000000 0.000000 -0.008666 0.000000 0.038383
#
#
# Mechanical properties :
#
#
# Convention : Reuss Voigt Hill
#
# Bulk Modulus (GPa) = 78.68980 88.88926 83.78953
# Shear Modulus (GPa) = 40.79027 46.97063 43.88045
#
# Velocity S-wave (km/s) = 3.85603 4.13785 3.99942
# Velocity P-wave (km/s) = 6.96487 7.43177 7.20211
#
# Compressibility (1/GPa) = 0.01270813
#
# Stress axis : x y z
#
# Youngs Moduli (GPa) = 94.86346 135.13928 158.52397
#
# Poissons Ratio (x) = 0.23430 0.36512
# Poissons Ratio (y) = 0.16447 0.27482
# Poissons Ratio (z) = 0.21849 0.23428
#
# Static dielectric constant tensor:
#      x y z
#    x 2.148090 0.000000 -0.056680 
#    y 0.000000 2.249930 0.000000 
#    z -0.056680 0.000000 2.006730 
# 
# From -- ./inp_files/14170.got.cif
#   From: 2010.05.17/outbox.cif.g08.bks.cpg/sg9_8_cif.got.tgz:14170.got - 2010.06.03 20:04:27.
