data_PCOD9133036
_publ_section_title
;
Structure prediction by ZEFSAII (Michael W. Deem and Ramdas Pophale) SiO2 
 PCOD9133036
Probable space group: C M
;
_chemical_formula_sum "Si O2"
_cell_formula_units_Z 26
_cell_length_a 9.202832
_cell_length_b 16.810144
_cell_length_c 8.145337
_cell_angle_alpha 90.000000
_cell_angle_beta 113.827253
_cell_angle_gamma 90.000000
_cell_volume 1152.690640
_symmetry_space_group_name_H-M "C M"
_symmetry_group_IT_number 8
_symmetry_cell_setting 'monoclinic'
loop_
_space_group_symop_operation_xyz
x,y,z
x,-y,z
1/2+x,1/2+y,z
1/2+x,1/2-y,z
loop_
_atom_site_type_symbol
_atom_site_label
_atom_site_fract_x
_atom_site_fract_y
_atom_site_fract_z
Si Si1 0.948140 0.647279 0.033730
Si Si2 0.225948 0.775894 0.174453
Si Si3 0.074293 0.500000 0.303863
Si Si4 0.489495 0.704981 0.545816
Si Si5 0.520577 0.125928 0.700118
Si Si6 0.191542 0.908851 0.408561
Si Si7 0.808664 0.918250 0.660396
O O1 0.799064 0.695292 0.036889
O O2 0.982038 0.571054 0.161960
O O3 0.092520 0.709854 0.103805
O O4 0.944660 0.621479 0.843756
O O5 0.363620 0.736960 0.352355
O O6 0.163360 0.855682 0.235184
O O7 0.185057 0.432828 0.453685
O O8 0.555361 0.785597 0.651552
O O9 0.609261 0.644080 0.512630
O O10 0.406586 0.657873 0.656042
O O11 0.382745 0.089465 0.521547
O O12 0.692668 0.086888 0.762925
O O13 0.134225 0.000000 0.377088
O O14 0.907447 0.000000 0.716058
#
# Coordination Sequence:
#
# PCOD9133036 Si02
#       7
#     4   4   2   4   4   4   4
#     4  12  26  41  66  94 131 159 214 263 322 362
#     4  11  23  44  63  94 121 171 208 262 310 376
#     4  10  22  40  68  94 118 164 214 268 294 380
#     4  11  21  42  65  91 121 170 212 256 301 385
#     4  11  25  39  64  92 129 167 203 260 317 376
#     4  11  24  40  66  95 126 166 213 258 312 377
#     4  10  21  40  65  90 117 162 214 251 305 370
#
# _framework density 22.555921999999999
#
# number of rings (size 3 to 8) (size 9 to 14) (size 15 to 20)
#    0.462    0.615    3.077    4.615    9.692    0.000 
#    0.000    0.000    0.000    0.000    0.000    0.000 
#    0.000    0.000    0.000    0.000    0.000    0.000 
#
# Total GULP energy -72371.942908 kJ/mol
# GULP energy per Si atom -5567.072531 kJ/mol
# Density = 2.250458 g / cm^3
# Si number density = 22.555922 Si / 1000 Ang^3
#
#
#
# Elastic Constant Matrix: (Units=GPa)
#
#
# Indices 1 2 3 4 5 6 
#
# 1 65.6255 28.9278 -5.2869 0.0000 -25.4522 0.0000
# 2 28.9278 151.6191 -1.9737 0.0000 -3.0374 0.0000
# 3 -5.2869 -1.9737 27.1878 0.0000 -8.7607 0.0000
# 4 0.0000 0.0000 0.0000 1.1800 0.0000 -0.9532
# 5 -25.4522 -3.0374 -8.7607 0.0000 29.1941 0.0000
# 6 0.0000 0.0000 0.0000 -0.9532 0.0000 9.2452
#
#
#
# Elastic Compliance Matrix: (Units=1/GPa)
#
#
# Indices 1 2 3 4 5 6 
#
# 1 0.030701 -0.005036 0.015566 0.000000 0.030913 0.000000
# 2 -0.005036 0.007450 -0.001775 0.000000 -0.004148 0.000000
# 3 0.015566 -0.001775 0.048702 0.000000 0.028001 0.000000
# 4 0.000000 0.000000 0.000000 0.924436 0.000000 0.095313
# 5 0.030913 -0.004148 0.028001 0.000000 0.069175 0.000000
# 6 0.000000 0.000000 0.000000 0.095313 0.000000 0.117992
#
#
# Mechanical properties :
#
#
# Convention : Reuss Voigt Hill
#
# Bulk Modulus (GPa) = 9.58193 31.97409 20.77801
# Shear Modulus (GPa) = 4.11274 22.77487 13.44381
#
# Velocity S-wave (km/s) = 1.35178 3.18104 2.44400
# Velocity P-wave (km/s) = 2.58722 5.26291 4.14680
#
# Compressibility (1/GPa) = 0.10436306
#
# Stress axis : x y z
#
# Youngs Moduli (GPa) = 32.57215 134.22747 20.53313
#
# Poissons Ratio (x) = 0.67592 -0.31961
# Poissons Ratio (y) = 0.16402 0.03644
# Poissons Ratio (z) = -0.50701 0.23824
#
# Static dielectric constant tensor:
#      x y z
#    x 1.854450 0.000000 -0.031790 
#    y 0.000000 1.803730 0.000000 
#    z -0.031790 0.000000 1.850230 
# 
# From -- ./inp_files/8302.got.cif
#   From: 2010.05.17/outbox.cif.g08.bks.cpg/sg8_5_cif.got.tgz:8302.got - 2010.06.03 19:46:02.
