data_PCOD9133825
_publ_section_title
;
Structure prediction by ZEFSAII (Michael W. Deem and Ramdas Pophale) SiO2 
 PCOD9133825
Probable space group: C C
;
_chemical_formula_sum "Si O2"
_cell_formula_units_Z 32
_cell_length_a 17.950727
_cell_length_b 7.380201
_cell_length_c 18.160256
_cell_angle_alpha 90.000000
_cell_angle_beta 29.560089
_cell_angle_gamma 90.000000
_cell_volume 1186.902578
_symmetry_space_group_name_H-M "C C"
_symmetry_group_IT_number 9
_symmetry_cell_setting 'monoclinic'
loop_
_space_group_symop_operation_xyz
x,y,z
x,-y,1/2+z
1/2+x,1/2+y,z
1/2+x,1/2-y,1/2+z
loop_
_atom_site_type_symbol
_atom_site_label
_atom_site_fract_x
_atom_site_fract_y
_atom_site_fract_z
Si Si1 0.942350 0.924686 0.210910
Si Si2 0.869067 0.647492 0.915115
Si Si3 0.051907 0.699573 0.629795
Si Si4 0.138063 0.507658 0.908709
Si Si5 0.287692 0.515131 0.140818
Si Si6 0.596313 0.381805 0.938163
Si Si7 0.957520 0.935608 0.362359
Si Si8 0.760576 0.581797 0.157865
O O1 0.949703 0.856453 0.287471
O O2 0.930082 0.143407 0.221665
O O3 0.785532 0.875251 0.307255
O O4 0.084852 0.888173 0.036329
O O5 0.930944 0.848529 0.875676
O O6 0.978067 0.575020 0.756661
O O7 0.698691 0.691226 0.033520
O O8 0.868770 0.547619 0.993663
O O9 0.084209 0.600622 0.525495
O O10 0.182715 0.406780 0.795658
O O11 0.034835 0.676839 0.973986
O O12 0.454752 0.503408 0.033458
O O13 0.236531 0.304115 0.171297
O O14 0.323294 0.613989 0.033811
O O15 0.738220 0.439363 0.766280
O O16 0.123828 0.946643 0.251525
#
# Coordination Sequence:
#
# PCOD9133825 Si02
#       8
#     4   4   4   4   4   4   4   4
#     4  10  19  34  54  82 111 144 183 226 281 324
#     4  10  17  29  50  82 107 132 180 227 269 305
#     4  11  19  33  54  82 111 142 179 231 271 324
#     4  10  19  36  52  80 112 146 183 224 279 328
#     4   8  17  30  53  78 106 141 183 227 269 319
#     4   9  19  34  53  78 112 144 178 225 275 332
#     4   9  15  28  54  76 105 139 175 226 271 316
#     4   9  15  30  50  80 102 136 183 230 265 312
#
# _framework density 26.960930000000001
#
# number of rings (size 3 to 8) (size 9 to 14) (size 15 to 20)
#    0.000    2.500    5.000    0.000    0.000    0.000 
#    6.750    0.000    0.000    6.000    0.000    0.000 
#    0.000    0.000    0.000    0.000    0.000    0.000 
#
# Total GULP energy -89123.470174 kJ/mol
# GULP energy per Si atom -5570.216886 kJ/mol
# Density = 2.689957 g / cm^3
# Si number density = 26.960930 Si / 1000 Ang^3
#
#
#
# Elastic Constant Matrix: (Units=GPa)
#
#
# Indices 1 2 3 4 5 6 
#
# 1 86.4059 12.5886 70.1958 0.0000 39.7260 0.0000
# 2 12.5886 58.2284 18.5042 0.0001 10.3813 0.0000
# 3 70.1958 18.5042 254.7270 0.0000 81.8317 0.0000
# 4 0.0000 0.0001 0.0000 30.1536 0.0000 8.5903
# 5 39.7260 10.3813 81.8317 0.0000 68.8940 0.0000
# 6 0.0000 0.0000 0.0000 8.5903 0.0000 13.2172
#
#
#
# Elastic Compliance Matrix: (Units=1/GPa)
#
#
# Indices 1 2 3 4 5 6 
#
# 1 0.016789 -0.001696 -0.002386 0.000000 -0.006592 0.000000
# 2 -0.001696 0.017895 -0.000454 0.000000 -0.001180 0.000000
# 3 -0.002386 -0.000454 0.006714 0.000000 -0.006531 0.000000
# 4 0.000000 0.000000 0.000000 0.040699 0.000000 -0.026452
# 5 -0.006592 -0.001180 -0.006531 0.000000 0.026251 0.000000
# 6 0.000000 0.000000 0.000000 -0.026452 0.000000 0.092851
#
#
# Mechanical properties :
#
#
# Convention : Reuss Voigt Hill
#
# Bulk Modulus (GPa) = 30.93380 66.88205 48.90793
# Shear Modulus (GPa) = 22.61957 42.32446 32.47201
#
# Velocity S-wave (km/s) = 2.89965 3.96642 3.47423
# Velocity P-wave (km/s) = 4.76541 6.77035 5.85434
#
# Compressibility (1/GPa) = 0.03232709
#
# Stress axis : x y z
#
# Youngs Moduli (GPa) = 59.56189 55.88172 148.93481
#
# Poissons Ratio (x) = 0.09479 0.35534
# Poissons Ratio (y) = 0.10104 0.06754
# Poissons Ratio (z) = 0.14211 0.02534
#
# Static dielectric constant tensor:
#      x y z
#    x 2.512210 0.000000 -0.178190 
#    y 0.000000 2.178090 0.000000 
#    z -0.178190 0.000000 2.328450 
# 
# From -- ./inp_files/20151.got.cif
#   From: 2010.05.17/outbox.cif.g08.bks.cpg/sg9_11_cif.got.tgz:20151.got - 2010.06.03 20:04:27.
