data_PCOD9133118
_publ_section_title
;
Structure prediction by ZEFSAII (Michael W. Deem and Ramdas Pophale) SiO2 
 PCOD9133118
Probable space group: C M
;
_chemical_formula_sum "Si O2"
_cell_formula_units_Z 28
_cell_length_a 8.724541
_cell_length_b 26.758113
_cell_length_c 9.460639
_cell_angle_alpha 90.000000
_cell_angle_beta 144.249704
_cell_angle_gamma 90.000000
_cell_volume 1290.387453
_symmetry_space_group_name_H-M "C M"
_symmetry_group_IT_number 8
_symmetry_cell_setting 'monoclinic'
loop_
_space_group_symop_operation_xyz
x,y,z
x,-y,z
1/2+x,1/2+y,z
1/2+x,1/2-y,z
loop_
_atom_site_type_symbol
_atom_site_label
_atom_site_fract_x
_atom_site_fract_y
_atom_site_fract_z
Si Si1 0.698290 0.555797 0.381730
Si Si2 0.571728 0.851332 0.294285
Si Si3 0.249892 0.055771 0.950141
Si Si4 0.292719 0.687472 0.724321
Si Si5 0.821213 0.922773 0.834312
Si Si6 0.770713 0.290371 0.865245
Si Si7 0.631015 0.383699 0.601908
O O1 0.655394 0.500000 0.408626
O O2 0.617908 0.597958 0.433585
O O3 0.014549 0.562094 0.601869
O O4 0.509906 0.559398 0.103407
O O5 0.563207 0.828307 0.443753
O O6 0.847828 0.874629 0.457303
O O7 0.380556 0.898209 0.131468
O O8 0.517091 0.806296 0.144586
O O9 0.263648 0.073583 0.798266
O O10 0.955826 0.057022 0.791949
O O11 0.358000 0.000000 0.051204
O O12 0.338113 0.637363 0.846107
O O13 0.532375 0.698986 0.795881
O O14 0.253707 0.735419 0.791307
O O15 0.769038 0.330821 0.736807
#
# Coordination Sequence:
#
# PCOD9133118 Si02
#       7
#     4   4   4   4   4   4   4
#     4  12  28  46  70 105 146 190 236 290 358 418
#     4  10  21  45  66 100 139 173 241 288 348 425
#     4  11  22  42  72  98 133 186 234 291 353 421
#     4  11  24  43  68 100 134 181 232 291 354 421
#     4  12  26  47  69 102 147 183 235 295 353 426
#     4  10  24  42  68 101 131 181 234 288 358 419
#     4  10  24  45  67 100 138 180 237 293 342 428
#
# _framework density 21.698907999999999
#
# number of rings (size 3 to 8) (size 9 to 14) (size 15 to 20)
#    0.000    1.143    4.286    2.571    6.000    4.571 
#    0.000    0.000    0.000    0.000    0.000    0.000 
#    0.000    0.000    0.000    0.000    0.000    0.000 
#
# Total GULP energy -78136.586526 kJ/mol
# GULP energy per Si atom -5581.184752 kJ/mol
# Density = 2.164952 g / cm^3
# Si number density = 21.698908 Si / 1000 Ang^3
#
#
#
# Elastic Constant Matrix: (Units=GPa)
#
#
# Indices 1 2 3 4 5 6 
#
# 1 15.6507 7.7457 7.1631 0.0000 0.4312 0.0000
# 2 7.7457 156.6741 36.1830 0.0000 -7.5307 0.0000
# 3 7.1631 36.1830 101.1783 0.0000 -4.2365 0.0000
# 4 0.0000 0.0000 0.0000 23.6588 0.0000 -5.0812
# 5 0.4312 -7.5307 -4.2365 0.0000 17.7150 0.0000
# 6 0.0000 0.0000 0.0000 -5.0812 0.0000 24.6575
#
#
#
# Elastic Compliance Matrix: (Units=1/GPa)
#
#
# Indices 1 2 3 4 5 6 
#
# 1 0.067093 -0.002574 -0.003984 0.000000 -0.003680 0.000000
# 2 -0.002574 0.007157 -0.002270 0.000000 0.002562 0.000000
# 3 -0.003984 -0.002270 0.011052 0.000000 0.001775 0.000000
# 4 0.000000 0.000000 0.000000 0.044225 0.000000 0.009114
# 5 -0.003680 0.002562 0.001775 0.000000 0.058053 0.000000
# 6 0.000000 0.000000 0.000000 0.009114 0.000000 0.042434
#
#
# Mechanical properties :
#
#
# Convention : Reuss Voigt Hill
#
# Bulk Modulus (GPa) = 14.78256 41.74297 28.26277
# Shear Modulus (GPa) = 18.50358 28.03366 23.26862
#
# Velocity S-wave (km/s) = 2.92334 3.59825 3.27821
# Velocity P-wave (km/s) = 4.26872 6.04503 5.23280
#
# Compressibility (1/GPa) = 0.06764727
#
# Stress axis : x y z
#
# Youngs Moduli (GPa) = 14.90460 139.71651 90.48376
#
# Poissons Ratio (x) = 0.35961 0.36045
# Poissons Ratio (y) = 0.03836 0.20540
# Poissons Ratio (z) = 0.05937 0.31717
#
# Static dielectric constant tensor:
#      x y z
#    x 1.778900 0.000000 0.035630 
#    y 0.000000 1.778550 0.000000 
#    z 0.035630 0.000000 1.896580 
# 
# From -- ./inp_files/9236.got.cif
#   From: 2010.05.17/outbox.cif.g08.bks.cpg/sg8_5_cif.got.tgz:9236.got - 2010.06.03 19:46:02.
