data_PCOD9133800
_publ_section_title
;
Structure prediction by ZEFSAII (Michael W. Deem and Ramdas Pophale) SiO2 
 PCOD9133800
Probable space group: C C
;
_chemical_formula_sum "Si O2"
_cell_formula_units_Z 28
_cell_length_a 14.810316
_cell_length_b 12.882221
_cell_length_c 19.499544
_cell_angle_alpha 90.000000
_cell_angle_beta 161.869297
_cell_angle_gamma 90.000000
_cell_volume 1157.708463
_symmetry_space_group_name_H-M "C C"
_symmetry_group_IT_number 9
_symmetry_cell_setting 'monoclinic'
loop_
_space_group_symop_operation_xyz
x,y,z
x,-y,1/2+z
1/2+x,1/2+y,z
1/2+x,1/2-y,1/2+z
loop_
_atom_site_type_symbol
_atom_site_label
_atom_site_fract_x
_atom_site_fract_y
_atom_site_fract_z
Si Si1 0.233690 0.871250 0.552310
Si Si2 0.350773 0.662529 0.549092
Si Si3 0.697150 0.816478 0.708012
Si Si4 0.789329 0.470102 0.457997
Si Si5 0.758871 0.181666 0.107047
Si Si6 0.806703 0.167280 0.996053
Si Si7 0.197547 0.354558 0.266760
O O1 0.268416 0.758101 0.540719
O O2 0.155612 0.954155 0.436642
O O3 0.980499 0.867846 0.425279
O O4 0.548401 0.891587 0.812535
O O5 0.495134 0.718662 0.586029
O O6 0.586935 0.589042 0.756902
O O7 0.588911 0.903567 0.680526
O O8 0.679905 0.871561 0.621211
O O9 0.016348 0.771837 0.936774
O O10 0.922276 0.581590 0.539504
O O11 0.054688 0.245977 0.321266
O O12 0.772750 0.116436 0.047003
O O13 0.752558 0.110835 0.885443
O O14 0.100138 0.234087 0.200006
#
# Coordination Sequence:
#
# PCOD9133800 Si02
#       7
#     4   4   4   4   4   4   4
#     4  11  22  41  72  98 139 186 228 288 358 419
#     4  11  20  40  69 107 137 178 235 280 353 430
#     4  10  16  34  64 100 133 166 219 281 358 411
#     4  11  24  41  67 105 141 172 242 302 333 422
#     4   9  17  32  64  91 126 178 214 273 346 425
#     4   9  21  39  61  88 131 183 235 273 348 421
#     4  11  24  45  67  95 139 187 241 293 346 418
#
# _framework density 24.18571
#
# number of rings (size 3 to 8) (size 9 to 14) (size 15 to 20)
#    0.000    1.714    4.286    1.714    0.000    3.429 
#    5.143    0.000    0.000    0.000    0.000    0.000 
#    0.000    0.000    0.000    0.000    0.000    0.000 
#
# Total GULP energy -78061.364654 kJ/mol
# GULP energy per Si atom -5575.811761 kJ/mol
# Density = 2.413066 g / cm^3
# Si number density = 24.185710 Si / 1000 Ang^3
#
#
#
# Elastic Constant Matrix: (Units=GPa)
#
#
# Indices 1 2 3 4 5 6 
#
# 1 186.9639 31.1861 62.4663 0.0172 21.0135 0.0239
# 2 31.1861 69.4231 33.9104 0.3866 3.9658 -0.0552
# 3 62.4663 33.9104 119.9421 0.4518 21.5358 -0.0517
# 4 0.0172 0.3866 0.4518 24.2692 0.0274 -3.7151
# 5 21.0135 3.9658 21.5358 0.0274 41.1186 0.0016
# 6 0.0239 -0.0552 -0.0517 -3.7151 0.0016 11.2339
#
#
#
# Elastic Compliance Matrix: (Units=1/GPa)
#
#
# Indices 1 2 3 4 5 6 
#
# 1 0.006733 -0.001588 -0.002723 0.000072 -0.001861 -0.000011
# 2 -0.001588 0.017122 -0.004263 -0.000193 0.001393 0.000004
# 3 -0.002723 -0.004263 0.011742 -0.000145 -0.004347 -0.000009
# 4 0.000072 -0.000193 -0.000145 0.043407 0.000029 0.014353
# 5 -0.001861 0.001393 -0.004347 0.000029 0.027413 -0.000004
# 6 -0.000011 0.000004 -0.000009 0.014353 -0.000004 0.093763
#
#
# Mechanical properties :
#
#
# Convention : Reuss Voigt Hill
#
# Bulk Modulus (GPa) = 54.20924 70.16161 62.18542
# Shear Modulus (GPa) = 22.37350 31.90876 27.14113
#
# Velocity S-wave (km/s) = 3.04480 3.63619 3.35356
# Velocity P-wave (km/s) = 5.90114 6.83386 6.38456
#
# Compressibility (1/GPa) = 0.01844704
#
# Stress axis : x y z
#
# Youngs Moduli (GPa) = 148.52980 58.40559 85.16441
#
# Poissons Ratio (x) = 0.09276 0.23194
# Poissons Ratio (y) = 0.23590 0.36305
# Poissons Ratio (z) = 0.40452 0.24898
#
# Static dielectric constant tensor:
#      x y z
#    x 1.974490 -0.000040 -0.129570 
#    y -0.000040 1.973190 -0.000110 
#    z -0.129570 -0.000110 1.976840 
# 
# From -- ./inp_files/33812.got.cif
#   From: 2010.05.17/outbox.cif.g08.bks.cpg/sg9_17_cif.got.tgz:33812.got - 2010.06.03 20:04:27.
