data_PCOD9133135
_publ_section_title
;
Structure prediction by ZEFSAII (Michael W. Deem and Ramdas Pophale) SiO2 
 PCOD9133135
Probable space group: C M
;
_chemical_formula_sum "Si O2"
_cell_formula_units_Z 24
_cell_length_a 8.542551
_cell_length_b 15.302836
_cell_length_c 7.510028
_cell_angle_alpha 90.000000
_cell_angle_beta 111.047292
_cell_angle_gamma 90.000000
_cell_volume 916.252190
_symmetry_space_group_name_H-M "C M"
_symmetry_group_IT_number 8
_symmetry_cell_setting 'monoclinic'
loop_
_space_group_symop_operation_xyz
x,y,z
x,-y,z
1/2+x,1/2+y,z
1/2+x,1/2-y,z
loop_
_atom_site_type_symbol
_atom_site_label
_atom_site_fract_x
_atom_site_fract_y
_atom_site_fract_z
Si Si1 0.793310 0.000000 0.563170
Si Si2 0.234260 0.000000 0.825821
Si Si3 0.002850 0.000000 0.362585
Si Si4 0.431741 0.806484 0.232529
Si Si5 0.098159 0.500000 0.802138
Si Si6 0.552613 0.347745 0.760987
Si Si7 0.684997 0.335157 0.424828
Si Si8 0.632155 0.822376 0.989153
O O1 0.814137 0.000000 0.358414
O O2 0.887049 0.907074 0.655399
O O3 0.621313 0.000000 0.598489
O O4 0.171835 0.916460 0.913134
O O5 0.113724 0.000000 0.595284
O O6 0.412010 0.000000 0.804739
O O7 0.061798 0.911234 0.301693
O O8 0.600957 0.756205 0.350897
O O9 0.354052 0.845480 0.381823
O O10 0.506984 0.855696 0.093272
O O11 0.294933 0.733781 0.113988
O O12 0.179393 0.409589 0.902722
O O13 0.666321 0.335076 0.629900
O O14 0.530742 0.253603 0.839125
#
# Coordination Sequence:
#
# PCOD9133135 Si02
#       8
#     2   2   2   4   2   4   4   4
#     4   8  18  34  56  86 110 136 185 232 274 324
#     4   8  18  34  56  86 110 136 185 232 274 324
#     4   8  18  38  58  78 108 148 182 216 274 344
#     4  10  22  38  54  80 114 148 184 226 278 330
#     4  12  22  32  52  86 116 140 182 240 280 310
#     4   9  19  40  62  79 108 154 189 217 272 346
#     4   9  20  38  60  81 108 146 186 225 274 331
#     4  11  23  37  55  82 116 149 184 229 279 326
#
# _framework density 26.193663000000001
#
# number of rings (size 3 to 8) (size 9 to 14) (size 15 to 20)
#    0.000    3.000    0.000    2.000    0.000    8.000 
#    0.000   13.333    0.000    4.000    0.000    0.000 
#    0.000    0.000    0.000    0.000    0.000    0.000 
#
# Total GULP energy -66800.961242 kJ/mol
# GULP energy per Si atom -5566.746770 kJ/mol
# Density = 2.613404 g / cm^3
# Si number density = 26.193663 Si / 1000 Ang^3
#
#
#
# Elastic Constant Matrix: (Units=GPa)
#
#
# Indices 1 2 3 4 5 6 
#
# 1 116.9637 22.2850 35.2060 0.0000 -54.5605 0.0000
# 2 22.2850 106.8603 17.0324 0.0000 -10.1467 0.0000
# 3 35.2060 17.0324 44.3184 0.0000 -29.7338 0.0000
# 4 0.0000 0.0000 0.0000 14.6635 0.0000 3.7143
# 5 -54.5605 -10.1467 -29.7338 0.0000 58.9377 0.0000
# 6 0.0000 0.0000 0.0000 3.7143 0.0000 33.7859
#
#
#
# Elastic Compliance Matrix: (Units=1/GPa)
#
#
# Indices 1 2 3 4 5 6 
#
# 1 0.015750 -0.001535 -0.003502 0.000000 0.012549 0.000000
# 2 -0.001535 0.010122 -0.003711 0.000000 -0.001550 0.000000
# 3 -0.003502 -0.003711 0.036535 0.000000 0.014550 0.000000
# 4 0.000000 0.000000 0.000000 0.070150 0.000000 -0.007712
# 5 0.012549 -0.001550 0.014550 0.000000 0.035658 0.000000
# 6 0.000000 0.000000 0.000000 -0.007712 0.000000 0.030446
#
#
# Mechanical properties :
#
#
# Convention : Reuss Voigt Hill
#
# Bulk Modulus (GPa) = 22.26658 46.35436 34.31047
# Shear Modulus (GPa) = 21.63301 34.38535 28.00918
#
# Velocity S-wave (km/s) = 2.87694 3.62710 3.27358
# Velocity P-wave (km/s) = 4.42210 5.93939 5.23599
#
# Compressibility (1/GPa) = 0.04491035
#
# Stress axis : x y z
#
# Youngs Moduli (GPa) = 63.49105 98.79091 27.37128
#
# Poissons Ratio (x) = 0.15162 0.09587
# Poissons Ratio (y) = 0.09744 0.10158
# Poissons Ratio (z) = 0.22238 0.36664
#
# Static dielectric constant tensor:
#      x y z
#    x 2.094250 0.000000 0.021440 
#    y 0.000000 2.310550 0.000000 
#    z 0.021440 0.000000 2.269510 
# 
# From -- ./inp_files/7922.got.cif
#   From: 2010.05.17/outbox.cif.g08.bks.cpg/sg8_4_cif.got.tgz:7922.got - 2010.06.03 19:46:02.
