data_PCOD9133440
_publ_section_title
;
Structure prediction by ZEFSAII (Michael W. Deem and Ramdas Pophale) SiO2 
 PCOD9133440
Probable space group: C M
;
_chemical_formula_sum "Si O2"
_cell_formula_units_Z 20
_cell_length_a 7.426193
_cell_length_b 22.318425
_cell_length_c 7.088492
_cell_angle_alpha 90.000000
_cell_angle_beta 140.690782
_cell_angle_gamma 90.000000
_cell_volume 744.275846
_symmetry_space_group_name_H-M "C M"
_symmetry_group_IT_number 8
_symmetry_cell_setting 'monoclinic'
loop_
_space_group_symop_operation_xyz
x,y,z
x,-y,z
1/2+x,1/2+y,z
1/2+x,1/2-y,z
loop_
_atom_site_type_symbol
_atom_site_label
_atom_site_fract_x
_atom_site_fract_y
_atom_site_fract_z
Si Si1 0.944190 0.932800 0.327390
Si Si2 0.843425 0.930906 0.800698
Si Si3 0.707949 0.315637 0.499977
Si Si4 0.111576 0.266346 0.113089
Si Si5 0.452574 0.119450 0.195740
O O1 0.678178 0.914183 0.241094
O O2 0.198497 0.884874 0.546987
O O3 0.036693 0.000000 0.445382
O O4 0.858142 0.928897 0.038016
O O5 0.606578 0.887341 0.522863
O O6 0.776041 0.000000 0.693847
O O7 0.148129 0.912047 0.961928
O O8 0.629965 0.298729 0.221612
O O9 0.429701 0.290469 0.378145
O O10 0.971398 0.279532 0.798027
O O11 0.942006 0.312492 0.113127
#
# Coordination Sequence:
#
# PCOD9133440 Si02
#       5
#     4   4   4   4   4
#     4  10  24  45  70 102 141 181 233 286 345 415
#     4  11  24  41  69 102 135 187 230 281 350 410
#     4  11  25  44  70 101 134 181 225 285 347 405
#     4  11  25  43  69 101 134 179 228 281 352 400
#     4  11  24  43  68  98 142 180 230 287 342 412
#
# _framework density 26.871756999999999
#
# number of rings (size 3 to 8) (size 9 to 14) (size 15 to 20)
#    0.000    1.200    0.000    5.400    5.600    4.800 
#    0.000   11.000    0.000    0.000    0.000    0.000 
#    0.000    0.000    0.000    0.000    0.000    0.000 
#
# Total GULP energy -56102.257580 kJ/mol
# GULP energy per Si atom -5610.225758 kJ/mol
# Density = 2.681060 g / cm^3
# Si number density = 26.871757 Si / 1000 Ang^3
#
#
#
# Elastic Constant Matrix: (Units=GPa)
#
#
# Indices 1 2 3 4 5 6 
#
# 1 101.3107 19.2526 7.7736 0.0000 -0.0096 0.0000
# 2 19.2526 156.2071 37.4173 0.0000 6.8561 0.0000
# 3 7.7736 37.4173 138.2947 0.0000 4.7368 0.0000
# 4 0.0000 0.0000 0.0000 43.4651 0.0000 -7.9374
# 5 -0.0096 6.8561 4.7368 0.0000 48.8197 0.0000
# 6 0.0000 0.0000 0.0000 -7.9374 0.0000 35.7027
#
#
#
# Elastic Compliance Matrix: (Units=1/GPa)
#
#
# Indices 1 2 3 4 5 6 
#
# 1 0.010117 -0.001195 -0.000252 0.000000 0.000194 0.000000
# 2 -0.001195 0.007017 -0.001803 0.000000 -0.000811 0.000000
# 3 -0.000252 -0.001803 0.007750 0.000000 -0.000499 0.000000
# 4 0.000000 0.000000 0.000000 0.023981 0.000000 0.005331
# 5 0.000194 -0.000811 -0.000499 0.000000 0.020646 0.000000
# 6 0.000000 0.000000 0.000000 0.005331 0.000000 0.029194
#
#
# Mechanical properties :
#
#
# Convention : Reuss Voigt Hill
#
# Bulk Modulus (GPa) = 54.39900 58.29996 56.34948
# Shear Modulus (GPa) = 44.91020 47.68878 46.29949
#
# Velocity S-wave (km/s) = 4.09256 4.21727 4.15538
# Velocity P-wave (km/s) = 6.52840 6.74214 6.63613
#
# Compressibility (1/GPa) = 0.01838269
#
# Stress axis : x y z
#
# Youngs Moduli (GPa) = 98.84267 142.51848 129.02998
#
# Poissons Ratio (x) = 0.17032 0.03251
# Poissons Ratio (y) = 0.11813 0.23270
# Poissons Ratio (z) = 0.02491 0.25703
#
# Static dielectric constant tensor:
#      x y z
#    x 2.149390 0.000000 -0.070920 
#    y 0.000000 2.126010 0.000000 
#    z -0.070920 0.000000 1.997560 
# 
# From -- ./inp_files/9047.got.cif
#   From: 2010.05.17/outbox.cif.g08.bks.cpg/sg8_5_cif.got.tgz:9047.got - 2010.06.03 19:46:02.
