data_PCOD9133681
_publ_section_title
;
Structure prediction by ZEFSAII (Michael W. Deem and Ramdas Pophale) SiO2 
 PCOD9133681
Probable space group: C M
;
_chemical_formula_sum "Si O2"
_cell_formula_units_Z 16
_cell_length_a 21.000000
_cell_length_b 9.000000
_cell_length_c 12.000000
_cell_angle_alpha 90.000000
_cell_angle_beta 130.000000
_cell_angle_gamma 90.000000
_cell_volume 1737.388797
_symmetry_space_group_name_H-M "C M"
_symmetry_group_IT_number 8
_symmetry_cell_setting 'monoclinic'
loop_
_space_group_symop_operation_xyz
x,y,z
x,-y,z
1/2+x,1/2+y,z
1/2+x,1/2-y,z
loop_
_atom_site_type_symbol
_atom_site_label
_atom_site_fract_x
_atom_site_fract_y
_atom_site_fract_z
Si Si1 0.802670 0.668587 0.581010
Si Si2 0.548009 0.168262 0.313774
Si Si3 0.691048 0.830506 0.295788
Si Si4 0.102600 0.325644 0.972478
Si Si5 0.655802 0.668660 0.598207
Si Si6 0.702474 0.823934 0.871883
Si Si7 0.370541 0.171690 0.008967
Si Si8 0.434814 0.326602 0.857573
O O1 0.833663 0.500000 0.614485
O O2 0.755271 0.713658 0.416193
O O3 0.733656 0.681355 0.601198
O O4 0.874772 0.782717 0.689068
O O5 0.604455 0.188901 0.266546
O O6 0.577190 0.285805 0.436567
O O7 0.452417 0.179380 0.175917
O O8 0.566240 0.000000 0.373829
O O9 0.718478 0.000000 0.350654
O O10 0.672812 0.815420 0.145979
O O11 0.078688 0.500000 0.937418
O O12 0.140315 0.273499 0.898706
O O13 0.024617 0.235216 0.928472
O O14 0.651388 0.500000 0.633342
O O15 0.667331 0.779024 0.712638
O O16 0.711744 0.000000 0.892586
O O17 0.792371 0.748673 0.977378
O O18 0.350359 0.000000 0.963344
O O19 0.395907 0.247333 0.921607
O O20 0.437096 0.500000 0.880827
#
# Coordination Sequence:
#
# PCOD9133681 Si02
#       8
#     4   4   4   4   4   4   4   4
#     4  10  20  34  55  84 116 148 187 236 286 331
#     4   9  18  33  57  83 110 145 188 236 284 337
#     4   9  17  34  57  81 111 147 189 232 284 339
#     4  10  22  41  60  82 117 155 188 231 288 342
#     4  10  20  34  55  82 116 152 188 234 283 333
#     4  11  23  38  59  85 116 154 193 232 281 341
#     4  11  21  37  59  85 117 150 188 236 286 334
#     4  12  23  35  58  88 115 147 193 239 280 335
#
# _framework density 9.2092220000000005
#
# number of rings (size 3 to 8) (size 9 to 14) (size 15 to 20)
#    0.000    1.750    2.500    2.625    0.000    3.500 
#    0.000    1.250    0.000    3.000    0.000    0.000 
#    0.000    0.000    0.000    0.000    0.000    0.000 
#
# Total GULP energy -89272.858792 kJ/mol
# GULP energy per Si atom -5579.553674 kJ/mol
# Density = 0.918826 g / cm^3
# Si number density = 9.209222 Si / 1000 Ang^3
#
#
#
# Elastic Constant Matrix: (Units=GPa)
#
#
# Indices 1 2 3 4 5 6 
#
# 1 -12.7082 18.1780 -3.9465 0.0000 14.6641 0.0000
# 2 18.1780 57.3850 19.5235 0.0000 11.0296 0.0000
# 3 -3.9465 19.5235 41.5518 0.0000 10.4262 0.0000
# 4 0.0000 0.0000 0.0000 25.2543 0.0000 5.6794
# 5 14.6641 11.0296 10.4262 0.0000 9.0899 0.0000
# 6 0.0000 0.0000 0.0000 5.6794 0.0000 23.0091
#
#
#
# Elastic Compliance Matrix: (Units=1/GPa)
#
#
# Indices 1 2 3 4 5 6 
#
# 1 -0.019389 0.002381 -0.014159 0.000000 0.044629 0.000000
# 2 0.002381 0.023289 -0.003738 0.000000 -0.027813 0.000000
# 3 -0.014159 -0.003738 0.024724 0.000000 -0.000983 0.000000
# 4 0.000000 0.000000 0.000000 0.041924 0.000000 -0.010348
# 5 0.044629 -0.027813 -0.000983 0.000000 0.072889 0.000000
# 6 0.000000 0.000000 0.000000 -0.010348 0.000000 0.046015
#
#
# Mechanical properties :
#
#
# Convention : Reuss Voigt Hill
#
# Bulk Modulus (GPa) = -415.62598 17.08206 -199.27196
# Shear Modulus (GPa) = 22.76007 14.96891 18.86449
#
# Velocity S-wave (km/s) = 3.51910 2.85391 3.20381
# Velocity P-wave (km/s) = 14.47879 4.48935 9.73347
#
# Compressibility (1/GPa) = -0.00240601
#
# Stress axis : x y z
#
# Youngs Moduli (GPa) = -51.57656 42.93817 40.44590
#
# Poissons Ratio (x) = -0.10223 0.57266
# Poissons Ratio (y) = 0.12280 0.15118
# Poissons Ratio (z) = -0.73025 0.16050
#
# Static dielectric constant tensor:
#      x y z
#    x 1.596780 0.000000 0.013190 
#    y 0.000000 1.625050 0.000000 
#    z 0.013190 0.000000 1.661750 
# 
# From -- ./inp_files/23758.got.cif
#   From: 2010.05.17/outbox.ucp.g08.bks.cvg/sg8_12_cif.got.tgz:23758.got - 2010.06.11 13:00:03.
