data_PCOD9133352
_publ_section_title
;
Structure prediction by ZEFSAII (Michael W. Deem and Ramdas Pophale) SiO2 
 PCOD9133352
Probable space group: C M
;
_chemical_formula_sum "Si O2"
_cell_formula_units_Z 32
_cell_length_a 25.248405
_cell_length_b 8.780385
_cell_length_c 17.127808
_cell_angle_alpha 90.000000
_cell_angle_beta 153.051996
_cell_angle_gamma 90.000000
_cell_volume 1720.765458
_symmetry_space_group_name_H-M "C M"
_symmetry_group_IT_number 8
_symmetry_cell_setting 'monoclinic'
loop_
_space_group_symop_operation_xyz
x,y,z
x,-y,z
1/2+x,1/2+y,z
1/2+x,1/2-y,z
loop_
_atom_site_type_symbol
_atom_site_label
_atom_site_fract_x
_atom_site_fract_y
_atom_site_fract_z
Si Si1 0.134070 0.677122 0.492330
Si Si2 0.912146 0.175615 0.253103
Si Si3 0.006961 0.683490 0.644211
Si Si4 0.064624 0.682095 0.899658
Si Si5 0.815696 0.320017 0.273700
Si Si6 0.801151 0.678760 0.822413
Si Si7 0.741597 0.322694 0.916318
Si Si8 0.386346 0.681558 0.789466
O O1 0.104838 0.500000 0.447349
O O2 0.190868 0.719782 0.650721
O O3 0.247974 0.711246 0.588701
O O4 0.018897 0.776360 0.337720
O O5 0.904310 0.276716 0.320295
O O6 0.919620 0.000000 0.284287
O O7 0.795669 0.213595 0.052178
O O8 0.022491 0.500000 0.656564
O O9 0.107923 0.773363 0.730839
O O10 0.881641 0.720879 0.440997
O O11 0.026688 0.723816 0.761230
O O12 0.062134 0.500000 0.901200
O O13 0.193831 0.738283 0.093617
O O14 0.972582 0.752668 0.839267
O O15 0.793955 0.500000 0.244973
O O16 0.778848 0.500000 0.776951
O O17 0.813215 0.694823 0.930199
O O18 0.899584 0.738950 0.892045
O O19 0.749041 0.500000 0.950157
O O20 0.399327 0.500000 0.814365
#
# Coordination Sequence:
#
# PCOD9133352 Si02
#       8
#     4   4   4   4   4   4   4   4
#     4   9  19  35  56  82 112 150 196 241 295 358
#     4  12  23  35  55  85 123 161 203 252 307 367
#     4  10  23  40  60  89 124 162 202 250 308 368
#     4  11  22  40  64  91 124 162 209 258 303 364
#     4  11  23  40  62  89 124 164 204 253 311 366
#     4   9  18  34  56  84 112 148 195 242 296 355
#     4  11  22  35  56  86 122 159 200 252 307 366
#     4   9  20  37  61  86 115 160 203 250 305 360
#
# _framework density 18.596375999999999
#
# number of rings (size 3 to 8) (size 9 to 14) (size 15 to 20)
#    0.750    1.000    1.250    3.750    0.000    5.500 
#    0.000    1.250    0.000    3.000    0.000    0.000 
#    0.000    0.000    0.000    0.000    0.000    0.000 
#
# Total GULP energy -89128.720633 kJ/mol
# GULP energy per Si atom -5570.545040 kJ/mol
# Density = 1.855405 g / cm^3
# Si number density = 18.596376 Si / 1000 Ang^3
#
#
#
# Elastic Constant Matrix: (Units=GPa)
#
#
# Indices 1 2 3 4 5 6 
#
# 1 108.0847 29.2226 31.4105 0.0000 4.0018 0.0000
# 2 29.2226 37.0947 15.3813 0.0000 0.4844 0.0000
# 3 31.4105 15.3813 81.2196 0.0000 1.0717 0.0000
# 4 0.0000 0.0000 0.0000 26.2682 0.0000 5.6832
# 5 4.0018 0.4844 1.0717 0.0000 22.8720 0.0000
# 6 0.0000 0.0000 0.0000 5.6832 0.0000 22.4165
#
#
#
# Elastic Compliance Matrix: (Units=1/GPa)
#
#
# Indices 1 2 3 4 5 6 
#
# 1 0.012565 -0.008540 -0.003217 0.000000 -0.001867 0.000000
# 2 -0.008540 0.035063 -0.003349 0.000000 0.000909 0.000000
# 3 -0.003217 -0.003349 0.014191 0.000000 -0.000031 0.000000
# 4 0.000000 0.000000 0.000000 0.040278 0.000000 -0.010212
# 5 -0.001867 0.000909 -0.000031 0.000000 0.044030 0.000000
# 6 0.000000 0.000000 0.000000 -0.010212 0.000000 0.047199
#
#
# Mechanical properties :
#
#
# Convention : Reuss Voigt Hill
#
# Bulk Modulus (GPa) = 31.64021 42.04751 36.84386
# Shear Modulus (GPa) = 21.36062 24.33698 22.84880
#
# Velocity S-wave (km/s) = 3.39284 3.62151 3.50904
# Velocity P-wave (km/s) = 5.69207 6.33615 6.02273
#
# Compressibility (1/GPa) = 0.03160535
#
# Stress axis : x y z
#
# Youngs Moduli (GPa) = 79.58544 28.52030 70.46575
#
# Poissons Ratio (x) = 0.24357 0.22672
# Poissons Ratio (y) = 0.67967 0.23602
# Poissons Ratio (z) = 0.25606 0.09552
#
# Static dielectric constant tensor:
#      x y z
#    x 1.639090 0.000000 0.003190 
#    y 0.000000 1.617580 0.000000 
#    z 0.003190 0.000000 1.669930 
# 
# From -- ./inp_files/28216.got.cif
#   From: 2010.05.17/outbox.cif.g08.bks.cpg/sg8_15_cif.got.tgz:28216.got - 2010.06.03 19:46:02.
