data_PCOD9133673
_publ_section_title
;
Structure prediction by ZEFSAII (Michael W. Deem and Ramdas Pophale) SiO2 
 PCOD9133673
Probable space group: C M
;
_chemical_formula_sum "Si O2"
_cell_formula_units_Z 16
_cell_length_a 12.000000
_cell_length_b 15.000000
_cell_length_c 18.000000
_cell_angle_alpha 90.000000
_cell_angle_beta 30.000000
_cell_angle_gamma 90.000000
_cell_volume 1620.000000
_symmetry_space_group_name_H-M "C M"
_symmetry_group_IT_number 8
_symmetry_cell_setting 'monoclinic'
loop_
_space_group_symop_operation_xyz
x,y,z
x,-y,z
1/2+x,1/2+y,z
1/2+x,1/2-y,z
loop_
_atom_site_type_symbol
_atom_site_label
_atom_site_fract_x
_atom_site_fract_y
_atom_site_fract_z
Si Si1 0.685830 0.895728 0.949900
Si Si2 0.060130 0.895138 0.956428
Si Si3 0.119167 0.302178 0.142386
Si Si4 0.687690 0.665947 0.677200
Si Si5 0.742065 0.718922 0.481119
Si Si6 0.142116 0.596595 0.478984
Si Si7 0.234971 0.275894 0.783939
Si Si8 0.557447 0.399372 0.136129
O O1 0.635501 0.844972 0.901142
O O2 0.955652 0.885970 0.802763
O O3 0.626015 0.000000 0.983464
O O4 0.583536 0.844916 0.080875
O O5 0.830266 0.854521 0.055561
O O6 0.057612 0.893475 0.047018
O O7 0.089969 0.000000 0.916656
O O8 0.235314 0.819887 0.827425
O O9 0.154626 0.194709 0.111524
O O10 0.913579 0.313683 0.319075
O O11 0.784849 0.692398 0.541063
O O12 0.630711 0.749540 0.764534
O O13 0.889517 0.613818 0.599484
O O14 0.731864 0.825439 0.478999
O O15 0.483521 0.691623 0.619391
O O16 0.161439 0.500000 0.503012
O O17 0.304948 0.600011 0.313501
O O18 0.648948 0.500000 0.103119
#
# Coordination Sequence:
#
# PCOD9133673 Si02
#       8
#     4   4   4   4   4   4   4   4
#     4  11  22  37  59  86 117 155 200 249 300 351
#     4  11  21  35  61  92 116 148 196 244 292 346
#     4  11  20  36  60  88 121 153 196 251 293 348
#     4  10  19  36  58  83 115 155 196 240 295 347
#     4   9  21  35  55  85 118 158 188 238 298 346
#     4   9  17  32  56  84 113 146 191 239 286 341
#     4  10  21  38  56  85 122 155 194 240 296 351
#     4   9  19  35  56  85 118 152 191 239 294 348
#
# _framework density 9.8765429999999999
#
# number of rings (size 3 to 8) (size 9 to 14) (size 15 to 20)
#    0.000    2.000    2.500    1.500    0.000    2.000 
#    0.000    6.875    0.000    0.750    0.000    0.000 
#    0.000    0.000    0.000    0.000    0.000    0.000 
#
# Total GULP energy -89160.800708 kJ/mol
# GULP energy per Si atom -5572.550044 kJ/mol
# Density = 0.985406 g / cm^3
# Si number density = 9.876543 Si / 1000 Ang^3
#
#
#
# Elastic Constant Matrix: (Units=GPa)
#
#
# Indices 1 2 3 4 5 6 
#
# 1 37.9584 25.4221 21.3518 -0.0008 17.8735 -0.0004
# 2 25.4221 122.0595 30.6588 -0.0085 16.6224 0.0008
# 3 21.3518 30.6588 108.8324 -0.0214 28.1913 0.0058
# 4 -0.0008 -0.0085 -0.0214 26.8224 0.0039 -0.2823
# 5 17.8735 16.6224 28.1913 0.0039 37.4370 0.0006
# 6 -0.0004 0.0008 0.0058 -0.2823 0.0006 27.3042
#
#
#
# Elastic Compliance Matrix: (Units=1/GPa)
#
#
# Indices 1 2 3 4 5 6 
#
# 1 0.037809 -0.005403 -0.002287 0.000000 -0.013929 0.000002
# 2 -0.005403 0.009787 -0.001540 0.000002 -0.000606 0.000000
# 3 -0.002287 -0.001540 0.011940 0.000010 -0.007215 -0.000002
# 4 0.000000 0.000002 0.000010 0.037286 -0.000012 0.000386
# 5 -0.013929 -0.000606 -0.007215 -0.000012 0.039065 0.000000
# 6 0.000002 0.000000 -0.000002 0.000386 0.000000 0.036628
#
#
# Mechanical properties :
#
#
# Convention : Reuss Voigt Hill
#
# Bulk Modulus (GPa) = 24.34559 47.07952 35.71256
# Shear Modulus (GPa) = 24.42970 31.07390 27.75180
#
# Velocity S-wave (km/s) = 3.52057 3.97056 3.75231
# Velocity P-wave (km/s) = 5.37378 6.70121 6.07387
#
# Compressibility (1/GPa) = 0.04107520
#
# Stress axis : x y z
#
# Youngs Moduli (GPa) = 26.44876 102.17118 83.75144
#
# Poissons Ratio (x) = 0.55205 0.19157
# Poissons Ratio (y) = 0.14291 0.12898
# Poissons Ratio (z) = 0.06050 0.15735
#
# Static dielectric constant tensor:
#      x y z
#    x 1.703770 0.000000 -0.007370 
#    y 0.000000 1.718410 0.000000 
#    z -0.007370 0.000000 1.736690 
# 
# From -- ./inp_files/17124.got.cif
#   From: 2010.05.17/outbox.ucp.g08.bks.cvg/sg8_9_cif.got.tgz:17124.got - 2010.06.11 13:00:03.
