data_PCOD9133272
_publ_section_title
;
Structure prediction by ZEFSAII (Michael W. Deem and Ramdas Pophale) SiO2 
 PCOD9133272
Probable space group: C M
;
_chemical_formula_sum "Si O2"
_cell_formula_units_Z 28
_cell_length_a 9.197199
_cell_length_b 17.218888
_cell_length_c 14.492810
_cell_angle_alpha 90.000000
_cell_angle_beta 30.533225
_cell_angle_gamma 90.000000
_cell_volume 1166.029172
_symmetry_space_group_name_H-M "C M"
_symmetry_group_IT_number 8
_symmetry_cell_setting 'monoclinic'
loop_
_space_group_symop_operation_xyz
x,y,z
x,-y,z
1/2+x,1/2+y,z
1/2+x,1/2-y,z
loop_
_atom_site_type_symbol
_atom_site_label
_atom_site_fract_x
_atom_site_fract_y
_atom_site_fract_z
Si Si1 0.143220 0.194559 0.980610
Si Si2 0.401611 0.146494 0.026698
Si Si3 0.169566 0.871667 0.330261
Si Si4 0.128620 0.707591 0.566549
Si Si5 0.780854 0.092311 0.054170
Si Si6 0.984337 0.885285 0.619668
Si Si7 0.298672 0.912793 0.631151
O O1 0.437997 0.188805 0.761143
O O2 0.208523 0.180873 0.051108
O O3 0.018328 0.277514 0.017762
O O4 0.936716 0.127099 0.057325
O O5 0.243661 0.094386 0.189054
O O6 0.671121 0.103676 0.833571
O O7 0.484512 0.863327 0.201646
O O8 0.010867 0.914524 0.500930
O O9 0.956113 0.802365 0.417273
O O10 0.041500 0.792859 0.582627
O O11 0.031050 0.647766 0.540596
O O12 0.729143 0.000000 0.087414
O O13 0.003724 0.106802 0.848031
O O14 0.216022 0.911688 0.568798
O O15 0.381354 0.000000 0.613000
#
# Coordination Sequence:
#
# PCOD9133272 Si02
#       7
#     4   4   4   4   4   4   4
#     4  10  22  42  65  93 138 176 219 275 346 397
#     4  11  23  40  66 100 131 172 218 283 335 397
#     4  12  24  39  66 101 130 173 225 279 336 395
#     4  10  23  39  67 103 133 176 232 290 329 412
#     4  10  23  43  66  96 134 180 228 274 335 414
#     4  11  23  42  66 100 137 175 227 282 344 402
#     4  10  22  45  70  95 138 190 225 277 352 409
#
# _framework density 24.013123
#
# number of rings (size 3 to 8) (size 9 to 14) (size 15 to 20)
#    0.000    1.429    2.857    1.714   12.000    2.286 
#    0.000    1.429    0.000    0.000    0.000    0.000 
#    0.000    0.000    0.000    0.000    0.000    0.000 
#
# Total GULP energy -78261.973396 kJ/mol
# GULP energy per Si atom -5590.140957 kJ/mol
# Density = 2.395847 g / cm^3
# Si number density = 24.013123 Si / 1000 Ang^3
#
#
#
# Elastic Constant Matrix: (Units=GPa)
#
#
# Indices 1 2 3 4 5 6 
#
# 1 159.7225 40.6524 55.5168 0.0016 23.7216 0.0142
# 2 40.6524 80.8381 24.3089 -0.0183 -7.5220 0.0337
# 3 55.5168 24.3089 117.9108 -0.0050 6.9408 0.0175
# 4 0.0016 -0.0183 -0.0050 -3.4450 0.0041 -3.8301
# 5 23.7216 -7.5220 6.9408 0.0041 52.6596 -0.0092
# 6 0.0142 0.0337 0.0175 -3.8301 -0.0092 2.7258
#
#
#
# Elastic Compliance Matrix: (Units=1/GPa)
#
#
# Indices 1 2 3 4 5 6 
#
# 1 0.008995 -0.003961 -0.003171 0.000006 -0.004200 0.000017
# 2 -0.003961 0.015204 -0.001514 0.000033 0.004155 -0.000097
# 3 -0.003171 -0.001514 0.010295 0.000010 -0.000145 -0.000017
# 4 0.000006 0.000033 0.000010 -0.113290 -0.000018 -0.159191
# 5 -0.004200 0.004155 -0.000145 -0.000018 0.021494 0.000018
# 6 0.000017 -0.000097 -0.000017 -0.159191 0.000018 0.143182
#
#
# Mechanical properties :
#
#
# Convention : Reuss Voigt Hill
#
# Bulk Modulus (GPa) = 58.13476 66.60305 62.36890
# Shear Modulus (GPa) = 45.91066 26.25431 36.08248
#
# Velocity S-wave (km/s) = 4.37727 3.31014 3.88056
# Velocity P-wave (km/s) = 7.05758 6.51197 6.79026
#
# Compressibility (1/GPa) = 0.01720141
#
# Stress axis : x y z
#
# Youngs Moduli (GPa) = 111.17350 65.77121 97.13509
#
# Poissons Ratio (x) = 0.26049 0.30806
# Poissons Ratio (y) = 0.44031 0.14710
# Poissons Ratio (z) = 0.35258 0.09960
#
# Static dielectric constant tensor:
#      x y z
#    x 1.884800 0.000000 0.047430 
#    y 0.000000 1.877580 -0.000030 
#    z 0.047430 -0.000030 1.991500 
# 
# From -- ./inp_files/13738.got.cif
#   From: 2010.05.17/outbox.cif.g08.bks.cpg/sg8_7_cif.got.tgz:13738.got - 2010.06.03 19:46:02.
