data_PCOD9133250
_publ_section_title
;
Structure prediction by ZEFSAII (Michael W. Deem and Ramdas Pophale) SiO2 
 PCOD9133250
Probable space group: C M
;
_chemical_formula_sum "Si O2"
_cell_formula_units_Z 20
_cell_length_a 5.293517
_cell_length_b 18.455727
_cell_length_c 9.306095
_cell_angle_alpha 90.000000
_cell_angle_beta 76.923402
_cell_angle_gamma 90.000000
_cell_volume 885.589447
_symmetry_space_group_name_H-M "C M"
_symmetry_group_IT_number 8
_symmetry_cell_setting 'monoclinic'
loop_
_space_group_symop_operation_xyz
x,y,z
x,-y,z
1/2+x,1/2+y,z
1/2+x,1/2-y,z
loop_
_atom_site_type_symbol
_atom_site_label
_atom_site_fract_x
_atom_site_fract_y
_atom_site_fract_z
Si Si1 0.193730 0.583863 0.623190
Si Si2 0.303563 0.208756 0.410828
Si Si3 0.653806 0.656655 0.724737
Si Si4 0.534346 0.413353 0.304054
Si Si5 0.600293 0.704347 0.058672
O O1 0.243835 0.500000 0.639969
O O2 0.376982 0.625995 0.710672
O O3 0.300228 0.600008 0.448224
O O4 0.892910 0.600652 0.682270
O O5 0.578166 0.245974 0.361862
O O6 0.231612 0.211860 0.588561
O O7 0.270814 0.126796 0.357995
O O8 0.643391 0.685088 0.886256
O O9 0.564912 0.500000 0.280812
O O10 0.516547 0.367375 0.159509
O O11 0.372168 0.764105 0.082740
#
# Coordination Sequence:
#
# PCOD9133250 Si02
#       5
#     4   4   4   4   4
#     4  10  22  41  66  98 134 171 217 272 330 391
#     4  11  21  39  65  94 123 164 213 266 321 380
#     4  11  22  40  67  98 128 171 222 274 325 389
#     4  10  24  44  67  98 135 176 221 270 326 392
#     4  12  26  46  67  98 136 176 219 272 329 392
#
# _framework density 22.583828
#
# number of rings (size 3 to 8) (size 9 to 14) (size 15 to 20)
#    0.000    1.200    0.000    6.600    0.000    5.600 
#    0.000    8.000    0.000    0.000    0.000    0.000 
#    0.000    0.000    0.000    0.000    0.000    0.000 
#
# Total GULP energy -55934.891576 kJ/mol
# GULP energy per Si atom -5593.489158 kJ/mol
# Density = 2.253243 g / cm^3
# Si number density = 22.583828 Si / 1000 Ang^3
#
#
#
# Elastic Constant Matrix: (Units=GPa)
#
#
# Indices 1 2 3 4 5 6 
#
# 1 60.5167 27.5599 14.8256 0.0000 26.3916 0.0000
# 2 27.5599 119.3204 37.0076 0.0000 5.2970 0.0000
# 3 14.8256 37.0076 141.1347 0.0000 1.6747 0.0000
# 4 0.0000 0.0000 0.0000 21.7777 0.0000 -7.6861
# 5 26.3916 5.2970 1.6747 0.0000 30.9663 0.0000
# 6 0.0000 0.0000 0.0000 -7.6861 0.0000 32.2135
#
#
#
# Elastic Compliance Matrix: (Units=1/GPa)
#
#
# Indices 1 2 3 4 5 6 
#
# 1 0.030087 -0.005405 -0.001451 0.000000 -0.024639 0.000000
# 2 -0.005405 0.010158 -0.002131 0.000000 0.002985 0.000000
# 3 -0.001451 -0.002131 0.007783 0.000000 0.001180 0.000000
# 4 0.000000 0.000000 0.000000 0.050141 0.000000 0.011964
# 5 -0.024639 0.002985 0.001180 0.000000 0.052718 0.000000
# 6 0.000000 0.000000 0.000000 0.011964 0.000000 0.033897
#
#
# Mechanical properties :
#
#
# Convention : Reuss Voigt Hill
#
# Bulk Modulus (GPa) = 33.27525 53.30645 43.29085
# Shear Modulus (GPa) = 23.49901 33.09674 28.29787
#
# Velocity S-wave (km/s) = 3.22921 3.83235 3.54364
# Velocity P-wave (km/s) = 5.35442 6.57553 5.99614
#
# Compressibility (1/GPa) = 0.03005236
#
# Stress axis : x y z
#
# Youngs Moduli (GPa) = 33.23747 98.44653 128.49126
#
# Poissons Ratio (x) = 0.53215 0.18640
# Poissons Ratio (y) = 0.17966 0.27383
# Poissons Ratio (z) = 0.04822 0.20980
#
# Static dielectric constant tensor:
#      x y z
#    x 1.840390 0.000000 0.016800 
#    y 0.000000 1.850890 0.000000 
#    z 0.016800 0.000000 1.876730 
# 
# From -- ./inp_files/6643.got.cif
#   From: 2010.05.17/outbox.cif.g08.bks.cpg/sg8_4_cif.got.tgz:6643.got - 2010.06.03 19:46:02.
