data_PCOD9133292
_publ_section_title
;
Structure prediction by ZEFSAII (Michael W. Deem and Ramdas Pophale) SiO2 
 PCOD9133292
Probable space group: C M
;
_chemical_formula_sum "Si O2"
_cell_formula_units_Z 28
_cell_length_a 13.396612
_cell_length_b 15.359923
_cell_length_c 6.973541
_cell_angle_alpha 90.000000
_cell_angle_beta 129.862296
_cell_angle_gamma 90.000000
_cell_volume 1101.450647
_symmetry_space_group_name_H-M "C M"
_symmetry_group_IT_number 8
_symmetry_cell_setting 'monoclinic'
loop_
_space_group_symop_operation_xyz
x,y,z
x,-y,z
1/2+x,1/2+y,z
1/2+x,1/2-y,z
loop_
_atom_site_type_symbol
_atom_site_label
_atom_site_fract_x
_atom_site_fract_y
_atom_site_fract_z
Si Si1 0.169310 0.899209 0.385940
Si Si2 0.201367 0.293686 0.372818
Si Si3 0.462539 0.180321 0.363002
Si Si4 0.449104 0.597645 0.683026
Si Si5 0.389957 0.627471 0.175966
Si Si6 0.608792 0.100563 0.884814
Si Si7 0.716665 0.399804 0.892961
O O1 0.219089 0.809432 0.353919
O O2 0.209915 0.883305 0.658152
O O3 0.011390 0.893234 0.189352
O O4 0.205792 0.000000 0.377652
O O5 0.336471 0.336761 0.607213
O O6 0.143503 0.347075 0.120628
O O7 0.094583 0.307219 0.405938
O O8 0.504695 0.149559 0.625140
O O9 0.359523 0.114181 0.147491
O O10 0.390742 0.271254 0.233824
O O11 0.437928 0.500000 0.751961
O O12 0.421660 0.586747 0.421123
O O13 0.593192 0.640321 0.853696
O O14 0.246792 0.599705 0.941258
O O15 0.571115 0.000000 0.877372
O O16 0.683547 0.500000 0.875080
#
# Coordination Sequence:
#
# PCOD9133292 Si02
#       7
#     4   4   4   4   4   4   4
#     4   9  18  38  70 105 140 186 242 299 360 426
#     4  10  22  42  70 107 143 186 244 298 359 422
#     4  11  24  40  71 106 143 187 239 292 365 426
#     4   9  18  38  68  99 137 185 234 291 348 417
#     4   9  19  36  66  98 136 183 236 286 350 423
#     4  11  24  44  70 105 149 191 235 296 359 430
#     4   9  19  38  68 102 142 190 233 286 362 434
#
# _framework density 25.421022000000001
#
# number of rings (size 3 to 8) (size 9 to 14) (size 15 to 20)
#    0.000    2.286    0.000    3.857    6.000    2.286 
#    5.143    0.000    0.000   13.714    0.000    8.000 
#    0.000    0.000    0.000    0.000    0.000    0.000 
#
# Total GULP energy -78299.376874 kJ/mol
# GULP energy per Si atom -5592.812634 kJ/mol
# Density = 2.536316 g / cm^3
# Si number density = 25.421022 Si / 1000 Ang^3
#
#
#
# Elastic Constant Matrix: (Units=GPa)
#
#
# Indices 1 2 3 4 5 6 
#
# 1 51.3087 37.7377 7.2602 0.0000 2.6208 0.0000
# 2 37.7377 162.1767 33.5865 0.0000 -8.1439 0.0000
# 3 7.2602 33.5865 122.3560 0.0000 0.1261 0.0000
# 4 0.0000 0.0000 0.0000 3.6231 0.0000 42.0509
# 5 2.6208 -8.1439 0.1261 0.0000 35.9589 0.0000
# 6 0.0000 0.0000 0.0000 42.0509 0.0000 -26.0734
#
#
#
# Elastic Compliance Matrix: (Units=1/GPa)
#
#
# Indices 1 2 3 4 5 6 
#
# 1 0.023839 -0.005733 0.000162 0.000000 -0.003036 0.000000
# 2 -0.005733 0.007997 -0.001857 0.000000 0.002236 0.000000
# 3 0.000162 -0.001857 0.008674 0.000000 -0.000463 0.000000
# 4 0.000000 0.000000 0.000000 0.013997 0.000000 0.022575
# 5 -0.003036 0.002236 -0.000463 0.000000 0.028539 0.000000
# 6 0.000000 0.000000 0.000000 0.022575 0.000000 -0.001945
#
#
# Mechanical properties :
#
#
# Convention : Reuss Voigt Hill
#
# Bulk Modulus (GPa) = 38.98163 54.77890 46.88026
# Shear Modulus (GPa) = 47.84326 19.85221 33.84774
#
# Velocity S-wave (km/s) = 4.34295 2.79756 3.65291
# Velocity P-wave (km/s) = 6.36522 5.65955 6.02273
#
# Compressibility (1/GPa) = 0.02565311
#
# Stress axis : x y z
#
# Youngs Moduli (GPa) = 41.94834 125.04500 115.29318
#
# Poissons Ratio (x) = 0.71692 -0.01872
# Poissons Ratio (y) = 0.24050 0.21413
# Poissons Ratio (z) = -0.00681 0.23225
#
# Static dielectric constant tensor:
#      x y z
#    x 2.078630 0.000000 -0.022530 
#    y 0.000000 2.487270 0.000000 
#    z -0.022530 0.000000 1.977680 
# 
# From -- ./inp_files/22088.got.cif
#   From: 2010.05.17/outbox.cif.g08.bks.cpg/sg8_12_cif.got.tgz:22088.got - 2010.06.03 19:46:02.
