data_PCOD9133648
_publ_section_title
;
Structure prediction by ZEFSAII (Michael W. Deem and Ramdas Pophale) SiO2 
 PCOD9133648
Probable space group: C M
;
_chemical_formula_sum "Si O2"
_cell_formula_units_Z 16
_cell_length_a 24.000000
_cell_length_b 9.000000
_cell_length_c 15.000000
_cell_angle_alpha 90.000000
_cell_angle_beta 30.000000
_cell_angle_gamma 90.000000
_cell_volume 1620.000000
_symmetry_space_group_name_H-M "C M"
_symmetry_group_IT_number 8
_symmetry_cell_setting 'monoclinic'
loop_
_space_group_symop_operation_xyz
x,y,z
x,-y,z
1/2+x,1/2+y,z
1/2+x,1/2-y,z
loop_
_atom_site_type_symbol
_atom_site_label
_atom_site_fract_x
_atom_site_fract_y
_atom_site_fract_z
Si Si1 0.443220 0.680117 0.150230
Si Si2 0.843295 0.820778 0.469229
Si Si3 0.144705 0.321896 0.344129
Si Si4 0.056229 0.821674 0.294859
Si Si5 0.198688 0.178733 0.810932
Si Si6 0.992775 0.321358 0.711755
Si Si7 0.784870 0.680122 0.877881
Si Si8 0.898397 0.820406 0.010709
O O1 0.435716 0.500000 0.158573
O O2 0.362248 0.730054 0.341606
O O3 0.419864 0.730643 0.082203
O O4 0.569338 0.715750 0.004267
O O5 0.740158 0.749441 0.662356
O O6 0.951294 0.779263 0.379547
O O7 0.835160 0.000000 0.481182
O O8 0.138286 0.500000 0.343420
O O9 0.066472 0.251216 0.377444
O O10 0.272855 0.275332 0.156660
O O11 0.101493 0.286124 0.502995
O O12 0.054220 0.000000 0.306955
O O13 0.170095 0.780449 0.086057
O O14 0.272340 0.231689 0.793155
O O15 0.207259 0.000000 0.794174
O O16 0.986138 0.500000 0.731577
O O17 0.889455 0.271261 0.791779
O O18 0.981427 0.246137 0.822922
O O19 0.790859 0.500000 0.866071
O O20 0.904083 0.000000 0.001179
#
# Coordination Sequence:
#
# PCOD9133648 Si02
#       8
#     4   4   4   4   4   4   4   4
#     4   9  19  37  57  74 103 146 180 210 260 321
#     4  10  20  35  56  82 108 136 173 217 265 313
#     4  10  21  35  53  80 110 139 173 217 266 309
#     4  10  18  32  56  81 106 140 176 209 256 321
#     4  10  19  35  58  80 104 139 178 213 258 318
#     4  10  20  35  55  78 106 140 175 213 264 319
#     4   9  16  30  54  78 102 137 174 206 252 318
#     4  10  21  37  55  77 105 139 181 223 259 301
#
# _framework density 9.8765429999999999
#
# number of rings (size 3 to 8) (size 9 to 14) (size 15 to 20)
#    0.000    2.250    2.500    0.750    0.000    3.000 
#    0.000    4.375    0.000    0.000    0.000    0.000 
#    0.000    0.000    0.000    0.000    0.000    0.000 
#
# Total GULP energy -89278.881851 kJ/mol
# GULP energy per Si atom -5579.930116 kJ/mol
# Density = 0.985406 g / cm^3
# Si number density = 9.876543 Si / 1000 Ang^3
#
#
#
# Elastic Constant Matrix: (Units=GPa)
#
#
# Indices 1 2 3 4 5 6 
#
# 1 80.3712 11.0054 7.3214 0.0000 38.4793 0.0000
# 2 11.0054 0.2961 11.5452 -0.0001 7.7859 0.0000
# 3 7.3214 11.5452 71.6819 0.0000 38.4133 0.0000
# 4 0.0000 -0.0001 0.0000 22.7537 0.0000 8.4764
# 5 38.4793 7.7859 38.4133 0.0000 36.2754 0.0000
# 6 0.0000 0.0000 0.0000 8.4764 0.0000 23.2515
#
#
#
# Elastic Compliance Matrix: (Units=1/GPa)
#
#
# Indices 1 2 3 4 5 6 
#
# 1 0.037674 0.137586 0.025969 0.000001 -0.096993 0.000000
# 2 0.137586 -0.076794 0.156503 -0.000001 -0.295188 0.000000
# 3 0.025969 0.156503 0.043590 0.000001 -0.107297 0.000000
# 4 0.000001 -0.000001 0.000001 0.050855 -0.000002 -0.018539
# 5 -0.096993 -0.295188 -0.107297 -0.000002 0.307430 0.000001
# 6 0.000000 0.000000 0.000000 -0.018539 0.000001 0.049767
#
#
# Mechanical properties :
#
#
# Convention : Reuss Voigt Hill
#
# Bulk Modulus (GPa) = 1.55138 23.56591 12.55865
# Shear Modulus (GPa) = -392.69989 24.62126 -184.03932
#
# Velocity S-wave (km/s) = -14.11510 3.53434 -9.66293
# Velocity P-wave (km/s) = 16.27454 5.34898 10.86851
#
# Compressibility (1/GPa) = 0.64458636
#
# Stress axis : x y z
#
# Youngs Moduli (GPa) = 26.54368 -13.02184 22.94082
#
# Poissons Ratio (x) = 1.79162 -0.59576
# Poissons Ratio (y) = -3.65204 -3.59030
# Poissons Ratio (z) = -0.68932 2.03795
#
# Static dielectric constant tensor:
#      x y z
#    x 1.698280 0.000000 0.002650 
#    y 0.000000 1.657330 0.000000 
#    z 0.002650 0.000000 1.709640 
# 
# From -- ./inp_files/21874.got.cif
#   From: 2010.05.17/outbox.ucp.g08.bks.cvg/sg8_11_cif.got.tgz:21874.got - 2010.06.11 13:00:03.
