data_PCOD9133245
_publ_section_title
;
Structure prediction by ZEFSAII (Michael W. Deem and Ramdas Pophale) SiO2 
 PCOD9133245
Probable space group: C M
;
_chemical_formula_sum "Si O2"
_cell_formula_units_Z 26
_cell_length_a 9.791111
_cell_length_b 7.359812
_cell_length_c 20.116233
_cell_angle_alpha 90.000000
_cell_angle_beta 137.715661
_cell_angle_gamma 90.000000
_cell_volume 975.299489
_symmetry_space_group_name_H-M "C M"
_symmetry_group_IT_number 8
_symmetry_cell_setting 'monoclinic'
loop_
_space_group_symop_operation_xyz
x,y,z
x,-y,z
1/2+x,1/2+y,z
1/2+x,1/2-y,z
loop_
_atom_site_type_symbol
_atom_site_label
_atom_site_fract_x
_atom_site_fract_y
_atom_site_fract_z
Si Si1 0.878790 0.709246 0.798360
Si Si2 0.997431 0.789609 0.489014
Si Si3 0.433734 0.717005 0.110503
Si Si4 0.431140 0.720161 0.608486
Si Si5 0.807373 0.219285 0.916818
Si Si6 0.914994 0.500000 0.205790
Si Si7 0.909124 0.787161 0.310332
O O1 0.864990 0.500000 0.772561
O O2 0.654161 0.787889 0.708741
O O3 0.922037 0.713266 0.893042
O O4 0.073106 0.787718 0.830988
O O5 0.241803 0.778764 0.584383
O O6 0.898619 0.715749 0.520455
O O7 0.950408 0.714425 0.399353
O O8 0.942714 0.000000 0.465365
O O9 0.409680 0.500000 0.109679
O O10 0.667330 0.769183 0.210661
O O11 0.319723 0.841278 0.122330
O O12 0.388272 0.769142 0.018472
O O13 0.431490 0.500000 0.609412
O O14 0.805730 0.000000 0.913587
O O15 0.000580 0.658861 0.287310
O O16 0.962625 0.000000 0.323894
#
# Coordination Sequence:
#
# PCOD9133245 Si02
#       7
#     4   4   4   4   4   2   4
#     4  10  22  41  65  95 131 171 218 274 335 404
#     4  10  24  42  66  95 130 174 222 275 336 404
#     4  11  25  44  69 102 135 182 231 282 337 412
#     4  10  22  41  66  95 130 170 220 274 335 402
#     4  10  24  42  66  96 131 173 222 275 335 405
#     4  12  26  44  72  92 144 182 226 284 348 400
#     4  11  25  44  68 101 136 182 230 282 338 414
#
# _framework density 26.658476
#
# number of rings (size 3 to 8) (size 9 to 14) (size 15 to 20)
#    0.000    1.538    1.538    1.385    6.462    3.077 
#    0.000    0.000    0.000    0.000    0.000    0.000 
#    0.000    0.000    0.000    0.000    0.000    0.000 
#
# Total GULP energy -72578.248472 kJ/mol
# GULP energy per Si atom -5582.942190 kJ/mol
# Density = 2.659780 g / cm^3
# Si number density = 26.658476 Si / 1000 Ang^3
#
#
#
# Elastic Constant Matrix: (Units=GPa)
#
#
# Indices 1 2 3 4 5 6 
#
# 1 109.7711 1.7216 4.6355 0.0000 -2.8878 0.0000
# 2 1.7216 158.5340 9.2557 0.0000 -16.4595 0.0000
# 3 4.6355 9.2557 98.7666 0.0000 -10.4441 0.0000
# 4 0.0000 0.0000 0.0000 25.9782 0.0000 -1.4354
# 5 -2.8878 -16.4595 -10.4441 0.0000 55.4604 0.0000
# 6 0.0000 0.0000 0.0000 -1.4354 0.0000 16.8333
#
#
#
# Elastic Compliance Matrix: (Units=1/GPa)
#
#
# Indices 1 2 3 4 5 6 
#
# 1 0.009137 -0.000036 -0.000384 0.000000 0.000393 0.000000
# 2 -0.000036 0.006525 -0.000413 0.000000 0.001857 0.000000
# 3 -0.000384 -0.000413 0.010373 0.000000 0.001811 0.000000
# 4 0.000000 0.000000 0.000000 0.038676 0.000000 0.003298
# 5 0.000393 0.001857 0.001811 0.000000 0.018943 0.000000
# 6 0.000000 0.000000 0.000000 0.003298 0.000000 0.059687
#
#
# Mechanical properties :
#
#
# Convention : Reuss Voigt Hill
#
# Bulk Modulus (GPa) = 41.03678 44.25527 42.64603
# Shear Modulus (GPa) = 32.65170 43.08499 37.86835
#
# Velocity S-wave (km/s) = 3.50353 4.02454 3.77304
# Velocity P-wave (km/s) = 5.63855 6.18326 5.91718
#
# Compressibility (1/GPa) = 0.02436838
#
# Stress axis : x y z
#
# Youngs Moduli (GPa) = 109.44542 153.25435 96.40302
#
# Poissons Ratio (x) = 0.00552 0.03701
# Poissons Ratio (y) = 0.00394 0.03986
# Poissons Ratio (z) = 0.04202 0.06336
#
# Static dielectric constant tensor:
#      x y z
#    x 2.312010 0.000000 0.102950 
#    y 0.000000 1.982820 0.000000 
#    z 0.102950 0.000000 2.154750 
# 
# From -- ./inp_files/25816.got.cif
#   From: 2010.05.17/outbox.cif.g08.bks.cpg/sg8_13_cif.got.tgz:25816.got - 2010.06.03 19:46:02.
