data_PCOD9133976
_publ_section_title
;
Structure prediction by ZEFSAII (Michael W. Deem and Ramdas Pophale) SiO2 
 PCOD9133976
Probable space group: C C
;
_chemical_formula_sum "Si O2"
_cell_formula_units_Z 28
_cell_length_a 14.359081
_cell_length_b 16.804061
_cell_length_c 8.787569
_cell_angle_alpha 90.000000
_cell_angle_beta 135.400582
_cell_angle_gamma 90.000000
_cell_volume 1488.802049
_symmetry_space_group_name_H-M "C C"
_symmetry_group_IT_number 9
_symmetry_cell_setting 'monoclinic'
loop_
_space_group_symop_operation_xyz
x,y,z
x,-y,1/2+z
1/2+x,1/2+y,z
1/2+x,1/2-y,1/2+z
loop_
_atom_site_type_symbol
_atom_site_label
_atom_site_fract_x
_atom_site_fract_y
_atom_site_fract_z
Si Si1 0.493210 0.456846 0.794820
Si Si2 0.026718 0.130771 0.754971
Si Si3 0.740139 0.561333 0.789334
Si Si4 0.119619 0.835021 0.698064
Si Si5 0.864450 0.583812 0.610996
Si Si6 0.069403 0.297916 0.365352
Si Si7 0.363433 0.687160 0.307773
O O1 0.458849 0.543276 0.692300
O O2 0.546939 0.400350 0.721961
O O3 0.392293 0.400531 0.768182
O O4 0.616543 0.476384 0.051343
O O5 0.159098 0.121102 0.803973
O O6 0.922657 0.185115 0.545483
O O7 0.070259 0.159334 0.970197
O O8 0.825746 0.590341 0.744996
O O9 0.823205 0.501274 0.991983
O O10 0.092109 0.749094 0.735854
O O11 0.273184 0.856494 0.905427
O O12 0.014049 0.613896 0.773674
O O13 0.209051 0.294626 0.614538
O O14 0.956112 0.248427 0.322654
#
# Coordination Sequence:
#
# PCOD9133976 Si02
#       7
#     4   4   4   4   4   4   4
#     4   9  17  33  61  86 115 145 193 241 290 341
#     4  11  18  35  63  91 115 146 209 245 288 352
#     4  10  18  32  62  95 108 149 193 254 290 343
#     4  10  18  35  60  89 111 155 196 239 290 355
#     4  11  19  37  63  84 120 148 208 237 298 353
#     4  11  23  42  58  80 123 167 191 238 300 365
#     4  10  23  38  59  85 118 162 194 236 304 349
#
# _framework density 18.807067
#
# number of rings (size 3 to 8) (size 9 to 14) (size 15 to 20)
#    0.000    1.714    5.714    1.714    0.000    0.000 
#    5.143    1.429    0.000    0.000    0.000    0.000 
#    0.000    0.000    0.000    0.000    0.000    0.000 
#
# Total GULP energy -78004.813815 kJ/mol
# GULP energy per Si atom -5571.772415 kJ/mol
# Density = 1.876426 g / cm^3
# Si number density = 18.807067 Si / 1000 Ang^3
#
#
#
# Elastic Constant Matrix: (Units=GPa)
#
#
# Indices 1 2 3 4 5 6 
#
# 1 51.6424 16.7849 64.8957 0.0000 -7.9590 0.0000
# 2 16.7849 43.4178 33.6038 0.0000 3.3093 0.0000
# 3 64.8957 33.6038 137.0589 0.0000 -11.8455 0.0000
# 4 0.0000 0.0000 0.0000 29.0892 0.0000 1.3112
# 5 -7.9590 3.3093 -11.8455 0.0000 40.7632 0.0000
# 6 0.0000 0.0000 0.0000 1.3112 0.0000 21.5744
#
#
#
# Elastic Compliance Matrix: (Units=1/GPa)
#
#
# Indices 1 2 3 4 5 6 
#
# 1 0.048237 -0.001751 -0.022140 0.000000 0.003127 0.000000
# 2 -0.001751 0.029297 -0.006759 0.000000 -0.004684 0.000000
# 3 -0.022140 -0.006759 0.019602 0.000000 0.001922 0.000000
# 4 0.000000 0.000000 0.000000 0.034472 0.000000 -0.002095
# 5 0.003127 -0.004684 0.001922 0.000000 0.026081 0.000000
# 6 0.000000 0.000000 0.000000 -0.002095 0.000000 0.046479
#
#
# Mechanical properties :
#
#
# Convention : Reuss Voigt Hill
#
# Bulk Modulus (GPa) = 27.90409 51.40975 39.65692
# Shear Modulus (GPa) = 18.02370 26.07434 22.04902
#
# Velocity S-wave (km/s) = 3.09908 3.72749 3.42772
# Velocity P-wave (km/s) = 5.26070 6.77645 6.06610
#
# Compressibility (1/GPa) = 0.03583704
#
# Stress axis : x y z
#
# Youngs Moduli (GPa) = 20.73107 34.13319 51.01402
#
# Poissons Ratio (x) = 0.05975 1.12945
# Poissons Ratio (y) = 0.03629 0.34480
# Poissons Ratio (z) = 0.45899 0.23070
#
# Static dielectric constant tensor:
#      x y z
#    x 1.681200 0.000000 -0.003060 
#    y 0.000000 1.713860 0.000000 
#    z -0.003060 0.000000 1.638130 
# 
# From -- ./inp_files/7708.got.cif
#   From: 2010.05.17/outbox.cif.g08.bks.cpg/sg9_4_cif.got.tgz:7708.got - 2010.06.03 20:04:27.
