data_PCOD9133769
_publ_section_title
;
Structure prediction by ZEFSAII (Michael W. Deem and Ramdas Pophale) SiO2 
 PCOD9133769
Probable space group: C C
;
_chemical_formula_sum "Si O2"
_cell_formula_units_Z 24
_cell_length_a 7.676977
_cell_length_b 27.470953
_cell_length_c 5.187028
_cell_angle_alpha 90.000000
_cell_angle_beta 81.843332
_cell_angle_gamma 90.000000
_cell_volume 1082.846212
_symmetry_space_group_name_H-M "C C"
_symmetry_group_IT_number 9
_symmetry_cell_setting 'monoclinic'
loop_
_space_group_symop_operation_xyz
x,y,z
x,-y,1/2+z
1/2+x,1/2+y,z
1/2+x,1/2-y,1/2+z
loop_
_atom_site_type_symbol
_atom_site_label
_atom_site_fract_x
_atom_site_fract_y
_atom_site_fract_z
Si Si1 0.047430 0.525144 0.880630
Si Si2 0.642423 0.484060 0.910519
Si Si3 0.548225 0.285722 0.100561
Si Si4 0.240669 0.878042 0.873122
Si Si5 0.456644 0.129746 0.818894
Si Si6 0.151032 0.272036 0.099486
O O1 0.122773 0.503555 0.604904
O O2 0.064661 0.583265 0.901298
O O3 0.836518 0.509487 0.916709
O O4 0.553971 0.514618 0.705883
O O5 0.652254 0.428593 0.817732
O O6 0.354052 0.284882 0.019163
O O7 0.576338 0.259636 0.373494
O O8 0.619930 0.340120 0.053431
O O9 0.658365 0.256582 0.866389
O O10 0.330425 0.857865 0.591139
O O11 0.375768 0.892126 0.072304
O O12 0.544229 0.179075 0.693754
#
# Coordination Sequence:
#
# PCOD9133769 Si02
#       6
#     4   4   4   4   4   4
#     4  10  16  30  51  88 123 149 201 253 284 357
#     4  10  16  30  51  88 123 149 201 253 284 357
#     4  12  26  45  64  89 126 164 215 267 318 375
#     4  12  21  35  63  93 120 163 206 256 312 364
#     4  12  21  35  63  93 120 163 206 256 312 364
#     4  12  26  45  64  89 126 164 215 267 318 375
#
# _framework density 22.163809000000001
#
# number of rings (size 3 to 8) (size 9 to 14) (size 15 to 20)
#    0.000    0.667    6.667    6.000    0.000    0.000 
#    0.000    0.000    0.000    2.000    0.000    0.000 
#    0.000    0.000    0.000    0.000    0.000    0.000 
#
# Total GULP energy -66868.023057 kJ/mol
# GULP energy per Si atom -5572.335255 kJ/mol
# Density = 2.211336 g / cm^3
# Si number density = 22.163809 Si / 1000 Ang^3
#
#
#
# Elastic Constant Matrix: (Units=GPa)
#
#
# Indices 1 2 3 4 5 6 
#
# 1 30.5970 9.6523 18.3385 0.0000 2.2832 0.0000
# 2 9.6523 134.1968 26.3556 0.0000 -7.4950 0.0000
# 3 18.3385 26.3556 161.3835 0.0000 3.0053 0.0000
# 4 0.0000 0.0000 0.0000 40.9648 0.0000 -9.9547
# 5 2.2832 -7.4950 3.0053 0.0000 15.4612 0.0000
# 6 0.0000 0.0000 0.0000 -9.9547 0.0000 9.9821
#
#
#
# Elastic Compliance Matrix: (Units=1/GPa)
#
#
# Indices 1 2 3 4 5 6 
#
# 1 0.035969 -0.002192 -0.003624 0.000000 -0.005670 0.000000
# 2 -0.002192 0.008086 -0.001155 0.000000 0.004468 0.000000
# 3 -0.003624 -0.001155 0.006822 0.000000 -0.001351 0.000000
# 4 0.000000 0.000000 0.000000 0.032219 0.000000 0.032131
# 5 -0.005670 0.004468 -0.001351 0.000000 0.067943 0.000000
# 6 0.000000 0.000000 0.000000 0.032131 0.000000 0.132222
#
#
# Mechanical properties :
#
#
# Convention : Reuss Voigt Hill
#
# Bulk Modulus (GPa) = 27.07373 48.31890 37.69632
# Shear Modulus (GPa) = 16.15432 31.40368 23.77900
#
# Velocity S-wave (km/s) = 2.70267 3.76824 3.27903
# Velocity P-wave (km/s) = 4.68839 6.38600 5.60188
#
# Compressibility (1/GPa) = 0.03693617
#
# Stress axis : x y z
#
# Youngs Moduli (GPa) = 27.80133 123.67520 146.58667
#
# Poissons Ratio (x) = 0.27111 0.53119
# Poissons Ratio (y) = 0.06094 0.16925
# Poissons Ratio (z) = 0.10074 0.14279
#
# Static dielectric constant tensor:
#      x y z
#    x 1.877350 0.000000 -0.046070 
#    y 0.000000 1.870030 0.000000 
#    z -0.046070 0.000000 1.923270 
# 
# From -- ./inp_files/964.got.cif
#   From: 2010.05.17/outbox.cif.g08.bks.cpg/sg9_1_cif.got.tgz:964.got - 2010.06.03 20:04:27.
