data_PCOD9133274
_publ_section_title
;
Structure prediction by ZEFSAII (Michael W. Deem and Ramdas Pophale) SiO2 
 PCOD9133274
Probable space group: C M
;
_chemical_formula_sum "Si O2"
_cell_formula_units_Z 32
_cell_length_a 11.824769
_cell_length_b 28.545682
_cell_length_c 7.631017
_cell_angle_alpha 90.000000
_cell_angle_beta 146.794513
_cell_angle_gamma 90.000000
_cell_volume 1410.630703
_symmetry_space_group_name_H-M "C M"
_symmetry_group_IT_number 8
_symmetry_cell_setting 'monoclinic'
loop_
_space_group_symop_operation_xyz
x,y,z
x,-y,z
1/2+x,1/2+y,z
1/2+x,1/2-y,z
loop_
_atom_site_type_symbol
_atom_site_label
_atom_site_fract_x
_atom_site_fract_y
_atom_site_fract_z
Si Si1 0.175890 0.372841 0.008650
Si Si2 0.067390 0.944963 0.131322
Si Si3 0.998090 0.053971 0.444698
Si Si4 0.047895 0.176524 0.683041
Si Si5 0.780041 0.600433 0.110095
Si Si6 0.338909 0.816011 0.732743
Si Si7 0.730338 0.227236 0.421864
Si Si8 0.229100 0.636207 0.673040
O O1 0.265849 0.425162 0.131031
O O2 0.337106 0.349225 0.352682
O O3 0.218769 0.354226 0.868596
O O4 0.947459 0.358835 0.773205
O O5 0.093901 0.939847 0.374684
O O6 0.258750 0.931375 0.254521
O O7 0.010061 0.000000 0.026486
O O8 0.897001 0.905168 0.860766
O O9 0.986100 0.000000 0.471493
O O10 0.141186 0.077344 0.777751
O O11 0.200527 0.172180 0.719069
O O12 0.952446 0.225999 0.610788
O O13 0.171564 0.151069 0.997539
O O14 0.010244 0.611355 0.348705
O O15 0.202247 0.780039 0.447029
O O16 0.531659 0.785569 0.051292
O O17 0.746125 0.185044 0.587889
#
# Coordination Sequence:
#
# PCOD9133274 Si02
#       8
#     4   4   4   4   4   4   4   4
#     4   9  23  41  65  98 128 173 213 265 334 389
#     4  10  22  42  65  97 135 174 218 273 334 398
#     4   9  20  41  69  98 136 176 219 273 333 396
#     4  10  22  43  62  88 133 167 215 273 327 396
#     4  11  21  39  66  94 131 172 224 265 334 390
#     4  11  25  42  65  94 131 171 221 273 329 398
#     4  11  25  41  62  93 127 169 220 267 330 389
#     4  11  23  41  65  96 129 170 219 271 330 392
#
# _framework density 22.684888000000001
#
# number of rings (size 3 to 8) (size 9 to 14) (size 15 to 20)
#    0.000    1.750    2.500    0.375    3.500    6.000 
#    0.000    0.000    0.000    6.750    0.000    0.000 
#    0.000    0.000    0.000    0.000    0.000    0.000 
#
# Total GULP energy -89253.933923 kJ/mol
# GULP energy per Si atom -5578.370870 kJ/mol
# Density = 2.263326 g / cm^3
# Si number density = 22.684888 Si / 1000 Ang^3
#
#
#
# Elastic Constant Matrix: (Units=GPa)
#
#
# Indices 1 2 3 4 5 6 
#
# 1 88.7899 27.8436 6.7506 0.0000 19.0801 0.0000
# 2 27.8436 59.8084 14.8267 0.0000 8.6200 0.0000
# 3 6.7506 14.8267 48.0579 0.0000 2.0028 0.0000
# 4 0.0000 0.0000 0.0000 27.4521 0.0000 -3.0997
# 5 19.0801 8.6200 2.0028 0.0000 36.5018 0.0000
# 6 0.0000 0.0000 0.0000 -3.0997 0.0000 33.8671
#
#
#
# Elastic Compliance Matrix: (Units=1/GPa)
#
#
# Indices 1 2 3 4 5 6 
#
# 1 0.014412 -0.005829 0.000031 0.000000 -0.006158 0.000000
# 2 -0.005829 0.021058 -0.005610 0.000000 -0.001618 0.000000
# 3 0.000031 -0.005610 0.022532 0.000000 0.000073 0.000000
# 4 0.000000 0.000000 0.000000 0.036807 0.000000 0.003369
# 5 -0.006158 -0.001618 0.000073 0.000000 0.030993 0.000000
# 6 0.000000 0.000000 0.000000 0.003369 0.000000 0.029836
#
#
# Mechanical properties :
#
#
# Convention : Reuss Voigt Hill
#
# Bulk Modulus (GPa) = 28.42266 32.83312 30.62789
# Shear Modulus (GPa) = 26.29043 29.37988 27.83516
#
# Velocity S-wave (km/s) = 3.40801 3.60270 3.50671
# Velocity P-wave (km/s) = 5.29553 5.64011 5.47053
#
# Compressibility (1/GPa) = 0.03518319
#
# Stress axis : x y z
#
# Youngs Moduli (GPa) = 69.38869 47.48808 44.38161
#
# Poissons Ratio (x) = 0.27682 -0.00136
# Poissons Ratio (y) = 0.40449 0.24900
# Poissons Ratio (z) = -0.00213 0.26643
#
# Static dielectric constant tensor:
#      x y z
#    x 1.916210 0.000000 0.003090 
#    y 0.000000 1.912370 0.000000 
#    z 0.003090 0.000000 1.842620 
# 
# From -- ./inp_files/11730.got.cif
#   From: 2010.05.17/outbox.cif.g08.bks.cpg/sg8_6_cif.got.tgz:11730.got - 2010.06.03 19:46:02.
