data_PCOD9133450
_publ_section_title
;
Structure prediction by ZEFSAII (Michael W. Deem and Ramdas Pophale) SiO2 
 PCOD9133450
Probable space group: C M
;
_chemical_formula_sum "Si O2"
_cell_formula_units_Z 16
_cell_length_a 6.815122
_cell_length_b 18.958529
_cell_length_c 5.423244
_cell_angle_alpha 90.000000
_cell_angle_beta 96.961837
_cell_angle_gamma 90.000000
_cell_volume 695.542299
_symmetry_space_group_name_H-M "C M"
_symmetry_group_IT_number 8
_symmetry_cell_setting 'monoclinic'
loop_
_space_group_symop_operation_xyz
x,y,z
x,-y,z
1/2+x,1/2+y,z
1/2+x,1/2-y,z
loop_
_atom_site_type_symbol
_atom_site_label
_atom_site_fract_x
_atom_site_fract_y
_atom_site_fract_z
Si Si1 0.398770 0.649671 0.232370
Si Si2 0.274653 0.203505 0.086627
Si Si3 0.185861 0.500000 0.242237
Si Si4 0.934072 0.500000 0.705171
Si Si5 0.271025 0.849559 0.586365
O O1 0.254345 0.715125 0.161046
O O2 0.567399 0.660787 0.049502
O O3 0.309369 0.572401 0.230334
O O4 0.540590 0.664083 0.489344
O O5 0.376073 0.167758 0.340863
O O6 0.355207 0.194624 0.825997
O O7 0.088460 0.500000 0.499559
O O8 0.032571 0.500000 0.990162
O O9 0.805006 0.430425 0.653960
#
# Coordination Sequence:
#
# PCOD9133450 Si02
#       5
#     4   4   2   2   4
#     4  10  27  44  72 100 141 175 233 273 349 397
#     4  10  25  40  74  97 137 178 227 279 336 404
#     4  12  29  43  72 104 138 183 226 283 337 413
#     4  12  27  43  72  98 146 177 232 275 351 393
#     4  10  25  44  68  98 138 180 223 282 336 403
#
# _framework density 23.003637000000001
#
# number of rings (size 3 to 8) (size 9 to 14) (size 15 to 20)
#    1.500    0.000    0.000    2.250   14.000    1.000 
#    0.000    0.000    0.000    0.000    0.000    0.000 
#    0.000    0.000    0.000    0.000    0.000    0.000 
#
# Total GULP energy -44591.474047 kJ/mol
# GULP energy per Si atom -5573.934256 kJ/mol
# Density = 2.295128 g / cm^3
# Si number density = 23.003637 Si / 1000 Ang^3
#
#
#
# Elastic Constant Matrix: (Units=GPa)
#
#
# Indices 1 2 3 4 5 6 
#
# 1 33.0612 17.6234 19.0954 0.0000 6.5397 0.0000
# 2 17.6234 161.4239 34.1422 0.0000 14.0512 0.0000
# 3 19.0954 34.1422 175.1090 0.0000 18.3795 0.0000
# 4 0.0000 0.0000 0.0000 27.6985 0.0000 7.0589
# 5 6.5397 14.0512 18.3795 0.0000 22.8943 0.0000
# 6 0.0000 0.0000 0.0000 7.0589 0.0000 28.4610
#
#
#
# Elastic Compliance Matrix: (Units=1/GPa)
#
#
# Indices 1 2 3 4 5 6 
#
# 1 0.034373 -0.002675 -0.002587 0.000000 -0.006101 0.000000
# 2 -0.002675 0.006895 -0.000752 0.000000 -0.002864 0.000000
# 3 -0.002587 -0.000752 0.006567 0.000000 -0.004071 0.000000
# 4 0.000000 0.000000 0.000000 0.038539 0.000000 -0.009558
# 5 -0.006101 -0.002864 -0.004071 0.000000 0.050448 0.000000
# 6 0.000000 0.000000 0.000000 -0.009558 0.000000 0.037507
#
#
# Mechanical properties :
#
#
# Convention : Reuss Voigt Hill
#
# Bulk Modulus (GPa) = 27.92611 56.81289 42.36950
# Shear Modulus (GPa) = 25.21539 35.72629 30.47084
#
# Velocity S-wave (km/s) = 3.31440 3.94518 3.64347
# Velocity P-wave (km/s) = 5.17815 6.74563 6.01319
#
# Compressibility (1/GPa) = 0.03580878
#
# Stress axis : x y z
#
# Youngs Moduli (GPa) = 29.09230 145.02719 152.28193
#
# Poissons Ratio (x) = 0.38789 0.39389
# Poissons Ratio (y) = 0.07781 0.11454
# Poissons Ratio (z) = 0.07525 0.10908
#
# Static dielectric constant tensor:
#      x y z
#    x 1.933910 0.000000 -0.035580 
#    y 0.000000 1.795510 0.000000 
#    z -0.035580 0.000000 1.871490 
# 
# From -- ./inp_files/1000.got.cif
#   From: 2010.05.17/outbox.cif.g08.bks.cpg/sg8_1_cif.got.tgz:1000.got - 2010.06.03 19:46:02.
