data_PCOD9133401
_publ_section_title
;
Structure prediction by ZEFSAII (Michael W. Deem and Ramdas Pophale) SiO2 
 PCOD9133401
Probable space group: C M
;
_chemical_formula_sum "Si O2"
_cell_formula_units_Z 20
_cell_length_a 4.953137
_cell_length_b 13.361684
_cell_length_c 11.548055
_cell_angle_alpha 90.000000
_cell_angle_beta 111.446611
_cell_angle_gamma 90.000000
_cell_volume 711.356777
_symmetry_space_group_name_H-M "C M"
_symmetry_group_IT_number 8
_symmetry_cell_setting 'monoclinic'
loop_
_space_group_symop_operation_xyz
x,y,z
x,-y,z
1/2+x,1/2+y,z
1/2+x,1/2-y,z
loop_
_atom_site_type_symbol
_atom_site_label
_atom_site_fract_x
_atom_site_fract_y
_atom_site_fract_z
Si Si1 0.138760 0.802201 0.376650
Si Si2 0.695813 0.000000 0.137154
Si Si3 0.428023 0.323254 0.032746
Si Si4 0.494184 0.000000 0.370876
Si Si5 0.919933 0.699641 0.668975
Si Si6 0.748132 0.000000 0.647205
Si Si7 0.073198 0.000000 0.904383
O O1 0.297302 0.717948 0.324168
O O2 0.296196 0.904545 0.369636
O O3 0.223429 0.781570 0.523820
O O4 0.887756 0.096003 0.130051
O O5 0.606431 0.000000 0.257436
O O6 0.392299 0.000000 0.014435
O O7 0.211926 0.235885 0.037050
O O8 0.397622 0.403134 0.923535
O O9 0.752712 0.000000 0.508089
O O10 0.678514 0.720050 0.727684
O O11 0.068717 0.595695 0.662267
O O12 0.051970 0.000000 0.762689
#
# Coordination Sequence:
#
# PCOD9133401 Si02
#       7
#     4   2   4   2   4   2   2
#     4   9  19  38  60  90 131 178 227 276 340 421
#     4  11  25  47  76 116 147 192 263 313 367 464
#     4  11  24  49  78 108 148 203 252 315 380 442
#     4  10  23  44  72 106 150 193 237 303 377 439
#     4   9  19  38  60  90 131 178 227 276 340 421
#     4  10  23  44  72 106 150 193 237 303 377 439
#     4  11  25  47  76 116 147 192 263 313 367 464
#
# _framework density 28.115286000000001
#
# number of rings (size 3 to 8) (size 9 to 14) (size 15 to 20)
#    0.000    2.000    2.000    0.000    0.000    4.800 
#   14.400    8.000    0.000    0.000    0.000    0.000 
#    0.000    0.000    0.000    0.000    0.000    0.000 
#
# Total GULP energy -55956.916980 kJ/mol
# GULP energy per Si atom -5595.691698 kJ/mol
# Density = 2.805129 g / cm^3
# Si number density = 28.115286 Si / 1000 Ang^3
#
#
#
# Elastic Constant Matrix: (Units=GPa)
#
#
# Indices 1 2 3 4 5 6 
#
# 1 146.0790 17.6731 36.6153 0.0000 -13.3377 0.0000
# 2 17.6731 155.7118 -0.7206 0.0000 -5.4280 0.0000
# 3 36.6153 -0.7206 171.8986 0.0000 22.6965 0.0000
# 4 0.0000 0.0000 0.0000 19.8966 0.0000 -22.8016
# 5 -13.3377 -5.4280 22.6965 0.0000 25.6639 0.0000
# 6 0.0000 0.0000 0.0000 -22.8016 0.0000 42.2814
#
#
#
# Elastic Compliance Matrix: (Units=1/GPa)
#
#
# Indices 1 2 3 4 5 6 
#
# 1 0.008162 -0.000716 -0.002583 0.000000 0.006375 0.000000
# 2 -0.000716 0.006537 0.000053 0.000000 0.000964 0.000000
# 3 -0.002583 0.000053 0.007409 0.000000 -0.007883 0.000000
# 4 0.000000 0.000000 0.000000 0.131577 0.000000 0.070957
# 5 0.006375 0.000964 -0.007883 0.000000 0.049454 0.000000
# 6 0.000000 0.000000 0.000000 0.070957 0.000000 0.061917
#
#
# Mechanical properties :
#
#
# Convention : Reuss Voigt Hill
#
# Bulk Modulus (GPa) = 64.04296 64.53609 64.28953
# Shear Modulus (GPa) = 18.06661 45.57650 31.82155
#
# Velocity S-wave (km/s) = 2.53769 4.03060 3.36791
# Velocity P-wave (km/s) = 5.60487 6.68318 6.16764
#
# Compressibility (1/GPa) = 0.01561452
#
# Stress axis : x y z
#
# Youngs Moduli (GPa) = 122.52232 152.96971 134.97604
#
# Poissons Ratio (x) = 0.10954 0.34867
# Poissons Ratio (y) = 0.08774 -0.00711
# Poissons Ratio (z) = 0.31650 -0.00806
#
# Static dielectric constant tensor:
#      x y z
#    x 2.119420 0.000000 0.077320 
#    y 0.000000 2.189950 0.000000 
#    z 0.077320 0.000000 2.326380 
# 
# From -- ./inp_files/17961.got.cif
#   From: 2010.05.17/outbox.cif.g08.bks.cpg/sg8_9_cif.got.tgz:17961.got - 2010.06.03 19:46:02.
