data_PCOD9133411
_publ_section_title
;
Structure prediction by ZEFSAII (Michael W. Deem and Ramdas Pophale) SiO2 
 PCOD9133411
Probable space group: C M
;
_chemical_formula_sum "Si O2"
_cell_formula_units_Z 32
_cell_length_a 12.529710
_cell_length_b 20.978498
_cell_length_c 8.314637
_cell_angle_alpha 90.000000
_cell_angle_beta 33.933296
_cell_angle_gamma 90.000000
_cell_volume 1220.028058
_symmetry_space_group_name_H-M "C M"
_symmetry_group_IT_number 8
_symmetry_cell_setting 'monoclinic'
loop_
_space_group_symop_operation_xyz
x,y,z
x,-y,z
1/2+x,1/2+y,z
1/2+x,1/2-y,z
loop_
_atom_site_type_symbol
_atom_site_label
_atom_site_fract_x
_atom_site_fract_y
_atom_site_fract_z
Si Si1 0.685630 0.811662 0.450810
Si Si2 0.741168 0.391842 0.746861
Si Si3 0.871755 0.775512 0.885122
Si Si4 0.525124 0.619664 0.343602
Si Si5 0.829246 0.241662 0.605945
Si Si6 0.201068 0.115671 0.452260
Si Si7 0.157932 0.430620 0.296666
Si Si8 0.630740 0.923272 0.966293
O O1 0.789264 0.781219 0.165855
O O2 0.463686 0.793254 0.732350
O O3 0.751240 0.785276 0.537343
O O4 0.556599 0.676682 0.648203
O O5 0.602802 0.393330 0.070448
O O6 0.807102 0.317898 0.627656
O O7 0.662027 0.417018 0.675032
O O8 0.929040 0.429087 0.565556
O O9 0.709929 0.884595 0.375632
O O10 0.519933 0.697255 0.370923
O O11 0.741253 0.782084 0.887297
O O12 0.643519 0.591318 0.346668
O O13 0.810054 0.093673 0.631921
O O14 0.434745 0.113810 0.165438
O O15 0.234843 0.500000 0.226002
O O16 0.206231 0.408292 0.054560
O O17 0.591732 0.000000 0.012365
#
# Coordination Sequence:
#
# PCOD9133411 Si02
#       8
#     4   4   4   4   4   4   4   4
#     4  12  25  44  73 111 155 206 254 325 402 465
#     4  11  23  43  72 107 147 200 261 319 388 466
#     4  11  25  41  70 112 157 195 257 329 399 464
#     4  11  26  44  73 110 153 196 259 329 388 467
#     4  11  25  39  68 110 155 196 249 318 399 464
#     4  10  23  47  70 105 151 201 251 312 399 457
#     4  10  23  47  74 107 157 212 264 318 388 479
#     4  10  24  49  80 110 153 212 267 326 389 476
#
# _framework density 26.228905999999998
#
# number of rings (size 3 to 8) (size 9 to 14) (size 15 to 20)
#    0.000    1.250    2.500    2.250    3.500    5.000 
#    0.000    3.750    0.000    4.500    0.000    0.000 
#    0.000    0.000    0.000    0.000    0.000    0.000 
#
# Total GULP energy -89328.128070 kJ/mol
# GULP energy per Si atom -5583.008004 kJ/mol
# Density = 2.616921 g / cm^3
# Si number density = 26.228906 Si / 1000 Ang^3
#
#
#
# Elastic Constant Matrix: (Units=GPa)
#
#
# Indices 1 2 3 4 5 6 
#
# 1 202.3538 42.8943 81.5788 -0.0001 34.7110 0.0007
# 2 42.8943 102.8156 36.8541 0.0000 9.8728 -0.0002
# 3 81.5788 36.8541 187.1994 -0.0002 40.5313 0.0002
# 4 -0.0001 0.0000 -0.0002 10.1837 0.0002 -8.1522
# 5 34.7110 9.8728 40.5313 0.0002 41.2002 -0.0006
# 6 0.0007 -0.0002 0.0002 -8.1522 -0.0006 16.5853
#
#
#
# Elastic Compliance Matrix: (Units=1/GPa)
#
#
# Indices 1 2 3 4 5 6 
#
# 1 0.006629 -0.001795 -0.001804 0.000000 -0.003381 -0.000001
# 2 -0.001795 0.010963 -0.001442 0.000000 0.000303 0.000000
# 3 -0.001804 -0.001442 0.007634 0.000000 -0.005645 0.000000
# 4 0.000000 0.000000 0.000000 0.161900 0.000001 0.079579
# 5 -0.003381 0.000303 -0.005645 0.000001 0.032601 0.000002
# 6 -0.000001 0.000000 0.000000 0.079579 0.000002 0.099410
#
#
# Mechanical properties :
#
#
# Convention : Reuss Voigt Hill
#
# Bulk Modulus (GPa) = 66.02564 90.55812 78.29188
# Shear Modulus (GPa) = 14.95820 35.66330 25.31075
#
# Velocity S-wave (km/s) = 2.39067 3.69140 3.10981
# Velocity P-wave (km/s) = 5.73131 7.26427 6.54284
#
# Compressibility (1/GPa) = 0.01514563
#
# Stress axis : x y z
#
# Youngs Moduli (GPa) = 150.84512 91.21977 130.99314
#
# Poissons Ratio (x) = 0.16370 0.23627
# Poissons Ratio (y) = 0.27070 0.18887
# Poissons Ratio (z) = 0.27208 0.13153
#
# Static dielectric constant tensor:
#      x y z
#    x 2.200860 0.000000 -0.012680 
#    y 0.000000 2.142330 0.000000 
#    z -0.012680 0.000000 2.101400 
# 
# From -- ./inp_files/11344.got.cif
#   From: 2010.05.17/outbox.cif.g08.bks.cpg/sg8_6_cif.got.tgz:11344.got - 2010.06.03 19:46:02.
