data_PCOD9133677
_publ_section_title
;
Structure prediction by ZEFSAII (Michael W. Deem and Ramdas Pophale) SiO2 
 PCOD9133677
Probable space group: C M
;
_chemical_formula_sum "Si O2"
_cell_formula_units_Z 16
_cell_length_a 27.000000
_cell_length_b 9.000000
_cell_length_c 21.000000
_cell_angle_alpha 90.000000
_cell_angle_beta 160.000000
_cell_angle_gamma 90.000000
_cell_volume 1745.328791
_symmetry_space_group_name_H-M "C M"
_symmetry_group_IT_number 8
_symmetry_cell_setting 'monoclinic'
loop_
_space_group_symop_operation_xyz
x,y,z
x,-y,z
1/2+x,1/2+y,z
1/2+x,1/2-y,z
loop_
_atom_site_type_symbol
_atom_site_label
_atom_site_fract_x
_atom_site_fract_y
_atom_site_fract_z
Si Si1 0.592490 0.321878 0.937140
Si Si2 0.671260 0.177171 0.166038
Si Si3 0.041043 0.177381 0.326301
Si Si4 0.411979 0.173597 0.287921
Si Si5 0.474285 0.176490 0.513305
Si Si6 0.799003 0.179493 0.931918
Si Si7 0.265974 0.321582 0.506728
Si Si8 0.554193 0.321126 0.147986
O O1 0.595304 0.500000 0.953419
O O2 0.437339 0.286939 0.718420
O O3 0.613365 0.235341 0.028350
O O4 0.740030 0.289822 0.076370
O O5 0.575314 0.250214 0.105009
O O6 0.836294 0.236108 0.373593
O O7 0.668468 0.000000 0.165640
O O8 0.179086 0.261049 0.463389
O O9 0.005767 0.225547 0.354934
O O10 0.060643 0.000000 0.343305
O O11 0.898379 0.221544 0.112335
O O12 0.460122 0.190125 0.419523
O O13 0.430320 0.000000 0.292769
O O14 0.632863 0.230942 0.727271
O O15 0.459031 0.000000 0.509746
O O16 0.789920 0.000000 0.921088
O O17 0.900435 0.220138 0.994431
O O18 0.250704 0.500000 0.483460
O O19 0.181983 0.242745 0.347311
O O20 0.563766 0.500000 0.157627
#
# Coordination Sequence:
#
# PCOD9133677 Si02
#       8
#     4   4   4   4   4   4   4   4
#     4   9  20  38  57  77 104 139 178 220 267 315
#     4  11  22  35  53  80 110 139 176 218 261 313
#     4  10  20  34  52  77 108 139 172 212 261 315
#     4   9  18  33  53  76 101 132 171 217 264 310
#     4   9  18  36  57  75 100 136 177 218 263 310
#     4   8  17  34  55  76  98 132 177 216 252 305
#     4  10  20  36  57  80 106 137 177 222 265 311
#     4  10  20  36  56  79 109 142 176 215 263 315
#
# _framework density 9.1673270000000002
#
# number of rings (size 3 to 8) (size 9 to 14) (size 15 to 20)
#    0.000    2.500    0.000    3.750    0.000    5.000 
#    0.000    8.750    0.000    0.000    0.000    0.000 
#    0.000    0.000    0.000    0.000    0.000    0.000 
#
# Total GULP energy -89255.625463 kJ/mol
# GULP energy per Si atom -5578.476591 kJ/mol
# Density = 0.914646 g / cm^3
# Si number density = 9.167327 Si / 1000 Ang^3
#
#
#
# Elastic Constant Matrix: (Units=GPa)
#
#
# Indices 1 2 3 4 5 6 
#
# 1 29.9654 6.0710 -39.9873 0.0000 0.2665 0.0000
# 2 6.0710 47.2414 -6.7934 0.0000 -0.0816 0.0000
# 3 -39.9873 -6.7934 43.0188 0.0000 5.1397 0.0000
# 4 0.0000 0.0000 0.0000 25.0573 0.0000 -0.0996
# 5 0.2665 -0.0816 5.1397 0.0000 8.6866 0.0000
# 6 0.0000 0.0000 0.0000 -0.0996 0.0000 28.1935
#
#
#
# Elastic Compliance Matrix: (Units=1/GPa)
#
#
# Indices 1 2 3 4 5 6 
#
# 1 -0.096466 -0.001464 -0.097117 0.000000 0.060408 0.000000
# 2 -0.001464 0.021669 0.002185 0.000000 -0.001045 0.000000
# 3 -0.097117 0.002185 -0.072140 0.000000 0.045684 0.000000
# 4 0.000000 0.000000 0.000000 0.039909 0.000000 0.000141
# 5 0.060408 -0.001045 0.045684 0.000000 0.086227 0.000000
# 6 0.000000 0.000000 0.000000 0.000141 0.000000 0.035470
#
#
# Mechanical properties :
#
#
# Convention : Reuss Voigt Hill
#
# Bulk Modulus (GPa) = -2.94353 4.31179 0.68413
# Shear Modulus (GPa) = 53.06940 23.11649 38.09295
#
# Velocity S-wave (km/s) = 5.38588 3.55464 4.56307
# Velocity P-wave (km/s) = 6.08835 4.38225 5.30434
#
# Compressibility (1/GPa) = -0.33972852
#
# Stress axis : x y z
#
# Youngs Moduli (GPa) = -10.36637 46.14986 -13.86189
#
# Poissons Ratio (x) = 0.06758 -1.34622
# Poissons Ratio (y) = -0.01518 0.03029
# Poissons Ratio (z) = -1.00675 -0.10086
#
# Static dielectric constant tensor:
#      x y z
#    x 1.637350 0.000000 -0.001680 
#    y 0.000000 1.606770 0.000000 
#    z -0.001680 0.000000 1.628750 
# 
# From -- ./inp_files/15843.got.cif
#   From: 2010.05.17/outbox.ucp.g08.bks.cvg/sg8_8_cif.got.tgz:15843.got - 2010.06.11 13:00:03.
