data_PCOD9133793
_publ_section_title
;
Structure prediction by ZEFSAII (Michael W. Deem and Ramdas Pophale) SiO2 
 PCOD9133793
Probable space group: C C
;
_chemical_formula_sum "Si O2"
_cell_formula_units_Z 32
_cell_length_a 9.950221
_cell_length_b 21.705150
_cell_length_c 7.746188
_cell_angle_alpha 90.000000
_cell_angle_beta 130.075516
_cell_angle_gamma 90.000000
_cell_volume 1280.137362
_symmetry_space_group_name_H-M "C C"
_symmetry_group_IT_number 9
_symmetry_cell_setting 'monoclinic'
loop_
_space_group_symop_operation_xyz
x,y,z
x,-y,1/2+z
1/2+x,1/2+y,z
1/2+x,1/2-y,1/2+z
loop_
_atom_site_type_symbol
_atom_site_label
_atom_site_fract_x
_atom_site_fract_y
_atom_site_fract_z
Si Si1 0.461510 0.902900 0.791590
Si Si2 0.943280 0.524677 0.635521
Si Si3 0.091887 0.279517 0.598168
Si Si4 0.642909 0.815596 0.160827
Si Si5 0.736858 0.699505 0.396624
Si Si6 0.737071 0.105809 0.050529
Si Si7 0.713937 0.666111 0.857995
Si Si8 0.600296 0.418679 0.951993
O O1 0.284747 0.867906 0.587215
O O2 0.502767 0.954029 0.683408
O O3 0.447862 0.943128 0.953791
O O4 0.609371 0.852181 0.956697
O O5 0.745218 0.529153 0.544149
O O6 0.070688 0.564398 0.863103
O O7 0.151050 0.238880 0.481871
O O8 0.210953 0.340261 0.670765
O O9 0.097938 0.228119 0.754294
O O10 0.897694 0.307472 0.432484
O O11 0.709665 0.746115 0.215422
O O12 0.760999 0.855554 0.390060
O O13 0.444660 0.812439 0.075184
O O14 0.646467 0.634173 0.348662
O O15 0.900541 0.065241 0.247114
O O16 0.632660 0.614999 0.662170
#
# Coordination Sequence:
#
# PCOD9133793 Si02
#       8
#     4   4   4   4   4   4   4   4
#     4  11  25  44  69  90 137 182 223 282 329 388
#     4  11  23  46  69  93 129 183 230 273 329 390
#     4  10  18  34  62  96 137 164 214 260 328 406
#     4  10  20  36  61 101 135 172 215 266 334 394
#     4  10  16  33  61  97 133 166 207 261 330 398
#     4  10  19  37  68 104 126 170 224 270 327 399
#     4  11  22  38  63 101 138 180 213 269 339 391
#     4  11  19  38  71 100 131 173 222 273 328 400
#
# _framework density 24.997318
#
# number of rings (size 3 to 8) (size 9 to 14) (size 15 to 20)
#    0.000    1.500    3.750    6.000    0.000    1.000 
#    0.000    5.000    8.250    0.000    0.000    0.000 
#    0.000    0.000    0.000    0.000    0.000    0.000 
#
# Total GULP energy -89385.538993 kJ/mol
# GULP energy per Si atom -5586.596187 kJ/mol
# Density = 2.494042 g / cm^3
# Si number density = 24.997318 Si / 1000 Ang^3
#
#
#
# Elastic Constant Matrix: (Units=GPa)
#
#
# Indices 1 2 3 4 5 6 
#
# 1 43.7516 0.5837 26.6377 0.0000 -6.1338 0.0000
# 2 0.5837 116.4015 28.8317 0.0000 -25.4236 0.0000
# 3 26.6377 28.8317 160.8965 0.0000 -16.0926 0.0000
# 4 0.0000 0.0000 0.0000 45.9478 0.0000 -10.2714
# 5 -6.1338 -25.4236 -16.0926 0.0000 42.3508 0.0000
# 6 0.0000 0.0000 0.0000 -10.2714 0.0000 29.6313
#
#
#
# Elastic Compliance Matrix: (Units=1/GPa)
#
#
# Indices 1 2 3 4 5 6 
#
# 1 0.025861 0.001600 -0.004259 0.000000 0.003087 0.000000
# 2 0.001600 0.010224 -0.001518 0.000000 0.005793 0.000000
# 3 -0.004259 -0.001518 0.007318 0.000000 0.001253 0.000000
# 4 0.000000 0.000000 0.000000 0.023592 0.000000 0.008178
# 5 0.003087 0.005793 0.001253 0.000000 0.028013 0.000000
# 6 0.000000 0.000000 0.000000 0.008178 0.000000 0.036583
#
#
# Mechanical properties :
#
#
# Convention : Reuss Voigt Hill
#
# Bulk Modulus (GPa) = 28.53222 48.12842 38.33032
# Shear Modulus (GPa) = 32.97554 41.25242 37.11398
#
# Velocity S-wave (km/s) = 3.63597 4.06676 3.85738
# Velocity P-wave (km/s) = 5.39128 6.43014 5.93349
#
# Compressibility (1/GPa) = 0.03504810
#
# Stress axis : x y z
#
# Youngs Moduli (GPa) = 38.66815 97.80920 136.65734
#
# Poissons Ratio (x) = -0.15646 0.58207
# Poissons Ratio (y) = -0.06186 0.20738
# Poissons Ratio (z) = 0.16470 0.14843
#
# Static dielectric constant tensor:
#      x y z
#    x 2.009700 0.000000 -0.081310 
#    y 0.000000 1.998390 0.000000 
#    z -0.081310 0.000000 2.080670 
# 
# From -- ./inp_files/8545.got.cif
#   From: 2010.05.17/outbox.cif.g08.bks.cpg/sg9_5_cif.got.tgz:8545.got - 2010.06.03 20:04:27.
