data_PCOD9133965
_publ_section_title
;
Structure prediction by ZEFSAII (Michael W. Deem and Ramdas Pophale) SiO2 
 PCOD9133965
Probable space group: C C
;
_chemical_formula_sum "Si O2"
_cell_formula_units_Z 32
_cell_length_a 13.914865
_cell_length_b 20.112159
_cell_length_c 10.156002
_cell_angle_alpha 90.000000
_cell_angle_beta 143.319443
_cell_angle_gamma 90.000000
_cell_volume 1697.819600
_symmetry_space_group_name_H-M "C C"
_symmetry_group_IT_number 9
_symmetry_cell_setting 'monoclinic'
loop_
_space_group_symop_operation_xyz
x,y,z
x,-y,1/2+z
1/2+x,1/2+y,z
1/2+x,1/2-y,1/2+z
loop_
_atom_site_type_symbol
_atom_site_label
_atom_site_fract_x
_atom_site_fract_y
_atom_site_fract_z
Si Si1 0.508780 0.396020 0.359540
Si Si2 0.958046 0.849627 0.580452
Si Si3 0.257369 0.235166 0.304455
Si Si4 0.099886 0.029722 0.379928
Si Si5 0.793309 0.778873 0.038810
Si Si6 0.976681 0.651456 0.162158
Si Si7 0.318857 0.979220 0.377215
Si Si8 0.391885 0.112143 0.348203
O O1 0.431511 0.393181 0.419506
O O2 0.480142 0.466966 0.262023
O O3 0.438765 0.331981 0.209017
O O4 0.703132 0.391705 0.591812
O O5 0.100628 0.799762 0.690351
O O6 0.016157 0.901050 0.752719
O O7 0.812346 0.799677 0.444848
O O8 0.247047 0.258487 0.139439
O O9 0.387971 0.175039 0.440803
O O10 0.197151 0.035086 0.623228
O O11 0.220145 0.007905 0.393922
O O12 0.849519 0.711888 0.029586
O O13 0.645019 0.815931 0.808495
O O14 0.995036 0.627303 0.333824
O O15 0.913008 0.587683 0.015221
O O16 0.427540 0.041478 0.451034
#
# Coordination Sequence:
#
# PCOD9133965 Si02
#       8
#     4   4   4   4   4   4   4   4
#     4   9  17  33  56  83 106 142 188 234 264 326
#     4  10  18  32  55  83 106 142 183 224 273 320
#     4   9  16  30  52  81 108 139 179 229 263 321
#     4  11  19  36  60  82 107 149 188 226 271 344
#     4  10  20  33  57  85 114 142 194 231 272 325
#     4  11  20  34  55  85 110 150 184 236 274 325
#     4  11  20  34  61  80 108 147 192 224 273 336
#     4   9  16  32  56  81 107 141 188 224 272 319
#
# _framework density 18.847705000000001
#
# number of rings (size 3 to 8) (size 9 to 14) (size 15 to 20)
#    0.000    2.000    6.250    3.750    0.000    0.000 
#    0.000    5.000    0.000    0.000    0.000    0.000 
#    0.000    0.000    0.000    0.000    0.000    0.000 
#
# Total GULP energy -89162.471302 kJ/mol
# GULP energy per Si atom -5572.654456 kJ/mol
# Density = 1.880481 g / cm^3
# Si number density = 18.847705 Si / 1000 Ang^3
#
#
#
# Elastic Constant Matrix: (Units=GPa)
#
#
# Indices 1 2 3 4 5 6 
#
# 1 29.0518 22.8577 13.6488 0.0000 1.1118 0.0000
# 2 22.8577 169.0060 51.5612 0.0000 10.0794 0.0000
# 3 13.6488 51.5612 44.3367 0.0000 0.5363 0.0000
# 4 0.0000 0.0000 0.0000 46.7179 0.0000 -9.4593
# 5 1.1118 10.0794 0.5363 0.0000 9.6110 0.0000
# 6 0.0000 0.0000 0.0000 -9.4593 0.0000 19.4929
#
#
#
# Elastic Compliance Matrix: (Units=1/GPa)
#
#
# Indices 1 2 3 4 5 6 
#
# 1 0.041001 -0.002488 -0.009709 0.000000 -0.001591 0.000000
# 2 -0.002488 0.010178 -0.010952 0.000000 -0.009775 0.000000
# 3 -0.009709 -0.010952 0.038153 0.000000 0.010480 0.000000
# 4 0.000000 0.000000 0.000000 0.023737 0.000000 0.011519
# 5 -0.001591 -0.009775 0.010480 0.000000 0.113897 0.000000
# 6 0.000000 0.000000 0.000000 0.011519 0.000000 0.056891
#
#
# Mechanical properties :
#
#
# Convention : Reuss Voigt Hill
#
# Bulk Modulus (GPa) = 23.23751 46.50333 34.87042
# Shear Modulus (GPa) = 14.51377 25.45281 19.98329
#
# Velocity S-wave (km/s) = 2.77800 3.67883 3.25968
# Velocity P-wave (km/s) = 4.75873 6.54002 5.71915
#
# Compressibility (1/GPa) = 0.04303387
#
# Stress axis : x y z
#
# Youngs Moduli (GPa) = 24.38948 98.25414 26.21017
#
# Poissons Ratio (x) = 0.24450 0.25447
# Poissons Ratio (y) = 0.06069 0.28705
# Poissons Ratio (z) = 0.23679 1.07606
#
# Static dielectric constant tensor:
#      x y z
#    x 1.672030 0.000000 0.025220 
#    y 0.000000 1.705800 0.000000 
#    z 0.025220 0.000000 1.700660 
# 
# From -- ./inp_files/19498.got.cif
#   From: 2010.05.17/outbox.cif.g08.bks.cpg/sg9_10_cif.got.tgz:19498.got - 2010.06.03 20:04:27.
