data_PCOD9133470
_publ_section_title
;
Structure prediction by ZEFSAII (Michael W. Deem and Ramdas Pophale) SiO2 
 PCOD9133470
Probable space group: C M
;
_chemical_formula_sum "Si O2"
_cell_formula_units_Z 20
_cell_length_a 4.837436
_cell_length_b 29.779477
_cell_length_c 5.237496
_cell_angle_alpha 90.000000
_cell_angle_beta 85.420316
_cell_angle_gamma 90.000000
_cell_volume 752.085459
_symmetry_space_group_name_H-M "C M"
_symmetry_group_IT_number 8
_symmetry_cell_setting 'monoclinic'
loop_
_space_group_symop_operation_xyz
x,y,z
x,-y,z
1/2+x,1/2+y,z
1/2+x,1/2-y,z
loop_
_atom_site_type_symbol
_atom_site_label
_atom_site_fract_x
_atom_site_fract_y
_atom_site_fract_z
Si Si1 0.682150 0.500000 0.736030
Si Si2 0.805641 0.220041 0.556000
Si Si3 0.332596 0.426352 0.506347
Si Si4 0.424770 0.649550 0.162100
Si Si5 0.971498 0.362534 0.830520
Si Si6 0.068461 0.500000 0.211200
O O1 0.484922 0.456646 0.707523
O O2 0.860825 0.500000 0.465692
O O3 0.885086 0.500000 0.967189
O O4 0.609730 0.263088 0.605190
O O5 0.864384 0.199360 0.270134
O O6 0.156159 0.146160 0.927865
O O7 0.505678 0.383974 0.386012
O O8 0.058836 0.404809 0.654064
O O9 0.261206 0.457707 0.269866
O O10 0.135367 0.680237 0.702816
O O11 0.132269 0.631611 0.084974
#
# Coordination Sequence:
#
# PCOD9133470 Si02
#       6
#     2   4   4   4   4   2
#     4  11  28  49  79 112 158 208 268 334 402 468
#     4  11  24  45  70 109 152 191 258 319 384 467
#     4  10  28  47  72 112 154 198 270 325 390 478
#     4  11  26  45  75 107 149 205 254 318 395 466
#     4  11  26  45  75 107 149 205 254 318 395 466
#     4  11  28  49  79 112 158 208 268 334 402 468
#
# _framework density 26.592724
#
# number of rings (size 3 to 8) (size 9 to 14) (size 15 to 20)
#    0.000    1.200    0.000    2.400   11.200    9.600 
#    0.000    3.000    0.000    0.000    0.000    0.000 
#    0.000    0.000    0.000    0.000    0.000    0.000 
#
# Total GULP energy -55963.144820 kJ/mol
# GULP energy per Si atom -5596.314482 kJ/mol
# Density = 2.653220 g / cm^3
# Si number density = 26.592724 Si / 1000 Ang^3
#
#
#
# Elastic Constant Matrix: (Units=GPa)
#
#
# Indices 1 2 3 4 5 6 
#
# 1 146.6745 25.0150 42.2076 0.0000 -9.5846 0.0000
# 2 25.0150 116.6005 32.6153 0.0000 -2.2486 0.0000
# 3 42.2076 32.6153 138.4324 0.0000 8.1406 0.0000
# 4 0.0000 0.0000 0.0000 25.7594 0.0000 1.2919
# 5 -9.5846 -2.2486 8.1406 0.0000 60.4991 0.0000
# 6 0.0000 0.0000 0.0000 1.2919 0.0000 32.6770
#
#
#
# Elastic Compliance Matrix: (Units=1/GPa)
#
#
# Indices 1 2 3 4 5 6 
#
# 1 0.007721 -0.001012 -0.002203 0.000000 0.001482 0.000000
# 2 -0.001012 0.009338 -0.001918 0.000000 0.000445 0.000000
# 3 -0.002203 -0.001918 0.008439 0.000000 -0.001556 0.000000
# 4 0.000000 0.000000 0.000000 0.038898 0.000000 -0.001538
# 5 0.001482 0.000445 -0.001556 0.000000 0.016990 0.000000
# 6 0.000000 0.000000 0.000000 -0.001538 0.000000 0.030663
#
#
# Mechanical properties :
#
#
# Convention : Reuss Voigt Hill
#
# Bulk Modulus (GPa) = 65.64572 66.82037 66.23304
# Shear Modulus (GPa) = 39.24891 43.91174 41.58033
#
# Velocity S-wave (km/s) = 3.84595 4.06799 3.95853
# Velocity P-wave (km/s) = 6.66790 6.87361 6.77154
#
# Compressibility (1/GPa) = 0.01523329
#
# Stress axis : x y z
#
# Youngs Moduli (GPa) = 129.51480 107.08503 118.50084
#
# Poissons Ratio (x) = 0.10834 0.26105
# Poissons Ratio (y) = 0.13103 0.22727
# Poissons Ratio (z) = 0.28531 0.20538
#
# Static dielectric constant tensor:
#      x y z
#    x 2.062050 0.000000 0.016910 
#    y 0.000000 2.145360 0.000000 
#    z 0.016910 0.000000 2.138030 
# 
# From -- ./inp_files/638.got.cif
#   From: 2010.05.17/outbox.cif.g08.bks.cpg/sg8_1_cif.got.tgz:638.got - 2010.06.03 19:46:02.
