data_PCOD9133669
_publ_section_title
;
Structure prediction by ZEFSAII (Michael W. Deem and Ramdas Pophale) SiO2 
 PCOD9133669
Probable space group: C M
;
_chemical_formula_sum "Si O2"
_cell_formula_units_Z 11
_cell_length_a 9.000000
_cell_length_b 18.000000
_cell_length_c 9.000000
_cell_angle_alpha 90.000000
_cell_angle_beta 130.000000
_cell_angle_gamma 90.000000
_cell_volume 1116.892798
_symmetry_space_group_name_H-M "C M"
_symmetry_group_IT_number 8
_symmetry_cell_setting 'monoclinic'
loop_
_space_group_symop_operation_xyz
x,y,z
x,-y,z
1/2+x,1/2+y,z
1/2+x,1/2-y,z
loop_
_atom_site_type_symbol
_atom_site_label
_atom_site_fract_x
_atom_site_fract_y
_atom_site_fract_z
Si Si1 0.928100 0.668056 0.206770
Si Si2 0.835944 0.000000 0.596383
Si Si3 0.648857 0.858342 0.633096
Si Si4 0.220303 0.914832 0.435483
Si Si5 0.521380 0.000000 0.167077
Si Si6 0.507201 0.308725 0.070930
Si Si7 0.235427 0.000000 0.731066
O O1 0.946906 0.579718 0.183451
O O2 0.702626 0.683113 0.098968
O O3 0.071025 0.687140 0.438484
O O4 0.989493 0.724379 0.117303
O O5 0.754734 0.929185 0.629735
O O6 0.066756 0.000000 0.743106
O O7 0.744764 0.000000 0.369723
O O8 0.439173 0.883229 0.562678
O O9 0.807837 0.826968 0.852269
O O10 0.064217 0.864110 0.247116
O O11 0.196865 0.930142 0.596548
O O12 0.216605 0.000000 0.369295
O O13 0.443280 0.000000 0.946770
#
# Coordination Sequence:
#
# PCOD9133669 Si02
#       7
#     4   2   4   4   2   4   2
#     4  10  25  42  62  96 126 167 215 263 305 386
#     4  10  19  34  60  92 116 162 215 248 306 378
#     4  10  21  40  64  86 126 173 208 253 318 375
#     4   9  22  40  59  96 126 162 212 261 306 387
#     4  10  22  42  62  84 132 170 208 252 314 374
#     4  11  24  40  67  92 128 166 211 264 320 366
#     4  10  21  34  58  94 124 158 203 266 306 360
#
# _framework density 9.8487519999999993
#
# number of rings (size 3 to 8) (size 9 to 14) (size 15 to 20)
#    0.545    1.455    0.909    1.091    5.091   10.182 
#    0.000    0.000    0.000    0.000    0.000    0.000 
#    0.000    0.000    0.000    0.000    0.000    0.000 
#
# Total GULP energy -61243.121802 kJ/mol
# GULP energy per Si atom -5567.556527 kJ/mol
# Density = 0.982634 g / cm^3
# Si number density = 9.848752 Si / 1000 Ang^3
#
#
#
# Elastic Constant Matrix: (Units=GPa)
#
#
# Indices 1 2 3 4 5 6 
#
# 1 33.5028 22.8700 13.2083 0.0000 5.6880 0.0000
# 2 22.8700 103.2040 40.2258 0.0000 2.4571 0.0000
# 3 13.2083 40.2258 158.6543 0.0000 14.6606 0.0000
# 4 0.0000 0.0000 0.0000 28.7693 0.0000 -5.4638
# 5 5.6880 2.4571 14.6606 0.0000 26.6278 0.0000
# 6 0.0000 0.0000 0.0000 -5.4638 0.0000 24.7975
#
#
#
# Elastic Compliance Matrix: (Units=1/GPa)
#
#
# Indices 1 2 3 4 5 6 
#
# 1 0.036471 -0.007748 -0.000440 0.000000 -0.006833 0.000000
# 2 -0.007748 0.012405 -0.002684 0.000000 0.001988 0.000000
# 3 -0.000440 -0.002684 0.007363 0.000000 -0.003712 0.000000
# 4 0.000000 0.000000 0.000000 0.036277 0.000000 0.007993
# 5 -0.006833 0.001988 -0.003712 0.000000 0.040875 0.000000
# 6 0.000000 0.000000 0.000000 0.007993 0.000000 0.042088
#
#
# Mechanical properties :
#
#
# Convention : Reuss Voigt Hill
#
# Bulk Modulus (GPa) = 28.98957 49.77434 39.38195
# Shear Modulus (GPa) = 23.95536 30.64272 27.29904
#
# Velocity S-wave (km/s) = 3.49114 3.94847 3.72683
# Velocity P-wave (km/s) = 5.56777 6.79054 6.20933
#
# Compressibility (1/GPa) = 0.03449517
#
# Stress axis : x y z
#
# Youngs Moduli (GPa) = 27.41926 80.61137 135.81019
#
# Poissons Ratio (x) = 0.62454 0.05982
# Poissons Ratio (y) = 0.21243 0.36451
# Poissons Ratio (z) = 0.01208 0.21636
#
# Static dielectric constant tensor:
#      x y z
#    x 1.718110 0.000000 -0.052510 
#    y 0.000000 1.693320 0.000000 
#    z -0.052510 0.000000 1.707580 
# 
# From -- ./inp_files/8365.got.cif
#   From: 2010.05.17/outbox.ucp.g08.bks.cvg/sg8_5_cif.got.tgz:8365.got - 2010.06.11 13:00:03.
