data_PCOD9133333
_publ_section_title
;
Structure prediction by ZEFSAII (Michael W. Deem and Ramdas Pophale) SiO2 
 PCOD9133333
Probable space group: C M
;
_chemical_formula_sum "Si O2"
_cell_formula_units_Z 20
_cell_length_a 9.089168
_cell_length_b 19.783249
_cell_length_c 5.124856
_cell_angle_alpha 90.000000
_cell_angle_beta 57.222707
_cell_angle_gamma 90.000000
_cell_volume 774.794304
_symmetry_space_group_name_H-M "C M"
_symmetry_group_IT_number 8
_symmetry_cell_setting 'monoclinic'
loop_
_space_group_symop_operation_xyz
x,y,z
x,-y,z
1/2+x,1/2+y,z
1/2+x,1/2-y,z
loop_
_atom_site_type_symbol
_atom_site_label
_atom_site_fract_x
_atom_site_fract_y
_atom_site_fract_z
Si Si1 0.214340 0.697146 0.541550
Si Si2 0.573284 0.362446 0.135953
Si Si3 0.958354 0.927110 0.732012
Si Si4 0.579653 0.921212 0.281581
Si Si5 0.376051 0.823998 0.139947
O O1 0.416111 0.682016 0.414719
O O2 0.143800 0.632978 0.439085
O O3 0.243192 0.768010 0.372404
O O4 0.067658 0.706494 0.901302
O O5 0.547465 0.423227 0.366386
O O6 0.774607 0.343201 0.973265
O O7 0.522579 0.375031 0.888099
O O8 0.997132 0.000000 0.814800
O O9 0.747224 0.922422 0.923991
O O10 0.417998 0.888134 0.281823
O O11 0.552327 0.000000 0.391424
#
# Coordination Sequence:
#
# PCOD9133333 Si02
#       5
#     4   4   4   4   4
#     4  11  27  47  74 108 153 202 258 320 387 462
#     4  11  25  44  73 106 148 195 260 312 381 455
#     4  10  22  45  72 106 152 200 246 314 390 459
#     4  10  24  46  74 109 153 198 251 321 390 456
#     4  12  27  46  77 109 150 203 265 315 385 464
#
# _framework density 25.813300999999999
#
# number of rings (size 3 to 8) (size 9 to 14) (size 15 to 20)
#    0.000    1.200    2.000    1.800    8.400    6.400 
#    0.000    0.000    0.000    0.000    0.000    0.000 
#    0.000    0.000    0.000    0.000    0.000    0.000 
#
# Total GULP energy -55837.003127 kJ/mol
# GULP energy per Si atom -5583.700313 kJ/mol
# Density = 2.575455 g / cm^3
# Si number density = 25.813301 Si / 1000 Ang^3
#
#
#
# Elastic Constant Matrix: (Units=GPa)
#
#
# Indices 1 2 3 4 5 6 
#
# 1 159.1672 54.7987 14.3538 0.0000 -7.6955 0.0000
# 2 54.7987 124.1875 40.0447 0.0000 -4.8625 0.0000
# 3 14.3538 40.0447 98.6590 0.0000 -17.4458 0.0000
# 4 0.0000 0.0000 0.0000 25.0566 0.0000 6.4022
# 5 -7.6955 -4.8625 -17.4458 0.0000 42.2656 0.0000
# 6 0.0000 0.0000 0.0000 6.4022 0.0000 20.4488
#
#
#
# Elastic Compliance Matrix: (Units=1/GPa)
#
#
# Indices 1 2 3 4 5 6 
#
# 1 0.007469 -0.003413 0.000507 0.000000 0.001176 0.000000
# 2 -0.003413 0.010835 -0.004089 0.000000 -0.001063 0.000000
# 3 0.000507 -0.004089 0.012573 0.000000 0.004811 0.000000
# 4 0.000000 0.000000 0.000000 0.043380 0.000000 -0.013582
# 5 0.001176 -0.001063 0.004811 0.000000 0.025738 0.000000
# 6 0.000000 0.000000 0.000000 -0.013582 0.000000 0.053155
#
#
# Mechanical properties :
#
#
# Convention : Reuss Voigt Hill
#
# Bulk Modulus (GPa) = 59.22154 66.71201 62.96678
# Shear Modulus (GPa) = 28.94027 35.74196 32.34111
#
# Velocity S-wave (km/s) = 3.35197 3.72510 3.54345
# Velocity P-wave (km/s) = 6.16223 6.66348 6.41775
#
# Compressibility (1/GPa) = 0.01688575
#
# Stress axis : x y z
#
# Youngs Moduli (GPa) = 133.88765 92.29014 79.53660
#
# Poissons Ratio (x) = 0.31499 -0.04030
# Poissons Ratio (y) = 0.45697 0.32525
# Poissons Ratio (z) = -0.06784 0.37741
#
# Static dielectric constant tensor:
#      x y z
#    x 2.001650 0.000000 0.044760 
#    y 0.000000 2.178620 0.000000 
#    z 0.044760 0.000000 2.074150 
# 
# From -- ./inp_files/1357.got.cif
#   From: 2010.05.17/outbox.cif.g08.bks.cpg/sg8_1_cif.got.tgz:1357.got - 2010.06.03 19:46:02.
