data_PCOD9133163
_publ_section_title
;
Structure prediction by ZEFSAII (Michael W. Deem and Ramdas Pophale) SiO2 
 PCOD9133163
Probable space group: C M
;
_chemical_formula_sum "Si O2"
_cell_formula_units_Z 24
_cell_length_a 15.387632
_cell_length_b 8.852171
_cell_length_c 15.052226
_cell_angle_alpha 90.000000
_cell_angle_beta 140.055262
_cell_angle_gamma 90.000000
_cell_volume 1316.406821
_symmetry_space_group_name_H-M "C M"
_symmetry_group_IT_number 8
_symmetry_cell_setting 'monoclinic'
loop_
_space_group_symop_operation_xyz
x,y,z
x,-y,z
1/2+x,1/2+y,z
1/2+x,1/2-y,z
loop_
_atom_site_type_symbol
_atom_site_label
_atom_site_fract_x
_atom_site_fract_y
_atom_site_fract_z
Si Si1 0.477720 0.318541 0.954820
Si Si2 0.195493 0.180761 0.446732
Si Si3 0.011562 0.181313 0.469035
Si Si4 0.171267 0.680858 0.760093
Si Si5 0.699463 0.819325 0.257141
Si Si6 0.471140 0.681107 0.741787
O O1 0.492683 0.500000 0.973224
O O2 0.328987 0.278720 0.875007
O O3 0.481810 0.278515 0.853828
O O4 0.594349 0.240246 0.102416
O O5 0.079060 0.216926 0.427237
O O6 0.168630 0.248694 0.329043
O O7 0.335809 0.247860 0.593877
O O8 0.207192 0.000000 0.449477
O O9 0.094324 0.263678 0.611356
O O10 0.853811 0.221902 0.352165
O O11 0.023169 0.000000 0.491930
O O12 0.160014 0.500000 0.757824
O O13 0.097532 0.757751 0.785157
O O14 0.692422 0.000000 0.257544
O O15 0.462632 0.500000 0.727368
#
# Coordination Sequence:
#
# PCOD9133163 Si02
#       6
#     4   4   4   4   4   4
#     4  10  24  43  61  87 126 163 201 252 306 363
#     4  11  22  38  63  92 122 161 205 251 303 360
#     4  10  22  39  61  90 123 158 202 253 301 361
#     4  11  22  38  63  92 120 160 206 251 303 362
#     4  11  24  41  62  90 125 163 202 253 308 360
#     4  11  22  39  62  91 124 159 204 254 303 360
#
# _framework density 18.231445999999998
#
# number of rings (size 3 to 8) (size 9 to 14) (size 15 to 20)
#    0.000    1.333    3.333    2.000    0.000    5.333 
#    0.000    5.000    0.000    0.000    0.000    0.000 
#    0.000    0.000    0.000    0.000    0.000    0.000 
#
# Total GULP energy -67085.390768 kJ/mol
# GULP energy per Si atom -5590.449231 kJ/mol
# Density = 1.818995 g / cm^3
# Si number density = 18.231446 Si / 1000 Ang^3
#
#
#
# Elastic Constant Matrix: (Units=GPa)
#
#
# Indices 1 2 3 4 5 6 
#
# 1 124.3999 38.9063 32.3253 0.0000 -1.9941 0.0000
# 2 38.9063 38.7070 35.4036 0.0000 -0.1417 0.0000
# 3 32.3253 35.4036 102.0503 0.0000 -0.4278 0.0000
# 4 0.0000 0.0000 0.0000 36.3954 0.0000 -1.8999
# 5 -1.9941 -0.1417 -0.4278 0.0000 29.5313 0.0000
# 6 0.0000 0.0000 0.0000 -1.8999 0.0000 30.0152
#
#
#
# Elastic Compliance Matrix: (Units=1/GPa)
#
#
# Indices 1 2 3 4 5 6 
#
# 1 0.011762 -0.012326 0.000554 0.000000 0.000743 0.000000
# 2 -0.012326 0.050761 -0.013709 0.000000 -0.000787 0.000000
# 3 0.000554 -0.013709 0.014380 0.000000 0.000180 0.000000
# 4 0.000000 0.000000 0.000000 0.027567 0.000000 0.001745
# 5 0.000743 -0.000787 0.000180 0.000000 0.033911 0.000000
# 6 0.000000 0.000000 0.000000 0.001745 0.000000 0.033427
#
#
# Mechanical properties :
#
#
# Convention : Reuss Voigt Hill
#
# Bulk Modulus (GPa) = 38.55013 53.15864 45.85438
# Shear Modulus (GPa) = 21.60600 29.75650 25.68125
#
# Velocity S-wave (km/s) = 3.44626 4.04437 3.75724
# Velocity P-wave (km/s) = 6.08493 7.14355 6.63538
#
# Compressibility (1/GPa) = 0.02594025
#
# Stress axis : x y z
#
# Youngs Moduli (GPa) = 85.02278 19.70030 69.53882
#
# Poissons Ratio (x) = 0.24282 -0.03850
# Poissons Ratio (y) = 1.04797 0.95331
# Poissons Ratio (z) = -0.04707 0.27007
#
# Static dielectric constant tensor:
#      x y z
#    x 1.620570 0.000000 0.004910 
#    y 0.000000 1.610730 0.000000 
#    z 0.004910 0.000000 1.579360 
# 
# From -- ./inp_files/12068.got.cif
#   From: 2010.05.17/outbox.cif.g08.bks.cpg/sg8_7_cif.got.tgz:12068.got - 2010.06.03 19:46:02.
