data_PCOD9133184
_publ_section_title
;
Structure prediction by ZEFSAII (Michael W. Deem and Ramdas Pophale) SiO2 
 PCOD9133184
Probable space group: C M
;
_chemical_formula_sum "Si O2"
_cell_formula_units_Z 32
_cell_length_a 9.808473
_cell_length_b 9.066283
_cell_length_c 17.083427
_cell_angle_alpha 90.000000
_cell_angle_beta 90.086409
_cell_angle_gamma 90.000000
_cell_volume 1519.165799
_symmetry_space_group_name_H-M "C M"
_symmetry_group_IT_number 8
_symmetry_cell_setting 'monoclinic'
loop_
_space_group_symop_operation_xyz
x,y,z
x,-y,z
1/2+x,1/2+y,z
1/2+x,1/2-y,z
loop_
_atom_site_type_symbol
_atom_site_label
_atom_site_fract_x
_atom_site_fract_y
_atom_site_fract_z
Si Si1 0.597550 0.825698 0.660350
Si Si2 0.205745 0.174175 0.504294
Si Si3 0.358112 0.325753 0.258119
Si Si4 0.475366 0.174032 0.411825
Si Si5 0.956173 0.325158 0.912956
Si Si6 0.585776 0.174638 0.167983
Si Si7 0.365991 0.325734 0.752581
Si Si8 0.726681 0.175134 0.002453
O O1 0.662000 0.758619 0.582248
O O2 0.459632 0.746812 0.685965
O O3 0.708741 0.803272 0.729233
O O4 0.575113 0.000000 0.650111
O O5 0.362612 0.195285 0.479926
O O6 0.110138 0.238366 0.435682
O O7 0.181850 0.000000 0.513392
O O8 0.375269 0.500000 0.271540
O O9 0.407518 0.235173 0.333079
O O10 0.455445 0.272265 0.187687
O O11 0.201864 0.299728 0.233763
O O12 0.504043 0.000000 0.404213
O O13 0.942007 0.500000 0.903473
O O14 0.907946 0.245409 0.834499
O O15 0.859176 0.268514 0.982502
O O16 0.111917 0.294617 0.936661
O O17 0.550498 0.000000 0.168398
O O18 0.656769 0.207810 0.085370
O O19 0.390916 0.500000 0.755187
O O20 0.758653 0.000000 0.000915
#
# Coordination Sequence:
#
# PCOD9133184 Si02
#       8
#     4   4   4   4   4   4   4   4
#     4  11  24  41  62  89 120 155 196 242 293 350
#     4  11  24  41  63  91 120 154 197 242 291 349
#     4  11  23  38  60  89 118 153 198 244 293 351
#     4  11  24  41  62  88 120 158 197 241 293 348
#     4  11  23  38  60  89 119 155 199 245 294 350
#     4  10  22  40  61  86 119 157 196 243 297 351
#     4  11  24  41  62  88 120 158 198 243 294 349
#     4  10  22  40  60  86 120 156 197 244 295 352
#
# _framework density 21.064193
#
# number of rings (size 3 to 8) (size 9 to 14) (size 15 to 20)
#    0.000    1.250    0.000    5.250    0.000   13.500 
#    0.000    0.000    0.000    0.000    0.000    0.000 
#    0.000    0.000    0.000    0.000    0.000    0.000 
#
# Total GULP energy -89581.442851 kJ/mol
# GULP energy per Si atom -5598.840178 kJ/mol
# Density = 2.101625 g / cm^3
# Si number density = 21.064193 Si / 1000 Ang^3
#
#
#
# Elastic Constant Matrix: (Units=GPa)
#
#
# Indices 1 2 3 4 5 6 
#
# 1 64.7342 35.2729 -15.1024 0.0000 -4.6220 0.0000
# 2 35.2729 46.2115 -0.4881 0.0000 5.3994 0.0000
# 3 -15.1024 -0.4881 57.6356 0.0000 4.0983 0.0000
# 4 0.0000 0.0000 0.0000 39.2860 0.0000 -4.7687
# 5 -4.6220 5.3994 4.0983 0.0000 28.1395 0.0000
# 6 0.0000 0.0000 0.0000 -4.7687 0.0000 28.0852
#
#
#
# Elastic Compliance Matrix: (Units=1/GPa)
#
#
# Indices 1 2 3 4 5 6 
#
# 1 0.031370 -0.024901 0.007379 0.000000 0.008856 0.000000
# 2 -0.024901 0.041916 -0.005363 0.000000 -0.011352 0.000000
# 3 0.007379 -0.005363 0.019279 0.000000 -0.000567 0.000000
# 4 0.000000 0.000000 0.000000 0.025990 0.000000 0.004413
# 5 0.008856 -0.011352 -0.000567 0.000000 0.039253 0.000000
# 6 0.000000 0.000000 0.000000 0.004413 0.000000 0.036355
#
#
# Mechanical properties :
#
#
# Convention : Reuss Voigt Hill
#
# Bulk Modulus (GPa) = 21.36940 23.10514 22.23727
# Shear Modulus (GPa) = 19.56703 29.02873 24.29788
#
# Velocity S-wave (km/s) = 3.05113 3.71631 3.40003
# Velocity P-wave (km/s) = 4.75178 5.42286 5.09837
#
# Compressibility (1/GPa) = 0.04679588
#
# Stress axis : x y z
#
# Youngs Moduli (GPa) = 31.87738 23.85697 51.87011
#
# Poissons Ratio (x) = 0.59407 -0.38277
# Poissons Ratio (y) = 0.79379 0.27817
# Poissons Ratio (z) = -0.23524 0.12794
#
# Static dielectric constant tensor:
#      x y z
#    x 1.738960 0.000000 0.001890 
#    y 0.000000 1.689610 0.000000 
#    z 0.001890 0.000000 1.783330 
# 
# From -- ./inp_files/25854.got.cif
#   From: 2010.05.17/outbox.cif.g08.bks.cpg/sg8_13_cif.got.tgz:25854.got - 2010.06.03 19:46:02.
