data_PCOD9133893
_publ_section_title
;
Structure prediction by ZEFSAII (Michael W. Deem and Ramdas Pophale) SiO2 
 PCOD9133893
Probable space group: C C
;
_chemical_formula_sum "Si O2"
_cell_formula_units_Z 32
_cell_length_a 27.999438
_cell_length_b 6.131721
_cell_length_c 17.155242
_cell_angle_alpha 90.000000
_cell_angle_beta 148.124035
_cell_angle_gamma 90.000000
_cell_volume 1555.356826
_symmetry_space_group_name_H-M "C C"
_symmetry_group_IT_number 9
_symmetry_cell_setting 'monoclinic'
loop_
_space_group_symop_operation_xyz
x,y,z
x,-y,1/2+z
1/2+x,1/2+y,z
1/2+x,1/2-y,1/2+z
loop_
_atom_site_type_symbol
_atom_site_label
_atom_site_fract_x
_atom_site_fract_y
_atom_site_fract_z
Si Si1 0.934730 0.198731 0.306460
Si Si2 0.107060 0.500449 0.535893
Si Si3 0.719489 0.850677 0.950111
Si Si4 0.252390 0.692899 0.130207
Si Si5 0.344780 0.002492 0.053302
Si Si6 0.114604 0.029736 0.340477
Si Si7 0.684831 0.227481 0.789994
Si Si8 0.489304 0.326059 0.274308
O O1 0.860773 0.225868 0.273635
O O2 0.888572 0.319639 0.168588
O O3 0.029602 0.324057 0.451185
O O4 0.950752 0.952460 0.297446
O O5 0.197685 0.377640 0.631387
O O6 0.131607 0.660145 0.640385
O O7 0.064851 0.657808 0.410948
O O8 0.788383 0.656413 0.032880
O O9 0.738836 0.992926 0.051656
O O10 0.626777 0.720407 0.831100
O O11 0.722554 0.006038 0.880218
O O12 0.193463 0.885804 0.008481
O O13 0.420594 0.171654 0.131407
O O14 0.269521 0.890738 0.894659
O O15 0.123493 0.171654 0.274749
O O16 0.026287 0.019708 0.270960
#
# Coordination Sequence:
#
# PCOD9133893 Si02
#       8
#     4   4   4   4   4   4   4   4
#     4  11  21  37  66  98 127 161 232 284 320 411
#     4  11  25  38  65  97 136 176 216 287 353 394
#     4  10  17  36  65  86 113 172 216 260 329 388
#     4  11  19  38  65  93 123 169 227 274 330 410
#     4  10  19  35  64  91 123 167 221 269 322 396
#     4  10  20  37  65  90 117 176 227 271 323 413
#     4  10  22  39  62  92 136 172 214 277 353 398
#     4  11  21  36  66  95 123 171 233 280 320 400
#
# _framework density 20.574058000000001
#
# number of rings (size 3 to 8) (size 9 to 14) (size 15 to 20)
#    0.000    1.500    7.500    0.000    0.000    2.000 
#    0.000    0.000   16.500    0.000    0.000    0.000 
#    0.000    0.000    0.000    0.000    0.000    0.000 
#
# Total GULP energy -89096.389772 kJ/mol
# GULP energy per Si atom -5568.524361 kJ/mol
# Density = 2.052723 g / cm^3
# Si number density = 20.574058 Si / 1000 Ang^3
#
#
#
# Elastic Constant Matrix: (Units=GPa)
#
#
# Indices 1 2 3 4 5 6 
#
# 1 92.2266 15.9847 44.6183 0.0000 24.9056 0.0000
# 2 15.9847 80.0340 24.9694 0.0000 9.2684 0.0000
# 3 44.6183 24.9694 66.9204 0.0000 11.0742 0.0000
# 4 0.0000 0.0000 0.0000 34.4656 0.0000 15.0059
# 5 24.9056 9.2684 11.0742 0.0000 27.9718 0.0000
# 6 0.0000 0.0000 0.0000 15.0059 0.0000 24.1138
#
#
#
# Elastic Compliance Matrix: (Units=1/GPa)
#
#
# Indices 1 2 3 4 5 6 
#
# 1 0.019806 0.001167 -0.011406 0.000000 -0.013506 0.000000
# 2 0.001167 0.014414 -0.005558 0.000000 -0.003614 0.000000
# 3 -0.011406 -0.005558 0.024223 0.000000 0.002407 0.000000
# 4 0.000000 0.000000 0.000000 0.039797 0.000000 -0.024765
# 5 -0.013506 -0.003614 0.002407 0.000000 0.048020 0.000000
# 6 0.000000 0.000000 0.000000 -0.024765 0.000000 0.056881
#
#
# Mechanical properties :
#
#
# Convention : Reuss Voigt Hill
#
# Bulk Modulus (GPa) = 37.24472 45.59175 41.41824
# Shear Modulus (GPa) = 20.51825 27.55081 24.03453
#
# Velocity S-wave (km/s) = 3.16141 3.66335 3.42160
# Velocity P-wave (km/s) = 5.60964 6.33257 5.98204
#
# Compressibility (1/GPa) = 0.02684944
#
# Stress axis : x y z
#
# Youngs Moduli (GPa) = 50.49040 69.37569 41.28282
#
# Poissons Ratio (x) = -0.08094 0.47085
# Poissons Ratio (y) = -0.05891 0.22945
# Poissons Ratio (z) = 0.57587 0.38559
#
# Static dielectric constant tensor:
#      x y z
#    x 1.845170 0.000000 0.107010 
#    y 0.000000 1.752690 0.000000 
#    z 0.107010 0.000000 1.780000 
# 
# From -- ./inp_files/31766.got.cif
#   From: 2010.05.17/outbox.cif.g08.bks.cpg/sg9_16_cif.got.tgz:31766.got - 2010.06.03 20:04:27.
