data_PCOD9133752
_publ_section_title
;
Structure prediction by ZEFSAII (Michael W. Deem and Ramdas Pophale) SiO2 
 PCOD9133752
Probable space group: C C
;
_chemical_formula_sum "Si O2"
_cell_formula_units_Z 32
_cell_length_a 7.228812
_cell_length_b 31.142255
_cell_length_c 5.391056
_cell_angle_alpha 90.000000
_cell_angle_beta 75.101561
_cell_angle_gamma 90.000000
_cell_volume 1172.843727
_symmetry_space_group_name_H-M "C C"
_symmetry_group_IT_number 9
_symmetry_cell_setting 'monoclinic'
loop_
_space_group_symop_operation_xyz
x,y,z
x,-y,1/2+z
1/2+x,1/2+y,z
1/2+x,1/2-y,1/2+z
loop_
_atom_site_type_symbol
_atom_site_label
_atom_site_fract_x
_atom_site_fract_y
_atom_site_fract_z
Si Si1 0.504160 0.507645 0.630590
Si Si2 0.654829 0.834106 0.344965
Si Si3 0.080304 0.475136 0.790378
Si Si4 0.837848 0.261180 0.810177
Si Si5 0.052567 0.870351 0.657953
Si Si6 0.688177 0.284497 0.360999
Si Si7 0.018766 0.896797 0.174608
Si Si8 0.090607 0.624344 0.364152
O O1 0.615887 0.501121 0.341286
O O2 0.315237 0.478271 0.699098
O O3 0.435914 0.556500 0.655663
O O4 0.737743 0.786025 0.333229
O O5 0.847000 0.863426 0.270396
O O6 0.544896 0.848512 0.631934
O O7 0.544236 0.850031 0.135068
O O8 0.025783 0.494650 0.541672
O O9 0.029241 0.425432 0.861125
O O10 0.845386 0.272581 0.514875
O O11 0.037928 0.253943 0.881317
O O12 0.731843 0.290734 0.053039
O O13 0.088740 0.822853 0.544914
O O14 0.123551 0.898616 0.402778
O O15 0.825251 0.876751 0.778350
O O16 0.137136 0.882602 0.894415
#
# Coordination Sequence:
#
# PCOD9133752 Si02
#       8
#     4   4   4   4   4   4   4   4
#     4  10  16  23  34  60  93 132 181 216 254 312
#     4  10  18  31  48  69  96 131 189 225 262 333
#     4  10  16  23  34  60  93 132 181 216 254 312
#     4  12  25  41  62  86 115 147 193 253 302 349
#     4  10  18  31  48  69  96 131 189 225 262 333
#     4  12  25  41  62  86 115 147 193 253 302 349
#     4  10  17  27  47  63  99 138 187 222 260 329
#     4  10  17  27  47  63  99 138 187 222 260 329
#
# _framework density 27.284110999999999
#
# number of rings (size 3 to 8) (size 9 to 14) (size 15 to 20)
#    0.000    1.500    2.500    9.750    3.500    0.000 
#    0.000    0.000    0.000    0.000    0.000    0.000 
#    0.000    0.000    0.000    0.000    0.000 1065.000 
#
# Total GULP energy -89452.991092 kJ/mol
# GULP energy per Si atom -5590.811943 kJ/mol
# Density = 2.722201 g / cm^3
# Si number density = 27.284111 Si / 1000 Ang^3
#
#
#
# Elastic Constant Matrix: (Units=GPa)
#
#
# Indices 1 2 3 4 5 6 
#
# 1 53.4086 5.4806 29.1238 0.0000 -3.1891 0.0000
# 2 5.4806 96.1945 31.0516 0.0000 17.1438 0.0000
# 3 29.1238 31.0516 267.9207 0.0000 61.8554 0.0000
# 4 0.0000 0.0000 0.0000 40.9977 0.0000 11.3958
# 5 -3.1891 17.1438 61.8554 0.0000 42.4878 0.0000
# 6 0.0000 0.0000 0.0000 11.3958 0.0000 13.1219
#
#
#
# Elastic Compliance Matrix: (Units=1/GPa)
#
#
# Indices 1 2 3 4 5 6 
#
# 1 0.021549 -0.001357 -0.004044 0.000000 0.008053 0.000000
# 2 -0.001357 0.011313 -0.000130 0.000000 -0.004478 0.000000
# 3 -0.004044 -0.000130 0.006394 0.000000 -0.009560 0.000000
# 4 0.000000 0.000000 0.000000 0.032153 0.000000 -0.027924
# 5 0.008053 -0.004478 -0.009560 0.000000 0.039866 0.000000
# 6 0.000000 0.000000 0.000000 -0.027924 0.000000 0.100459
#
#
# Mechanical properties :
#
#
# Convention : Reuss Voigt Hill
#
# Bulk Modulus (GPa) = 35.46977 60.98175 48.22576
# Shear Modulus (GPa) = 21.53361 42.77933 32.15647
#
# Velocity S-wave (km/s) = 2.81238 3.96399 3.43677
# Velocity P-wave (km/s) = 4.85535 6.58408 5.78466
#
# Compressibility (1/GPa) = 0.02819302
#
# Stress axis : x y z
#
# Youngs Moduli (GPa) = 46.40555 88.39497 156.38833
#
# Poissons Ratio (x) = 0.11999 0.63249
# Poissons Ratio (y) = 0.06299 0.02030
# Poissons Ratio (z) = 0.18768 0.01148
#
# Static dielectric constant tensor:
#      x y z
#    x 2.352800 0.000000 -0.008960 
#    y 0.000000 2.118070 0.000000 
#    z -0.008960 0.000000 2.258200 
# 
# From -- ./inp_files/1392.got.cif
#   From: 2010.05.17/outbox.cif.g08.bks.cpg/sg9_1_cif.got.tgz:1392.got - 2010.06.03 20:04:27.
