data_PCOD9133414
_publ_section_title
;
Structure prediction by ZEFSAII (Michael W. Deem and Ramdas Pophale) SiO2 
 PCOD9133414
Probable space group: C M
;
_chemical_formula_sum "Si O2"
_cell_formula_units_Z 20
_cell_length_a 9.187187
_cell_length_b 18.251536
_cell_length_c 5.254441
_cell_angle_alpha 90.000000
_cell_angle_beta 103.226731
_cell_angle_gamma 90.000000
_cell_volume 857.693416
_symmetry_space_group_name_H-M "C M"
_symmetry_group_IT_number 8
_symmetry_cell_setting 'monoclinic'
loop_
_space_group_symop_operation_xyz
x,y,z
x,-y,z
1/2+x,1/2+y,z
1/2+x,1/2-y,z
loop_
_atom_site_type_symbol
_atom_site_label
_atom_site_fract_x
_atom_site_fract_y
_atom_site_fract_z
Si Si1 0.287900 0.417022 0.762520
Si Si2 0.021398 0.801569 0.633756
Si Si3 0.451577 0.868076 0.551811
Si Si4 0.765786 0.621722 0.968418
Si Si5 0.024026 0.078267 0.236187
O O1 0.317633 0.500000 0.681715
O O2 0.385191 0.352163 0.677531
O O3 0.114876 0.401442 0.655532
O O4 0.352420 0.416756 0.076745
O O5 0.968012 0.719542 0.584280
O O6 0.064914 0.847700 0.399256
O O7 0.172127 0.803984 0.865778
O O8 0.383037 0.879909 0.245073
O O9 0.347583 0.898225 0.739114
O O10 0.626712 0.576371 0.024454
O O11 0.051012 0.000000 0.378314
#
# Coordination Sequence:
#
# PCOD9133414 Si02
#       5
#     4   4   4   4   4
#     4  10  25  45  70 104 145 188 236 293 358 425
#     4  11  24  45  74 103 144 189 241 283 357 439
#     4  12  27  43  74 107 147 179 238 298 363 410
#     4  11  26  46  67 107 137 191 230 295 350 422
#     4  10  23  47  75 101 142 195 243 287 353 438
#
# _framework density 23.318358
#
# number of rings (size 3 to 8) (size 9 to 14) (size 15 to 20)
#    0.000    1.200    2.000    1.800   11.200    2.400 
#    0.000    0.000    0.000    0.000    0.000    0.000 
#    0.000    0.000    0.000    0.000    0.000    0.000 
#
# Total GULP energy -55779.775391 kJ/mol
# GULP energy per Si atom -5577.977539 kJ/mol
# Density = 2.326528 g / cm^3
# Si number density = 23.318358 Si / 1000 Ang^3
#
#
#
# Elastic Constant Matrix: (Units=GPa)
#
#
# Indices 1 2 3 4 5 6 
#
# 1 128.5309 5.1493 53.2263 0.0000 25.3363 0.0000
# 2 5.1493 104.0883 18.6815 0.0000 0.3676 0.0000
# 3 53.2263 18.6815 130.6175 0.0000 16.6359 0.0000
# 4 0.0000 0.0000 0.0000 37.0494 0.0000 -15.4411
# 5 25.3363 0.3676 16.6359 0.0000 52.2466 0.0000
# 6 0.0000 0.0000 0.0000 -15.4411 0.0000 43.3648
#
#
#
# Elastic Compliance Matrix: (Units=1/GPa)
#
#
# Indices 1 2 3 4 5 6 
#
# 1 0.010006 0.000170 -0.003631 0.000000 -0.003697 0.000000
# 2 0.000170 0.009871 -0.001523 0.000000 0.000333 0.000000
# 3 -0.003631 -0.001523 0.009514 0.000000 -0.001258 0.000000
# 4 0.000000 0.000000 0.000000 0.031694 0.000000 0.011286
# 5 -0.003697 0.000333 -0.001258 0.000000 0.021331 0.000000
# 6 0.000000 0.000000 0.000000 0.011286 0.000000 0.027079
#
#
# Mechanical properties :
#
#
# Convention : Reuss Voigt Hill
#
# Bulk Modulus (GPa) = 51.48919 57.48343 54.48631
# Shear Modulus (GPa) = 39.70229 45.61080 42.65655
#
# Velocity S-wave (km/s) = 4.13076 4.42747 4.28169
# Velocity P-wave (km/s) = 6.69924 7.13034 6.91815
#
# Compressibility (1/GPa) = 0.01942155
#
# Stress axis : x y z
#
# Youngs Moduli (GPa) = 99.94232 101.30607 105.11349
#
# Poissons Ratio (x) = -0.01719 0.38164
# Poissons Ratio (y) = -0.01696 0.16013
# Poissons Ratio (z) = 0.36286 0.15433
#
# Static dielectric constant tensor:
#      x y z
#    x 1.893740 0.000000 -0.027970 
#    y 0.000000 1.840030 0.000000 
#    z -0.027970 0.000000 1.985860 
# 
# From -- ./inp_files/1208.got.cif
#   From: 2010.05.17/outbox.cif.g08.bks.cpg/sg8_1_cif.got.tgz:1208.got - 2010.06.03 19:46:02.
