data_PCOD9133605
_publ_section_title
;
Structure prediction by ZEFSAII (Michael W. Deem and Ramdas Pophale) SiO2 
 PCOD9133605
Probable space group: C M
;
_chemical_formula_sum "Si O2"
_cell_formula_units_Z 18
_cell_length_a 10.584119
_cell_length_b 7.607276
_cell_length_c 11.917388
_cell_angle_alpha 90.000000
_cell_angle_beta 50.672197
_cell_angle_gamma 90.000000
_cell_volume 742.238850
_symmetry_space_group_name_H-M "C M"
_symmetry_group_IT_number 8
_symmetry_cell_setting 'monoclinic'
loop_
_space_group_symop_operation_xyz
x,y,z
x,-y,z
1/2+x,1/2+y,z
1/2+x,1/2-y,z
loop_
_atom_site_type_symbol
_atom_site_label
_atom_site_fract_x
_atom_site_fract_y
_atom_site_fract_z
Si Si1 0.833580 0.295952 0.458620
Si Si2 0.456595 0.702905 0.947810
Si Si3 0.444183 0.000000 0.762842
Si Si4 0.709128 0.287770 0.285289
Si Si5 0.810875 0.197102 0.715645
O O1 0.786121 0.500000 0.497177
O O2 0.770806 0.231763 0.373729
O O3 0.770059 0.197438 0.605390
O O4 0.029713 0.279122 0.354341
O O5 0.445765 0.500000 0.917541
O O6 0.421108 0.845059 0.872306
O O7 0.645988 0.741802 0.870605
O O8 0.339127 0.730196 0.119063
O O9 0.440836 0.844999 0.667798
O O10 0.701318 0.500000 0.290941
O O11 0.858528 0.000000 0.717451
#
# Coordination Sequence:
#
# PCOD9133605 Si02
#       5
#     4   4   2   4   4
#     4  11  26  47  72 108 149 193 244 302 369 440
#     4  12  26  47  75 108 145 195 245 306 362 440
#     4  12  26  48  74 102 152 188 252 296 378 422
#     4  11  26  47  72 108 149 193 244 302 369 440
#     4  12  26  47  75 108 145 195 245 306 362 440
#
# _framework density 24.250955999999999
#
# number of rings (size 3 to 8) (size 9 to 14) (size 15 to 20)
#    0.000    0.444    4.444    2.000    6.222    3.556 
#    0.000    0.000    0.000    0.000    0.000    0.000 
#    0.000    0.000    0.000    0.000    0.000    0.000 
#
# Total GULP energy -50188.494234 kJ/mol
# GULP energy per Si atom -5576.499359 kJ/mol
# Density = 2.419576 g / cm^3
# Si number density = 24.250956 Si / 1000 Ang^3
#
#
#
# Elastic Constant Matrix: (Units=GPa)
#
#
# Indices 1 2 3 4 5 6 
#
# 1 131.1743 25.1922 51.0214 0.0000 10.1048 0.0000
# 2 25.1922 232.3843 21.6047 0.0000 20.9144 0.0000
# 3 51.0214 21.6047 132.8266 0.0000 -17.4876 0.0000
# 4 0.0000 0.0000 0.0000 38.4095 0.0000 8.9590
# 5 10.1048 20.9144 -17.4876 0.0000 42.2683 0.0000
# 6 0.0000 0.0000 0.0000 8.9590 0.0000 11.7085
#
#
#
# Elastic Compliance Matrix: (Units=1/GPa)
#
#
# Indices 1 2 3 4 5 6 
#
# 1 0.009590 -0.000308 -0.004141 0.000000 -0.003854 0.000000
# 2 -0.000308 0.004667 -0.000989 0.000000 -0.002645 0.000000
# 3 -0.004141 -0.000989 0.010021 0.000000 0.005625 0.000000
# 4 0.000000 0.000000 0.000000 0.031691 0.000000 -0.024249
# 5 -0.003854 -0.002645 0.005625 0.000000 0.028215 0.000000
# 6 0.000000 0.000000 0.000000 -0.024249 0.000000 0.103963
#
#
# Mechanical properties :
#
#
# Convention : Reuss Voigt Hill
#
# Bulk Modulus (GPa) = 74.61736 76.89132 75.75434
# Shear Modulus (GPa) = 24.57122 45.04840 34.80981
#
# Velocity S-wave (km/s) = 3.18654 4.31466 3.79278
# Velocity P-wave (km/s) = 6.66141 7.52310 7.10533
#
# Compressibility (1/GPa) = 0.01340171
#
# Stress axis : x y z
#
# Youngs Moduli (GPa) = 104.27407 214.29149 99.79320
#
# Poissons Ratio (x) = 0.06597 0.41325
# Poissons Ratio (y) = 0.03210 0.09869
# Poissons Ratio (z) = 0.43180 0.21193
#
# Static dielectric constant tensor:
#      x y z
#    x 2.056800 0.000000 -0.034810 
#    y 0.000000 1.873510 0.000000 
#    z -0.034810 0.000000 1.880840 
# 
# From -- ./inp_files/19674.got.cif
#   From: 2010.05.17/outbox.cif.g08.bks.cpg/sg8_10_cif.got.tgz:19674.got - 2010.06.03 19:46:02.
