data_PCOD9133558
_publ_section_title
;
Structure prediction by ZEFSAII (Michael W. Deem and Ramdas Pophale) SiO2 
 PCOD9133558
Probable space group: C M
;
_chemical_formula_sum "Si O2"
_cell_formula_units_Z 32
_cell_length_a 17.608881
_cell_length_b 14.776965
_cell_length_c 11.707402
_cell_angle_alpha 90.000000
_cell_angle_beta 149.975719
_cell_angle_gamma 90.000000
_cell_volume 1524.284948
_symmetry_space_group_name_H-M "C M"
_symmetry_group_IT_number 8
_symmetry_cell_setting 'monoclinic'
loop_
_space_group_symop_operation_xyz
x,y,z
x,-y,z
1/2+x,1/2+y,z
1/2+x,1/2-y,z
loop_
_atom_site_type_symbol
_atom_site_label
_atom_site_fract_x
_atom_site_fract_y
_atom_site_fract_z
Si Si1 0.132330 0.601447 0.866010
Si Si2 0.491986 0.895353 0.145107
Si Si3 0.792486 0.602355 0.509990
Si Si4 0.511279 0.399825 0.700300
Si Si5 0.573779 0.340710 0.035580
Si Si6 0.202460 0.766274 0.802066
Si Si7 0.733489 0.223394 0.593059
Si Si8 0.185820 0.639419 0.191974
O O1 0.144002 0.500000 0.833806
O O2 0.211781 0.674681 0.888614
O O3 0.953205 0.622119 0.655759
O O4 0.197865 0.602899 0.079796
O O5 0.632105 0.848505 0.393272
O O6 0.539586 0.892707 0.073334
O O7 0.466744 0.000000 0.145114
O O8 0.351873 0.828815 0.987212
O O9 0.803699 0.500000 0.573399
O O10 0.757976 0.684812 0.551453
O O11 0.658324 0.603024 0.242137
O O12 0.555625 0.500000 0.721206
O O13 0.568163 0.383258 0.902746
O O14 0.579908 0.325806 0.707316
O O15 0.330965 0.389081 0.454033
O O16 0.399521 0.317041 0.836419
O O17 0.665914 0.246646 0.153372
O O18 0.156053 0.744285 0.612695
#
# Coordination Sequence:
#
# PCOD9133558 Si02
#       8
#     4   4   4   4   4   4   4   4
#     4  11  24  44  70 103 139 184 230 283 347 410
#     4  12  26  45  71  99 134 180 230 282 341 408
#     4  11  23  43  72 106 137 179 234 286 340 407
#     4  12  26  43  70 104 138 179 229 287 345 406
#     4  12  21  44  71 102 134 181 228 286 341 401
#     4  12  26  44  67 100 143 180 225 282 345 407
#     4  12  24  44  67  97 138 186 227 278 345 406
#     4  12  22  45  74  99 131 181 235 284 336 407
#
# _framework density 20.993449999999999
#
# number of rings (size 3 to 8) (size 9 to 14) (size 15 to 20)
#    0.000    0.250    6.250    2.625    1.750    4.000 
#    0.000    3.125    0.000    0.000    0.000    0.000 
#    0.000    0.000    0.000    0.000    0.000    0.000 
#
# Total GULP energy -89476.572318 kJ/mol
# GULP energy per Si atom -5592.285770 kJ/mol
# Density = 2.094567 g / cm^3
# Si number density = 20.993450 Si / 1000 Ang^3
#
#
#
# Elastic Constant Matrix: (Units=GPa)
#
#
# Indices 1 2 3 4 5 6 
#
# 1 109.1653 54.6402 23.9592 0.0000 -10.3297 0.0000
# 2 54.6402 165.9777 28.2383 0.0000 -5.9093 0.0000
# 3 23.9592 28.2383 76.8362 0.0000 -20.9271 0.0000
# 4 0.0000 0.0000 0.0000 36.3850 0.0000 20.3153
# 5 -10.3297 -5.9093 -20.9271 0.0000 24.0088 0.0000
# 6 0.0000 0.0000 0.0000 20.3153 0.0000 47.3648
#
#
#
# Elastic Compliance Matrix: (Units=1/GPa)
#
#
# Indices 1 2 3 4 5 6 
#
# 1 0.011472 -0.003410 -0.001584 0.000000 0.002716 0.000000
# 2 -0.003410 0.007448 -0.002064 0.000000 -0.001433 0.000000
# 3 -0.001584 -0.002064 0.018284 0.000000 0.014747 0.000000
# 4 0.000000 0.000000 0.000000 0.036138 0.000000 -0.015500
# 5 0.002716 -0.001433 0.014747 0.000000 0.055321 0.000000
# 6 0.000000 0.000000 0.000000 -0.015500 0.000000 0.027761
#
#
# Mechanical properties :
#
#
# Convention : Reuss Voigt Hill
#
# Bulk Modulus (GPa) = 43.31602 62.85051 53.08327
# Shear Modulus (GPa) = 28.05249 37.89447 32.97348
#
# Velocity S-wave (km/s) = 3.65944 4.25321 3.96745
# Velocity P-wave (km/s) = 6.20752 7.35683 6.80647
#
# Compressibility (1/GPa) = 0.02308614
#
# Stress axis : x y z
#
# Youngs Moduli (GPa) = 87.16800 134.26850 54.69298
#
# Poissons Ratio (x) = 0.45791 0.08665
# Poissons Ratio (y) = 0.29728 0.11289
# Poissons Ratio (z) = 0.13810 0.27714
#
# Static dielectric constant tensor:
#      x y z
#    x 1.742560 0.000000 -0.008280 
#    y 0.000000 1.763210 0.000000 
#    z -0.008280 0.000000 1.757760 
# 
# From -- ./inp_files/23339.got.cif
#   From: 2010.05.17/outbox.cif.g08.bks.cpg/sg8_12_cif.got.tgz:23339.got - 2010.06.03 19:46:02.
