data_PCOD9133178
_publ_section_title
;
Structure prediction by ZEFSAII (Michael W. Deem and Ramdas Pophale) SiO2 
 PCOD9133178
Probable space group: C M
;
_chemical_formula_sum "Si O2"
_cell_formula_units_Z 24
_cell_length_a 13.831721
_cell_length_b 17.075235
_cell_length_c 9.418489
_cell_angle_alpha 90.000000
_cell_angle_beta 30.522142
_cell_angle_gamma 90.000000
_cell_volume 1129.738210
_symmetry_space_group_name_H-M "C M"
_symmetry_group_IT_number 8
_symmetry_cell_setting 'monoclinic'
loop_
_space_group_symop_operation_xyz
x,y,z
x,-y,z
1/2+x,1/2+y,z
1/2+x,1/2-y,z
loop_
_atom_site_type_symbol
_atom_site_label
_atom_site_fract_x
_atom_site_fract_y
_atom_site_fract_z
Si Si1 0.441170 0.356010 0.716230
Si Si2 0.162628 0.365409 0.295526
Si Si3 0.260620 0.798429 0.815043
Si Si4 0.494434 0.744243 0.894797
Si Si5 0.139906 0.586206 0.645508
Si Si6 0.549364 0.586283 0.284160
O O1 0.447574 0.154904 0.527097
O O2 0.326359 0.286249 0.784311
O O3 0.288806 0.401310 0.008963
O O4 0.534519 0.403512 0.471846
O O5 0.070050 0.191061 0.667040
O O6 0.170059 0.408382 0.437137
O O7 0.276336 0.283546 0.176249
O O8 0.104675 0.785371 0.892548
O O9 0.173701 0.847136 0.054354
O O10 0.523964 0.835885 0.832669
O O11 0.057438 0.500000 0.782781
O O12 0.339807 0.591794 0.477302
O O13 0.625846 0.500000 0.152168
#
# Coordination Sequence:
#
# PCOD9133178 Si02
#       6
#     4   4   4   4   4   4
#     4  10  22  39  66  99 131 172 230 267 326 392
#     4  10  22  41  65 101 125 177 228 264 332 397
#     4  12  21  41  69  96 133 176 224 274 328 398
#     4  10  23  41  66  97 132 170 227 273 318 399
#     4  11  22  40  66 100 138 177 217 277 341 387
#     4  11  24  42  68 103 137 174 220 279 337 391
#
# _framework density 21.243859
#
# number of rings (size 3 to 8) (size 9 to 14) (size 15 to 20)
#    1.000    0.333    5.000    1.000    0.000    1.333 
#    0.000    0.833    0.000    0.000    0.000    0.000 
#    0.000    0.000    0.000    0.000    0.000    0.000 
#
# Total GULP energy -66963.836791 kJ/mol
# GULP energy per Si atom -5580.319733 kJ/mol
# Density = 2.119551 g / cm^3
# Si number density = 21.243859 Si / 1000 Ang^3
#
#
#
# Elastic Constant Matrix: (Units=GPa)
#
#
# Indices 1 2 3 4 5 6 
#
# 1 78.8610 7.4619 18.6204 -0.0011 12.2164 0.0001
# 2 7.4619 104.0255 24.4894 -0.0020 2.0318 0.0002
# 3 18.6204 24.4894 63.9029 -0.0025 8.4071 0.0013
# 4 -0.0011 -0.0020 -0.0025 -9.2573 0.0016 2.9563
# 5 12.2164 2.0318 8.4071 0.0016 32.1422 -0.0002
# 6 0.0001 0.0002 0.0013 2.9563 -0.0002 2.2718
#
#
#
# Elastic Compliance Matrix: (Units=1/GPa)
#
#
# Indices 1 2 3 4 5 6 
#
# 1 0.014213 -0.000105 -0.003512 -0.000001 -0.004477 0.000002
# 2 -0.000105 0.010572 -0.004079 0.000000 0.000439 0.000002
# 3 -0.003512 -0.004079 0.018668 -0.000005 -0.003290 -0.000003
# 4 -0.000001 0.000000 -0.000005 -0.076311 0.000006 0.099302
# 5 -0.004477 0.000439 -0.003290 0.000006 0.033646 -0.000003
# 6 0.000002 0.000002 -0.000003 0.099302 -0.000003 0.310955
#
#
# Mechanical properties :
#
#
# Convention : Reuss Voigt Hill
#
# Bulk Modulus (GPa) = 35.63620 38.65919 37.14769
# Shear Modulus (GPa) = 14.85929 18.11251 16.48590
#
# Velocity S-wave (km/s) = 2.64761 2.92310 2.78876
# Velocity P-wave (km/s) = 5.11446 5.44334 5.28146
#
# Compressibility (1/GPa) = 0.02806136
#
# Stress axis : x y z
#
# Youngs Moduli (GPa) = 70.35658 94.58788 53.56753
#
# Poissons Ratio (x) = 0.00996 0.18814
# Poissons Ratio (y) = 0.00741 0.21848
# Poissons Ratio (z) = 0.24711 0.38578
#
# Static dielectric constant tensor:
#      x y z
#    x 1.778360 0.000000 0.025040 
#    y 0.000000 1.747050 0.000000 
#    z 0.025040 0.000000 1.804580 
# 
# From -- ./inp_files/10985.got.cif
#   From: 2010.05.17/outbox.cif.g08.bks.cpg/sg8_6_cif.got.tgz:10985.got - 2010.06.03 19:46:02.
