data_PCOD9133764
_publ_section_title
;
Structure prediction by ZEFSAII (Michael W. Deem and Ramdas Pophale) SiO2 
 PCOD9133764
Probable space group: C C
;
_chemical_formula_sum "Si O2"
_cell_formula_units_Z 32
_cell_length_a 11.192544
_cell_length_b 28.243553
_cell_length_c 5.442902
_cell_angle_alpha 90.000000
_cell_angle_beta 73.702723
_cell_angle_gamma 90.000000
_cell_volume 1651.459128
_symmetry_space_group_name_H-M "C C"
_symmetry_group_IT_number 9
_symmetry_cell_setting 'monoclinic'
loop_
_space_group_symop_operation_xyz
x,y,z
x,-y,1/2+z
1/2+x,1/2+y,z
1/2+x,1/2-y,1/2+z
loop_
_atom_site_type_symbol
_atom_site_label
_atom_site_fract_x
_atom_site_fract_y
_atom_site_fract_z
Si Si1 0.241860 0.791585 0.038720
Si Si2 0.992851 0.976513 0.600025
Si Si3 0.710414 0.015518 0.785020
Si Si4 0.587908 0.201247 0.685799
Si Si5 0.180339 0.192569 0.074600
Si Si6 0.496099 0.228553 0.237968
Si Si7 0.942317 0.130664 0.141324
Si Si8 0.786286 0.874989 0.235481
O O1 0.259968 0.817054 0.286965
O O2 0.107758 0.766379 0.150427
O O3 0.230691 0.824568 0.807297
O O4 0.358779 0.757390 0.911959
O O5 0.006940 0.920494 0.569753
O O6 0.041091 0.997044 0.829665
O O7 0.843166 0.987236 0.695334
O O8 0.740978 0.070855 0.782080
O O9 0.645260 0.002518 0.568215
O O10 0.666093 0.250477 0.616082
O O11 0.539630 0.193928 0.435313
O O12 0.674543 0.160379 0.740439
O O13 0.489141 0.210128 0.962440
O O14 0.044721 0.171113 0.107136
O O15 0.872014 0.128331 0.442925
O O16 0.855783 0.137366 0.950964
#
# Coordination Sequence:
#
# PCOD9133764 Si02
#       8
#     4   4   4   4   4   4   4   4
#     4  10  21  39  60  79 108 151 200 254 298 336
#     4  10  16  30  49  77 116 152 178 236 310 365
#     4  10  16  30  49  77 116 152 178 236 310 365
#     4  10  23  36  50  79 113 152 205 237 280 347
#     4  10  23  36  50  79 113 152 205 237 280 347
#     4  10  21  39  60  79 108 151 200 254 298 336
#     4  12  21  33  55  83 118 163 195 236 302 371
#     4  12  21  33  55  83 118 163 195 236 302 371
#
# _framework density 19.376804
#
# number of rings (size 3 to 8) (size 9 to 14) (size 15 to 20)
#    0.000    1.500    5.000    2.250    0.000   12.000 
#    0.000    0.000    0.000    0.000    0.000    0.000 
#    0.000   20.000    0.000    0.000    0.000    0.000 
#
# Total GULP energy -89141.900505 kJ/mol
# GULP energy per Si atom -5571.368782 kJ/mol
# Density = 1.933270 g / cm^3
# Si number density = 19.376804 Si / 1000 Ang^3
#
#
#
# Elastic Constant Matrix: (Units=GPa)
#
#
# Indices 1 2 3 4 5 6 
#
# 1 47.2151 11.6836 25.1691 0.0000 16.9096 0.0000
# 2 11.6836 53.2973 -4.2978 0.0000 -2.9418 0.0000
# 3 25.1691 -4.2978 141.5017 0.0000 44.0801 0.0000
# 4 0.0000 0.0000 0.0000 7.9706 0.0000 2.2969
# 5 16.9096 -2.9418 44.0801 0.0000 39.6750 0.0000
# 6 0.0000 0.0000 0.0000 2.2969 0.0000 6.7283
#
#
#
# Elastic Compliance Matrix: (Units=1/GPa)
#
#
# Indices 1 2 3 4 5 6 
#
# 1 0.027488 -0.006738 -0.001971 0.000000 -0.010025 0.000000
# 2 -0.006738 0.020496 0.000693 0.000000 0.003622 0.000000
# 3 -0.001971 0.000693 0.010951 0.000000 -0.011276 0.000000
# 4 0.000000 0.000000 0.000000 0.139151 0.000000 -0.047503
# 5 -0.010025 0.003622 -0.011276 0.000000 0.042274 0.000000
# 6 0.000000 0.000000 0.000000 -0.047503 0.000000 0.164843
#
#
# Mechanical properties :
#
#
# Convention : Reuss Voigt Hill
#
# Bulk Modulus (GPa) = 23.30874 34.12490 28.71682
# Shear Modulus (GPa) = 11.48009 24.83870 18.15940
#
# Velocity S-wave (km/s) = 2.43670 3.58422 3.06465
# Velocity P-wave (km/s) = 4.46900 5.89731 5.23212
#
# Compressibility (1/GPa) = 0.04290237
#
# Stress axis : x y z
#
# Youngs Moduli (GPa) = 36.37925 48.79103 91.31364
#
# Poissons Ratio (x) = 0.32876 0.17997
# Poissons Ratio (y) = 0.24513 -0.06326
# Poissons Ratio (z) = 0.07170 -0.03380
#
# Static dielectric constant tensor:
#      x y z
#    x 1.740960 0.000000 0.058190 
#    y 0.000000 1.661230 0.000000 
#    z 0.058190 0.000000 1.797760 
# 
# From -- ./inp_files/2185.got.cif
#   From: 2010.05.17/outbox.cif.g08.bks.cpg/sg9_2_cif.got.tgz:2185.got - 2010.06.03 20:04:27.
