data_PCOD9133212
_publ_section_title
;
Structure prediction by ZEFSAII (Michael W. Deem and Ramdas Pophale) SiO2 
 PCOD9133212
Probable space group: C M
;
_chemical_formula_sum "Si O2"
_cell_formula_units_Z 24
_cell_length_a 15.273655
_cell_length_b 8.627307
_cell_length_c 14.931782
_cell_angle_alpha 90.000000
_cell_angle_beta 39.632427
_cell_angle_gamma 90.000000
_cell_volume 1255.033201
_symmetry_space_group_name_H-M "C M"
_symmetry_group_IT_number 8
_symmetry_cell_setting 'monoclinic'
loop_
_space_group_symop_operation_xyz
x,y,z
x,-y,z
1/2+x,1/2+y,z
1/2+x,1/2-y,z
loop_
_atom_site_type_symbol
_atom_site_label
_atom_site_fract_x
_atom_site_fract_y
_atom_site_fract_z
Si Si1 0.493230 0.684075 0.828390
Si Si2 0.712758 0.685744 0.129190
Si Si3 0.979825 0.814906 0.170808
Si Si4 0.453538 0.183210 0.666340
Si Si5 0.188206 0.815503 0.358623
Si Si6 0.153467 0.684427 0.867817
O O1 0.506734 0.500000 0.809854
O O2 0.507282 0.762487 0.720773
O O3 0.600856 0.750336 0.814938
O O4 0.342535 0.727154 0.985062
O O5 0.738508 0.500000 0.101218
O O6 0.576989 0.721145 0.178834
O O7 0.696067 0.722925 0.246807
O O8 0.832974 0.733191 0.287659
O O9 0.960521 0.000000 0.181996
O O10 0.061069 0.759403 0.018654
O O11 0.564813 0.228645 0.504570
O O12 0.310398 0.269713 0.761106
O O13 0.428239 0.000000 0.687277
O O14 0.168157 0.000000 0.382719
O O15 0.135894 0.500000 0.884292
#
# Coordination Sequence:
#
# PCOD9133212 Si02
#       6
#     4   4   4   4   4   4
#     4  12  24  40  67  98 129 169 220 269 324 388
#     4  10  22  40  65  94 131 170 212 264 322 382
#     4  11  22  39  65  97 130 170 218 265 320 382
#     4  12  26  45  66  94 134 174 218 272 329 385
#     4  11  24  43  65  94 133 174 217 267 326 384
#     4  12  24  41  66  97 131 171 219 269 323 385
#
# _framework density 19.123000000000001
#
# number of rings (size 3 to 8) (size 9 to 14) (size 15 to 20)
#    0.000    0.667    3.333    5.500    0.000    2.667 
#    0.000    5.000    0.000    0.000    0.000    0.000 
#    0.000    0.000    0.000    0.000    0.000    0.000 
#
# Total GULP energy -67167.596267 kJ/mol
# GULP energy per Si atom -5597.299689 kJ/mol
# Density = 1.907947 g / cm^3
# Si number density = 19.123000 Si / 1000 Ang^3
#
#
#
# Elastic Constant Matrix: (Units=GPa)
#
#
# Indices 1 2 3 4 5 6 
#
# 1 78.1602 9.8677 -12.8492 0.0000 5.0540 0.0000
# 2 9.8677 48.5436 -9.1365 0.0000 15.9996 0.0000
# 3 -12.8492 -9.1365 39.6016 0.0000 4.1580 0.0000
# 4 0.0000 0.0000 0.0000 37.2846 0.0000 -2.1685
# 5 5.0540 15.9996 4.1580 0.0000 28.2995 0.0000
# 6 0.0000 0.0000 0.0000 -2.1685 0.0000 33.3150
#
#
#
# Elastic Compliance Matrix: (Units=1/GPa)
#
#
# Indices 1 2 3 4 5 6 
#
# 1 0.013837 -0.001152 0.004484 0.000000 -0.002479 0.000000
# 2 -0.001152 0.027786 0.007785 0.000000 -0.016648 0.000000
# 3 0.004484 0.007785 0.029504 0.000000 -0.009537 0.000000
# 4 0.000000 0.000000 0.000000 0.026923 0.000000 0.001752
# 5 -0.002479 -0.016648 -0.009537 0.000000 0.046592 0.000000
# 6 0.000000 0.000000 0.000000 0.001752 0.000000 0.030131
#
#
# Mechanical properties :
#
#
# Convention : Reuss Voigt Hill
#
# Bulk Modulus (GPa) = 10.71103 15.78548 13.24825
# Shear Modulus (GPa) = 27.22440 31.67473 29.44956
#
# Velocity S-wave (km/s) = 3.77722 4.07427 3.92855
# Velocity P-wave (km/s) = 4.96351 5.51412 5.24604
#
# Compressibility (1/GPa) = 0.09336172
#
# Stress axis : x y z
#
# Youngs Moduli (GPa) = 72.26946 35.98895 33.89389
#
# Poissons Ratio (x) = 0.04145 -0.15199
# Poissons Ratio (y) = 0.08324 -0.26386
# Poissons Ratio (z) = -0.32407 -0.28017
#
# Static dielectric constant tensor:
#      x y z
#    x 1.651420 0.000000 0.002830 
#    y 0.000000 1.638520 0.000000 
#    z 0.002830 0.000000 1.623210 
# 
# From -- ./inp_files/12133.got.cif
#   From: 2010.05.17/outbox.cif.g08.bks.cpg/sg8_7_cif.got.tgz:12133.got - 2010.06.03 19:46:02.
