data_PCOD9133887
_publ_section_title
;
Structure prediction by ZEFSAII (Michael W. Deem and Ramdas Pophale) SiO2 
 PCOD9133887
Probable space group: C C
;
_chemical_formula_sum "Si O2"
_cell_formula_units_Z 32
_cell_length_a 12.061698
_cell_length_b 6.539097
_cell_length_c 24.566528
_cell_angle_alpha 90.000000
_cell_angle_beta 44.637105
_cell_angle_gamma 90.000000
_cell_volume 1361.403370
_symmetry_space_group_name_H-M "C C"
_symmetry_group_IT_number 9
_symmetry_cell_setting 'monoclinic'
loop_
_space_group_symop_operation_xyz
x,y,z
x,-y,1/2+z
1/2+x,1/2+y,z
1/2+x,1/2-y,1/2+z
loop_
_atom_site_type_symbol
_atom_site_label
_atom_site_fract_x
_atom_site_fract_y
_atom_site_fract_z
Si Si1 0.731800 0.384135 0.005440
Si Si2 0.470946 0.039666 0.086058
Si Si3 0.641688 0.468149 0.643569
Si Si4 0.554821 0.121643 0.444483
Si Si5 0.430301 0.153168 0.335310
Si Si6 0.449748 0.132632 0.209389
Si Si7 0.623350 0.870637 0.323759
Si Si8 0.407250 0.634087 0.315223
O O1 0.584910 0.235635 0.048084
O O2 0.679207 0.559604 0.066468
O O3 0.797732 0.428672 0.922689
O O4 0.890846 0.287592 0.978478
O O5 0.296371 0.083385 0.124326
O O6 0.460441 0.986429 0.153599
O O7 0.539300 0.896989 0.014752
O O8 0.598719 0.711665 0.660092
O O9 0.499660 0.366459 0.725734
O O10 0.727518 0.206698 0.372593
O O11 0.568500 0.905449 0.405392
O O12 0.432944 0.047993 0.275673
O O13 0.404693 0.392315 0.333861
O O14 0.595454 0.094520 0.306547
O O15 0.294724 0.275758 0.256516
O O16 0.505415 0.734632 0.329566
#
# Coordination Sequence:
#
# PCOD9133887 Si02
#       8
#     4   4   4   4   4   4   4   4
#     4   9  18  33  61  86 119 168 195 253 315 357
#     4  10  17  35  63  86 121 170 197 250 325 359
#     4   9  18  31  61  90 117 165 204 242 317 367
#     4  10  20  37  58  86 126 160 207 257 307 367
#     4  10  21  39  59  91 122 160 210 256 307 368
#     4  10  19  36  59  87 124 160 202 257 307 364
#     4  11  21  38  62  90 122 160 208 256 306 374
#     4  11  20  39  61  92 123 165 209 257 312 368
#
# _framework density 23.505157000000001
#
# number of rings (size 3 to 8) (size 9 to 14) (size 15 to 20)
#    0.000    2.000    5.000    0.000    0.000    0.000 
#    4.500    1.250    0.000   19.500    0.000    0.000 
#    0.000    0.000    0.000    0.000    0.000    0.000 
#
# Total GULP energy -89165.133453 kJ/mol
# GULP energy per Si atom -5572.820841 kJ/mol
# Density = 2.345166 g / cm^3
# Si number density = 23.505157 Si / 1000 Ang^3
#
#
#
# Elastic Constant Matrix: (Units=GPa)
#
#
# Indices 1 2 3 4 5 6 
#
# 1 154.7956 33.6437 73.0218 -0.0008 -1.0607 -0.0016
# 2 33.6437 43.2523 20.5093 -0.0024 2.9072 -0.0049
# 3 73.0218 20.5093 189.2702 -0.0002 22.4686 -0.0006
# 4 -0.0008 -0.0024 -0.0002 17.6610 -0.0002 2.7747
# 5 -1.0607 2.9072 22.4686 -0.0002 67.7073 -0.0005
# 6 -0.0016 -0.0049 -0.0006 2.7747 -0.0005 42.7576
#
#
#
# Elastic Compliance Matrix: (Units=1/GPa)
#
#
# Indices 1 2 3 4 5 6 
#
# 1 0.009179 -0.005773 -0.003084 0.000000 0.001415 0.000000
# 2 -0.005773 0.028005 -0.000681 0.000003 -0.001067 0.000003
# 3 -0.003084 -0.000681 0.006818 0.000000 -0.002282 0.000000
# 4 0.000000 0.000003 0.000000 0.057205 0.000000 -0.003712
# 5 0.001415 -0.001067 -0.002282 0.000000 0.015595 0.000000
# 6 0.000000 0.000003 0.000000 -0.003712 0.000000 0.023629
#
#
# Mechanical properties :
#
#
# Convention : Reuss Voigt Hill
#
# Bulk Modulus (GPa) = 40.11680 71.29641 55.70660
# Shear Modulus (GPa) = 29.79481 42.96808 36.38144
#
# Velocity S-wave (km/s) = 3.56418 4.28018 3.93849
# Velocity P-wave (km/s) = 5.83456 7.40437 6.66584
#
# Compressibility (1/GPa) = 0.02492721
#
# Stress axis : x y z
#
# Youngs Moduli (GPa) = 108.94109 35.70780 146.67390
#
# Poissons Ratio (x) = 0.20614 0.45232
# Poissons Ratio (y) = 0.62890 0.09985
# Poissons Ratio (z) = 0.33596 0.02431
#
# Static dielectric constant tensor:
#      x y z
#    x 1.884960 0.000000 0.024660 
#    y 0.000000 1.956940 0.000000 
#    z 0.024660 0.000000 1.957650 
# 
# From -- ./inp_files/29848.got.cif
#   From: 2010.05.17/outbox.cif.g08.bks.cpg/sg9_15_cif.got.tgz:29848.got - 2010.06.03 20:04:27.
