data_PCOD9133303
_publ_section_title
;
Structure prediction by ZEFSAII (Michael W. Deem and Ramdas Pophale) SiO2 
 PCOD9133303
Probable space group: C M
;
_chemical_formula_sum "Si O2"
_cell_formula_units_Z 32
_cell_length_a 14.657124
_cell_length_b 23.102986
_cell_length_c 9.258947
_cell_angle_alpha 90.000000
_cell_angle_beta 149.415206
_cell_angle_gamma 90.000000
_cell_volume 1595.278973
_symmetry_space_group_name_H-M "C M"
_symmetry_group_IT_number 8
_symmetry_cell_setting 'monoclinic'
loop_
_space_group_symop_operation_xyz
x,y,z
x,-y,z
1/2+x,1/2+y,z
1/2+x,1/2-y,z
loop_
_atom_site_type_symbol
_atom_site_label
_atom_site_fract_x
_atom_site_fract_y
_atom_site_fract_z
Si Si1 0.823990 0.155004 0.796270
Si Si2 0.100294 0.933536 0.312744
Si Si3 0.928499 0.766372 0.681635
Si Si4 0.112777 0.066281 0.680548
Si Si5 0.297313 0.741949 0.014814
Si Si6 0.828017 0.839372 0.295518
Si Si7 0.939658 0.362423 0.778708
Si Si8 0.960993 0.364413 0.151822
O O1 0.931708 0.191540 0.822609
O O2 0.758217 0.201747 0.824597
O O3 0.652474 0.126497 0.485738
O O4 0.948904 0.107892 0.042224
O O5 0.098425 0.931344 0.485582
O O6 0.293630 0.908374 0.529819
O O7 0.077156 0.000000 0.237626
O O8 0.796479 0.795558 0.385249
O O9 0.871103 0.702316 0.650789
O O10 0.118248 0.760159 0.857746
O O11 0.961392 0.110730 0.526528
O O12 0.087623 0.000000 0.691313
O O13 0.305420 0.091475 0.988033
O O14 0.405755 0.700378 0.273233
O O15 0.399634 0.799356 0.107633
O O16 0.639646 0.865750 0.986606
O O17 0.966523 0.369604 0.986574
#
# Coordination Sequence:
#
# PCOD9133303 Si02
#       8
#     4   4   4   4   4   4   4   4
#     4  12  24  40  67  96 134 176 207 273 332 380
#     4  10  24  45  64  88 126 177 225 261 314 392
#     4  11  23  38  63 100 139 161 210 266 329 391
#     4  10  22  43  67  90 128 176 222 264 317 392
#     4  11  23  38  62  96 140 167 209 262 331 397
#     4  11  21  41  61  99 129 168 212 268 322 386
#     4  10  23  37  65  94 129 169 211 264 325 384
#     4  11  22  38  63  97 127 170 214 262 328 386
#
# _framework density 20.059187000000001
#
# number of rings (size 3 to 8) (size 9 to 14) (size 15 to 20)
#    0.000    1.250    5.000    0.750    5.250    1.000 
#    0.000    0.625    0.000    0.000    0.000    0.000 
#    0.000    0.000    0.000    0.000    0.000    0.000 
#
# Total GULP energy -89394.618287 kJ/mol
# GULP energy per Si atom -5587.163643 kJ/mol
# Density = 2.001353 g / cm^3
# Si number density = 20.059187 Si / 1000 Ang^3
#
#
#
# Elastic Constant Matrix: (Units=GPa)
#
#
# Indices 1 2 3 4 5 6 
#
# 1 47.4712 18.6476 25.0999 0.0000 -0.6286 0.0000
# 2 18.6476 101.3634 50.7758 0.0000 6.0182 0.0000
# 3 25.0999 50.7758 103.3446 0.0000 10.0771 0.0000
# 4 0.0000 0.0000 0.0000 25.9047 0.0000 3.3470
# 5 -0.6286 6.0182 10.0771 0.0000 28.7124 0.0000
# 6 0.0000 0.0000 0.0000 3.3470 0.0000 21.3164
#
#
#
# Elastic Compliance Matrix: (Units=1/GPa)
#
#
# Indices 1 2 3 4 5 6 
#
# 1 0.024696 -0.002080 -0.005251 0.000000 0.002820 0.000000
# 2 -0.002080 0.013269 -0.005942 0.000000 -0.000741 0.000000
# 3 -0.005251 -0.005942 0.014248 0.000000 -0.003870 0.000000
# 4 0.000000 0.000000 0.000000 0.039402 0.000000 -0.006187
# 5 0.002820 -0.000741 -0.003870 0.000000 0.036404 0.000000
# 6 0.000000 0.000000 0.000000 -0.006187 0.000000 0.047884
#
#
# Mechanical properties :
#
#
# Convention : Reuss Voigt Hill
#
# Bulk Modulus (GPa) = 38.96000 49.02508 43.99254
# Shear Modulus (GPa) = 23.69619 25.69710 24.69665
#
# Velocity S-wave (km/s) = 3.44075 3.58308 3.51264
# Velocity P-wave (km/s) = 5.93715 6.45067 6.19923
#
# Compressibility (1/GPa) = 0.02566735
#
# Stress axis : x y z
#
# Youngs Moduli (GPa) = 40.49189 75.36616 70.18370
#
# Poissons Ratio (x) = 0.15679 0.36853
# Poissons Ratio (y) = 0.08424 0.41700
# Poissons Ratio (z) = 0.21262 0.44780
#
# Static dielectric constant tensor:
#      x y z
#    x 1.737930 0.000000 -0.002490 
#    y 0.000000 1.680650 0.000000 
#    z -0.002490 0.000000 1.730310 
# 
# From -- ./inp_files/13830.got.cif
#   From: 2010.05.17/outbox.cif.g08.bks.cpg/sg8_7_cif.got.tgz:13830.got - 2010.06.03 19:46:02.
