data_PCOD9133246
_publ_section_title
;
Structure prediction by ZEFSAII (Michael W. Deem and Ramdas Pophale) SiO2 
 PCOD9133246
Probable space group: C M
;
_chemical_formula_sum "Si O2"
_cell_formula_units_Z 20
_cell_length_a 15.233065
_cell_length_b 11.999152
_cell_length_c 5.879657
_cell_angle_alpha 90.000000
_cell_angle_beta 122.722476
_cell_angle_gamma 90.000000
_cell_volume 904.149209
_symmetry_space_group_name_H-M "C M"
_symmetry_group_IT_number 8
_symmetry_cell_setting 'monoclinic'
loop_
_space_group_symop_operation_xyz
x,y,z
x,-y,z
1/2+x,1/2+y,z
1/2+x,1/2-y,z
loop_
_atom_site_type_symbol
_atom_site_label
_atom_site_fract_x
_atom_site_fract_y
_atom_site_fract_z
Si Si1 0.118640 0.776053 0.254940
Si Si2 0.013864 0.000000 0.232237
Si Si3 0.003444 0.373323 0.768657
Si Si4 0.399317 0.500000 0.571394
Si Si5 0.714022 0.125990 0.773874
Si Si6 0.823975 0.765406 0.301994
O O1 0.164891 0.691180 0.500133
O O2 0.216646 0.795224 0.223905
O O3 0.081658 0.888298 0.318097
O O4 0.023128 0.712921 0.999630
O O5 0.960796 0.000000 0.410553
O O6 0.958914 0.000000 0.899246
O O7 0.972562 0.500000 0.788031
O O8 0.920289 0.315273 0.486287
O O9 0.118209 0.381089 0.818091
O O10 0.338507 0.382215 0.460782
O O11 0.745275 0.000000 0.764469
O O12 0.807547 0.193285 0.021582
#
# Coordination Sequence:
#
# PCOD9133246 Si02
#       6
#     4   2   4   2   4   4
#     4  11  25  42  68  98 139 184 235 295 354 426
#     4  12  28  48  74 103 152 188 241 298 374 413
#     4  10  22  43  64  94 136 179 227 290 354 425
#     4  12  26  48  76 107 138 194 243 304 348 441
#     4  10  22  41  65  95 132 181 232 294 347 423
#     4  11  24  40  70  99 138 177 245 280 360 414
#
# _framework density 22.120244
#
# number of rings (size 3 to 8) (size 9 to 14) (size 15 to 20)
#    0.000    1.200    3.000    1.800    9.800    1.600 
#    1.800    0.000    0.000    0.000    0.000    0.000 
#    0.000    0.000    0.000    0.000    0.000    0.000 
#
# Total GULP energy -55846.182239 kJ/mol
# GULP energy per Si atom -5584.618224 kJ/mol
# Density = 2.206990 g / cm^3
# Si number density = 22.120244 Si / 1000 Ang^3
#
#
#
# Elastic Constant Matrix: (Units=GPa)
#
#
# Indices 1 2 3 4 5 6 
#
# 1 74.1401 58.9510 22.5409 0.0000 1.5041 0.0000
# 2 58.9510 133.3517 25.8757 0.0000 9.6863 0.0000
# 3 22.5409 25.8757 120.1533 0.0000 11.3525 0.0000
# 4 0.0000 0.0000 0.0000 37.5993 0.0000 3.9857
# 5 1.5041 9.6863 11.3525 0.0000 30.4693 0.0000
# 6 0.0000 0.0000 0.0000 3.9857 0.0000 37.5811
#
#
#
# Elastic Compliance Matrix: (Units=1/GPa)
#
#
# Indices 1 2 3 4 5 6 
#
# 1 0.021487 -0.009252 -0.002297 0.000000 0.002736 0.000000
# 2 -0.009252 0.011921 -0.000535 0.000000 -0.003133 0.000000
# 3 -0.002297 -0.000535 0.009165 0.000000 -0.003131 0.000000
# 4 0.000000 0.000000 0.000000 0.026899 0.000000 -0.002853
# 5 0.002736 -0.003133 -0.003131 0.000000 0.034848 0.000000
# 6 0.000000 0.000000 0.000000 -0.002853 0.000000 0.026912
#
#
# Mechanical properties :
#
#
# Convention : Reuss Voigt Hill
#
# Bulk Modulus (GPa) = 54.33719 60.26447 57.30083
# Shear Modulus (GPa) = 30.95318 35.81509 33.38413
#
# Velocity S-wave (km/s) = 3.74480 4.02818 3.88907
# Velocity P-wave (km/s) = 6.58148 6.99558 6.79169
#
# Compressibility (1/GPa) = 0.01840360
#
# Stress axis : x y z
#
# Youngs Moduli (GPa) = 46.53890 83.88909 109.11332
#
# Poissons Ratio (x) = 0.77614 0.25065
# Poissons Ratio (y) = 0.43058 0.05842
# Poissons Ratio (z) = 0.10691 0.04491
#
# Static dielectric constant tensor:
#      x y z
#    x 1.885080 0.000000 -0.037050 
#    y 0.000000 1.775520 0.000000 
#    z -0.037050 0.000000 1.818840 
# 
# From -- ./inp_files/2484.got.cif
#   From: 2010.05.17/outbox.cif.g08.bks.cpg/sg8_2_cif.got.tgz:2484.got - 2010.06.03 19:46:02.
