data_PCOD9133247
_publ_section_title
;
Structure prediction by ZEFSAII (Michael W. Deem and Ramdas Pophale) SiO2 
 PCOD9133247
Probable space group: C M
;
_chemical_formula_sum "Si O2"
_cell_formula_units_Z 18
_cell_length_a 14.556678
_cell_length_b 7.873124
_cell_length_c 19.446090
_cell_angle_alpha 90.000000
_cell_angle_beta 161.745050
_cell_angle_gamma 90.000000
_cell_volume 698.115031
_symmetry_space_group_name_H-M "C M"
_symmetry_group_IT_number 8
_symmetry_cell_setting 'monoclinic'
loop_
_space_group_symop_operation_xyz
x,y,z
x,-y,z
1/2+x,1/2+y,z
1/2+x,1/2-y,z
loop_
_atom_site_type_symbol
_atom_site_label
_atom_site_fract_x
_atom_site_fract_y
_atom_site_fract_z
Si Si1 0.990750 0.804642 0.600910
Si Si2 0.053709 0.182661 0.396549
Si Si3 0.966275 0.191003 0.134461
Si Si4 0.838396 0.190737 0.728851
Si Si5 0.682079 0.500000 0.156663
O O1 0.857181 0.702909 0.569576
O O2 0.734684 0.783741 0.361866
O O3 0.268378 0.725470 0.758578
O O4 0.042574 0.000000 0.655561
O O5 0.154867 0.191878 0.547597
O O6 0.865303 0.348764 0.246937
O O7 0.915418 0.000000 0.284667
O O8 0.034128 0.148253 0.103297
O O9 0.943847 0.000000 0.149595
O O10 0.671004 0.288059 0.942717
O O11 0.726918 0.000000 0.634531
#
# Coordination Sequence:
#
# PCOD9133247 Si02
#       5
#     4   4   4   4   2
#     4  12  23  42  67  96 131 172 214 268 327 384
#     4  12  23  42  71  95 130 175 216 267 328 381
#     4  10  22  41  66  91 131 167 217 261 325 378
#     4  12  23  43  65  98 133 171 217 269 323 389
#     4  10  22  46  64  96 130 174 214 274 310 406
#
# _framework density 25.783718
#
# number of rings (size 3 to 8) (size 9 to 14) (size 15 to 20)
#    0.667    0.000    4.444    4.667    0.000    0.889 
#    4.000    0.000    0.000    0.000    0.000    0.000 
#    0.000    0.000    0.000    0.000    0.000    0.000 
#
# Total GULP energy -50138.652161 kJ/mol
# GULP energy per Si atom -5570.961351 kJ/mol
# Density = 2.572503 g / cm^3
# Si number density = 25.783718 Si / 1000 Ang^3
#
#
#
# Elastic Constant Matrix: (Units=GPa)
#
#
# Indices 1 2 3 4 5 6 
#
# 1 153.2239 23.1781 18.9977 0.0013 31.1853 0.0021
# 2 23.1781 200.5246 1.4591 0.0187 18.4402 -0.0191
# 3 18.9977 1.4591 74.5087 0.0346 12.4317 -0.0089
# 4 0.0013 0.0187 0.0346 14.3663 0.0015 14.7894
# 5 31.1853 18.4402 12.4317 0.0015 33.6354 0.0052
# 6 0.0021 -0.0191 -0.0089 14.7894 0.0052 27.1608
#
#
#
# Elastic Compliance Matrix: (Units=1/GPa)
#
#
# Indices 1 2 3 4 5 6 
#
# 1 0.008112 -0.000284 -0.000889 0.000005 -0.007037 -0.000003
# 2 -0.000284 0.005273 0.000434 -0.000028 -0.002788 0.000019
# 3 -0.000889 0.000434 0.014432 -0.000093 -0.004748 0.000057
# 4 0.000005 -0.000028 -0.000093 0.158398 0.000051 -0.086250
# 5 -0.007037 -0.002788 -0.004748 0.000051 0.039538 -0.000038
# 6 -0.000003 0.000019 0.000057 -0.086250 -0.000038 0.083782
#
#
# Mechanical properties :
#
#
# Convention : Reuss Voigt Hill
#
# Bulk Modulus (GPa) = 37.96564 57.28079 47.62322
# Shear Modulus (GPa) = 15.63524 40.67400 28.15462
#
# Velocity S-wave (km/s) = 2.46519 3.97609 3.30806
# Velocity P-wave (km/s) = 4.78116 6.58355 5.75338
#
# Compressibility (1/GPa) = 0.02633960
#
# Stress axis : x y z
#
# Youngs Moduli (GPa) = 123.27872 189.64599 69.29240
#
# Poissons Ratio (x) = 0.05387 0.06158
# Poissons Ratio (y) = 0.03502 -0.03010
# Poissons Ratio (z) = 0.10955 -0.08237
#
# Static dielectric constant tensor:
#      x y z
#    x 2.029450 0.000010 -0.047040 
#    y 0.000010 1.982890 -0.000030 
#    z -0.047040 -0.000030 2.128450 
# 
# From -- ./inp_files/30657.got.cif
#   From: 2010.05.17/outbox.cif.g08.bks.cpg/sg8_16_cif.got.tgz:30657.got - 2010.06.03 19:46:02.
