data_PCOD9133262
_publ_section_title
;
Structure prediction by ZEFSAII (Michael W. Deem and Ramdas Pophale) SiO2 
 PCOD9133262
Probable space group: C M
;
_chemical_formula_sum "Si O2"
_cell_formula_units_Z 24
_cell_length_a 14.979900
_cell_length_b 7.591639
_cell_length_c 11.919170
_cell_angle_alpha 90.000000
_cell_angle_beta 72.932094
_cell_angle_gamma 90.000000
_cell_volume 1295.773498
_symmetry_space_group_name_H-M "C M"
_symmetry_group_IT_number 8
_symmetry_cell_setting 'monoclinic'
loop_
_space_group_symop_operation_xyz
x,y,z
x,-y,z
1/2+x,1/2+y,z
1/2+x,1/2-y,z
loop_
_atom_site_type_symbol
_atom_site_label
_atom_site_fract_x
_atom_site_fract_y
_atom_site_fract_z
Si Si1 0.722410 0.711616 0.744720
Si Si2 0.620242 0.292832 0.553945
Si Si3 0.138925 0.690587 0.011586
Si Si4 0.203792 0.500000 0.377346
Si Si5 0.420018 0.208791 0.583287
Si Si6 0.909284 0.000000 0.399353
Si Si7 0.493568 0.500000 0.120204
Si Si8 0.781536 0.000000 0.100148
O O1 0.715643 0.500000 0.756780
O O2 0.676471 0.761453 0.643471
O O3 0.830345 0.759421 0.689499
O O4 0.672765 0.787193 0.871581
O O5 0.635219 0.500000 0.526981
O O6 0.649175 0.172573 0.438642
O O7 0.512796 0.252776 0.616505
O O8 0.092549 0.500000 0.043786
O O9 0.235434 0.666421 0.049115
O O10 0.062572 0.835973 0.070161
O O11 0.301257 0.500000 0.406643
O O12 0.229207 0.500000 0.238538
O O13 0.426338 0.328274 0.469695
O O14 0.414016 0.000000 0.559438
O O15 0.965185 0.000000 0.262074
O O16 0.393852 0.500000 0.086001
#
# Coordination Sequence:
#
# PCOD9133262 Si02
#       8
#     4   4   4   2   4   2   2   2
#     4  10  22  42  62  93 133 162 216 269 320 390
#     4  11  23  36  61  95 127 167 206 258 329 391
#     4  10  24  44  69  91 129 182 219 273 331 384
#     4  11  22  43  61  89 134 162 211 276 317 383
#     4  11  23  37  60  98 129 166 212 261 326 392
#     4  11  24  39  68  87 132 179 206 266 336 374
#     4  11  24  48  63  99 136 171 231 278 316 392
#     4   9  26  44  64 101 124 174 232 270 319 397
#
# _framework density 18.521757000000001
#
# number of rings (size 3 to 8) (size 9 to 14) (size 15 to 20)
#    0.500    1.000    4.167    0.000    4.667    2.000 
#    1.500    3.333    0.000    0.000    0.000    0.000 
#    0.000    0.000    0.000    0.000    0.000    0.000 
#
# Total GULP energy -66871.737179 kJ/mol
# GULP energy per Si atom -5572.644765 kJ/mol
# Density = 1.847960 g / cm^3
# Si number density = 18.521757 Si / 1000 Ang^3
#
#
#
# Elastic Constant Matrix: (Units=GPa)
#
#
# Indices 1 2 3 4 5 6 
#
# 1 73.2387 22.6885 13.3103 0.0000 -23.2532 0.0000
# 2 22.6885 113.4631 41.9538 0.0000 -10.5948 0.0000
# 3 13.3103 41.9538 75.9267 0.0000 -17.5757 0.0000
# 4 0.0000 0.0000 0.0000 29.8506 0.0000 -9.5517
# 5 -23.2532 -10.5948 -17.5757 0.0000 23.4290 0.0000
# 6 0.0000 0.0000 0.0000 -9.5517 0.0000 38.9948
#
#
#
# Elastic Compliance Matrix: (Units=1/GPa)
#
#
# Indices 1 2 3 4 5 6 
#
# 1 0.021015 -0.003357 0.003204 0.000000 0.021743 0.000000
# 2 -0.003357 0.011618 -0.006518 0.000000 -0.002967 0.000000
# 3 0.003204 -0.006518 0.019682 0.000000 0.014997 0.000000
# 4 0.000000 0.000000 0.000000 0.036349 0.000000 0.008904
# 5 0.021743 -0.002967 0.014997 0.000000 0.074170 0.000000
# 6 0.000000 0.000000 0.000000 0.008904 0.000000 0.027825
#
#
# Mechanical properties :
#
#
# Convention : Reuss Voigt Hill
#
# Bulk Modulus (GPa) = 25.65873 46.50376 36.08124
# Shear Modulus (GPa) = 23.04237 30.76660 26.90449
#
# Velocity S-wave (km/s) = 3.53097 4.08009 3.81542
# Velocity P-wave (km/s) = 5.52331 6.88174 6.23960
#
# Compressibility (1/GPa) = 0.03897309
#
# Stress axis : x y z
#
# Youngs Moduli (GPa) = 47.58554 86.07661 50.80785
#
# Poissons Ratio (x) = 0.28892 -0.16277
# Poissons Ratio (y) = 0.15972 0.33116
# Poissons Ratio (z) = -0.15245 0.56103
#
# Static dielectric constant tensor:
#      x y z
#    x 1.667280 0.000000 0.021030 
#    y 0.000000 1.582640 0.000000 
#    z 0.021030 0.000000 1.607650 
# 
# From -- ./inp_files/21121.got.cif
#   From: 2010.05.17/outbox.cif.g08.bks.cpg/sg8_11_cif.got.tgz:21121.got - 2010.06.03 19:46:02.
