data_PCOD9133436
_publ_section_title
;
Structure prediction by ZEFSAII (Michael W. Deem and Ramdas Pophale) SiO2 
 PCOD9133436
Probable space group: C M
;
_chemical_formula_sum "Si O2"
_cell_formula_units_Z 18
_cell_length_a 6.344592
_cell_length_b 22.013121
_cell_length_c 5.017689
_cell_angle_alpha 90.000000
_cell_angle_beta 51.002667
_cell_angle_gamma 90.000000
_cell_volume 544.638106
_symmetry_space_group_name_H-M "C M"
_symmetry_group_IT_number 8
_symmetry_cell_setting 'monoclinic'
loop_
_space_group_symop_operation_xyz
x,y,z
x,-y,z
1/2+x,1/2+y,z
1/2+x,1/2-y,z
loop_
_atom_site_type_symbol
_atom_site_label
_atom_site_fract_x
_atom_site_fract_y
_atom_site_fract_z
Si Si1 0.615060 0.424696 0.968030
Si Si2 0.251690 0.813371 0.170073
Si Si3 0.801450 0.000000 0.565384
Si Si4 0.035041 0.575292 0.117894
Si Si5 0.353411 0.673385 0.966823
O O1 0.495742 0.500000 0.136713
O O2 0.834288 0.433655 0.556238
O O3 0.243914 0.430362 0.635590
O O4 0.329337 0.402357 0.049117
O O5 0.524439 0.840551 0.100722
O O6 0.300604 0.741507 0.110866
O O7 0.135890 0.839072 0.975604
O O8 0.014300 0.818117 0.567563
O O9 0.267213 0.924051 0.129971
O O10 0.128057 0.500000 0.008423
#
# Coordination Sequence:
#
# PCOD9133436 Si02
#       5
#     4   4   2   4   4
#     4  10  26  44  70 104 140 185 240 285 347 421
#     4  10  26  44  72 109 141 178 241 288 355 431
#     4  12  22  50  68 100 148 186 244 288 332 432
#     4  10  24  44  73  98 142 187 231 292 343 416
#     4  12  24  48  73 105 145 184 230 296 365 412
#
# _framework density 33.049466000000002
#
# number of rings (size 3 to 8) (size 9 to 14) (size 15 to 20)
#    1.333    0.000    2.222    2.000    3.111    8.000 
#    0.000    2.222    0.000    0.000    0.000    0.000 
#    0.000    0.000    0.000    0.000    0.000    0.000 
#
# Total GULP energy -50147.264045 kJ/mol
# GULP energy per Si atom -5571.918227 kJ/mol
# Density = 3.297424 g / cm^3
# Si number density = 33.049466 Si / 1000 Ang^3
#
#
#
# Elastic Constant Matrix: (Units=GPa)
#
#
# Indices 1 2 3 4 5 6 
#
# 1 362.9801 169.0876 116.1923 0.0000 8.1669 0.0000
# 2 169.0876 341.5110 141.3312 0.0000 -3.9944 0.0000
# 3 116.1923 141.3312 355.4628 0.0000 -11.8874 0.0000
# 4 0.0000 0.0000 0.0000 95.9954 0.0000 -0.3446
# 5 8.1669 -3.9944 -11.8874 0.0000 102.6372 0.0000
# 6 0.0000 0.0000 0.0000 -0.3446 0.0000 115.1694
#
#
#
# Elastic Compliance Matrix: (Units=1/GPa)
#
#
# Indices 1 2 3 4 5 6 
#
# 1 0.003694 -0.001590 -0.000589 0.000000 -0.000424 0.000000
# 2 -0.001590 0.004189 -0.001141 0.000000 0.000157 0.000000
# 3 -0.000589 -0.001141 0.003473 0.000000 0.000405 0.000000
# 4 0.000000 0.000000 0.000000 0.010417 0.000000 0.000031
# 5 -0.000424 0.000157 0.000405 0.000000 0.009830 0.000000
# 6 0.000000 0.000000 0.000000 0.000031 0.000000 0.008683
#
#
# Mechanical properties :
#
#
# Convention : Reuss Voigt Hill
#
# Bulk Modulus (GPa) = 212.04445 212.57510 212.30977
# Shear Modulus (GPa) = 103.09677 104.98327 104.04002
#
# Velocity S-wave (km/s) = 5.59128 5.64220 5.61680
# Velocity P-wave (km/s) = 10.29477 10.33953 10.31717
#
# Compressibility (1/GPa) = 0.00471599
#
# Stress axis : x y z
#
# Youngs Moduli (GPa) = 270.72207 238.70681 287.93703
#
# Poissons Ratio (x) = 0.37952 0.16973
# Poissons Ratio (y) = 0.43042 0.32844
# Poissons Ratio (z) = 0.15958 0.27229
#
# Static dielectric constant tensor:
#      x y z
#    x 3.113580 0.000000 -0.192840 
#    y 0.000000 3.487210 0.000000 
#    z -0.192840 0.000000 3.297080 
# 
# From -- ./inp_files/1256.got.cif
#   From: 2010.05.17/outbox.cif.g08.bks.cpg/sg8_1_cif.got.tgz:1256.got - 2010.06.03 19:46:02.
