data_PCOD9133733
_publ_section_title
;
Structure prediction by ZEFSAII (Michael W. Deem and Ramdas Pophale) SiO2 
 PCOD9133733
Probable space group: C C
;
_chemical_formula_sum "Si O2"
_cell_formula_units_Z 28
_cell_length_a 6.511102
_cell_length_b 33.505601
_cell_length_c 5.401163
_cell_angle_alpha 90.000000
_cell_angle_beta 77.204537
_cell_angle_gamma 90.000000
_cell_volume 1149.047929
_symmetry_space_group_name_H-M "C C"
_symmetry_group_IT_number 9
_symmetry_cell_setting 'monoclinic'
loop_
_space_group_symop_operation_xyz
x,y,z
x,-y,1/2+z
1/2+x,1/2+y,z
1/2+x,1/2-y,1/2+z
loop_
_atom_site_type_symbol
_atom_site_label
_atom_site_fract_x
_atom_site_fract_y
_atom_site_fract_z
Si Si1 0.068180 0.193943 0.475740
Si Si2 0.605430 0.609752 0.602168
Si Si3 0.185626 0.977839 0.097081
Si Si4 0.671277 0.217151 0.840863
Si Si5 0.336756 0.601072 0.171309
Si Si6 0.137367 0.323430 0.848295
Si Si7 0.213662 0.489645 0.691357
O O1 0.196313 0.154223 0.516068
O O2 0.162990 0.235343 0.360634
O O3 0.914901 0.204722 0.746096
O O4 0.892886 0.182368 0.317590
O O5 0.733548 0.569159 0.619966
O O6 0.481678 0.600077 0.379106
O O7 0.455910 0.614412 0.885934
O O8 0.239742 0.994569 0.814509
O O9 0.926415 0.983733 0.162349
O O10 0.564138 0.198130 0.622223
O O11 0.576099 0.198644 0.114053
O O12 0.140139 0.629475 0.294609
O O13 0.264537 0.556337 0.141740
O O14 0.102225 0.506753 0.482387
#
# Coordination Sequence:
#
# PCOD9133733 Si02
#       7
#     4   4   4   4   4   4   4
#     4   9  22  32  49  67  90 122 153 193 223 275
#     4  11  17  25  40  58  84 115 148 176 215 261
#     4  10  15  22  33  54  80 114 142 166 205 262
#     4  10  20  32  50  64  90 114 161 184 239 260
#     4  11  15  26  37  57  82 113 150 174 212 261
#     4   9  20  31  46  66  86 121 152 192 219 274
#     4  10  15  20  33  52  78 113 144 163 203 259
#
# _framework density 24.367999000000001
#
# number of rings (size 3 to 8) (size 9 to 14) (size 15 to 20)
#    0.857    1.143    7.143    0.000    2.000    0.000 
#    0.000    0.000    0.000    0.000    0.000    0.000 
#    0.000    0.000    0.000   15.429    0.000    0.000 
#
# Total GULP energy -78050.041414 kJ/mol
# GULP energy per Si atom -5575.002958 kJ/mol
# Density = 2.431254 g / cm^3
# Si number density = 24.367999 Si / 1000 Ang^3
#
#
#
# Elastic Constant Matrix: (Units=GPa)
#
#
# Indices 1 2 3 4 5 6 
#
# 1 20.2576 -2.7754 6.9052 0.0000 4.5297 0.0000
# 2 -2.7754 210.6751 49.7786 0.0000 1.7927 0.0000
# 3 6.9052 49.7786 186.7521 0.0000 13.9231 0.0000
# 4 0.0000 0.0000 0.0000 50.9031 0.0000 -6.6905
# 5 4.5297 1.7927 13.9231 0.0000 23.1304 0.0000
# 6 0.0000 0.0000 0.0000 -6.6905 0.0000 16.2300
#
#
#
# Elastic Compliance Matrix: (Units=1/GPa)
#
#
# Indices 1 2 3 4 5 6 
#
# 1 0.052137 0.001128 -0.001529 0.000000 -0.009377 0.000000
# 2 0.001128 0.005094 -0.001417 0.000000 0.000237 0.000000
# 3 -0.001529 -0.001417 0.006029 0.000000 -0.003220 0.000000
# 4 0.000000 0.000000 0.000000 0.020771 0.000000 0.008562
# 5 -0.009377 0.000237 -0.003220 0.000000 0.046989 0.000000
# 6 0.000000 0.000000 0.000000 0.008562 0.000000 0.065144
#
#
# Mechanical properties :
#
#
# Convention : Reuss Voigt Hill
#
# Bulk Modulus (GPa) = 16.77212 58.38907 37.58059
# Shear Modulus (GPa) = 22.76088 42.30447 32.53268
#
# Velocity S-wave (km/s) = 3.05954 4.17113 3.65781
# Velocity P-wave (km/s) = 4.40214 6.87104 5.77018
#
# Compressibility (1/GPa) = 0.05962276
#
# Stress axis : x y z
#
# Youngs Moduli (GPa) = 19.18037 196.29522 165.86304
#
# Poissons Ratio (x) = -0.22142 0.25366
# Poissons Ratio (y) = -0.02164 0.23508
# Poissons Ratio (z) = 0.02933 0.27821
#
# Static dielectric constant tensor:
#      x y z
#    x 2.066950 0.000000 -0.078010 
#    y 0.000000 1.963090 0.000000 
#    z -0.078010 0.000000 1.946900 
# 
# From -- ./inp_files/2098.got.cif
#   From: 2010.05.17/outbox.cif.g08.bks.cpg/sg9_2_cif.got.tgz:2098.got - 2010.06.03 20:04:27.
