data_PCOD9133856
_publ_section_title
;
Structure prediction by ZEFSAII (Michael W. Deem and Ramdas Pophale) SiO2 
 PCOD9133856
Probable space group: C C
;
_chemical_formula_sum "Si O2"
_cell_formula_units_Z 28
_cell_length_a 13.199931
_cell_length_b 6.863329
_cell_length_c 24.534618
_cell_angle_alpha 90.000000
_cell_angle_beta 26.196807
_cell_angle_gamma 90.000000
_cell_volume 981.235054
_symmetry_space_group_name_H-M "C C"
_symmetry_group_IT_number 9
_symmetry_cell_setting 'monoclinic'
loop_
_space_group_symop_operation_xyz
x,y,z
x,-y,1/2+z
1/2+x,1/2+y,z
1/2+x,1/2-y,1/2+z
loop_
_atom_site_type_symbol
_atom_site_label
_atom_site_fract_x
_atom_site_fract_y
_atom_site_fract_z
Si Si1 0.956750 0.721158 0.760150
Si Si2 0.050199 0.920260 0.137728
Si Si3 0.363148 0.428971 0.918755
Si Si4 0.377115 0.398062 0.106725
Si Si5 0.643924 0.732093 0.383222
Si Si6 0.334403 0.060357 0.655052
Si Si7 0.496086 0.177849 0.463786
O O1 0.714581 0.686312 0.846518
O O2 0.868784 0.795681 0.861574
O O3 0.150173 0.563748 0.680419
O O4 0.062932 0.898902 0.673341
O O5 0.935861 0.990189 0.136416
O O6 0.894006 0.749343 0.237614
O O7 0.301955 0.829248 0.011699
O O8 0.468661 0.329802 0.921039
O O9 0.569151 0.586394 0.803710
O O10 0.086928 0.440931 0.062343
O O11 0.328868 0.170330 0.143961
O O12 0.595634 0.380430 0.962174
O O13 0.597776 0.960489 0.417062
O O14 0.374591 0.194586 0.581669
#
# Coordination Sequence:
#
# PCOD9133856 Si02
#       7
#     4   4   4   4   4   4   4
#     4   9  17  33  53  87 109 151 197 241 298 356
#     4  11  17  33  61  86 117 151 199 247 291 366
#     4  10  17  33  57  83 112 158 197 251 298 358
#     4  10  19  33  57  88 113 152 197 238 304 357
#     4  10  19  32  57  83 115 155 198 243 306 355
#     4   9  17  32  54  83 112 144 201 239 293 357
#     4   9  18  30  57  82 112 147 197 247 288 359
#
# _framework density 28.535468999999999
#
# number of rings (size 3 to 8) (size 9 to 14) (size 15 to 20)
#    0.000    2.286    7.143    0.857    0.000    0.000 
#    0.000    1.429    6.286    3.429    0.000    0.000 
#    0.000    0.000    0.000    0.000    0.000    0.000 
#
# Total GULP energy -78198.582485 kJ/mol
# GULP energy per Si atom -5585.613035 kJ/mol
# Density = 2.847052 g / cm^3
# Si number density = 28.535469 Si / 1000 Ang^3
#
#
#
# Elastic Constant Matrix: (Units=GPa)
#
#
# Indices 1 2 3 4 5 6 
#
# 1 157.6162 39.4290 27.5376 -0.0004 -12.2621 0.0024
# 2 39.4290 57.0027 51.4705 0.0005 -10.6311 0.0049
# 3 27.5376 51.4705 171.1904 -0.0081 -27.8489 -0.0017
# 4 -0.0004 0.0005 -0.0081 32.8375 -0.0011 -3.3993
# 5 -12.2621 -10.6311 -27.8489 -0.0011 65.4798 0.0005
# 6 0.0024 0.0049 -0.0017 -3.3993 0.0005 49.6008
#
#
#
# Elastic Compliance Matrix: (Units=1/GPa)
#
#
# Indices 1 2 3 4 5 6 
#
# 1 0.007739 -0.005763 0.000614 0.000000 0.000775 0.000000
# 2 -0.005763 0.028420 -0.007566 -0.000003 0.000317 -0.000003
# 3 0.000614 -0.007566 0.008419 0.000002 0.002467 0.000001
# 4 0.000000 -0.000003 0.000002 0.030671 0.000001 0.002102
# 5 0.000775 0.000317 0.002467 0.000001 0.016518 0.000000
# 6 0.000000 -0.000003 0.000001 0.002102 0.000000 0.020305
#
#
# Mechanical properties :
#
#
# Convention : Reuss Voigt Hill
#
# Bulk Modulus (GPa) = 52.22594 69.18705 60.70649
# Shear Modulus (GPa) = 34.74983 47.40843 41.07913
#
# Velocity S-wave (km/s) = 3.49345 4.08043 3.79830
# Velocity P-wave (km/s) = 5.88338 6.81898 6.36838
#
# Compressibility (1/GPa) = 0.01914757
#
# Stress axis : x y z
#
# Youngs Moduli (GPa) = 129.21207 35.18590 118.77926
#
# Poissons Ratio (x) = 0.20278 -0.07291
# Poissons Ratio (y) = 0.74465 0.89873
# Poissons Ratio (z) = -0.07931 0.26623
#
# Static dielectric constant tensor:
#      x y z
#    x 2.282290 0.000000 -0.079700 
#    y 0.000000 2.389100 0.000000 
#    z -0.079700 0.000000 2.320040 
# 
# From -- ./inp_files/14440.got.cif
#   From: 2010.05.17/outbox.cif.g08.bks.cpg/sg9_8_cif.got.tgz:14440.got - 2010.06.03 20:04:27.
