data_PCOD9133684
_publ_section_title
;
Structure prediction by ZEFSAII (Michael W. Deem and Ramdas Pophale) SiO2 
 PCOD9133684
Probable space group: C M
;
_chemical_formula_sum "Si O2"
_cell_formula_units_Z 12
_cell_length_a 15.000000
_cell_length_b 9.000000
_cell_length_c 18.000000
_cell_angle_alpha 90.000000
_cell_angle_beta 30.000000
_cell_angle_gamma 90.000000
_cell_volume 1215.000000
_symmetry_space_group_name_H-M "C M"
_symmetry_group_IT_number 8
_symmetry_cell_setting 'monoclinic'
loop_
_space_group_symop_operation_xyz
x,y,z
x,-y,z
1/2+x,1/2+y,z
1/2+x,1/2-y,z
loop_
_atom_site_type_symbol
_atom_site_label
_atom_site_fract_x
_atom_site_fract_y
_atom_site_fract_z
Si Si1 0.450780 0.324084 0.426880
Si Si2 0.044894 0.323120 0.506552
Si Si3 0.033268 0.675663 0.761480
Si Si4 0.434343 0.678599 0.273913
Si Si5 0.176378 0.676280 0.975494
Si Si6 0.171201 0.677965 0.817020
O O1 0.482795 0.500000 0.417428
O O2 0.546055 0.227478 0.420145
O O3 0.235892 0.303176 0.587560
O O4 0.502864 0.283986 0.306258
O O5 0.030872 0.500000 0.524071
O O6 0.228776 0.273472 0.411623
O O7 0.865107 0.250295 0.667388
O O8 0.992595 0.500000 0.783731
O O9 0.044895 0.719433 0.839890
O O10 0.879649 0.767292 0.833203
O O11 0.435306 0.500000 0.267093
O O12 0.559997 0.746912 0.121815
O O13 0.172532 0.500000 0.987215
O O14 0.100717 0.714573 0.948883
O O15 0.195636 0.500000 0.793822
#
# Coordination Sequence:
#
# PCOD9133684 Si02
#       6
#     4   4   4   4   4   4
#     4   9  19  37  59  80 105 141 179 214 263 324
#     4  10  20  35  58  85 107 133 177 227 266 306
#     4   9  18  36  59  79 103 138 178 218 265 322
#     4  10  22  38  54  76 110 148 178 210 264 326
#     4  11  23  36  53  80 110 141 180 223 263 307
#     4   9  20  38  57  78 107 143 178 214 265 323
#
# _framework density 9.8765429999999999
#
# number of rings (size 3 to 8) (size 9 to 14) (size 15 to 20)
#    0.000    2.333    0.000    3.000    0.000    8.667 
#    0.000    5.000    0.000    0.000    0.000    0.000 
#    0.000    0.000    0.000    0.000    0.000    0.000 
#
# Total GULP energy -66978.641505 kJ/mol
# GULP energy per Si atom -5581.553459 kJ/mol
# Density = 0.985406 g / cm^3
# Si number density = 9.876543 Si / 1000 Ang^3
#
#
#
# Elastic Constant Matrix: (Units=GPa)
#
#
# Indices 1 2 3 4 5 6 
#
# 1 76.9231 15.7189 8.6069 0.0000 27.8020 0.0000
# 2 15.7189 -4.9074 0.6959 -0.0001 10.5597 0.0000
# 3 8.6069 0.6959 0.3613 -0.0002 23.9615 0.0000
# 4 0.0000 -0.0001 -0.0002 30.2449 0.0001 -0.6319
# 5 27.8020 10.5597 23.9615 0.0001 32.9357 0.0000
# 6 0.0000 0.0000 0.0000 -0.6319 0.0000 23.1641
#
#
#
# Elastic Compliance Matrix: (Units=1/GPa)
#
#
# Indices 1 2 3 4 5 6 
#
# 1 0.011633 0.024751 -0.018048 0.000000 -0.004625 0.000000
# 2 0.024751 -0.131379 0.036921 0.000000 -0.005632 0.000000
# 3 -0.018048 0.036921 -0.061404 0.000000 0.048070 0.000000
# 4 0.000000 0.000000 0.000000 0.033082 0.000000 0.000903
# 5 -0.004625 -0.005632 0.048070 0.000000 0.001100 0.000000
# 6 0.000000 0.000000 0.000000 0.000903 0.000000 0.043195
#
#
# Mechanical properties :
#
#
# Convention : Reuss Voigt Hill
#
# Bulk Modulus (GPa) = -10.64953 13.60226 1.47637
# Shear Modulus (GPa) = -22.49012 20.42598 -1.03207
#
# Velocity S-wave (km/s) = -3.37792 3.21918 -0.72362
# Velocity P-wave (km/s) = 4.54057 4.55176 0.22555
#
# Compressibility (1/GPa) = -0.09390089
#
# Stress axis : x y z
#
# Youngs Moduli (GPa) = 85.96002 -7.61159 -16.28570
#
# Poissons Ratio (x) = 0.18839 -0.29392
# Poissons Ratio (y) = -2.12760 0.60128
# Poissons Ratio (z) = 1.55140 0.28103
#
# Static dielectric constant tensor:
#      x y z
#    x 1.730820 0.000000 0.046600 
#    y 0.000000 1.653940 0.000000 
#    z 0.046600 0.000000 1.683740 
# 
# From -- ./inp_files/12063.got.cif
#   From: 2010.05.17/outbox.ucp.g08.bks.cvg/sg8_7_cif.got.tgz:12063.got - 2010.06.11 13:00:03.
