data_PCOD9133921
_publ_section_title
;
Structure prediction by ZEFSAII (Michael W. Deem and Ramdas Pophale) SiO2 
 PCOD9133921
Probable space group: C C
;
_chemical_formula_sum "Si O2"
_cell_formula_units_Z 24
_cell_length_a 21.866055
_cell_length_b 9.243661
_cell_length_c 5.521978
_cell_angle_alpha 90.000000
_cell_angle_beta 74.691356
_cell_angle_gamma 90.000000
_cell_volume 1076.512988
_symmetry_space_group_name_H-M "C C"
_symmetry_group_IT_number 9
_symmetry_cell_setting 'monoclinic'
loop_
_space_group_symop_operation_xyz
x,y,z
x,-y,1/2+z
1/2+x,1/2+y,z
1/2+x,1/2-y,1/2+z
loop_
_atom_site_type_symbol
_atom_site_label
_atom_site_fract_x
_atom_site_fract_y
_atom_site_fract_z
Si Si1 0.407490 0.092609 0.994110
Si Si2 0.675514 0.495404 0.857230
Si Si3 0.735386 0.810366 0.751968
Si Si4 0.545549 0.176594 0.800209
Si Si5 0.594633 0.848197 0.750082
Si Si6 0.778122 0.239601 0.708457
O O1 0.471148 0.188540 0.925900
O O2 0.408694 0.003138 0.739686
O O3 0.343360 0.183755 0.071999
O O4 0.638812 0.500732 0.645554
O O5 0.720306 0.638222 0.803064
O O6 0.722604 0.359240 0.800102
O O7 0.667734 0.873928 0.741507
O O8 0.781698 0.826398 0.474544
O O9 0.757630 0.854985 0.996925
O O10 0.565951 0.232014 0.514617
O O11 0.560568 0.003694 0.764354
O O12 0.584714 0.223167 0.997206
#
# Coordination Sequence:
#
# PCOD9133921 Si02
#       6
#     4   4   4   4   4   4
#     4  12  18  30  48  68  98 129 165 183 226 306
#     4   8  14  25  36  57  85 113 147 163 227 272
#     4  10  18  29  43  63  91 133 149 198 229 271
#     4  10  19  32  45  69  87 135 160 193 232 271
#     4  10  18  32  45  62  95 122 173 190 224 283
#     4  10  19  28  43  69  94 128 150 183 246 285
#
# _framework density 22.294201000000001
#
# number of rings (size 3 to 8) (size 9 to 14) (size 15 to 20)
#    0.000    2.000    3.333    5.000    0.000    0.000 
#    0.000    0.000    0.000    0.000    0.000    0.000 
#    0.000    0.000  340.000    0.000    0.000    0.000 
#
# Total GULP energy -66948.728223 kJ/mol
# GULP energy per Si atom -5579.060685 kJ/mol
# Density = 2.224346 g / cm^3
# Si number density = 22.294201 Si / 1000 Ang^3
#
#
#
# Elastic Constant Matrix: (Units=GPa)
#
#
# Indices 1 2 3 4 5 6 
#
# 1 88.6423 -2.3846 35.8374 0.0000 1.4579 0.0000
# 2 -2.3846 49.8573 2.9085 0.0000 6.6584 0.0000
# 3 35.8374 2.9085 205.8542 0.0000 40.0872 0.0000
# 4 0.0000 0.0000 0.0000 -2.0758 0.0000 -0.2561
# 5 1.4579 6.6584 40.0872 0.0000 53.4672 0.0000
# 6 0.0000 0.0000 0.0000 -0.2561 0.0000 24.1654
#
#
#
# Elastic Compliance Matrix: (Units=1/GPa)
#
#
# Indices 1 2 3 4 5 6 
#
# 1 0.012249 0.000539 -0.002414 0.000000 0.001409 0.000000
# 2 0.000539 0.020430 0.000136 0.000000 -0.002661 0.000000
# 3 -0.002414 0.000136 0.006167 0.000000 -0.004575 0.000000
# 4 0.000000 0.000000 0.000000 -0.481110 0.000000 -0.005099
# 5 0.001409 -0.002661 -0.004575 0.000000 0.022426 0.000000
# 6 0.000000 0.000000 0.000000 -0.005099 0.000000 0.041327
#
#
# Mechanical properties :
#
#
# Convention : Reuss Voigt Hill
#
# Bulk Modulus (GPa) = 28.27587 46.34181 37.30884
# Shear Modulus (GPa) = -13.76494 35.64419 10.93963
#
# Velocity S-wave (km/s) = -2.48749 4.00285 2.21756
# Velocity P-wave (km/s) = 2.11197 6.49580 4.82990
#
# Compressibility (1/GPa) = 0.03536585
#
# Stress axis : x y z
#
# Youngs Moduli (GPa) = 81.64106 48.94667 162.15051
#
# Poissons Ratio (x) = -0.02636 0.39150
# Poissons Ratio (y) = -0.04396 -0.02201
# Poissons Ratio (z) = 0.19712 -0.00664
#
# Static dielectric constant tensor:
#      x y z
#    x 1.803880 0.000000 0.083670 
#    y 0.000000 1.945110 0.000000 
#    z 0.083670 0.000000 1.926230 
# 
# From -- ./inp_files/2343.got.cif
#   From: 2010.05.17/outbox.cif.g08.bks.cpg/sg9_2_cif.got.tgz:2343.got - 2010.06.03 20:04:27.
