data_PCOD9133935
_publ_section_title
;
Structure prediction by ZEFSAII (Michael W. Deem and Ramdas Pophale) SiO2 
 PCOD9133935
Probable space group: C C
;
_chemical_formula_sum "Si O2"
_cell_formula_units_Z 32
_cell_length_a 13.071383
_cell_length_b 7.735304
_cell_length_c 13.507202
_cell_angle_alpha 90.000000
_cell_angle_beta 72.926990
_cell_angle_gamma 90.000000
_cell_volume 1305.542631
_symmetry_space_group_name_H-M "C C"
_symmetry_group_IT_number 9
_symmetry_cell_setting 'monoclinic'
loop_
_space_group_symop_operation_xyz
x,y,z
x,-y,1/2+z
1/2+x,1/2+y,z
1/2+x,1/2-y,1/2+z
loop_
_atom_site_type_symbol
_atom_site_label
_atom_site_fract_x
_atom_site_fract_y
_atom_site_fract_z
Si Si1 0.148990 0.093470 0.453660
Si Si2 0.585633 0.728627 0.677120
Si Si3 0.956604 0.099909 0.891773
Si Si4 0.415223 0.268330 0.609866
Si Si5 0.247318 0.599612 0.397133
Si Si6 0.223376 0.535781 0.708314
Si Si7 0.650879 0.291739 0.589109
Si Si8 0.764444 0.447023 0.258881
O O1 0.196551 0.950990 0.515869
O O2 0.241326 0.099817 0.343071
O O3 0.053852 0.007850 0.414949
O O4 0.094995 0.213057 0.554750
O O5 0.485030 0.681835 0.776549
O O6 0.627342 0.918039 0.693635
O O7 0.671573 0.595720 0.704776
O O8 0.857496 0.971590 0.907780
O O9 0.930907 0.236206 0.986882
O O10 0.330453 0.426315 0.651552
O O11 0.524438 0.319299 0.635172
O O12 0.372314 0.088636 0.667068
O O13 0.205962 0.462842 0.329966
O O14 0.164769 0.636396 0.506370
O O15 0.261596 0.773877 0.329551
O O16 0.216319 0.723262 0.662746
#
# Coordination Sequence:
#
# PCOD9133935 Si02
#       8
#     4   4   4   4   4   4   4   4
#     4   9  19  35  57  87 116 157 201 256 310 370
#     4   9  19  34  57  82 121 153 199 256 312 373
#     4  10  18  30  59  90 110 156 208 252 311 374
#     4   9  17  33  59  79 115 155 199 251 306 370
#     4   9  18  32  55  83 113 148 209 247 297 379
#     4  10  20  37  57  81 117 163 195 251 316 374
#     4  10  19  34  58  84 112 155 207 250 308 371
#     4   8  18  35  54  80 116 163 196 243 320 371
#
# _framework density 24.510881000000001
#
# number of rings (size 3 to 8) (size 9 to 14) (size 15 to 20)
#    0.000    3.000    1.250    2.250    7.000    0.000 
#    0.000    7.500   16.500    0.000    0.000    0.000 
#    0.000    0.000    0.000    0.000    0.000    0.000 
#
# Total GULP energy -89117.811982 kJ/mol
# GULP energy per Si atom -5569.863249 kJ/mol
# Density = 2.445509 g / cm^3
# Si number density = 24.510881 Si / 1000 Ang^3
#
#
#
# Elastic Constant Matrix: (Units=GPa)
#
#
# Indices 1 2 3 4 5 6 
#
# 1 60.5855 0.1978 26.1551 0.0000 -5.4946 0.0000
# 2 0.1978 54.8767 19.9189 0.0000 2.0535 0.0000
# 3 26.1551 19.9189 148.1037 0.0000 12.3641 0.0000
# 4 0.0000 0.0000 0.0000 25.0458 0.0000 17.3070
# 5 -5.4946 2.0535 12.3641 0.0000 27.9909 0.0000
# 6 0.0000 0.0000 0.0000 17.3070 0.0000 14.4474
#
#
#
# Elastic Compliance Matrix: (Units=1/GPa)
#
#
# Indices 1 2 3 4 5 6 
#
# 1 0.018663 0.001147 -0.003893 0.000000 0.005299 0.000000
# 2 0.001147 0.019231 -0.002793 0.000000 0.000048 0.000000
# 3 -0.003893 -0.002793 0.008163 0.000000 -0.004165 0.000000
# 4 0.000000 0.000000 0.000000 0.231849 0.000000 -0.277739
# 5 0.005299 0.000048 -0.004165 0.000000 0.038602 0.000000
# 6 0.000000 0.000000 0.000000 -0.277739 0.000000 0.401930
#
#
# Mechanical properties :
#
#
# Convention : Reuss Voigt Hill
#
# Bulk Modulus (GPa) = 28.58799 39.56774 34.07786
# Shear Modulus (GPa) = 6.74606 27.98307 17.36457
#
# Velocity S-wave (km/s) = 1.66080 3.38251 2.66455
# Velocity P-wave (km/s) = 3.92000 5.60653 4.83733
#
# Compressibility (1/GPa) = 0.03497973
#
# Stress axis : x y z
#
# Youngs Moduli (GPa) = 53.58250 52.00065 122.50741
#
# Poissons Ratio (x) = -0.05966 0.47686
# Poissons Ratio (y) = -0.06148 0.34216
# Poissons Ratio (z) = 0.20857 0.14524
#
# Static dielectric constant tensor:
#      x y z
#    x 1.983870 0.000000 -0.039100 
#    y 0.000000 2.041690 0.000000 
#    z -0.039100 0.000000 2.047120 
# 
# From -- ./inp_files/16193.got.cif
#   From: 2010.05.17/outbox.cif.g08.bks.cpg/sg9_9_cif.got.tgz:16193.got - 2010.06.03 20:04:27.
