data_PCOD9133483
_publ_section_title
;
Structure prediction by ZEFSAII (Michael W. Deem and Ramdas Pophale) SiO2 
 PCOD9133483
Probable space group: C M
;
_chemical_formula_sum "Si O2"
_cell_formula_units_Z 32
_cell_length_a 17.587909
_cell_length_b 13.619562
_cell_length_c 11.470369
_cell_angle_alpha 90.000000
_cell_angle_beta 32.825155
_cell_angle_gamma 90.000000
_cell_volume 1489.415537
_symmetry_space_group_name_H-M "C M"
_symmetry_group_IT_number 8
_symmetry_cell_setting 'monoclinic'
loop_
_space_group_symop_operation_xyz
x,y,z
x,-y,z
1/2+x,1/2+y,z
1/2+x,1/2-y,z
loop_
_atom_site_type_symbol
_atom_site_label
_atom_site_fract_x
_atom_site_fract_y
_atom_site_fract_z
Si Si1 0.220000 0.108231 0.276460
Si Si2 0.380880 0.611815 0.933109
Si Si3 0.863989 0.227725 0.325702
Si Si4 0.952755 0.232168 0.615954
Si Si5 0.007173 0.385844 0.986564
Si Si6 0.180034 0.108095 0.611641
Si Si7 0.331646 0.387623 0.568005
Si Si8 0.653955 0.112692 0.421488
O O1 0.200159 0.105611 0.443886
O O2 0.002808 0.340781 0.586713
O O3 0.103678 0.183392 0.387245
O O4 0.190173 0.000000 0.269227
O O5 0.391305 0.683877 0.812089
O O6 0.384643 0.869793 0.048539
O O7 0.516586 0.629943 0.840450
O O8 0.242964 0.614049 0.187243
O O9 0.781030 0.304965 0.515630
O O10 0.918061 0.143789 0.341953
O O11 0.749048 0.179092 0.386439
O O12 0.975216 0.297810 0.117905
O O13 0.856357 0.191593 0.637437
O O14 0.900366 0.000000 0.863282
O O15 0.982593 0.500000 0.061298
O O16 0.167443 0.384759 0.743406
O O17 0.213515 0.000000 0.614228
O O18 0.361220 0.500000 0.567601
O O19 0.646143 0.000000 0.473328
#
# Coordination Sequence:
#
# PCOD9133483 Si02
#       8
#     4   4   4   4   4   4   4   4
#     4   8  13  28  56  85 108 137 193 253 279 320
#     4   9  18  34  60  89 112 144 201 255 288 334
#     4  11  20  36  60  89 128 159 190 239 310 368
#     4  11  20  39  62  85 116 161 205 249 293 350
#     4   9  19  37  61  89 116 153 207 249 285 344
#     4   8  14  28  54  87 111 141 196 247 279 325
#     4  11  25  39  59  91 127 162 192 243 310 365
#     4  11  23  37  60  91 122 157 200 251 302 356
#
# _framework density 21.484936999999999
#
# number of rings (size 3 to 8) (size 9 to 14) (size 15 to 20)
#    0.000    2.250    3.750    3.375    1.750    1.000 
#    0.000    2.500    0.000    5.250    0.000    0.000 
#    0.000    0.000    0.000    0.000    0.000    0.000 
#
# Total GULP energy -89132.981480 kJ/mol
# GULP energy per Si atom -5570.811342 kJ/mol
# Density = 2.143604 g / cm^3
# Si number density = 21.484937 Si / 1000 Ang^3
#
#
#
# Elastic Constant Matrix: (Units=GPa)
#
#
# Indices 1 2 3 4 5 6 
#
# 1 37.0790 14.8373 15.8624 0.0000 0.8842 0.0000
# 2 14.8373 114.2481 31.2891 0.0000 8.5053 0.0000
# 3 15.8624 31.2891 43.3683 0.0000 -0.2780 0.0000
# 4 0.0000 0.0000 0.0000 33.7014 0.0000 -5.4937
# 5 0.8842 8.5053 -0.2780 0.0000 19.7815 0.0000
# 6 0.0000 0.0000 0.0000 -5.4937 0.0000 18.7381
#
#
#
# Elastic Compliance Matrix: (Units=1/GPa)
#
#
# Indices 1 2 3 4 5 6 
#
# 1 0.032125 -0.001082 -0.010977 0.000000 -0.001125 0.000000
# 2 -0.001082 0.011421 -0.007876 0.000000 -0.004973 0.000000
# 3 -0.010977 -0.007876 0.032783 0.000000 0.004338 0.000000
# 4 0.000000 0.000000 0.000000 0.031162 0.000000 0.009136
# 5 -0.001125 -0.004973 0.004338 0.000000 0.052802 0.000000
# 6 0.000000 0.000000 0.000000 0.009136 0.000000 0.056046
#
#
# Mechanical properties :
#
#
# Convention : Reuss Voigt Hill
#
# Bulk Modulus (GPa) = 27.42745 35.40811 31.41778
# Shear Modulus (GPa) = 18.63171 23.29129 20.96150
#
# Velocity S-wave (km/s) = 2.94802 3.29610 3.12691
# Velocity P-wave (km/s) = 4.93775 5.56794 5.26229
#
# Compressibility (1/GPa) = 0.03645983
#
# Stress axis : x y z
#
# Youngs Moduli (GPa) = 31.12838 87.56160 30.50361
#
# Poissons Ratio (x) = 0.09476 0.33482
# Poissons Ratio (y) = 0.03369 0.24024
# Poissons Ratio (z) = 0.34168 0.68961
#
# Static dielectric constant tensor:
#      x y z
#    x 1.800010 0.000000 -0.026550 
#    y 0.000000 1.882360 0.000000 
#    z -0.026550 0.000000 1.811890 
# 
# From -- ./inp_files/21875.got.cif
#   From: 2010.05.17/outbox.cif.g08.bks.cpg/sg8_11_cif.got.tgz:21875.got - 2010.06.03 19:46:02.
