data_PCOD9133694
_publ_section_title
;
Structure prediction by ZEFSAII (Michael W. Deem and Ramdas Pophale) SiO2 
 PCOD9133694
Probable space group: C M
;
_chemical_formula_sum "Si O2"
_cell_formula_units_Z 16
_cell_length_a 15.000000
_cell_length_b 9.000000
_cell_length_c 12.000000
_cell_angle_alpha 90.000000
_cell_angle_beta 90.000000
_cell_angle_gamma 90.000000
_cell_volume 1620.000000
_symmetry_space_group_name_H-M "C M"
_symmetry_group_IT_number 8
_symmetry_cell_setting 'monoclinic'
loop_
_space_group_symop_operation_xyz
x,y,z
x,-y,z
1/2+x,1/2+y,z
1/2+x,1/2-y,z
loop_
_atom_site_type_symbol
_atom_site_label
_atom_site_fract_x
_atom_site_fract_y
_atom_site_fract_z
Si Si1 0.167420 0.173898 0.460040
Si Si2 0.966378 0.673426 0.918673
Si Si3 0.215307 0.325124 0.687935
Si Si4 0.307263 0.675627 0.049473
Si Si5 0.401567 0.828102 0.670041
Si Si6 0.821851 0.326626 0.283710
Si Si7 0.495324 0.171250 0.434622
Si Si8 0.650547 0.676916 0.914965
O O1 0.174402 0.269730 0.572101
O O2 0.245731 0.209531 0.373809
O O3 0.073346 0.215843 0.407165
O O4 0.174036 0.000000 0.487884
O O5 0.956870 0.500000 0.949542
O O6 0.955593 0.682602 0.784685
O O7 0.060914 0.740180 0.949096
O O8 0.891835 0.770660 0.978434
O O9 0.200995 0.500000 0.704866
O O10 0.319368 0.283363 0.678583
O O11 0.177207 0.234248 0.792071
O O12 0.292855 0.500000 0.036587
O O13 0.319043 0.722008 0.177319
O O14 0.226511 0.769028 0.998250
O O15 0.457976 0.800306 0.559131
O O16 0.368054 0.000000 0.661652
O O17 0.809782 0.500000 0.249673
O O18 0.914587 0.315462 0.348937
O O19 0.527532 0.000000 0.431912
O O20 0.641069 0.500000 0.914783
#
# Coordination Sequence:
#
# PCOD9133694 Si02
#       8
#     4   4   4   4   4   4   4   4
#     4  11  23  41  65  94 128 166 211 260 316 376
#     4  11  23  41  68  98 131 167 208 260 320 384
#     4  12  23  37  63  96 131 167 209 257 316 385
#     4  12  26  44  66  94 128 168 217 267 319 380
#     4  10  20  38  64  93 128 168 202 249 317 384
#     4  10  23  44  66  88 124 171 214 264 320 372
#     4  10  21  40  65  94 128 164 207 256 314 379
#     4  12  25  43  67  95 130 169 214 265 318 378
#
# _framework density 9.8765429999999999
#
# number of rings (size 3 to 8) (size 9 to 14) (size 15 to 20)
#    0.000    1.000    2.500    4.875    0.000    4.500 
#    0.000    2.500    0.000    0.000    0.000    0.000 
#    0.000    0.000    0.000    0.000    0.000    0.000 
#
# Total GULP energy -89484.087236 kJ/mol
# GULP energy per Si atom -5592.755452 kJ/mol
# Density = 0.985406 g / cm^3
# Si number density = 9.876543 Si / 1000 Ang^3
#
#
#
# Elastic Constant Matrix: (Units=GPa)
#
#
# Indices 1 2 3 4 5 6 
#
# 1 51.1977 -30.7890 -4.7576 0.0000 6.7491 0.0000
# 2 -30.7890 -29.7433 9.9158 0.0000 -73.8926 0.0000
# 3 -4.7576 9.9158 44.6648 0.0000 32.9062 0.0000
# 4 0.0000 0.0000 0.0000 32.3698 0.0000 4.8601
# 5 6.7491 -73.8926 32.9062 0.0000 -137.6618 0.0000
# 6 0.0000 0.0000 0.0000 4.8601 0.0000 31.3129
#
#
#
# Elastic Compliance Matrix: (Units=1/GPa)
#
#
# Indices 1 2 3 4 5 6 
#
# 1 -0.011464 -0.045550 -0.007404 0.000000 0.022118 0.000000
# 2 -0.045550 -0.067054 -0.012616 0.000000 0.030744 0.000000
# 3 -0.007404 -0.012616 0.016733 0.000000 0.010408 0.000000
# 4 0.000000 0.000000 0.000000 0.031630 0.000000 -0.004909
# 5 0.022118 0.030744 0.010408 0.000000 -0.020194 0.000000
# 6 0.000000 0.000000 0.000000 -0.004909 0.000000 0.032698
#
#
# Mechanical properties :
#
#
# Convention : Reuss Voigt Hill
#
# Bulk Modulus (GPa) = -5.18342 1.65084 -1.76629
# Shear Modulus (GPa) = 101.66904 -8.67917 46.49494
#
# Velocity S-wave (km/s) = 7.18204 -2.09842 4.85687
# Velocity P-wave (km/s) = 8.13301 2.24357 5.52776
#
# Compressibility (1/GPa) = -0.19292299
#
# Stress axis : x y z
#
# Youngs Moduli (GPa) = -87.23045 -14.91338 59.76277
#
# Poissons Ratio (x) = -0.67930 0.44248
# Poissons Ratio (y) = -3.97331 0.75394
# Poissons Ratio (z) = -0.64584 -0.18814
#
# Static dielectric constant tensor:
#      x y z
#    x 1.790180 0.000000 0.029890 
#    y 0.000000 1.660020 0.000000 
#    z 0.029890 0.000000 1.678340 
# 
# From -- ./inp_files/21547.got.cif
#   From: 2010.05.17/outbox.ucp.g08.bks.cvg/sg8_11_cif.got.tgz:21547.got - 2010.06.11 13:00:03.
