data_PCOD9133545
_publ_section_title
;
Structure prediction by ZEFSAII (Michael W. Deem and Ramdas Pophale) SiO2 
 PCOD9133545
Probable space group: C M
;
_chemical_formula_sum "Si O2"
_cell_formula_units_Z 32
_cell_length_a 11.384750
_cell_length_b 22.986225
_cell_length_c 5.771134
_cell_angle_alpha 90.000000
_cell_angle_beta 103.576068
_cell_angle_gamma 90.000000
_cell_volume 1468.064020
_symmetry_space_group_name_H-M "C M"
_symmetry_group_IT_number 8
_symmetry_cell_setting 'monoclinic'
loop_
_space_group_symop_operation_xyz
x,y,z
x,-y,z
1/2+x,1/2+y,z
1/2+x,1/2-y,z
loop_
_atom_site_type_symbol
_atom_site_label
_atom_site_fract_x
_atom_site_fract_y
_atom_site_fract_z
Si Si1 0.803430 0.642389 0.076870
Si Si2 0.916134 0.843654 0.844595
Si Si3 0.987691 0.064301 0.214417
Si Si4 0.027073 0.766675 0.539465
Si Si5 0.692950 0.374830 0.528263
Si Si6 0.076828 0.655459 0.324154
Si Si7 0.777061 0.224430 0.133289
Si Si8 0.778887 0.933484 0.457444
O O1 0.765346 0.618341 0.316951
O O2 0.758769 0.709128 0.059367
O O3 0.948870 0.644182 0.146363
O O4 0.758290 0.617318 0.807756
O O5 0.990983 0.791222 0.771231
O O6 0.859429 0.889262 0.641813
O O7 0.000269 0.883182 0.043081
O O8 0.806081 0.814453 0.926145
O O9 0.850440 0.066168 0.245888
O O10 0.082278 0.079634 0.459408
O O11 0.010998 0.000000 0.131743
O O12 0.903584 0.777498 0.335799
O O13 0.133099 0.809820 0.502596
O O14 0.052729 0.698414 0.531106
O O15 0.167576 0.695478 0.217317
O O16 0.147791 0.595546 0.394146
O O17 0.778910 0.000000 0.541912
#
# Coordination Sequence:
#
# PCOD9133545 Si02
#       8
#     4   4   4   4   4   4   4   4
#     4  11  29  40  69 102 146 193 237 284 372 452
#     4  12  20  40  69 110 137 179 238 310 368 433
#     4  11  24  44  73 105 140 185 247 311 372 428
#     4  11  23  38  67 100 143 177 238 304 378 426
#     4  12  23  48  63 104 145 186 238 302 357 444
#     4  11  23  48  62 103 145 195 235 301 365 452
#     4  11  23  42  64 103 139 183 227 299 370 432
#     4  11  24  44  71 103 140 188 246 305 364 431
#
# _framework density 21.797415999999998
#
# number of rings (size 3 to 8) (size 9 to 14) (size 15 to 20)
#    0.000    0.750    6.250    1.125    5.250    1.000 
#    0.000    1.250    0.000    0.000    0.000    0.000 
#    0.000    0.000    0.000    0.000    0.000    0.000 
#
# Total GULP energy -89378.186290 kJ/mol
# GULP energy per Si atom -5586.136643 kJ/mol
# Density = 2.174780 g / cm^3
# Si number density = 21.797416 Si / 1000 Ang^3
#
#
#
# Elastic Constant Matrix: (Units=GPa)
#
#
# Indices 1 2 3 4 5 6 
#
# 1 109.0035 19.1825 46.8118 0.0000 8.1812 0.0000
# 2 19.1825 79.5031 19.6960 0.0000 -15.9834 0.0000
# 3 46.8118 19.6960 100.3881 0.0000 1.0956 0.0000
# 4 0.0000 0.0000 0.0000 15.2392 0.0000 -2.2335
# 5 8.1812 -15.9834 1.0956 0.0000 34.5060 0.0000
# 6 0.0000 0.0000 0.0000 -2.2335 0.0000 26.0487
#
#
#
# Elastic Compliance Matrix: (Units=1/GPa)
#
#
# Indices 1 2 3 4 5 6 
#
# 1 0.012085 -0.002416 -0.005119 0.000000 -0.003822 0.000000
# 2 -0.002416 0.015182 -0.001936 0.000000 0.007667 0.000000
# 3 -0.005119 -0.001936 0.012729 0.000000 -0.000087 0.000000
# 4 0.000000 0.000000 0.000000 0.066456 0.000000 0.005698
# 5 -0.003822 0.007667 -0.000087 0.000000 0.033441 0.000000
# 6 0.000000 0.000000 0.000000 0.005698 0.000000 0.038878
#
#
# Mechanical properties :
#
#
# Convention : Reuss Voigt Hill
#
# Bulk Modulus (GPa) = 47.49771 51.14169 49.31970
# Shear Modulus (GPa) = 24.42240 28.70571 26.56406
#
# Velocity S-wave (km/s) = 3.35091 3.63289 3.49475
# Velocity P-wave (km/s) = 6.06706 6.41174 6.24178
#
# Compressibility (1/GPa) = 0.02105365
#
# Stress axis : x y z
#
# Youngs Moduli (GPa) = 82.75038 65.86798 78.55868
#
# Poissons Ratio (x) = 0.15912 0.40218
# Poissons Ratio (y) = 0.19991 0.15208
# Poissons Ratio (z) = 0.42364 0.12751
#
# Static dielectric constant tensor:
#      x y z
#    x 1.851500 0.000000 -0.003930 
#    y 0.000000 1.764780 0.000000 
#    z -0.003930 0.000000 1.894450 
# 
# From -- ./inp_files/3183.got.cif
#   From: 2010.05.17/outbox.cif.g08.bks.cpg/sg8_2_cif.got.tgz:3183.got - 2010.06.03 19:46:02.
