data_PCOD9133476
_publ_section_title
;
Structure prediction by ZEFSAII (Michael W. Deem and Ramdas Pophale) SiO2 
 PCOD9133476
Probable space group: C M
;
_chemical_formula_sum "Si O2"
_cell_formula_units_Z 32
_cell_length_a 11.668350
_cell_length_b 13.838096
_cell_length_c 8.889122
_cell_angle_alpha 90.000000
_cell_angle_beta 66.601420
_cell_angle_gamma 90.000000
_cell_volume 1317.273312
_symmetry_space_group_name_H-M "C M"
_symmetry_group_IT_number 8
_symmetry_cell_setting 'monoclinic'
loop_
_space_group_symop_operation_xyz
x,y,z
x,-y,z
1/2+x,1/2+y,z
1/2+x,1/2-y,z
loop_
_atom_site_type_symbol
_atom_site_label
_atom_site_fract_x
_atom_site_fract_y
_atom_site_fract_z
Si Si1 0.376790 0.678494 0.996380
Si Si2 0.571460 0.606447 0.678951
Si Si3 0.497936 0.606757 0.230044
Si Si4 0.053083 0.756976 0.430732
Si Si5 0.224970 0.603043 0.505923
Si Si6 0.182640 0.354384 0.875409
Si Si7 0.895637 0.607051 0.992431
Si Si8 0.315522 0.162181 0.709930
O O1 0.481571 0.683144 0.809551
O O2 0.263489 0.619941 0.980097
O O3 0.342923 0.787276 0.067687
O O4 0.449802 0.622528 0.086976
O O5 0.517014 0.500000 0.724484
O O6 0.569854 0.642109 0.510328
O O7 0.711528 0.606667 0.668808
O O8 0.558800 0.500000 0.208189
O O9 0.562142 0.705303 0.255567
O O10 0.369848 0.604828 0.390888
O O11 0.920973 0.707702 0.546209
O O12 0.155727 0.686751 0.450292
O O13 0.170619 0.500000 0.484720
O O14 0.215317 0.608391 0.690973
O O15 0.227936 0.243967 0.832005
O O16 0.039430 0.381115 0.965862
O O17 0.852184 0.500000 0.065937
O O18 0.878862 0.609287 0.818677
#
# Coordination Sequence:
#
# PCOD9133476 Si02
#       8
#     4   4   4   4   4   4   4   4
#     4  11  24  42  61  93 131 167 210 261 313 370
#     4  12  22  36  62  92 122 161 208 258 312 373
#     4  11  25  43  62  88 126 175 215 255 308 373
#     4  12  21  42  62  92 128 161 208 263 315 367
#     4  11  22  39  65  93 120 162 212 263 318 370
#     4  11  19  38  66  92 125 159 205 264 318 362
#     4  11  22  38  66  96 123 161 208 262 321 372
#     4  11  19  38  60  92 127 158 198 258 315 373
#
# _framework density 24.292603
#
# number of rings (size 3 to 8) (size 9 to 14) (size 15 to 20)
#    0.000    0.750    7.500    1.500    0.000    4.500 
#    0.000    1.875    0.000    0.750    0.000    0.000 
#    0.000    0.000    0.000    0.000    0.000    0.000 
#
# Total GULP energy -89330.534639 kJ/mol
# GULP energy per Si atom -5583.158415 kJ/mol
# Density = 2.423731 g / cm^3
# Si number density = 24.292603 Si / 1000 Ang^3
#
#
#
# Elastic Constant Matrix: (Units=GPa)
#
#
# Indices 1 2 3 4 5 6 
#
# 1 142.8472 27.9186 22.5282 0.0000 15.6690 0.0000
# 2 27.9186 149.0515 9.4646 0.0000 10.3095 0.0000
# 3 22.5282 9.4646 45.8395 0.0000 24.7496 0.0000
# 4 0.0000 0.0000 0.0000 12.6799 0.0000 -0.0687
# 5 15.6690 10.3095 24.7496 0.0000 32.4942 0.0000
# 6 0.0000 0.0000 0.0000 -0.0687 0.0000 -2.5965
#
#
#
# Elastic Compliance Matrix: (Units=1/GPa)
#
#
# Indices 1 2 3 4 5 6 
#
# 1 0.007830 -0.001199 -0.003002 0.000000 -0.001109 0.000000
# 2 -0.001199 0.007048 0.000050 0.000000 -0.001696 0.000000
# 3 -0.003002 0.000050 0.038228 0.000000 -0.027685 0.000000
# 4 0.000000 0.000000 0.000000 0.078853 0.000000 -0.002086
# 5 -0.001109 -0.001696 -0.027685 0.000000 0.052934 0.000000
# 6 0.000000 0.000000 0.000000 -0.002086 0.000000 -0.385074
#
#
# Mechanical properties :
#
#
# Convention : Reuss Voigt Hill
#
# Bulk Modulus (GPa) = 22.31990 50.84008 36.57999
# Shear Modulus (GPa) = -28.25751 27.03732 -0.61010
#
# Velocity S-wave (km/s) = -3.41429 3.33976 -0.50169
# Velocity P-wave (km/s) = 2.51700 5.98713 3.84125
#
# Compressibility (1/GPa) = 0.04480307
#
# Stress axis : x y z
#
# Youngs Moduli (GPa) = 127.71534 141.88708 26.15884
#
# Poissons Ratio (x) = 0.17017 0.07852
# Poissons Ratio (y) = 0.15317 -0.00130
# Poissons Ratio (z) = 0.38338 -0.00706
#
# Static dielectric constant tensor:
#      x y z
#    x 1.980120 0.000000 0.072330 
#    y 0.000000 1.962350 0.000000 
#    z 0.072330 0.000000 1.986780 
# 
# From -- ./inp_files/10755.got.cif
#   From: 2010.05.17/outbox.cif.g08.bks.cpg/sg8_6_cif.got.tgz:10755.got - 2010.06.03 19:46:02.
