data_PCOD9133258
_publ_section_title
;
Structure prediction by ZEFSAII (Michael W. Deem and Ramdas Pophale) SiO2 
 PCOD9133258
Probable space group: C M
;
_chemical_formula_sum "Si O2"
_cell_formula_units_Z 32
_cell_length_a 7.145169
_cell_length_b 12.910812
_cell_length_c 13.474256
_cell_angle_alpha 90.000000
_cell_angle_beta 99.553874
_cell_angle_gamma 90.000000
_cell_volume 1225.758792
_symmetry_space_group_name_H-M "C M"
_symmetry_group_IT_number 8
_symmetry_cell_setting 'monoclinic'
loop_
_space_group_symop_operation_xyz
x,y,z
x,-y,z
1/2+x,1/2+y,z
1/2+x,1/2-y,z
loop_
_atom_site_type_symbol
_atom_site_label
_atom_site_fract_x
_atom_site_fract_y
_atom_site_fract_z
Si Si1 0.912940 0.883588 0.988590
Si Si2 0.412365 0.310767 0.782666
Si Si3 0.866880 0.843172 0.409073
Si Si4 0.739231 0.377525 0.689603
Si Si5 0.639082 0.835837 0.592174
Si Si6 0.806079 0.389559 0.443520
Si Si7 0.383411 0.338097 0.197732
Si Si8 0.768624 0.385313 0.151136
O O1 0.860290 0.812583 0.892750
O O2 0.888953 0.000000 0.950433
O O3 0.803512 0.874181 0.084456
O O4 0.132754 0.869022 0.042724
O O5 0.608334 0.366424 0.777601
O O6 0.417402 0.192189 0.742674
O O7 0.268040 0.369370 0.694771
O O8 0.873436 0.717703 0.402171
O O9 0.791124 0.871998 0.292929
O O10 0.079707 0.886421 0.433977
O O11 0.745074 0.863398 0.497200
O O12 0.738242 0.500000 0.668542
O O13 0.632052 0.289186 0.609868
O O14 0.929345 0.618244 0.557666
O O15 0.860827 0.500000 0.403191
O O16 0.599424 0.380393 0.218485
O O17 0.395026 0.214134 0.182532
O O18 0.852309 0.500000 0.155545
#
# Coordination Sequence:
#
# PCOD9133258 Si02
#       8
#     4   4   4   4   4   4   4   4
#     4   9  21  42  71 104 143 191 241 303 371 430
#     4  10  23  42  72 107 144 189 251 299 365 453
#     4  12  25  48  71 108 149 191 253 311 363 457
#     4  10  24  46  70 100 144 193 239 303 370 433
#     4  10  26  48  71 111 150 192 256 304 366 456
#     4  12  28  48  73 104 149 200 248 310 377 438
#     4  10  22  41  72  98 143 185 232 303 363 433
#     4   9  21  41  68 102 136 185 236 291 369 434
#
# _framework density 26.106276999999999
#
# number of rings (size 3 to 8) (size 9 to 14) (size 15 to 20)
#    1.500    0.250    1.250    1.875    1.750    4.500 
#    0.000    2.500    0.000    0.000    0.000    0.000 
#    0.000    0.000    0.000    0.000    0.000    0.000 
#
# Total GULP energy -89177.645230 kJ/mol
# GULP energy per Si atom -5573.602827 kJ/mol
# Density = 2.604686 g / cm^3
# Si number density = 26.106277 Si / 1000 Ang^3
#
#
#
# Elastic Constant Matrix: (Units=GPa)
#
#
# Indices 1 2 3 4 5 6 
#
# 1 89.0560 41.7211 14.2578 0.0000 5.7531 0.0000
# 2 41.7211 188.3104 40.6553 0.0000 0.5495 0.0000
# 3 14.2578 40.6553 162.4126 0.0000 -9.2741 0.0000
# 4 0.0000 0.0000 0.0000 9.2438 0.0000 -12.6075
# 5 5.7531 0.5495 -9.2741 0.0000 23.8784 0.0000
# 6 0.0000 0.0000 0.0000 -12.6075 0.0000 3.8692
#
#
#
# Elastic Compliance Matrix: (Units=1/GPa)
#
#
# Indices 1 2 3 4 5 6 
#
# 1 0.012802 -0.002689 -0.000637 0.000000 -0.003270 0.000000
# 2 -0.002689 0.006190 -0.001314 0.000000 -0.000005 0.000000
# 3 -0.000637 -0.001314 0.006701 0.000000 0.002786 0.000000
# 4 0.000000 0.000000 0.000000 -0.031410 0.000000 -0.102347
# 5 -0.003270 -0.000005 0.002786 0.000000 0.043749 0.000000
# 6 0.000000 0.000000 0.000000 -0.102347 0.000000 -0.075041
#
#
# Mechanical properties :
#
#
# Convention : Reuss Voigt Hill
#
# Bulk Modulus (GPa) = 60.92956 70.33858 65.63407
# Shear Modulus (GPa) = -224.64353 30.27460 -97.18447
#
# Velocity S-wave (km/s) = -9.28636 3.40908 -6.10797
# Velocity P-wave (km/s) = 9.57038 6.51901 4.95453
#
# Compressibility (1/GPa) = 0.01641240
#
# Stress axis : x y z
#
# Youngs Moduli (GPa) = 78.11258 161.55594 149.23016
#
# Poissons Ratio (x) = 0.43445 0.09512
# Poissons Ratio (y) = 0.21006 0.19603
# Poissons Ratio (z) = 0.04979 0.21223
#
# Static dielectric constant tensor:
#      x y z
#    x 2.168940 0.000000 -0.084220 
#    y 0.000000 2.032750 0.000000 
#    z -0.084220 0.000000 2.194620 
# 
# From -- ./inp_files/25940.got.cif
#   From: 2010.05.17/outbox.cif.g08.bks.cpg/sg8_13_cif.got.tgz:25940.got - 2010.06.03 19:46:02.
