data_PCOD9133442
_publ_section_title
;
Structure prediction by ZEFSAII (Michael W. Deem and Ramdas Pophale) SiO2 
 PCOD9133442
Probable space group: C M
;
_chemical_formula_sum "Si O2"
_cell_formula_units_Z 20
_cell_length_a 7.723257
_cell_length_b 24.320861
_cell_length_c 5.003597
_cell_angle_alpha 90.000000
_cell_angle_beta 119.466653
_cell_angle_gamma 90.000000
_cell_volume 818.279069
_symmetry_space_group_name_H-M "C M"
_symmetry_group_IT_number 8
_symmetry_cell_setting 'monoclinic'
loop_
_space_group_symop_operation_xyz
x,y,z
x,-y,z
1/2+x,1/2+y,z
1/2+x,1/2-y,z
loop_
_atom_site_type_symbol
_atom_site_label
_atom_site_fract_x
_atom_site_fract_y
_atom_site_fract_z
Si Si1 0.188920 0.064632 0.686780
Si Si2 0.915316 0.936270 0.995344
Si Si3 0.021974 0.368578 0.687283
Si Si4 0.733266 0.299981 0.168186
Si Si5 0.302776 0.727848 0.750114
O O1 0.389313 0.100615 0.810022
O O2 0.075387 0.065984 0.880195
O O3 0.235894 0.000000 0.661508
O O4 0.022664 0.084826 0.345969
O O5 0.708194 0.907374 0.766444
O O6 0.867845 0.000000 0.009714
O O7 0.850643 0.353407 0.347344
O O8 0.134649 0.309201 0.766453
O O9 0.504734 0.306971 0.908081
O O10 0.834610 0.277021 0.980493
O O11 0.748766 0.255217 0.424585
#
# Coordination Sequence:
#
# PCOD9133442 Si02
#       5
#     4   4   4   4   4
#     4  10  24  46  71 105 140 176 231 289 349 423
#     4  10  24  46  71 105 140 176 231 289 349 423
#     4  12  25  44  76  98 144 184 239 276 366 400
#     4  12  25  45  65  96 135 183 233 283 336 405
#     4  12  25  45  65  96 135 183 233 283 336 405
#
# _framework density 24.441535999999999
#
# number of rings (size 3 to 8) (size 9 to 14) (size 15 to 20)
#    0.000    0.800    4.000    1.800    0.000   11.200 
#    0.000    6.000    0.000    0.000    0.000    0.000 
#    0.000    0.000    0.000    0.000    0.000    0.000 
#
# Total GULP energy -55860.515551 kJ/mol
# GULP energy per Si atom -5586.051555 kJ/mol
# Density = 2.438591 g / cm^3
# Si number density = 24.441536 Si / 1000 Ang^3
#
#
#
# Elastic Constant Matrix: (Units=GPa)
#
#
# Indices 1 2 3 4 5 6 
#
# 1 114.9742 25.1534 41.2603 0.0000 29.3732 0.0000
# 2 25.1534 85.3354 29.6575 0.0000 20.6980 0.0000
# 3 41.2603 29.6575 102.8014 0.0000 3.7374 0.0000
# 4 0.0000 0.0000 0.0000 14.9693 0.0000 9.6658
# 5 29.3732 20.6980 3.7374 0.0000 53.4765 0.0000
# 6 0.0000 0.0000 0.0000 9.6658 0.0000 51.5969
#
#
#
# Elastic Compliance Matrix: (Units=1/GPa)
#
#
# Indices 1 2 3 4 5 6 
#
# 1 0.011945 -0.000515 -0.004426 0.000000 -0.006052 0.000000
# 2 -0.000515 0.014398 -0.003764 0.000000 -0.005027 0.000000
# 3 -0.004426 -0.003764 0.012480 0.000000 0.003016 0.000000
# 4 0.000000 0.000000 0.000000 0.075996 0.000000 -0.014237
# 5 -0.006052 -0.005027 0.003016 0.000000 0.023759 0.000000
# 6 0.000000 0.000000 0.000000 -0.014237 0.000000 0.022048
#
#
# Mechanical properties :
#
#
# Convention : Reuss Voigt Hill
#
# Bulk Modulus (GPa) = 46.70016 55.02814 50.86415
# Shear Modulus (GPa) = 27.00185 37.81121 32.40653
#
# Velocity S-wave (km/s) = 3.32739 3.93747 3.64521
# Velocity P-wave (km/s) = 5.82326 6.57530 6.21068
#
# Compressibility (1/GPa) = 0.02141320
#
# Stress axis : x y z
#
# Youngs Moduli (GPa) = 83.71977 69.45574 80.12778
#
# Poissons Ratio (x) = 0.03575 0.35461
# Poissons Ratio (y) = 0.04309 0.30162
# Poissons Ratio (z) = 0.37051 0.26145
#
# Static dielectric constant tensor:
#      x y z
#    x 1.943300 0.000000 0.029560 
#    y 0.000000 2.043020 0.000000 
#    z 0.029560 0.000000 1.949000 
# 
# From -- ./inp_files/1767.got.cif
#   From: 2010.05.17/outbox.cif.g08.bks.cpg/sg8_1_cif.got.tgz:1767.got - 2010.06.03 19:46:02.
