data_PCOD9133362
_publ_section_title
;
Structure prediction by ZEFSAII (Michael W. Deem and Ramdas Pophale) SiO2 
 PCOD9133362
Probable space group: C M
;
_chemical_formula_sum "Si O2"
_cell_formula_units_Z 20
_cell_length_a 9.902306
_cell_length_b 13.743884
_cell_length_c 5.726952
_cell_angle_alpha 90.000000
_cell_angle_beta 98.430902
_cell_angle_gamma 90.000000
_cell_volume 770.993252
_symmetry_space_group_name_H-M "C M"
_symmetry_group_IT_number 8
_symmetry_cell_setting 'monoclinic'
loop_
_space_group_symop_operation_xyz
x,y,z
x,-y,z
1/2+x,1/2+y,z
1/2+x,1/2-y,z
loop_
_atom_site_type_symbol
_atom_site_label
_atom_site_fract_x
_atom_site_fract_y
_atom_site_fract_z
Si Si1 0.775360 0.000000 0.061571
Si Si2 0.000899 0.218056 0.835388
Si Si3 0.087273 0.661233 0.236990
Si Si4 0.052138 0.000000 0.010898
Si Si5 0.801304 0.500000 0.780531
Si Si6 0.073510 0.500000 0.619435
Si Si7 0.241313 0.207324 0.579137
O O1 0.700904 0.094517 0.144670
O O2 0.723758 0.000000 0.775026
O O3 0.934385 0.000000 0.180479
O O4 0.148518 0.244249 0.770353
O O5 0.883596 0.237559 0.619350
O O6 0.973029 0.296828 0.033734
O O7 0.007485 0.104138 0.891292
O O8 0.046871 0.593096 0.445782
O O9 0.157228 0.761527 0.334370
O O10 0.216449 0.000000 0.003350
O O11 0.756888 0.593908 0.622958
O O12 0.965650 0.500000 0.807441
#
# Coordination Sequence:
#
# PCOD9133362 Si02
#       7
#     2   4   4   2   2   2   4
#     4  11  23  44  70  97 129 171 229 279 322 395
#     4  11  24  43  66  96 135 176 223 274 327 394
#     4  11  24  41  72 100 128 179 226 271 334 392
#     4  10  23  41  63  93 134 173 210 271 335 383
#     4  10  23  41  63  93 134 173 210 271 335 383
#     4  11  23  44  70  97 129 171 229 279 322 395
#     4  11  24  43  66  96 135 176 223 274 327 394
#
# _framework density 25.940564999999999
#
# number of rings (size 3 to 8) (size 9 to 14) (size 15 to 20)
#    0.000    1.200    0.000    6.000    0.000    8.800 
#    0.000    8.000    0.000    0.000    0.000    0.000 
#    0.000    0.000    0.000    0.000    0.000    0.000 
#
# Total GULP energy -55841.489023 kJ/mol
# GULP energy per Si atom -5584.148902 kJ/mol
# Density = 2.588152 g / cm^3
# Si number density = 25.940565 Si / 1000 Ang^3
#
#
#
# Elastic Constant Matrix: (Units=GPa)
#
#
# Indices 1 2 3 4 5 6 
#
# 1 122.8632 9.4441 9.4279 0.0000 -15.6866 0.0000
# 2 9.4441 138.4069 12.1982 0.0000 -2.8665 0.0000
# 3 9.4279 12.1982 48.2794 0.0000 0.0153 0.0000
# 4 0.0000 0.0000 0.0000 30.4229 0.0000 -6.2770
# 5 -15.6866 -2.8665 0.0153 0.0000 26.3915 0.0000
# 6 0.0000 0.0000 0.0000 -6.2770 0.0000 30.1823
#
#
#
# Elastic Compliance Matrix: (Units=1/GPa)
#
#
# Indices 1 2 3 4 5 6 
#
# 1 0.008970 -0.000356 -0.001663 0.000000 0.005294 0.000000
# 2 -0.000356 0.007421 -0.001806 0.000000 0.000596 0.000000
# 3 -0.001663 -0.001806 0.021494 0.000000 -0.001197 0.000000
# 4 0.000000 0.000000 0.000000 0.034344 0.000000 0.007142
# 5 0.005294 0.000596 -0.001197 0.000000 0.041103 0.000000
# 6 0.000000 0.000000 0.000000 0.007142 0.000000 0.034617
#
#
# Mechanical properties :
#
#
# Convention : Reuss Voigt Hill
#
# Bulk Modulus (GPa) = 33.07398 41.29890 37.18644
# Shear Modulus (GPa) = 30.17916 35.96462 33.07189
#
# Velocity S-wave (km/s) = 3.41456 3.72751 3.57446
# Velocity P-wave (km/s) = 5.32196 5.87205 5.60376
#
# Compressibility (1/GPa) = 0.03023525
#
# Stress axis : x y z
#
# Youngs Moduli (GPa) = 111.48231 134.75592 46.52423
#
# Poissons Ratio (x) = 0.04795 0.07739
# Poissons Ratio (y) = 0.03967 0.08401
# Poissons Ratio (z) = 0.18544 0.24332
#
# Static dielectric constant tensor:
#      x y z
#    x 2.069250 0.000000 -0.080330 
#    y 0.000000 1.982760 0.000000 
#    z -0.080330 0.000000 2.058680 
# 
# From -- ./inp_files/2428.got.cif
#   From: 2010.05.17/outbox.cif.g08.bks.cpg/sg8_2_cif.got.tgz:2428.got - 2010.06.03 19:46:02.
