data_PCOD9133495
_publ_section_title
;
Structure prediction by ZEFSAII (Michael W. Deem and Ramdas Pophale) SiO2 
 PCOD9133495
Probable space group: C M
;
_chemical_formula_sum "Si O2"
_cell_formula_units_Z 32
_cell_length_a 18.936163
_cell_length_b 19.305407
_cell_length_c 11.373000
_cell_angle_alpha 90.000000
_cell_angle_beta 23.006845
_cell_angle_gamma 90.000000
_cell_volume 1624.973217
_symmetry_space_group_name_H-M "C M"
_symmetry_group_IT_number 8
_symmetry_cell_setting 'monoclinic'
loop_
_space_group_symop_operation_xyz
x,y,z
x,-y,z
1/2+x,1/2+y,z
1/2+x,1/2-y,z
loop_
_atom_site_type_symbol
_atom_site_label
_atom_site_fract_x
_atom_site_fract_y
_atom_site_fract_z
Si Si1 0.628540 0.165563 0.280080
Si Si2 0.939966 0.919282 0.870229
Si Si3 0.715262 0.578728 0.255617
Si Si4 0.433154 0.918498 0.383342
Si Si5 0.603949 0.336552 0.833009
Si Si6 0.038146 0.422204 0.949614
Si Si7 0.225260 0.299124 0.531177
Si Si8 0.394397 0.795693 0.850596
O O1 0.559517 0.130322 0.267597
O O2 0.467514 0.192782 0.608009
O O3 0.734540 0.105246 0.187438
O O4 0.771803 0.227604 0.046677
O O5 0.024428 0.907136 0.611408
O O6 0.045402 0.875165 0.803989
O O7 0.961076 0.000000 0.863750
O O8 0.715991 0.500000 0.206685
O O9 0.778261 0.638175 0.071303
O O10 0.859078 0.580259 0.142825
O O11 0.230071 0.889631 0.709818
O O12 0.448359 0.000000 0.390398
O O13 0.483996 0.911270 0.167728
O O14 0.718379 0.269598 0.620107
O O15 0.420648 0.311756 0.176053
O O16 0.114229 0.500000 0.821641
O O17 0.168271 0.364192 0.698148
O O18 0.069778 0.290569 0.668510
#
# Coordination Sequence:
#
# PCOD9133495 Si02
#       8
#     4   4   4   4   4   4   4   4
#     4  12  25  41  63  91 132 174 207 258 319 376
#     4  11  21  37  62  92 121 164 216 258 311 372
#     4   9  19  36  64  95 124 160 207 268 322 366
#     4  11  25  45  64  91 133 172 211 258 314 386
#     4  12  23  39  65  94 126 166 210 267 318 365
#     4   9  19  38  64  92 125 165 208 261 320 374
#     4  11  22  38  65  98 127 159 213 275 316 369
#     4  11  22  40  63  95 130 164 214 267 314 376
#
# _framework density 19.692632
#
# number of rings (size 3 to 8) (size 9 to 14) (size 15 to 20)
#    0.000    1.250    3.750    2.250    1.750    4.000 
#    0.000    1.250    0.000    0.000    0.000    0.000 
#    0.000    0.000    0.000    0.000    0.000    0.000 
#
# Total GULP energy -89407.540609 kJ/mol
# GULP energy per Si atom -5587.971288 kJ/mol
# Density = 1.964781 g / cm^3
# Si number density = 19.692632 Si / 1000 Ang^3
#
#
#
# Elastic Constant Matrix: (Units=GPa)
#
#
# Indices 1 2 3 4 5 6 
#
# 1 53.4961 43.9652 17.6716 -0.0011 -2.2979 0.0009
# 2 43.9652 140.5470 73.9778 -0.0050 13.5342 0.0004
# 3 17.6716 73.9778 102.4320 -0.0051 10.9126 0.0002
# 4 -0.0011 -0.0050 -0.0051 33.2259 0.0017 2.1968
# 5 -2.2979 13.5342 10.9126 0.0017 20.8698 -0.0009
# 6 0.0009 0.0004 0.0002 2.1968 -0.0009 30.0825
#
#
#
# Elastic Compliance Matrix: (Units=1/GPa)
#
#
# Indices 1 2 3 4 5 6 
#
# 1 0.026823 -0.010165 0.001797 -0.000001 0.008606 0.000000
# 2 -0.010165 0.015549 -0.008771 0.000001 -0.006616 0.000000
# 3 0.001797 -0.008771 0.016054 0.000001 -0.002509 0.000000
# 4 -0.000001 0.000001 0.000001 0.030243 -0.000004 -0.002209
# 5 0.008606 -0.006616 -0.002509 -0.000004 0.054466 0.000002
# 6 0.000000 0.000000 0.000000 -0.002209 0.000002 0.033403
#
#
# Mechanical properties :
#
#
# Convention : Reuss Voigt Hill
#
# Bulk Modulus (GPa) = 41.41117 63.07824 52.24471
# Shear Modulus (GPa) = 22.84502 27.55969 25.20236
#
# Velocity S-wave (km/s) = 3.40969 3.74504 3.58129
# Velocity P-wave (km/s) = 6.04779 7.12751 6.60973
#
# Compressibility (1/GPa) = 0.02414807
#
# Stress axis : x y z
#
# Youngs Moduli (GPa) = 37.28105 64.31419 62.28902
#
# Poissons Ratio (x) = 0.65378 -0.11195
# Poissons Ratio (y) = 0.37898 0.54633
# Poissons Ratio (z) = -0.06700 0.56409
#
# Static dielectric constant tensor:
#      x y z
#    x 1.693550 0.000000 -0.013480 
#    y 0.000000 1.695440 0.000000 
#    z -0.013480 0.000000 1.691300 
# 
# From -- ./inp_files/24186.got.cif
#   From: 2010.05.17/outbox.cif.g08.bks.cpg/sg8_13_cif.got.tgz:24186.got - 2010.06.03 19:46:02.
