data_PCOD9133509
_publ_section_title
;
Structure prediction by ZEFSAII (Michael W. Deem and Ramdas Pophale) SiO2 
 PCOD9133509
Probable space group: C M
;
_chemical_formula_sum "Si O2"
_cell_formula_units_Z 32
_cell_length_a 20.605810
_cell_length_b 7.509013
_cell_length_c 14.888682
_cell_angle_alpha 90.000000
_cell_angle_beta 30.150951
_cell_angle_gamma 90.000000
_cell_volume 1157.109843
_symmetry_space_group_name_H-M "C M"
_symmetry_group_IT_number 8
_symmetry_cell_setting 'monoclinic'
loop_
_space_group_symop_operation_xyz
x,y,z
x,-y,z
1/2+x,1/2+y,z
1/2+x,1/2-y,z
loop_
_atom_site_type_symbol
_atom_site_label
_atom_site_fract_x
_atom_site_fract_y
_atom_site_fract_z
Si Si1 0.201830 0.790311 0.767110
Si Si2 0.532217 0.202889 0.609720
Si Si3 0.623174 0.709220 0.677215
Si Si4 0.267033 0.781285 0.879299
Si Si5 0.479475 0.282748 0.282480
Si Si6 0.898160 0.788968 0.191351
Si Si7 0.335208 0.283924 0.072721
Si Si8 0.557486 0.293845 0.375516
O O1 0.206975 0.712526 0.659619
O O2 0.276218 0.717740 0.764652
O O3 0.231526 0.000000 0.729107
O O4 0.050102 0.778805 0.978969
O O5 0.637880 0.274201 0.552629
O O6 0.389861 0.288151 0.786807
O O7 0.553523 0.205401 0.477560
O O8 0.524864 0.000000 0.645711
O O9 0.622652 0.500000 0.696327
O O10 0.475455 0.773270 0.869783
O O11 0.272004 0.000000 0.873580
O O12 0.126440 0.731824 0.081205
O O13 0.473921 0.500000 0.289134
O O14 0.396699 0.217331 0.295767
O O15 0.472394 0.221640 0.394450
O O16 0.828724 0.720341 0.184720
O O17 0.865865 0.000000 0.236795
O O18 0.332253 0.500000 0.076583
O O19 0.210568 0.217132 0.169103
O O20 0.527142 0.500000 0.423368
#
# Coordination Sequence:
#
# PCOD9133509 Si02
#       8
#     4   4   4   4   4   4   4   4
#     4   7  11  23  46  74  98 119 149 191 237 286
#     4  11  22  34  48  68  98 134 168 203 241 282
#     4   9  17  31  53  78 101 126 157 195 240 290
#     4   8  14  27  49  74  95 119 156 198 239 286
#     4   8  14  27  49  74  95 119 156 198 239 286
#     4   7  11  23  46  74  98 119 149 191 237 286
#     4   9  17  31  53  78 101 126 157 195 240 290
#     4  11  22  34  48  68  98 134 168 203 241 282
#
# _framework density 27.655107999999998
#
# number of rings (size 3 to 8) (size 9 to 14) (size 15 to 20)
#    0.000    3.250    0.000    4.500    0.000    1.500 
#    0.000    1.250    0.000    6.000    0.000    7.000 
#    0.000    0.000    0.000    0.000    0.000    0.000 
#
# Total GULP energy -89420.357750 kJ/mol
# GULP energy per Si atom -5588.772359 kJ/mol
# Density = 2.759216 g / cm^3
# Si number density = 27.655108 Si / 1000 Ang^3
#
#
#
# Elastic Constant Matrix: (Units=GPa)
#
#
# Indices 1 2 3 4 5 6 
#
# 1 286.2831 16.1478 32.6895 -0.0002 16.7240 0.0000
# 2 16.1478 90.9223 3.3892 -0.0006 1.9122 0.0003
# 3 32.6895 3.3892 73.8870 -0.0005 24.4804 0.0003
# 4 -0.0002 -0.0006 -0.0005 14.1522 0.0003 0.0562
# 5 16.7240 1.9122 24.4804 0.0003 65.8239 0.0000
# 6 0.0000 0.0003 0.0003 0.0562 0.0000 15.5764
#
#
#
# Elastic Compliance Matrix: (Units=1/GPa)
#
#
# Indices 1 2 3 4 5 6 
#
# 1 0.003719 -0.000597 -0.001495 0.000000 -0.000372 0.000000
# 2 -0.000597 0.011114 -0.000216 0.000000 -0.000091 0.000000
# 3 -0.001495 -0.000216 0.016056 0.000001 -0.005585 0.000000
# 4 0.000000 0.000000 0.000001 0.070661 -0.000001 -0.000255
# 5 -0.000372 -0.000091 -0.005585 -0.000001 0.017366 0.000000
# 6 0.000000 0.000000 0.000000 -0.000255 0.000000 0.064201
#
#
# Mechanical properties :
#
#
# Convention : Reuss Voigt Hill
#
# Bulk Modulus (GPa) = 38.05957 61.72726 49.89342
# Shear Modulus (GPa) = 25.44646 45.70158 35.57402
#
# Velocity S-wave (km/s) = 3.03667 4.06957 3.59046
# Velocity P-wave (km/s) = 5.10756 6.66714 5.93877
#
# Compressibility (1/GPa) = 0.02627460
#
# Stress axis : x y z
#
# Youngs Moduli (GPa) = 268.88039 89.97361 62.28211
#
# Poissons Ratio (x) = 0.05371 0.09311
# Poissons Ratio (y) = 0.16052 0.01342
# Poissons Ratio (z) = 0.40196 0.01939
#
# Static dielectric constant tensor:
#      x y z
#    x 2.154630 0.000000 0.043390 
#    y 0.000000 2.006960 0.000000 
#    z 0.043390 0.000000 2.339010 
# 
# From -- ./inp_files/27751.got.cif
#   From: 2010.05.17/outbox.cif.g08.bks.cpg/sg8_14_cif.got.tgz:27751.got - 2010.06.03 19:46:02.
