data_PCOD9133273
_publ_section_title
;
Structure prediction by ZEFSAII (Michael W. Deem and Ramdas Pophale) SiO2 
 PCOD9133273
Probable space group: C M
;
_chemical_formula_sum "Si O2"
_cell_formula_units_Z 26
_cell_length_a 5.071487
_cell_length_b 30.771238
_cell_length_c 8.863062
_cell_angle_alpha 90.000000
_cell_angle_beta 59.032584
_cell_angle_gamma 90.000000
_cell_volume 1185.981665
_symmetry_space_group_name_H-M "C M"
_symmetry_group_IT_number 8
_symmetry_cell_setting 'monoclinic'
loop_
_space_group_symop_operation_xyz
x,y,z
x,-y,z
1/2+x,1/2+y,z
1/2+x,1/2-y,z
loop_
_atom_site_type_symbol
_atom_site_label
_atom_site_fract_x
_atom_site_fract_y
_atom_site_fract_z
Si Si1 0.801580 0.778327 0.321700
Si Si2 0.905314 0.651072 0.616021
Si Si3 0.442409 0.000000 0.553454
Si Si4 0.615193 0.068466 0.725075
Si Si5 0.406087 0.340166 0.012028
Si Si6 0.344747 0.895827 0.081261
Si Si7 0.763076 0.574002 0.435418
O O1 0.590255 0.737995 0.333024
O O2 0.606460 0.811388 0.482481
O O3 0.889070 0.801783 0.138742
O O4 0.799042 0.619249 0.512807
O O5 0.093006 0.617745 0.668234
O O6 0.624743 0.667674 0.802949
O O7 0.390000 0.038169 0.698127
O O8 0.514690 0.039015 0.408611
O O9 0.950897 0.050937 0.585235
O O10 0.541842 0.071473 0.921156
O O11 0.072125 0.355714 0.055146
O O12 0.564605 0.379187 0.060815
O O13 0.241007 0.916308 0.267156
#
# Coordination Sequence:
#
# PCOD9133273 Si02
#       7
#     4   4   2   4   4   4   4
#     4  12  27  42  66 101 137 170 217 282 335 389
#     4  10  23  41  70  92 130 175 227 260 338 392
#     4  10  24  40  60 102 138 170 224 274 336 380
#     4  10  22  42  65  97 130 181 217 279 322 398
#     4  11  23  44  65  98 127 173 222 274 320 403
#     4  11  23  39  72  95 125 176 229 263 327 387
#     4  11  21  41  67  93 131 177 220 277 320 397
#
# _framework density 21.922765999999999
#
# number of rings (size 3 to 8) (size 9 to 14) (size 15 to 20)
#    0.000    1.231    3.077    2.308    4.308    1.846 
#    0.000    1.538    0.000    0.000    0.000    0.000 
#    0.000    0.000    0.000    0.000    0.000    0.000 
#
# Total GULP energy -72403.091228 kJ/mol
# GULP energy per Si atom -5569.468556 kJ/mol
# Density = 2.187287 g / cm^3
# Si number density = 21.922766 Si / 1000 Ang^3
#
#
#
# Elastic Constant Matrix: (Units=GPa)
#
#
# Indices 1 2 3 4 5 6 
#
# 1 44.5522 -13.9144 3.6973 0.0000 5.0057 0.0000
# 2 -13.9144 66.1826 35.3442 0.0000 -6.1426 0.0000
# 3 3.6973 35.3442 144.6904 0.0000 16.4017 0.0000
# 4 0.0000 0.0000 0.0000 7.9779 0.0000 6.2308
# 5 5.0057 -6.1426 16.4017 0.0000 28.1083 0.0000
# 6 0.0000 0.0000 0.0000 6.2308 0.0000 107.7732
#
#
#
# Elastic Compliance Matrix: (Units=1/GPa)
#
#
# Indices 1 2 3 4 5 6 
#
# 1 0.024702 0.006009 -0.001873 0.000000 -0.001993 0.000000
# 2 0.006009 0.020110 -0.005828 0.000000 0.006725 0.000000
# 3 -0.001873 -0.005828 0.009091 0.000000 -0.006245 0.000000
# 4 0.000000 0.000000 0.000000 0.131274 0.000000 -0.007589
# 5 -0.001993 0.006725 -0.006245 0.000000 0.041045 0.000000
# 6 0.000000 0.000000 0.000000 -0.007589 0.000000 0.009718
#
#
# Mechanical properties :
#
#
# Convention : Reuss Voigt Hill
#
# Bulk Modulus (GPa) = 19.79540 33.96437 26.87989
# Shear Modulus (GPa) = 19.51880 44.12508 31.82194
#
# Velocity S-wave (km/s) = 2.98710 4.49124 3.81405
# Velocity P-wave (km/s) = 4.57671 6.51317 5.62883
#
# Compressibility (1/GPa) = 0.05051678
#
# Stress axis : x y z
#
# Youngs Moduli (GPa) = 40.48325 49.72726 110.00206
#
# Poissons Ratio (x) = -0.29879 0.20604
# Poissons Ratio (y) = -0.24325 0.64112
# Poissons Ratio (z) = 0.07583 0.28982
#
# Static dielectric constant tensor:
#      x y z
#    x 1.971160 0.000000 -0.030730 
#    y 0.000000 1.776500 0.000000 
#    z -0.030730 0.000000 1.810470 
# 
# From -- ./inp_files/7067.got.cif
#   From: 2010.05.17/outbox.cif.g08.bks.cpg/sg8_4_cif.got.tgz:7067.got - 2010.06.03 19:46:02.
