data_PCOD9133846
_publ_section_title
;
Structure prediction by ZEFSAII (Michael W. Deem and Ramdas Pophale) SiO2 
 PCOD9133846
Probable space group: C C
;
_chemical_formula_sum "Si O2"
_cell_formula_units_Z 24
_cell_length_a 14.109001
_cell_length_b 11.670089
_cell_length_c 5.298993
_cell_angle_alpha 90.000000
_cell_angle_beta 95.751534
_cell_angle_gamma 90.000000
_cell_volume 868.104378
_symmetry_space_group_name_H-M "C C"
_symmetry_group_IT_number 9
_symmetry_cell_setting 'monoclinic'
loop_
_space_group_symop_operation_xyz
x,y,z
x,-y,1/2+z
1/2+x,1/2+y,z
1/2+x,1/2-y,1/2+z
loop_
_atom_site_type_symbol
_atom_site_label
_atom_site_fract_x
_atom_site_fract_y
_atom_site_fract_z
Si Si1 0.891710 0.214209 0.970320
Si Si2 0.684706 0.538388 0.846743
Si Si3 0.444660 0.066965 0.207941
Si Si4 0.703773 0.077844 0.796023
Si Si5 0.094583 0.731920 0.423910
Si Si6 0.970823 0.936818 0.832469
O O1 0.883471 0.337116 0.838561
O O2 0.801109 0.147283 0.854075
O O3 0.914694 0.183491 0.271526
O O4 0.001663 0.187284 0.919535
O O5 0.736531 0.505140 0.115223
O O6 0.668436 0.675432 0.836510
O O7 0.586898 0.457445 0.852192
O O8 0.550583 0.126427 0.257826
O O9 0.437954 0.964340 0.411928
O O10 0.627210 0.176509 0.696688
O O11 0.701040 0.996817 0.548973
O O12 0.936998 0.011842 0.585722
#
# Coordination Sequence:
#
# PCOD9133846 Si02
#       6
#     4   4   4   4   4   4
#     4  10  23  42  71  98 138 187 240 281 360 424
#     4  10  19  33  58  93 126 166 223 278 327 398
#     4  10  22  39  63  91 129 177 227 273 343 418
#     4  12  28  49  72 108 146 186 241 303 355 427
#     4  10  23  43  69 103 142 188 236 285 369 423
#     4  10  17  32  55  93 119 162 215 282 316 392
#
# _framework density 27.646443000000001
#
# number of rings (size 3 to 8) (size 9 to 14) (size 15 to 20)
#    1.000    0.667    3.333    2.000    0.000    8.000 
#    0.000    1.667    0.000    0.000    0.000    0.000 
#    0.000    0.000    0.000    0.000    0.000    0.000 
#
# Total GULP energy -66888.848152 kJ/mol
# GULP energy per Si atom -5574.070679 kJ/mol
# Density = 2.758352 g / cm^3
# Si number density = 27.646443 Si / 1000 Ang^3
#
#
#
# Elastic Constant Matrix: (Units=GPa)
#
#
# Indices 1 2 3 4 5 6 
#
# 1 69.3889 43.9963 35.7107 0.0000 24.8955 0.0000
# 2 43.9963 138.8669 58.9184 0.0000 7.3898 0.0000
# 3 35.7107 58.9184 169.5525 0.0000 7.1734 0.0000
# 4 0.0000 0.0000 0.0000 44.3651 0.0000 24.7685
# 5 24.8955 7.3898 7.1734 0.0000 39.4893 0.0000
# 6 0.0000 0.0000 0.0000 24.7685 0.0000 40.1209
#
#
#
# Elastic Compliance Matrix: (Units=1/GPa)
#
#
# Indices 1 2 3 4 5 6 
#
# 1 0.024428 -0.005945 -0.002494 0.000000 -0.013835 0.000000
# 2 -0.005945 0.009937 -0.002299 0.000000 0.002306 0.000000
# 3 -0.002494 -0.002299 0.007192 0.000000 0.000696 0.000000
# 4 0.000000 0.000000 0.000000 0.034395 0.000000 -0.021233
# 5 -0.013835 0.002306 0.000696 0.000000 0.033487 0.000000
# 6 0.000000 0.000000 0.000000 -0.021233 0.000000 0.038033
#
#
# Mechanical properties :
#
#
# Convention : Reuss Voigt Hill
#
# Bulk Modulus (GPa) = 49.79353 72.78432 61.28893
# Shear Modulus (GPa) = 28.46698 40.74060 34.60379
#
# Velocity S-wave (km/s) = 3.21234 3.84295 3.54171
# Velocity P-wave (km/s) = 5.63993 6.78786 6.24035
#
# Compressibility (1/GPa) = 0.02008293
#
# Stress axis : x y z
#
# Youngs Moduli (GPa) = 40.93624 100.63190 139.03567
#
# Poissons Ratio (x) = 0.59827 0.34672
# Poissons Ratio (y) = 0.24337 0.31958
# Poissons Ratio (z) = 0.10209 0.23131
#
# Static dielectric constant tensor:
#      x y z
#    x 2.165040 0.000000 -0.033830 
#    y 0.000000 2.335900 0.000000 
#    z -0.033830 0.000000 2.285200 
# 
# From -- ./inp_files/2879.got.cif
#   From: 2010.05.17/outbox.cif.g08.bks.cpg/sg9_2_cif.got.tgz:2879.got - 2010.06.03 20:04:27.
