data_PCOD9133954
_publ_section_title
;
Structure prediction by ZEFSAII (Michael W. Deem and Ramdas Pophale) SiO2 
 PCOD9133954
Probable space group: C C
;
_chemical_formula_sum "Si O2"
_cell_formula_units_Z 32
_cell_length_a 37.926927
_cell_length_b 7.191147
_cell_length_c 5.475595
_cell_angle_alpha 90.000000
_cell_angle_beta 107.038391
_cell_angle_gamma 90.000000
_cell_volume 1427.855906
_symmetry_space_group_name_H-M "C C"
_symmetry_group_IT_number 9
_symmetry_cell_setting 'monoclinic'
loop_
_space_group_symop_operation_xyz
x,y,z
x,-y,1/2+z
1/2+x,1/2+y,z
1/2+x,1/2-y,1/2+z
loop_
_atom_site_type_symbol
_atom_site_label
_atom_site_fract_x
_atom_site_fract_y
_atom_site_fract_z
Si Si1 0.782820 0.381843 0.908450
Si Si2 0.559816 0.776082 0.009321
Si Si3 0.442216 0.293579 0.758251
Si Si4 0.706450 0.785553 0.345013
Si Si5 0.472917 0.283407 0.320585
Si Si6 0.366277 0.878510 0.099356
Si Si7 0.089888 0.699549 0.070352
Si Si8 0.676878 0.794985 0.785253
O O1 0.779418 0.478148 0.634652
O O2 0.749322 0.240405 0.874735
O O3 0.824385 0.303966 0.009946
O O4 0.575216 0.704878 0.297082
O O5 0.570168 0.996620 0.036663
O O6 0.516690 0.735776 0.905249
O O7 0.579185 0.707509 0.803022
O O8 0.457997 0.204621 0.544145
O O9 0.458348 0.502887 0.793196
O O10 0.398219 0.275488 0.662906
O O11 0.456624 0.204900 0.037427
O O12 0.695822 0.703335 0.587767
O O13 0.695003 0.000777 0.344582
O O14 0.683918 0.709212 0.066026
O O15 0.370349 0.997897 0.359290
O O16 0.133721 0.678803 0.146902
#
# Coordination Sequence:
#
# PCOD9133954 Si02
#       8
#     4   4   4   4   4   4   4   4
#     4  10  21  37  58  83 114 154 189 226 276 337
#     4  10  18  32  50  80 109 140 190 233 282 328
#     4  10  21  40  57  81 110 152 181 225 297 336
#     4  10  18  32  54  85 115 144 180 236 282 322
#     4  10  21  37  57  80 114 144 186 226 284 360
#     4  10  21  40  60  85 113 143 193 242 276 338
#     4  10  19  33  53  84 110 148 190 240 283 317
#     4  10  19  33  55  88 115 143 187 242 276 324
#
# _framework density 22.411225000000002
#
# number of rings (size 3 to 8) (size 9 to 14) (size 15 to 20)
#    0.000    2.000    0.000    6.000    0.000    0.000 
#   13.500    5.000    0.000    0.000  110.500    0.000 
#    0.000    0.000    0.000    0.000    0.000    0.000 
#
# Total GULP energy -89331.141114 kJ/mol
# GULP energy per Si atom -5583.196320 kJ/mol
# Density = 2.236022 g / cm^3
# Si number density = 22.411225 Si / 1000 Ang^3
#
#
#
# Elastic Constant Matrix: (Units=GPa)
#
#
# Indices 1 2 3 4 5 6 
#
# 1 159.4770 13.9363 40.0078 0.0000 13.7677 0.0000
# 2 13.9363 82.1515 -0.7654 0.0000 7.9027 0.0000
# 3 40.0078 -0.7654 163.3051 0.0000 -34.6799 0.0000
# 4 0.0000 0.0000 0.0000 -16.6245 0.0000 16.3091
# 5 13.7677 7.9027 -34.6799 0.0000 74.8590 0.0000
# 6 0.0000 0.0000 0.0000 16.3091 0.0000 24.3113
#
#
#
# Elastic Compliance Matrix: (Units=1/GPa)
#
#
# Indices 1 2 3 4 5 6 
#
# 1 0.007108 -0.001012 -0.002219 0.000000 -0.002229 0.000000
# 2 -0.001012 0.012450 0.000074 0.000000 -0.001094 0.000000
# 3 -0.002219 0.000074 0.007489 0.000000 0.003870 0.000000
# 4 0.000000 0.000000 0.000000 -0.036277 0.000000 0.024337
# 5 -0.002229 -0.001094 0.003870 0.000000 0.015677 0.000000
# 6 0.000000 0.000000 0.000000 0.024337 0.000000 0.024807
#
#
# Mechanical properties :
#
#
# Convention : Reuss Voigt Hill
#
# Bulk Modulus (GPa) = 48.23297 56.81013 52.52155
# Shear Modulus (GPa) = 112.40960 39.95947 76.18454
#
# Velocity S-wave (km/s) = 7.08989 4.22715 5.83676
# Velocity P-wave (km/s) = 9.41226 7.01634 8.30120
#
# Compressibility (1/GPa) = 0.02073271
#
# Stress axis : x y z
#
# Youngs Moduli (GPa) = 140.68395 80.31965 133.52141
#
# Poissons Ratio (x) = 0.08129 0.29634
# Poissons Ratio (y) = 0.14239 -0.00988
# Poissons Ratio (z) = 0.31224 -0.00594
#
# Static dielectric constant tensor:
#      x y z
#    x 1.797890 0.000000 -0.056110 
#    y 0.000000 1.793290 0.000000 
#    z -0.056110 0.000000 1.883400 
# 
# From -- ./inp_files/3469.got.cif
#   From: 2010.05.17/outbox.cif.g08.bks.cpg/sg9_2_cif.got.tgz:3469.got - 2010.06.03 20:04:27.
