data_PCOD9133646
_publ_section_title
;
Structure prediction by ZEFSAII (Michael W. Deem and Ramdas Pophale) SiO2 
 PCOD9133646
Probable space group: C M
;
_chemical_formula_sum "Si O2"
_cell_formula_units_Z 16
_cell_length_a 18.000000
_cell_length_b 9.000000
_cell_length_c 30.000000
_cell_angle_alpha 90.000000
_cell_angle_beta 160.000000
_cell_angle_gamma 90.000000
_cell_volume 1662.217897
_symmetry_space_group_name_H-M "C M"
_symmetry_group_IT_number 8
_symmetry_cell_setting 'monoclinic'
loop_
_space_group_symop_operation_xyz
x,y,z
x,-y,z
1/2+x,1/2+y,z
1/2+x,1/2-y,z
loop_
_atom_site_type_symbol
_atom_site_label
_atom_site_fract_x
_atom_site_fract_y
_atom_site_fract_z
Si Si1 0.215020 0.677257 0.250000
Si Si2 0.207157 0.821438 0.505120
Si Si3 0.075724 0.176332 0.763187
Si Si4 0.191965 0.822402 0.332902
Si Si5 0.432785 0.323978 0.017490
Si Si6 0.767090 0.325067 0.124015
Si Si7 0.983642 0.320964 0.574389
Si Si8 0.355778 0.677638 0.842548
O O1 0.189799 0.500000 0.234151
O O2 0.454068 0.714844 0.365375
O O3 0.196267 0.736785 0.289207
O O4 0.035209 0.756763 0.119158
O O5 0.341601 0.745217 0.620603
O O6 0.323168 0.773561 0.524285
O O7 0.231108 0.000000 0.521987
O O8 0.224485 0.230349 0.805456
O O9 0.065267 0.000000 0.759842
O O10 0.207246 0.245219 0.878265
O O11 0.393277 0.769689 0.476637
O O12 0.975132 0.778036 0.237700
O O13 0.199290 0.000000 0.330199
O O14 0.401466 0.500000 0.002120
O O15 0.611875 0.297261 0.079066
O O16 0.827858 0.500000 0.158670
O O17 0.609290 0.296670 0.992540
O O18 0.967954 0.500000 0.564620
O O19 0.230897 0.285559 0.726768
O O20 0.322578 0.500000 0.833099
#
# Coordination Sequence:
#
# PCOD9133646 Si02
#       8
#     4   4   4   4   4   4   4   4
#     4  11  23  38  55  76 106 144 185 227 269 317
#     4   9  18  35  57  78 104 139 177 220 269 318
#     4  10  18  29  51  83 112 136 170 217 265 319
#     4  11  22  35  52  75 107 144 179 219 267 319
#     4  10  20  36  58  82 109 140 176 222 273 321
#     4   9  18  33  55  80 105 135 171 215 266 319
#     4   8  15  31  55  78  98 129 173 213 257 313
#     4   8  15  31  53  76 103 135 173 219 268 312
#
# _framework density 9.6256939999999993
#
# number of rings (size 3 to 8) (size 9 to 14) (size 15 to 20)
#    0.000    2.500    0.000    4.500    0.000    4.500 
#    0.000    7.500    0.000    4.500    0.000    0.000 
#    0.000    0.000    0.000    0.000    0.000    0.000 
#
# Total GULP energy -89210.442169 kJ/mol
# GULP energy per Si atom -5575.652636 kJ/mol
# Density = 0.960378 g / cm^3
# Si number density = 9.625694 Si / 1000 Ang^3
#
#
#
# Elastic Constant Matrix: (Units=GPa)
#
#
# Indices 1 2 3 4 5 6 
#
# 1 28.7215 2.1821 13.7689 0.0000 -29.3392 0.0004
# 2 2.1821 29.0969 14.1033 0.0002 -11.6347 -0.0001
# 3 13.7689 14.1033 81.3923 0.0168 -47.7825 -0.0079
# 4 0.0000 0.0002 0.0168 20.6293 -0.0032 6.0396
# 5 -29.3392 -11.6347 -47.7825 -0.0032 29.5210 0.0017
# 6 0.0004 -0.0001 -0.0079 6.0396 0.0017 12.9914
#
#
#
# Elastic Compliance Matrix: (Units=1/GPa)
#
#
# Indices 1 2 3 4 5 6 
#
# 1 -0.002462 -0.006318 -0.027867 0.000021 -0.050042 -0.000020
# 2 -0.006318 0.036439 -0.010056 0.000009 -0.008194 -0.000009
# 3 -0.027867 -0.010056 0.003159 -0.000010 -0.026545 0.000011
# 4 0.000021 0.000009 -0.000010 0.056112 0.000016 -0.026086
# 5 -0.050042 -0.008194 -0.026545 0.000016 -0.062056 -0.000014
# 6 -0.000020 -0.000009 0.000011 -0.026086 -0.000014 0.089101
#
#
# Mechanical properties :
#
#
# Convention : Reuss Voigt Hill
#
# Bulk Modulus (GPa) = -19.47586 22.14657 1.33536
# Shear Modulus (GPa) = 26.08805 19.90543 22.99674
#
# Velocity S-wave (km/s) = 3.68520 3.21903 3.45998
# Velocity P-wave (km/s) = 2.82294 5.03439 4.08131
#
# Compressibility (1/GPa) = -0.05134561
#
# Stress axis : x y z
#
# Youngs Moduli (GPa) = -406.11210 27.44291 316.57415
#
# Poissons Ratio (x) = 0.17339 8.82189
# Poissons Ratio (y) = -2.56591 3.18337
# Poissons Ratio (z) = -11.31702 0.27596
#
# Static dielectric constant tensor:
#      x y z
#    x 1.677760 0.000000 -0.042440 
#    y 0.000000 1.628540 0.000000 
#    z -0.042440 0.000000 1.714890 
# 
# From -- ./inp_files/27749.got.cif
#   From: 2010.05.17/outbox.ucp.g08.bks.cvg/sg8_14_cif.got.tgz:27749.got - 2010.06.11 13:00:03.
