data_PCOD9133979
_publ_section_title
;
Structure prediction by ZEFSAII (Michael W. Deem and Ramdas Pophale) SiO2 
 PCOD9133979
Probable space group: C C
;
_chemical_formula_sum "Si O2"
_cell_formula_units_Z 32
_cell_length_a 21.366309
_cell_length_b 9.213647
_cell_length_c 22.095189
_cell_angle_alpha 90.000000
_cell_angle_beta 159.148963
_cell_angle_gamma 90.000000
_cell_volume 1548.228358
_symmetry_space_group_name_H-M "C C"
_symmetry_group_IT_number 9
_symmetry_cell_setting 'monoclinic'
loop_
_space_group_symop_operation_xyz
x,y,z
x,-y,1/2+z
1/2+x,1/2+y,z
1/2+x,1/2-y,1/2+z
loop_
_atom_site_type_symbol
_atom_site_label
_atom_site_fract_x
_atom_site_fract_y
_atom_site_fract_z
Si Si1 0.493700 0.404081 0.122020
Si Si2 0.064478 0.574032 0.817234
Si Si3 0.406263 0.230648 0.164654
Si Si4 0.745389 0.839357 0.794963
Si Si5 0.531118 0.849444 0.491804
Si Si6 0.970485 0.845350 0.682636
Si Si7 0.067892 0.040724 0.879287
Si Si8 0.778639 0.619115 0.662760
O O1 0.440799 0.314849 0.134098
O O2 0.643362 0.305316 0.226204
O O3 0.544589 0.560722 0.194009
O O4 0.327208 0.418581 0.926699
O O5 0.043908 0.402087 0.794168
O O6 0.999525 0.674307 0.703168
O O7 0.929329 0.621492 0.747951
O O8 0.266005 0.616792 0.006400
O O9 0.408876 0.348422 0.221727
O O10 0.226815 0.142571 0.001440
O O11 0.618377 0.916021 0.631140
O O12 0.915128 0.784439 0.911751
O O13 0.687717 0.774302 0.594517
O O14 0.389755 0.931500 0.322101
O O15 0.056643 0.907727 0.822285
O O16 0.124425 0.981772 0.995765
#
# Coordination Sequence:
#
# PCOD9133979 Si02
#       8
#     4   4   4   4   4   4   4   4
#     4  10  18  33  53  79 111 140 177 234 280 321
#     4  11  21  33  51  80 116 152 183 214 270 349
#     4  10  19  33  52  79 114 148 180 213 268 349
#     4   9  18  31  53  78 102 139 187 234 281 321
#     4   9  18  33  51  80 106 136 187 239 279 319
#     4  11  21  32  49  78 113 147 181 220 268 332
#     4  10  20  33  51  77 110 146 179 217 270 333
#     4  10  19  32  52  77 114 146 178 233 282 322
#
# _framework density 20.668783999999999
#
# number of rings (size 3 to 8) (size 9 to 14) (size 15 to 20)
#    0.000    2.000    0.000    6.750    0.000    1.000 
#    0.000    0.000    0.000    0.000    0.000   98.000 
#    0.000    0.000    0.000    0.000    0.000    0.000 
#
# Total GULP energy -89119.398953 kJ/mol
# GULP energy per Si atom -5569.962435 kJ/mol
# Density = 2.062174 g / cm^3
# Si number density = 20.668784 Si / 1000 Ang^3
#
#
#
# Elastic Constant Matrix: (Units=GPa)
#
#
# Indices 1 2 3 4 5 6 
#
# 1 58.3033 13.3665 16.8555 -0.0010 -15.8070 -0.0005
# 2 13.3665 78.6803 15.1329 -0.0030 -20.6416 -0.0019
# 3 16.8555 15.1329 89.8028 -0.0046 -31.5756 -0.0029
# 4 -0.0010 -0.0030 -0.0046 40.5807 -0.0011 -6.6404
# 5 -15.8070 -20.6416 -31.5756 -0.0011 47.5820 -0.0005
# 6 -0.0005 -0.0019 -0.0029 -6.6404 -0.0005 11.0029
#
#
#
# Elastic Compliance Matrix: (Units=1/GPa)
#
#
# Indices 1 2 3 4 5 6 
#
# 1 0.019275 -0.001764 -0.001745 0.000000 0.004480 0.000001
# 2 -0.001764 0.014509 -0.000139 0.000002 0.005616 0.000004
# 3 -0.001745 -0.000139 0.014689 0.000003 0.009107 0.000006
# 4 0.000000 0.000002 0.000003 0.027342 0.000004 0.016501
# 5 0.004480 0.005616 0.009107 0.000004 0.030985 0.000007
# 6 0.000001 0.000004 0.000006 0.016501 0.000007 0.100844
#
#
# Mechanical properties :
#
#
# Convention : Reuss Voigt Hill
#
# Bulk Modulus (GPa) = 24.28556 35.27737 29.78147
# Shear Modulus (GPa) = 21.86592 31.92855 26.89723
#
# Velocity S-wave (km/s) = 3.25610 3.93462 3.61133
# Velocity P-wave (km/s) = 5.09034 6.14383 5.64173
#
# Compressibility (1/GPa) = 0.04117673
#
# Stress axis : x y z
#
# Youngs Moduli (GPa) = 51.88009 68.92077 68.07903
#
# Poissons Ratio (x) = 0.12154 0.11883
# Poissons Ratio (y) = 0.09149 0.00949
# Poissons Ratio (z) = 0.09056 0.00961
#
# Static dielectric constant tensor:
#      x y z
#    x 1.752720 0.000000 -0.035490 
#    y 0.000000 1.757320 0.000000 
#    z -0.035490 0.000000 1.873320 
# 
# From -- ./inp_files/36058.got.cif
#   From: 2010.05.17/outbox.cif.g08.bks.cpg/sg9_19_cif.got.tgz:36058.got - 2010.06.03 20:04:27.
