data_PCOD9133182
_publ_section_title
;
Structure prediction by ZEFSAII (Michael W. Deem and Ramdas Pophale) SiO2 
 PCOD9133182
Probable space group: C M
;
_chemical_formula_sum "Si O2"
_cell_formula_units_Z 14
_cell_length_a 8.006002
_cell_length_b 12.523446
_cell_length_c 4.624597
_cell_angle_alpha 90.000000
_cell_angle_beta 81.795847
_cell_angle_gamma 90.000000
_cell_volume 458.929439
_symmetry_space_group_name_H-M "C M"
_symmetry_group_IT_number 8
_symmetry_cell_setting 'monoclinic'
loop_
_space_group_symop_operation_xyz
x,y,z
x,-y,z
1/2+x,1/2+y,z
1/2+x,1/2-y,z
loop_
_atom_site_type_symbol
_atom_site_label
_atom_site_fract_x
_atom_site_fract_y
_atom_site_fract_z
Si Si1 0.750000 0.693473 0.771730
Si Si2 0.967416 0.880542 0.450709
Si Si3 0.981279 0.500000 0.725578
Si Si4 0.168242 0.615628 0.147927
O O1 0.863714 0.786317 0.617448
O O2 0.652654 0.641843 0.524575
O O3 0.852473 0.596995 0.884921
O O4 0.637564 0.768836 0.016377
O O5 0.868121 0.886888 0.168718
O O6 0.933172 0.000000 0.568507
O O7 0.067124 0.591963 0.465759
O O8 0.125408 0.500000 0.974824
#
# Coordination Sequence:
#
# PCOD9133182 Si02
#       4
#     4   4   2   4
#     4  12  22  41  62  87 121 158 191 247 293 345
#     4  11  24  38  64  89 116 157 201 235 298 350
#     4  10  22  40  58  90 124 148 198 248 284 350
#     4   9  22  42  58  87 123 150 194 249 285 347
#
# _framework density 30.505776999999998
#
# number of rings (size 3 to 8) (size 9 to 14) (size 15 to 20)
#    0.857    0.571    4.286    0.857    4.000    0.000 
#    0.000    1.429    0.000    0.000    0.000    0.000 
#    0.000    0.000    0.000    0.000    0.000    0.000 
#
# Total GULP energy -39015.964997 kJ/mol
# GULP energy per Si atom -5573.709285 kJ/mol
# Density = 3.043634 g / cm^3
# Si number density = 30.505777 Si / 1000 Ang^3
#
#
#
# Elastic Constant Matrix: (Units=GPa)
#
#
# Indices 1 2 3 4 5 6 
#
# 1 151.1253 111.5958 69.0637 0.0000 50.6216 0.0000
# 2 111.5958 358.8666 98.5968 0.0000 30.2357 0.0000
# 3 69.0637 98.5968 186.9730 0.0000 22.8797 0.0000
# 4 0.0000 0.0000 0.0000 58.0415 0.0000 21.2770
# 5 50.6216 30.2357 22.8797 0.0000 51.7108 0.0000
# 6 0.0000 0.0000 0.0000 21.2770 0.0000 90.0405
#
#
#
# Elastic Compliance Matrix: (Units=1/GPa)
#
#
# Indices 1 2 3 4 5 6 
#
# 1 0.012911 -0.002560 -0.002173 0.000000 -0.010180 0.000000
# 2 -0.002560 0.003840 -0.001175 0.000000 0.000781 0.000000
# 3 -0.002173 -0.001175 0.006794 0.000000 -0.000192 0.000000
# 4 0.000000 0.000000 0.000000 0.018863 0.000000 -0.004457
# 5 -0.010180 0.000781 -0.000192 0.000000 0.028932 0.000000
# 6 0.000000 0.000000 0.000000 -0.004457 0.000000 0.012159
#
#
# Mechanical properties :
#
#
# Convention : Reuss Voigt Hill
#
# Bulk Modulus (GPa) = 85.26260 139.49751 112.38006
# Shear Modulus (GPa) = 50.39097 67.80580 59.09839
#
# Velocity S-wave (km/s) = 4.06871 4.71969 4.40624
# Velocity P-wave (km/s) = 7.07692 8.69069 7.92499
#
# Compressibility (1/GPa) = 0.01172847
#
# Stress axis : x y z
#
# Youngs Moduli (GPa) = 77.45624 260.44584 147.18869
#
# Poissons Ratio (x) = 0.66673 0.31987
# Poissons Ratio (y) = 0.19829 0.17290
# Poissons Ratio (z) = 0.16833 0.30594
#
# Static dielectric constant tensor:
#      x y z
#    x 2.434350 0.000000 -0.032880 
#    y 0.000000 2.306480 0.000000 
#    z -0.032880 0.000000 2.619600 
# 
# From -- ./inp_files/788.got.cif
#   From: 2010.05.17/outbox.cif.g08.bks.cpg/sg8_1_cif.got.tgz:788.got - 2010.06.03 19:46:02.
