data_PCOD9133114
_publ_section_title
;
Structure prediction by ZEFSAII (Michael W. Deem and Ramdas Pophale) SiO2 
 PCOD9133114
Probable space group: C M
;
_chemical_formula_sum "Si O2"
_cell_formula_units_Z 28
_cell_length_a 8.032455
_cell_length_b 28.727966
_cell_length_c 6.217187
_cell_angle_alpha 90.000000
_cell_angle_beta 117.881353
_cell_angle_gamma 90.000000
_cell_volume 1268.116124
_symmetry_space_group_name_H-M "C M"
_symmetry_group_IT_number 8
_symmetry_cell_setting 'monoclinic'
loop_
_space_group_symop_operation_xyz
x,y,z
x,-y,z
1/2+x,1/2+y,z
1/2+x,1/2-y,z
loop_
_atom_site_type_symbol
_atom_site_label
_atom_site_fract_x
_atom_site_fract_y
_atom_site_fract_z
Si Si1 0.660190 0.500000 0.792260
Si Si2 0.123776 0.321904 0.874514
Si Si3 0.434995 0.730327 0.766761
Si Si4 0.517485 0.102583 0.496218
Si Si5 0.459036 0.596908 0.712386
Si Si6 0.336949 0.000000 0.401024
Si Si7 0.192623 0.160612 0.131860
Si Si8 0.963693 0.823681 0.387656
O O1 0.537627 0.546398 0.723061
O O2 0.749896 0.500000 0.599447
O O3 0.754974 0.500000 0.096733
O O4 0.262187 0.296187 0.780207
O O5 0.972526 0.283195 0.847739
O O6 0.025586 0.367489 0.720815
O O7 0.270251 0.334166 0.147931
O O8 0.420297 0.721278 0.504735
O O9 0.628236 0.702585 0.941836
O O10 0.735306 0.098082 0.570208
O O11 0.437415 0.050601 0.463541
O O12 0.393393 0.135687 0.264296
O O13 0.520531 0.632812 0.567047
O O14 0.546606 0.618871 0.982591
O O15 0.131882 0.181683 0.323223
#
# Coordination Sequence:
#
# PCOD9133114 Si02
#       8
#     2   4   4   4   4   2   4   4
#     4  12  27  52  79 109 153 194 249 325 385 452
#     4  11  25  42  65 103 144 191 249 299 372 448
#     4  10  24  42  63 100 143 192 239 301 371 440
#     4  12  24  47  73 110 143 193 252 309 372 461
#     4  11  23  47  72 101 142 191 236 309 371 446
#     4  12  29  50  79 117 149 200 259 313 395 450
#     4  10  22  44  67 100 146 180 243 301 373 441
#     4  10  21  44  66  96 146 189 238 301 374 441
#
# _framework density 22.079999000000001
#
# number of rings (size 3 to 8) (size 9 to 14) (size 15 to 20)
#    0.000    1.143    5.714    1.286    4.000    3.429 
#    2.571    2.143    0.000    0.000    0.000    0.000 
#    0.000    0.000    0.000    0.000    0.000    0.000 
#
# Total GULP energy -78034.004303 kJ/mol
# GULP energy per Si atom -5573.857450 kJ/mol
# Density = 2.202974 g / cm^3
# Si number density = 22.079999 Si / 1000 Ang^3
#
#
#
# Elastic Constant Matrix: (Units=GPa)
#
#
# Indices 1 2 3 4 5 6 
#
# 1 76.3434 0.9333 29.0200 0.0000 2.5401 0.0000
# 2 0.9333 103.1759 20.2768 0.0000 6.5693 0.0000
# 3 29.0200 20.2768 98.5098 0.0000 12.5788 0.0000
# 4 0.0000 0.0000 0.0000 34.4738 0.0000 17.2437
# 5 2.5401 6.5693 12.5788 0.0000 32.6498 0.0000
# 6 0.0000 0.0000 0.0000 17.2437 0.0000 31.2759
#
#
#
# Elastic Compliance Matrix: (Units=1/GPa)
#
#
# Indices 1 2 3 4 5 6 
#
# 1 0.014813 0.000736 -0.004574 0.000000 0.000462 0.000000
# 2 0.000736 0.010190 -0.002151 0.000000 -0.001279 0.000000
# 3 -0.004574 -0.002151 0.012453 0.000000 -0.004009 0.000000
# 4 0.000000 0.000000 0.000000 0.040053 0.000000 -0.022083
# 5 0.000462 -0.001279 -0.004009 0.000000 0.032394 0.000000
# 6 0.000000 0.000000 0.000000 -0.022083 0.000000 0.044149
#
#
# Mechanical properties :
#
#
# Convention : Reuss Voigt Hill
#
# Bulk Modulus (GPa) = 39.25051 42.05436 40.65243
# Shear Modulus (GPa) = 28.64938 34.86651 31.75795
#
# Velocity S-wave (km/s) = 3.60603 3.97810 3.79662
# Velocity P-wave (km/s) = 5.92900 6.33941 6.13763
#
# Compressibility (1/GPa) = 0.02547737
#
# Stress axis : x y z
#
# Youngs Moduli (GPa) = 67.50782 98.13896 80.29923
#
# Poissons Ratio (x) = -0.07219 0.36730
# Poissons Ratio (y) = -0.04965 0.17271
# Poissons Ratio (z) = 0.30879 0.21107
#
# Static dielectric constant tensor:
#      x y z
#    x 1.856300 0.000000 -0.028720 
#    y 0.000000 1.783460 0.000000 
#    z -0.028720 0.000000 1.903150 
# 
# From -- ./inp_files/1957.got.cif
#   From: 2010.05.17/outbox.cif.g08.bks.cpg/sg8_1_cif.got.tgz:1957.got - 2010.06.03 19:46:02.
