data_PCOD9133242
_publ_section_title
;
Structure prediction by ZEFSAII (Michael W. Deem and Ramdas Pophale) SiO2 
 PCOD9133242
Probable space group: C M
;
_chemical_formula_sum "Si O2"
_cell_formula_units_Z 28
_cell_length_a 18.840360
_cell_length_b 13.663752
_cell_length_c 5.027138
_cell_angle_alpha 90.000000
_cell_angle_beta 93.569684
_cell_angle_gamma 90.000000
_cell_volume 1291.625301
_symmetry_space_group_name_H-M "C M"
_symmetry_group_IT_number 8
_symmetry_cell_setting 'monoclinic'
loop_
_space_group_symop_operation_xyz
x,y,z
x,-y,z
1/2+x,1/2+y,z
1/2+x,1/2-y,z
loop_
_atom_site_type_symbol
_atom_site_label
_atom_site_fract_x
_atom_site_fract_y
_atom_site_fract_z
Si Si1 0.435430 0.111972 0.016600
Si Si2 0.022884 0.786052 0.573195
Si Si3 0.878996 0.279425 0.484358
Si Si4 0.557559 0.606839 0.077535
Si Si5 0.590121 0.883631 0.320426
Si Si6 0.727110 0.257079 0.318223
Si Si7 0.710721 0.610980 0.829238
O O1 0.390655 0.133691 0.273841
O O2 0.520011 0.124222 0.112595
O O3 0.428133 0.000000 0.931892
O O4 0.400966 0.177063 0.775776
O O5 0.944859 0.789495 0.430566
O O6 0.017031 0.822969 0.868736
O O7 0.059513 0.679564 0.561682
O O8 0.064975 0.853635 0.375367
O O9 0.804653 0.224414 0.440222
O O10 0.525367 0.500000 0.076980
O O11 0.633017 0.602420 0.944906
O O12 0.663433 0.823377 0.270329
O O13 0.602786 0.000000 0.365692
O O14 0.742829 0.311045 0.043158
O O15 0.710161 0.339152 0.540286
O O16 0.740426 0.500000 0.825450
#
# Coordination Sequence:
#
# PCOD9133242 Si02
#       7
#     4   4   4   4   4   4   4
#     4  10  22  41  65  92 124 168 223 268 318 384
#     4  11  21  41  63  90 126 165 210 264 308 376
#     4  11  24  38  62  92 130 170 207 262 332 382
#     4  11  21  38  65  94 120 155 206 260 314 371
#     4  10  22  42  67  92 123 172 224 268 307 367
#     4  12  24  41  63  96 134 168 207 268 326 386
#     4  11  23  39  63  96 127 162 204 256 324 388
#
# _framework density 21.678115999999999
#
# number of rings (size 3 to 8) (size 9 to 14) (size 15 to 20)
#    0.000    1.143    2.857    3.857    0.000    6.286 
#    0.000    7.143    0.000    0.000    0.000    0.000 
#    0.000    0.000    0.000    0.000    0.000    0.000 
#
# Total GULP energy -77987.525067 kJ/mol
# GULP energy per Si atom -5570.537505 kJ/mol
# Density = 2.162878 g / cm^3
# Si number density = 21.678116 Si / 1000 Ang^3
#
#
#
# Elastic Constant Matrix: (Units=GPa)
#
#
# Indices 1 2 3 4 5 6 
#
# 1 136.2930 26.6439 -2.7228 0.0000 8.7666 0.0000
# 2 26.6439 120.9244 30.3505 0.0000 8.3981 0.0000
# 3 -2.7228 30.3505 105.6947 0.0000 4.7586 0.0000
# 4 0.0000 0.0000 0.0000 7.3013 0.0000 3.6606
# 5 8.7666 8.3981 4.7586 0.0000 26.0446 0.0000
# 6 0.0000 0.0000 0.0000 3.6606 0.0000 10.3484
#
#
#
# Elastic Compliance Matrix: (Units=1/GPa)
#
#
# Indices 1 2 3 4 5 6 
#
# 1 0.007843 -0.001778 0.000812 0.000000 -0.002215 0.000000
# 2 -0.001778 0.009470 -0.002677 0.000000 -0.001966 0.000000
# 3 0.000812 -0.002677 0.010309 0.000000 -0.001294 0.000000
# 4 0.000000 0.000000 0.000000 0.166490 0.000000 -0.058894
# 5 -0.002215 -0.001966 -0.001294 0.000000 0.040012 0.000000
# 6 0.000000 0.000000 0.000000 -0.058894 0.000000 0.117466
#
#
# Mechanical properties :
#
#
# Convention : Reuss Voigt Hill
#
# Bulk Modulus (GPa) = 49.17047 52.38391 50.77719
# Shear Modulus (GPa) = 13.67415 29.31489 21.49452
#
# Velocity S-wave (km/s) = 2.51426 3.68133 3.15227
# Velocity P-wave (km/s) = 5.58211 6.50280 6.05997
#
# Compressibility (1/GPa) = 0.02033741
#
# Stress axis : x y z
#
# Youngs Moduli (GPa) = 127.49445 105.59935 97.00277
#
# Poissons Ratio (x) = 0.18778 -0.07881
# Poissons Ratio (y) = 0.22672 0.25963
# Poissons Ratio (z) = -0.10358 0.28264
#
# Static dielectric constant tensor:
#      x y z
#    x 1.935510 0.000000 -0.002670 
#    y 0.000000 1.833930 0.000000 
#    z -0.002670 0.000000 1.809400 
# 
# From -- ./inp_files/4845.got.cif
#   From: 2010.05.17/outbox.cif.g08.bks.cpg/sg8_3_cif.got.tgz:4845.got - 2010.06.03 19:46:02.
