data_PCOD9133664
_publ_section_title
;
Structure prediction by ZEFSAII (Michael W. Deem and Ramdas Pophale) SiO2 
 PCOD9133664
Probable space group: C M
;
_chemical_formula_sum "Si O2"
_cell_formula_units_Z 16
_cell_length_a 21.000000
_cell_length_b 9.000000
_cell_length_c 27.000000
_cell_angle_alpha 90.000000
_cell_angle_beta 20.000000
_cell_angle_gamma 90.000000
_cell_volume 1745.328791
_symmetry_space_group_name_H-M "C M"
_symmetry_group_IT_number 8
_symmetry_cell_setting 'monoclinic'
loop_
_space_group_symop_operation_xyz
x,y,z
x,-y,z
1/2+x,1/2+y,z
1/2+x,1/2-y,z
loop_
_atom_site_type_symbol
_atom_site_label
_atom_site_fract_x
_atom_site_fract_y
_atom_site_fract_z
Si Si1 0.225560 0.675977 0.081490
Si Si2 0.158953 0.680199 0.241059
Si Si3 0.939148 0.825387 0.486222
Si Si4 0.314519 0.173030 0.725219
Si Si5 0.100229 0.331368 0.797750
Si Si6 0.053656 0.176018 0.004983
Si Si7 0.031228 0.325361 0.126806
Si Si8 0.158569 0.670491 0.413578
O O1 0.191644 0.500000 0.106190
O O2 0.157228 0.728742 0.185064
O O3 0.140736 0.740814 0.093429
O O4 0.441092 0.711693 0.919351
O O5 0.138639 0.500000 0.258635
O O6 0.004127 0.763490 0.386262
O O7 0.361521 0.717121 0.116972
O O8 0.722170 0.817459 0.658996
O O9 0.036677 0.717775 0.455115
O O10 0.993337 0.000000 0.452634
O O11 0.232497 0.292704 0.747194
O O12 0.228124 0.205303 0.841574
O O13 0.533379 0.177547 0.554308
O O14 0.258471 0.000000 0.754130
O O15 0.029778 0.500000 0.852983
O O16 0.043533 0.000000 0.020709
O O17 0.069457 0.254524 0.045826
O O18 0.065494 0.500000 0.097975
O O19 0.820539 0.288719 0.294776
O O20 0.223449 0.500000 0.359620
#
# Coordination Sequence:
#
# PCOD9133664 Si02
#       8
#     4   4   4   4   4   4   4   4
#     4  10  22  40  57  76 107 147 184 218 264 323
#     4  10  19  34  57  81 105 140 185 223 262 314
#     4  10  20  33  52  82 114 138 172 223 273 315
#     4   9  18  34  56  80 107 141 179 221 265 315
#     4  10  20  33  53  82 111 140 174 221 273 315
#     4  10  19  34  57  82 108 139 180 225 265 313
#     4  11  23  37  55  79 111 146 178 220 270 318
#     4  10  19  33  55  80 107 143 182 217 264 319
#
# _framework density 9.1673270000000002
#
# number of rings (size 3 to 8) (size 9 to 14) (size 15 to 20)
#    0.000    2.000    2.500    1.500    0.000    4.000 
#    0.000    1.250    0.000    6.000    0.000    0.000 
#    0.000    0.000    0.000    0.000    0.000    0.000 
#
# Total GULP energy -89101.495104 kJ/mol
# GULP energy per Si atom -5568.843444 kJ/mol
# Density = 0.914646 g / cm^3
# Si number density = 9.167327 Si / 1000 Ang^3
#
#
#
# Elastic Constant Matrix: (Units=GPa)
#
#
# Indices 1 2 3 4 5 6 
#
# 1 54.9228 28.3963 19.4242 -0.0737 24.9716 -0.0164
# 2 28.3963 6.4907 8.9542 -0.0122 27.7598 -0.0026
# 3 19.4242 8.9542 55.9321 0.0722 36.4094 0.0205
# 4 -0.0737 -0.0122 0.0722 97.8265 0.0629 13.9028
# 5 24.9716 27.7598 36.4094 0.0629 16.4831 0.0130
# 6 -0.0164 -0.0026 0.0205 13.9028 0.0130 17.5171
#
#
#
# Elastic Compliance Matrix: (Units=1/GPa)
#
#
# Indices 1 2 3 4 5 6 
#
# 1 0.069824 -0.061106 0.028768 0.000063 -0.066416 0.000021
# 2 -0.061106 0.067425 -0.054998 -0.000060 0.100505 -0.000009
# 3 0.028768 -0.054998 0.034781 0.000008 -0.027787 -0.000008
# 4 0.000063 -0.000060 0.000008 0.011522 -0.000049 -0.009144
# 5 -0.066416 0.100505 -0.027787 -0.000049 0.053403 -0.000015
# 6 0.000021 -0.000009 -0.000008 -0.009144 -0.000015 0.064345
#
#
# Mechanical properties :
#
#
# Convention : Reuss Voigt Hill
#
# Bulk Modulus (GPa) = -378.61812 25.65500 -176.48156
# Shear Modulus (GPa) = 10.52432 30.40339 20.46386
#
# Velocity S-wave (km/s) = 2.39845 4.07658 3.34448
# Velocity P-wave (km/s) = 14.11674 6.01506 9.03054
#
# Compressibility (1/GPa) = -0.00264118
#
# Stress axis : x y z
#
# Youngs Moduli (GPa) = 14.32180 14.83126 28.75109
#
# Poissons Ratio (x) = 0.90628 -0.82712
# Poissons Ratio (y) = 0.87515 1.58125
# Poissons Ratio (z) = -0.41201 0.81569
#
# Static dielectric constant tensor:
#      x y z
#    x 1.801590 0.000010 -0.106100 
#    y 0.000010 1.614900 0.000000 
#    z -0.106100 0.000000 1.719710 
# 
# From -- ./inp_files/29757.got.cif
#   From: 2010.05.17/outbox.ucp.g08.bks.cvg/sg8_15_cif.got.tgz:29757.got - 2010.06.11 13:00:03.
