data_PCOD9133443
_publ_section_title
;
Structure prediction by ZEFSAII (Michael W. Deem and Ramdas Pophale) SiO2 
 PCOD9133443
Probable space group: C M
;
_chemical_formula_sum "Si O2"
_cell_formula_units_Z 16
_cell_length_a 7.839991
_cell_length_b 16.105537
_cell_length_c 5.311565
_cell_angle_alpha 90.000000
_cell_angle_beta 90.496860
_cell_angle_gamma 90.000000
_cell_volume 670.651569
_symmetry_space_group_name_H-M "C M"
_symmetry_group_IT_number 8
_symmetry_cell_setting 'monoclinic'
loop_
_space_group_symop_operation_xyz
x,y,z
x,-y,z
1/2+x,1/2+y,z
1/2+x,1/2-y,z
loop_
_atom_site_type_symbol
_atom_site_label
_atom_site_fract_x
_atom_site_fract_y
_atom_site_fract_z
Si Si1 0.009370 0.593436 0.501740
Si Si2 0.400650 0.408435 0.507364
Si Si3 0.571027 0.742462 0.742381
Si Si4 0.198121 0.169306 0.244257
O O1 0.964690 0.500000 0.586213
O O2 0.205611 0.591889 0.417712
O O3 0.003038 0.664126 0.717629
O O4 0.874974 0.622302 0.289399
O O5 0.435156 0.500000 0.616396
O O6 0.438270 0.334434 0.705386
O O7 0.536856 0.391221 0.287834
O O8 0.678152 0.729096 0.486137
O O9 0.673491 0.721702 0.994203
#
# Coordination Sequence:
#
# PCOD9133443 Si02
#       4
#     4   4   4   4
#     4  11  23  46  74 111 144 186 242 297 354 427
#     4   9  22  44  71 106 144 186 238 294 357 423
#     4  10  24  47  71 100 147 189 234 291 359 424
#     4  10  24  47  71  99 145 187 239 286 361 414
#
# _framework density 23.857396999999999
#
# number of rings (size 3 to 8) (size 9 to 14) (size 15 to 20)
#    1.500    0.500    0.000    2.250    0.000    6.000 
#    4.500    3.750    0.000    0.000    0.000    0.000 
#    0.000    0.000    0.000    0.000    0.000    0.000 
#
# Total GULP energy -44627.815969 kJ/mol
# GULP energy per Si atom -5578.476996 kJ/mol
# Density = 2.380310 g / cm^3
# Si number density = 23.857397 Si / 1000 Ang^3
#
#
#
# Elastic Constant Matrix: (Units=GPa)
#
#
# Indices 1 2 3 4 5 6 
#
# 1 103.9456 53.0884 66.6341 0.0000 22.8339 0.0000
# 2 53.0884 240.5372 88.5230 0.0000 21.5617 0.0000
# 3 66.6341 88.5230 161.8354 0.0000 15.7163 0.0000
# 4 0.0000 0.0000 0.0000 21.7074 0.0000 4.9267
# 5 22.8339 21.5617 15.7163 0.0000 25.5121 0.0000
# 6 0.0000 0.0000 0.0000 4.9267 0.0000 24.8664
#
#
#
# Elastic Compliance Matrix: (Units=1/GPa)
#
#
# Indices 1 2 3 4 5 6 
#
# 1 0.015380 -0.000648 -0.004993 0.000000 -0.010142 0.000000
# 2 -0.000648 0.005430 -0.002461 0.000000 -0.002493 0.000000
# 3 -0.004993 -0.002461 0.009515 0.000000 0.000688 0.000000
# 4 0.000000 0.000000 0.000000 0.048236 0.000000 -0.009557
# 5 -0.010142 -0.002493 0.000688 0.000000 0.049958 0.000000
# 6 0.000000 0.000000 0.000000 -0.009557 0.000000 0.042108
#
#
# Mechanical properties :
#
#
# Convention : Reuss Voigt Hill
#
# Bulk Modulus (GPa) = 70.82305 102.53437 86.67871
# Shear Modulus (GPa) = 26.10457 34.28870 30.19664
#
# Velocity S-wave (km/s) = 3.31145 3.79520 3.56155
# Velocity P-wave (km/s) = 6.66118 7.89152 7.30231
#
# Compressibility (1/GPa) = 0.01411970
#
# Stress axis : x y z
#
# Youngs Moduli (GPa) = 65.01890 184.17788 105.10253
#
# Poissons Ratio (x) = 0.11929 0.52482
# Poissons Ratio (y) = 0.04211 0.25867
# Poissons Ratio (z) = 0.32467 0.45329
#
# Static dielectric constant tensor:
#      x y z
#    x 2.022730 0.000000 0.007220 
#    y 0.000000 1.958500 0.000000 
#    z 0.007220 0.000000 1.845550 
# 
# From -- ./inp_files/961.got.cif
#   From: 2010.05.17/outbox.cif.g08.bks.cpg/sg8_1_cif.got.tgz:961.got - 2010.06.03 19:46:02.
