data_PCOD9133502
_publ_section_title
;
Structure prediction by ZEFSAII (Michael W. Deem and Ramdas Pophale) SiO2 
 PCOD9133502
Probable space group: C M
;
_chemical_formula_sum "Si O2"
_cell_formula_units_Z 32
_cell_length_a 14.309371
_cell_length_b 16.726867
_cell_length_c 10.766289
_cell_angle_alpha 90.000000
_cell_angle_beta 31.023786
_cell_angle_gamma 90.000000
_cell_volume 1328.129542
_symmetry_space_group_name_H-M "C M"
_symmetry_group_IT_number 8
_symmetry_cell_setting 'monoclinic'
loop_
_space_group_symop_operation_xyz
x,y,z
x,-y,z
1/2+x,1/2+y,z
1/2+x,1/2-y,z
loop_
_atom_site_type_symbol
_atom_site_label
_atom_site_fract_x
_atom_site_fract_y
_atom_site_fract_z
Si Si1 0.537700 0.911796 0.821300
Si Si2 0.857019 0.644450 0.269714
Si Si3 0.509074 0.321464 0.075512
Si Si4 0.451648 0.408493 0.733282
Si Si5 0.360326 0.152883 0.548679
Si Si6 0.226120 0.186934 0.087053
Si Si7 0.869388 0.844417 0.580569
Si Si8 0.729226 0.138230 0.217486
O O1 0.424467 0.850296 0.866729
O O2 0.739055 0.884938 0.629924
O O3 0.535344 0.000000 0.770868
O O4 0.433293 0.910769 0.074107
O O5 0.637963 0.642178 0.525913
O O6 0.907568 0.628262 0.354916
O O7 0.945096 0.729631 0.132759
O O8 0.654256 0.363289 0.819016
O O9 0.625951 0.315034 0.068623
O O10 0.322359 0.364172 0.246155
O O11 0.493577 0.500000 0.651442
O O12 0.325609 0.368511 0.770780
O O13 0.346215 0.408611 0.982991
O O14 0.360743 0.249838 0.564285
O O15 0.517403 0.117858 0.456085
O O16 0.235954 0.272077 0.146142
O O17 0.080279 0.132741 0.327006
#
# Coordination Sequence:
#
# PCOD9133502 Si02
#       8
#     4   4   4   4   4   4   4   4
#     4  12  25  42  67 102 141 180 221 278 352 418
#     4  12  21  40  68 100 137 174 225 279 345 400
#     4  12  22  41  66 100 131 172 224 285 336 397
#     4  12  25  42  69 104 144 183 226 287 352 415
#     4  11  22  40  66 101 132 171 229 287 336 395
#     4  11  24  40  68  97 134 177 227 285 333 404
#     4  11  21  40  63  99 136 173 220 276 342 403
#     4  11  22  41  67  97 131 178 228 283 338 400
#
# _framework density 24.094035000000002
#
# number of rings (size 3 to 8) (size 9 to 14) (size 15 to 20)
#    0.000    0.500    7.500    3.000    0.000    1.500 
#    0.000    1.250    0.000    1.500    0.000    0.000 
#    0.000    0.000    0.000    0.000    0.000    0.000 
#
# Total GULP energy -89304.038965 kJ/mol
# GULP energy per Si atom -5581.502435 kJ/mol
# Density = 2.403920 g / cm^3
# Si number density = 24.094035 Si / 1000 Ang^3
#
#
#
# Elastic Constant Matrix: (Units=GPa)
#
#
# Indices 1 2 3 4 5 6 
#
# 1 159.2708 17.9126 14.8593 0.0013 -13.3204 -0.0010
# 2 17.9126 42.3408 5.8377 0.0014 -14.2654 -0.0009
# 3 14.8593 5.8377 86.3997 0.0021 -22.3712 -0.0009
# 4 0.0013 0.0014 0.0021 10.0638 -0.0015 7.5373
# 5 -13.3204 -14.2654 -22.3712 -0.0015 49.3533 0.0012
# 6 -0.0010 -0.0009 -0.0009 7.5373 0.0012 7.1315
#
#
#
# Elastic Compliance Matrix: (Units=1/GPa)
#
#
# Indices 1 2 3 4 5 6 
#
# 1 0.006692 -0.002476 -0.000795 -0.000003 0.000731 0.000003
# 2 -0.002476 0.027085 0.000510 -0.000018 0.007392 0.000021
# 3 -0.000795 0.000510 0.013209 -0.000011 0.005920 0.000013
# 4 -0.000003 -0.000018 -0.000011 0.476758 0.000015 -0.503893
# 5 0.000731 0.007392 0.005920 0.000015 0.025279 -0.000018
# 6 0.000003 0.000021 0.000013 -0.503893 -0.000018 0.672794
#
#
# Mechanical properties :
#
#
# Convention : Reuss Voigt Hill
#
# Bulk Modulus (GPa) = 24.11614 40.58116 32.34865
# Shear Modulus (GPa) = 4.02848 29.93650 16.98249
#
# Velocity S-wave (km/s) = 1.29445 3.52872 2.65777
# Velocity P-wave (km/s) = 3.50215 5.78635 4.78262
#
# Compressibility (1/GPa) = 0.04146601
#
# Stress axis : x y z
#
# Youngs Moduli (GPa) = 149.42653 36.92035 75.70435
#
# Poissons Ratio (x) = 0.09140 0.06015
# Poissons Ratio (y) = 0.36991 -0.03858
# Poissons Ratio (z) = 0.11872 -0.01882
#
# Static dielectric constant tensor:
#      x y z
#    x 1.988450 0.000000 0.059420 
#    y 0.000000 1.890400 0.000000 
#    z 0.059420 0.000000 2.031460 
# 
# From -- ./inp_files/22381.got.cif
#   From: 2010.05.17/outbox.cif.g08.bks.cpg/sg8_12_cif.got.tgz:22381.got - 2010.06.03 19:46:02.
