data_PCOD9133543
_publ_section_title
;
Structure prediction by ZEFSAII (Michael W. Deem and Ramdas Pophale) SiO2 
 PCOD9133543
Probable space group: C M
;
_chemical_formula_sum "Si O2"
_cell_formula_units_Z 32
_cell_length_a 21.769422
_cell_length_b 9.397429
_cell_length_c 16.355423
_cell_angle_alpha 90.000000
_cell_angle_beta 25.725541
_cell_angle_gamma 90.000000
_cell_volume 1452.339728
_symmetry_space_group_name_H-M "C M"
_symmetry_group_IT_number 8
_symmetry_cell_setting 'monoclinic'
loop_
_space_group_symop_operation_xyz
x,y,z
x,-y,z
1/2+x,1/2+y,z
1/2+x,1/2-y,z
loop_
_atom_site_type_symbol
_atom_site_label
_atom_site_fract_x
_atom_site_fract_y
_atom_site_fract_z
Si Si1 0.850190 0.668920 0.475420
Si Si2 0.216129 0.167466 0.400814
Si Si3 0.031020 0.336153 0.040253
Si Si4 0.253598 0.833248 0.159824
Si Si5 0.575165 0.836959 0.789652
Si Si6 0.804674 0.666178 0.720792
Si Si7 0.161126 0.671051 0.122663
Si Si8 0.937666 0.668531 0.725899
O O1 0.836528 0.500000 0.479832
O O2 0.711536 0.743394 0.605591
O O3 0.842778 0.700015 0.581906
O O4 0.010994 0.709390 0.260584
O O5 0.370512 0.212989 0.248834
O O6 0.229665 0.176671 0.285565
O O7 0.081693 0.261454 0.585082
O O8 0.195368 0.000000 0.445669
O O9 0.040102 0.500000 0.055669
O O10 0.052425 0.332964 0.915732
O O11 0.163969 0.250937 0.913377
O O12 0.161621 0.728251 0.215352
O O13 0.230447 0.000000 0.165353
O O14 0.419497 0.797722 0.944265
O O15 0.603491 0.000000 0.733014
O O16 0.769005 0.500000 0.765755
O O17 0.926430 0.689281 0.641080
O O18 0.175612 0.500000 0.102766
O O19 0.297330 0.751099 0.924075
O O20 0.932084 0.500000 0.749967
#
# Coordination Sequence:
#
# PCOD9133543 Si02
#       8
#     4   4   4   4   4   4   4   4
#     4   9  18  33  53  77 103 131 167 211 256 304
#     4   9  18  34  56  81 107 135 170 211 255 306
#     4   8  15  29  51  79 106 130 161 204 252 303
#     4   9  18  34  56  81 107 135 170 211 255 306
#     4   8  15  29  51  79 106 130 161 204 252 303
#     4   9  18  33  53  77 103 131 167 211 256 304
#     4  11  23  37  52  73 104 140 178 217 258 305
#     4  11  23  37  52  73 104 140 178 217 258 305
#
# _framework density 22.033411000000001
#
# number of rings (size 3 to 8) (size 9 to 14) (size 15 to 20)
#    0.000    2.750    0.000    3.000    0.000    4.500 
#    0.000    6.250    0.000    3.000    0.000    0.000 
#    0.000    0.000    0.000    0.000    0.000    0.000 
#
# Total GULP energy -89372.143757 kJ/mol
# GULP energy per Si atom -5585.758985 kJ/mol
# Density = 2.198326 g / cm^3
# Si number density = 22.033411 Si / 1000 Ang^3
#
#
#
# Elastic Constant Matrix: (Units=GPa)
#
#
# Indices 1 2 3 4 5 6 
#
# 1 72.5297 23.5380 27.7352 0.0000 -15.8821 0.0000
# 2 23.5380 50.6239 80.1075 0.0000 -22.9044 0.0000
# 3 27.7352 80.1075 174.3548 0.0000 -32.4163 0.0000
# 4 0.0000 0.0000 0.0000 32.1168 0.0000 -8.8382
# 5 -15.8821 -22.9044 -32.4163 0.0000 47.0014 0.0000
# 6 0.0000 0.0000 0.0000 -8.8382 0.0000 22.5223
#
#
#
# Elastic Compliance Matrix: (Units=1/GPa)
#
#
# Indices 1 2 3 4 5 6 
#
# 1 0.016910 -0.012005 0.003212 0.000000 0.002079 0.000000
# 2 -0.012005 0.090140 -0.036813 0.000000 0.014480 0.000000
# 3 0.003212 -0.036813 0.021800 0.000000 -0.001819 0.000000
# 4 0.000000 0.000000 0.000000 0.034906 0.000000 0.013698
# 5 0.002079 0.014480 -0.001819 0.000000 0.027781 0.000000
# 6 0.000000 0.000000 0.000000 0.013698 0.000000 0.049776
#
#
# Mechanical properties :
#
#
# Convention : Reuss Voigt Hill
#
# Bulk Modulus (GPa) = 26.56817 62.25220 44.41018
# Shear Modulus (GPa) = 14.48982 31.40326 22.94654
#
# Velocity S-wave (km/s) = 2.56721 3.77935 3.23064
# Velocity P-wave (km/s) = 4.56856 6.88183 5.84086
#
# Compressibility (1/GPa) = 0.03763903
#
# Stress axis : x y z
#
# Youngs Moduli (GPa) = 59.13524 11.09389 45.87157
#
# Poissons Ratio (x) = 0.13318 -0.14735
# Poissons Ratio (y) = 0.70992 1.68866
# Poissons Ratio (z) = -0.18996 0.40840
#
# Static dielectric constant tensor:
#      x y z
#    x 1.898310 0.000000 0.058550 
#    y 0.000000 1.729220 0.000000 
#    z 0.058550 0.000000 1.819940 
# 
# From -- ./inp_files/16556.got.cif
#   From: 2010.05.17/outbox.cif.g08.bks.cpg/sg8_9_cif.got.tgz:16556.got - 2010.06.03 19:46:02.
