data_PCOD9133647
_publ_section_title
;
Structure prediction by ZEFSAII (Michael W. Deem and Ramdas Pophale) SiO2 
 PCOD9133647
Probable space group: C M
;
_chemical_formula_sum "Si O2"
_cell_formula_units_Z 12
_cell_length_a 18.000000
_cell_length_b 9.000000
_cell_length_c 24.000000
_cell_angle_alpha 90.000000
_cell_angle_beta 160.000000
_cell_angle_gamma 90.000000
_cell_volume 1329.774317
_symmetry_space_group_name_H-M "C M"
_symmetry_group_IT_number 8
_symmetry_cell_setting 'monoclinic'
loop_
_space_group_symop_operation_xyz
x,y,z
x,-y,z
1/2+x,1/2+y,z
1/2+x,1/2-y,z
loop_
_atom_site_type_symbol
_atom_site_label
_atom_site_fract_x
_atom_site_fract_y
_atom_site_fract_z
Si Si1 0.229700 0.680130 0.278580
Si Si2 0.656280 0.320842 0.950481
Si Si3 0.075002 0.820042 0.287129
Si Si4 0.195994 0.826621 0.645200
Si Si5 0.314322 0.680399 0.944573
Si Si6 0.496124 0.323551 0.629007
O O1 0.200168 0.500000 0.261531
O O2 0.158742 0.760296 0.286049
O O3 0.489837 0.706812 0.459201
O O4 0.059483 0.750213 0.114678
O O5 0.680467 0.500000 0.965717
O O6 0.408614 0.273832 0.788479
O O7 0.716630 0.247054 0.933339
O O8 0.832107 0.249884 0.117719
O O9 0.257743 0.753667 0.457600
O O10 0.068894 0.000000 0.284752
O O11 0.101442 0.813434 0.641330
O O12 0.256577 0.000000 0.679090
O O13 0.321491 0.500000 0.950987
O O14 0.157574 0.740894 0.785392
O O15 0.476058 0.500000 0.628001
#
# Coordination Sequence:
#
# PCOD9133647 Si02
#       6
#     4   4   4   4   4   4
#     4   9  17  32  53  75 102 137 174 210 254 308
#     4  11  21  34  54  78 106 139 176 215 256 305
#     4  10  18  31  52  76 103 135 174 213 253 306
#     4   9  19  35  55  78 104 135 172 215 261 308
#     4  11  21  34  54  79 107 137 174 216 258 306
#     4  10  20  36  56  78 106 137 172 213 260 311
#
# _framework density 9.0240880000000008
#
# number of rings (size 3 to 8) (size 9 to 14) (size 15 to 20)
#    0.000    2.000    0.000    8.500    0.000    4.000 
#    0.000    1.667    0.000    6.000    0.000    0.000 
#    0.000    0.000    0.000    0.000    0.000    0.000 
#
# Total GULP energy -66910.973523 kJ/mol
# GULP energy per Si atom -5575.914460 kJ/mol
# Density = 0.900355 g / cm^3
# Si number density = 9.024088 Si / 1000 Ang^3
#
#
#
# Elastic Constant Matrix: (Units=GPa)
#
#
# Indices 1 2 3 4 5 6 
#
# 1 16.5044 21.2143 28.8202 0.0000 -2.2159 -0.0001
# 2 21.2143 190.6295 95.1721 0.0004 0.5197 -0.0002
# 3 28.8202 95.1721 208.7453 0.0042 -8.4431 0.0010
# 4 0.0000 0.0004 0.0042 45.0853 0.0003 0.7818
# 5 -2.2159 0.5197 -8.4431 0.0003 34.9338 -0.0001
# 6 -0.0001 -0.0002 0.0010 0.7818 -0.0001 24.8463
#
#
#
# Elastic Compliance Matrix: (Units=1/GPa)
#
#
# Indices 1 2 3 4 5 6 
#
# 1 0.083096 -0.004649 -0.009227 0.000001 0.003110 0.000001
# 2 -0.004649 0.007077 -0.002627 0.000000 -0.001035 0.000000
# 3 -0.009227 -0.002627 0.007311 -0.000001 0.001221 0.000000
# 4 0.000001 0.000000 -0.000001 0.022192 0.000000 -0.000698
# 5 0.003110 -0.001035 0.001221 0.000000 0.029133 0.000000
# 6 0.000001 0.000000 0.000000 -0.000698 0.000000 0.040269
#
#
# Mechanical properties :
#
#
# Convention : Reuss Voigt Hill
#
# Bulk Modulus (GPa) = 15.50904 78.47694 46.99299
# Shear Modulus (GPa) = 20.52729 39.01793 29.77261
#
# Velocity S-wave (km/s) = 3.37614 4.65464 4.06596
# Velocity P-wave (km/s) = 4.87950 8.51257 6.93806
#
# Compressibility (1/GPa) = 0.06447852
#
# Stress axis : x y z
#
# Youngs Moduli (GPa) = 12.03432 141.29503 136.77223
#
# Poissons Ratio (x) = 0.65691 1.26201
# Poissons Ratio (y) = 0.05595 0.35926
# Poissons Ratio (z) = 0.11104 0.37114
#
# Static dielectric constant tensor:
#      x y z
#    x 1.627070 0.000000 -0.003210 
#    y 0.000000 1.600500 0.000000 
#    z -0.003210 0.000000 1.672860 
# 
# From -- ./inp_files/14205.got.cif
#   From: 2010.05.17/outbox.ucp.g08.bks.cvg/sg8_8_cif.got.tgz:14205.got - 2010.06.11 13:00:03.
