data_PCOD9133312
_publ_section_title
;
Structure prediction by ZEFSAII (Michael W. Deem and Ramdas Pophale) SiO2 
 PCOD9133312
Probable space group: C M
;
_chemical_formula_sum "Si O2"
_cell_formula_units_Z 28
_cell_length_a 8.386227
_cell_length_b 29.606681
_cell_length_c 5.890706
_cell_angle_alpha 90.000000
_cell_angle_beta 60.649299
_cell_angle_gamma 90.000000
_cell_volume 1274.849106
_symmetry_space_group_name_H-M "C M"
_symmetry_group_IT_number 8
_symmetry_cell_setting 'monoclinic'
loop_
_space_group_symop_operation_xyz
x,y,z
x,-y,z
1/2+x,1/2+y,z
1/2+x,1/2-y,z
loop_
_atom_site_type_symbol
_atom_site_label
_atom_site_fract_x
_atom_site_fract_y
_atom_site_fract_z
Si Si1 0.405420 0.725656 0.313200
Si Si2 0.361194 0.650770 0.986500
Si Si3 0.985747 0.500000 0.672056
Si Si4 0.193625 0.901108 0.503128
Si Si5 0.582104 0.904767 0.493207
Si Si6 0.770670 0.500000 0.323157
Si Si7 0.094249 0.321769 0.778318
Si Si8 0.762502 0.309788 0.234573
O O1 0.213479 0.706736 0.526120
O O2 0.566727 0.712134 0.365508
O O3 0.383812 0.779298 0.317282
O O4 0.445790 0.693343 0.066427
O O5 0.520420 0.620613 0.757301
O O6 0.216119 0.674148 0.919078
O O7 0.240081 0.616227 0.223848
O O8 0.874834 0.500000 0.502316
O O9 0.106358 0.455317 0.563677
O O10 0.878161 0.500000 0.997073
O O11 0.380646 0.902295 0.520105
O O12 0.239411 0.862466 0.288504
O O13 0.168338 0.951251 0.414417
O O14 0.580400 0.872838 0.709446
O O15 0.889435 0.303130 0.927957
#
# Coordination Sequence:
#
# PCOD9133312 Si02
#       8
#     4   4   2   4   4   2   4   4
#     4  11  27  41  64 101 134 184 236 288 355 437
#     4  11  23  44  65 102 138 177 239 291 357 435
#     4  10  22  43  73 104 145 183 249 294 367 435
#     4  11  23  44  72  97 144 185 238 300 365 421
#     4  10  23  42  70  97 134 186 229 294 359 425
#     4  10  24  45  73 110 139 193 251 300 365 443
#     4  11  23  43  66  93 139 175 234 290 354 434
#     4  12  24  42  69  95 140 187 229 298 363 426
#
# _framework density 21.963384000000001
#
# number of rings (size 3 to 8) (size 9 to 14) (size 15 to 20)
#    0.000    1.143    2.857    2.571    6.000    2.857 
#    0.000    0.714    0.000    0.000    0.000    0.000 
#    0.000    0.000    0.000    0.000    0.000    0.000 
#
# Total GULP energy -77942.941722 kJ/mol
# GULP energy per Si atom -5567.352980 kJ/mol
# Density = 2.191339 g / cm^3
# Si number density = 21.963384 Si / 1000 Ang^3
#
#
#
# Elastic Constant Matrix: (Units=GPa)
#
#
# Indices 1 2 3 4 5 6 
#
# 1 54.4172 12.7045 9.7204 0.0000 -10.7284 0.0000
# 2 12.7045 101.5759 12.6008 0.0000 -14.9563 0.0000
# 3 9.7204 12.6008 77.1990 0.0000 -17.2764 0.0000
# 4 0.0000 0.0000 0.0000 -4.2139 0.0000 2.7801
# 5 -10.7284 -14.9563 -17.2764 0.0000 34.4919 0.0000
# 6 0.0000 0.0000 0.0000 2.7801 0.0000 32.3009
#
#
#
# Elastic Compliance Matrix: (Units=1/GPa)
#
#
# Indices 1 2 3 4 5 6 
#
# 1 0.019931 -0.001626 -0.001143 0.000000 0.004922 0.000000
# 2 -0.001626 0.010691 -0.000694 0.000000 0.003783 0.000000
# 3 -0.001143 -0.000694 0.014713 0.000000 0.006713 0.000000
# 4 0.000000 0.000000 0.000000 -0.224558 0.000000 0.019327
# 5 0.004922 0.003783 0.006713 0.000000 0.035526 0.000000
# 6 0.000000 0.000000 0.000000 0.019327 0.000000 0.029295
#
#
# Mechanical properties :
#
#
# Convention : Reuss Voigt Hill
#
# Bulk Modulus (GPa) = 26.03535 33.69374 29.86454
# Shear Modulus (GPa) = -52.81363 25.72685 -13.54339
#
# Velocity S-wave (km/s) = -4.90901 3.42622 -2.48591
# Velocity P-wave (km/s) = 4.50017 5.57011 2.32105
#
# Compressibility (1/GPa) = 0.03840932
#
# Stress axis : x y z
#
# Youngs Moduli (GPa) = 50.17394 93.53403 67.96699
#
# Poissons Ratio (x) = 0.15212 0.07766
# Poissons Ratio (y) = 0.08160 0.04716
# Poissons Ratio (z) = 0.05733 0.06489
#
# Static dielectric constant tensor:
#      x y z
#    x 1.829970 0.000000 0.030740 
#    y 0.000000 1.918870 0.000000 
#    z 0.030740 0.000000 1.905450 
# 
# From -- ./inp_files/1857.got.cif
#   From: 2010.05.17/outbox.cif.g08.bks.cpg/sg8_1_cif.got.tgz:1857.got - 2010.06.03 19:46:02.
