data_PCOD9133016
_publ_section_title
;
Structure prediction by ZEFSAII (Michael W. Deem and Ramdas Pophale) SiO2 
 PCOD9133016
Probable space group: C M
;
_chemical_formula_sum "Si O2"
_cell_formula_units_Z 28
_cell_length_a 8.214006
_cell_length_b 27.492557
_cell_length_c 8.151898
_cell_angle_alpha 90.000000
_cell_angle_beta 133.386891
_cell_angle_gamma 90.000000
_cell_volume 1337.836632
_symmetry_space_group_name_H-M "C M"
_symmetry_group_IT_number 8
_symmetry_cell_setting 'monoclinic'
loop_
_space_group_symop_operation_xyz
x,y,z
x,-y,z
1/2+x,1/2+y,z
1/2+x,1/2-y,z
loop_
_atom_site_type_symbol
_atom_site_label
_atom_site_fract_x
_atom_site_fract_y
_atom_site_fract_z
Si Si1 0.841030 0.099678 0.093690
Si Si2 0.375978 0.944701 0.783646
Si Si3 0.019101 0.135596 0.549786
Si Si4 0.198731 0.208414 0.906915
Si Si5 0.792764 0.554347 0.334643
Si Si6 0.251777 0.688676 0.803373
Si Si7 0.529370 0.148300 0.352526
O O1 0.966894 0.129671 0.322757
O O2 0.024786 0.062507 0.152003
O O3 0.621105 0.072769 0.007798
O O4 0.762476 0.138133 0.905769
O O5 0.183703 0.908454 0.711662
O O6 0.369874 0.942897 0.579334
O O7 0.332856 0.000000 0.803251
O O8 0.141997 0.184584 0.691359
O O9 0.779692 0.133917 0.472440
O O10 0.220189 0.265742 0.900239
O O11 0.987878 0.196994 0.876580
O O12 0.407785 0.180038 0.129545
O O13 0.848422 0.500000 0.312674
O O14 0.897550 0.599281 0.308206
O O15 0.059519 0.682316 0.533768
#
# Coordination Sequence:
#
# PCOD9133016 Si02
#       7
#     4   4   4   4   4   4   4
#     4  11  21  42  66  95 129 170 214 271 317 390
#     4  10  21  40  67  97 129 171 218 265 320 383
#     4  10  25  41  64  93 137 164 215 262 325 385
#     4  11  26  43  63  98 129 174 215 268 328 388
#     4  10  21  39  67  96 128 170 216 266 327 389
#     4  11  26  40  68  92 128 171 219 264 329 381
#     4  11  23  45  63  97 136 168 216 270 324 392
#
# _framework density 20.929311999999999
#
# number of rings (size 3 to 8) (size 9 to 14) (size 15 to 20)
#    0.000    1.429    2.857    1.286    6.000    2.286 
#    0.000    2.143    0.000    0.000    0.000    0.000 
#    0.000    0.000    0.000    0.000    0.000    0.000 
#
# Total GULP energy -78245.599030 kJ/mol
# GULP energy per Si atom -5588.971359 kJ/mol
# Density = 2.088168 g / cm^3
# Si number density = 20.929312 Si / 1000 Ang^3
#
#
#
# Elastic Constant Matrix: (Units=GPa)
#
#
# Indices 1 2 3 4 5 6 
#
# 1 32.9902 11.0809 3.2934 0.0000 18.3059 0.0000
# 2 11.0809 93.9010 18.2538 0.0000 9.9274 0.0000
# 3 3.2934 18.2538 84.1601 0.0000 15.3844 0.0000
# 4 0.0000 0.0000 0.0000 21.8593 0.0000 4.2758
# 5 18.3059 9.9274 15.3844 0.0000 30.8350 0.0000
# 6 0.0000 0.0000 0.0000 4.2758 0.0000 19.6347
#
#
#
# Elastic Compliance Matrix: (Units=1/GPa)
#
#
# Indices 1 2 3 4 5 6 
#
# 1 0.047078 -0.003304 0.004169 0.000000 -0.028965 0.000000
# 2 -0.003304 0.011545 -0.002260 0.000000 -0.000628 0.000000
# 3 0.004169 -0.002260 0.013786 0.000000 -0.008626 0.000000
# 4 0.000000 0.000000 0.000000 0.047783 0.000000 -0.010406
# 5 -0.028965 -0.000628 -0.008626 0.000000 0.054132 0.000000
# 6 0.000000 0.000000 0.000000 -0.010406 0.000000 0.053196
#
#
# Mechanical properties :
#
#
# Convention : Reuss Voigt Hill
#
# Bulk Modulus (GPa) = 14.36367 30.70083 22.53225
# Shear Modulus (GPa) = 19.72262 26.36069 23.04165
#
# Velocity S-wave (km/s) = 3.07309 3.55281 3.32162
# Velocity P-wave (km/s) = 4.41245 5.61521 5.04977
#
# Compressibility (1/GPa) = 0.06962008
#
# Stress axis : x y z
#
# Youngs Moduli (GPa) = 21.24130 86.61687 72.53792
#
# Poissons Ratio (x) = 0.28615 -0.30242
# Poissons Ratio (y) = 0.07017 0.16393
# Poissons Ratio (z) = -0.08856 0.19575
#
# Static dielectric constant tensor:
#      x y z
#    x 1.756360 0.000000 -0.019170 
#    y 0.000000 1.723450 0.000000 
#    z -0.019170 0.000000 1.766340 
# 
# From -- ./inp_files/1860.got.cif
#   From: 2010.05.17/outbox.cif.g08.bks.cpg/sg8_1_cif.got.tgz:1860.got - 2010.06.03 19:46:02.
