data_PCOD9133891
_publ_section_title
;
Structure prediction by ZEFSAII (Michael W. Deem and Ramdas Pophale) SiO2 
 PCOD9133891
Probable space group: C C
;
_chemical_formula_sum "Si O2"
_cell_formula_units_Z 32
_cell_length_a 11.785284
_cell_length_b 18.528114
_cell_length_c 18.773108
_cell_angle_alpha 90.000000
_cell_angle_beta 157.382102
_cell_angle_gamma 90.000000
_cell_volume 1576.515749
_symmetry_space_group_name_H-M "C C"
_symmetry_group_IT_number 9
_symmetry_cell_setting 'monoclinic'
loop_
_space_group_symop_operation_xyz
x,y,z
x,-y,1/2+z
1/2+x,1/2+y,z
1/2+x,1/2-y,1/2+z
loop_
_atom_site_type_symbol
_atom_site_label
_atom_site_fract_x
_atom_site_fract_y
_atom_site_fract_z
Si Si1 0.317190 0.623135 0.303860
Si Si2 0.338898 0.276999 0.682099
Si Si3 0.491509 0.971917 0.092705
Si Si4 0.340306 0.478938 0.166994
Si Si5 0.073884 0.610216 0.935557
Si Si6 0.934033 0.849431 0.119866
Si Si7 0.464152 0.116937 0.719727
Si Si8 0.180429 0.724542 0.341884
O O1 0.427932 0.671975 0.300727
O O2 0.143874 0.550603 0.186936
O O3 0.611726 0.604346 0.517733
O O4 0.115570 0.671078 0.238626
O O5 0.298660 0.327569 0.590256
O O6 0.503414 0.203687 0.754461
O O7 0.011582 0.253068 0.517331
O O8 0.664097 0.937453 0.126559
O O9 0.544795 0.923314 0.193493
O O10 0.149441 0.988447 0.875652
O O11 0.379663 0.426502 0.123146
O O12 0.134447 0.544454 0.022791
O O13 0.747934 0.642466 0.760432
O O14 0.107871 0.585658 0.874245
O O15 0.977602 0.793450 0.210389
O O16 0.701443 0.817416 0.928440
#
# Coordination Sequence:
#
# PCOD9133891 Si02
#       8
#     4   4   4   4   4   4   4   4
#     4  11  19  37  63  93 124 168 213 266 324 392
#     4  10  17  36  61  92 123 167 220 271 318 382
#     4  12  24  43  62  93 129 180 214 266 328 404
#     4  12  25  42  65  88 136 175 214 263 337 403
#     4  11  21  37  64  99 125 166 217 273 328 388
#     4  11  21  38  65  96 126 165 222 278 323 384
#     4  11  22  34  64  98 127 157 224 282 322 374
#     4  10  19  33  62  95 122 158 218 275 312 379
#
# _framework density 20.297926
#
# number of rings (size 3 to 8) (size 9 to 14) (size 15 to 20)
#    0.000    1.000    7.500    2.250    1.750    0.000 
#    0.000    0.000    8.250    0.000    0.000    0.000 
#    0.000    0.000    0.000    0.000    0.000    0.000 
#
# Total GULP energy -89179.925186 kJ/mol
# GULP energy per Si atom -5573.745324 kJ/mol
# Density = 2.025173 g / cm^3
# Si number density = 20.297926 Si / 1000 Ang^3
#
#
#
# Elastic Constant Matrix: (Units=GPa)
#
#
# Indices 1 2 3 4 5 6 
#
# 1 84.8004 27.6131 36.4143 -0.0391 -31.3504 -0.0276
# 2 27.6131 90.0877 26.0156 0.0688 -23.6739 -0.0105
# 3 36.4143 26.0156 67.0854 0.0903 -32.8918 -0.0483
# 4 -0.0391 0.0688 0.0903 21.7887 -0.0145 -13.2599
# 5 -31.3504 -23.6739 -32.8918 -0.0145 35.2939 -0.0356
# 6 -0.0276 -0.0105 -0.0483 -13.2599 -0.0356 32.1399
#
#
#
# Elastic Compliance Matrix: (Units=1/GPa)
#
#
# Indices 1 2 3 4 5 6 
#
# 1 0.018157 -0.001428 -0.003432 0.000098 0.011972 0.000064
# 2 -0.001428 0.013666 -0.001201 -0.000041 0.006779 -0.000008
# 3 -0.003432 -0.001201 0.028257 -0.000087 0.022480 0.000028
# 4 0.000098 -0.000041 -0.000087 0.061282 0.000029 0.025283
# 5 0.011972 0.006779 0.022480 0.000029 0.064465 0.000130
# 6 0.000064 -0.000008 0.000028 0.025283 0.000130 0.041545
#
#
# Mechanical properties :
#
#
# Convention : Reuss Voigt Hill
#
# Bulk Modulus (GPa) = 20.85145 46.89551 33.87348
# Shear Modulus (GPa) = 19.57087 27.97321 23.77204
#
# Velocity S-wave (km/s) = 3.10849 3.71635 3.42593
# Velocity P-wave (km/s) = 4.81442 6.44738 5.68979
#
# Compressibility (1/GPa) = 0.04795830
#
# Stress axis : x y z
#
# Youngs Moduli (GPa) = 55.07390 73.17249 35.38963
#
# Poissons Ratio (x) = 0.10451 0.12147
# Poissons Ratio (y) = 0.07866 0.04249
# Poissons Ratio (z) = 0.18903 0.08785
#
# Static dielectric constant tensor:
#      x y z
#    x 1.770330 -0.000030 -0.034110 
#    y -0.000030 1.779830 0.000010 
#    z -0.034110 0.000010 1.734420 
# 
# From -- ./inp_files/8008.got.cif
#   From: 2010.05.17/outbox.cif.g08.bks.cpg/sg9_5_cif.got.tgz:8008.got - 2010.06.03 20:04:27.
