data_PCOD9133049
_publ_section_title
;
Structure prediction by ZEFSAII (Michael W. Deem and Ramdas Pophale) SiO2 
 PCOD9133049
Probable space group: C M
;
_chemical_formula_sum "Si O2"
_cell_formula_units_Z 20
_cell_length_a 8.479144
_cell_length_b 12.947307
_cell_length_c 8.513766
_cell_angle_alpha 90.000000
_cell_angle_beta 90.108830
_cell_angle_gamma 90.000000
_cell_volume 934.657258
_symmetry_space_group_name_H-M "C M"
_symmetry_group_IT_number 8
_symmetry_cell_setting 'monoclinic'
loop_
_space_group_symop_operation_xyz
x,y,z
x,-y,z
1/2+x,1/2+y,z
1/2+x,1/2-y,z
loop_
_atom_site_type_symbol
_atom_site_label
_atom_site_fract_x
_atom_site_fract_y
_atom_site_fract_z
Si Si1 0.174110 0.375403 0.958340
Si Si2 0.387991 0.256560 0.503598
Si Si3 0.121826 0.375575 0.320406
Si Si4 0.499594 0.376232 0.788668
Si Si5 0.341143 0.123546 0.802373
O O1 0.175392 0.500000 0.946713
O O2 0.335280 0.342961 0.871188
O O3 0.006222 0.343774 0.882669
O O4 0.173741 0.352420 0.142815
O O5 0.253695 0.331998 0.438985
O O6 0.471023 0.193693 0.364482
O O7 0.497279 0.327782 0.614751
O O8 0.338777 0.169411 0.628118
O O9 0.098724 0.500000 0.337448
O O10 0.492643 0.500000 0.776287
O O11 0.667326 0.352416 0.873042
O O12 0.349088 0.000000 0.795778
#
# Coordination Sequence:
#
# PCOD9133049 Si02
#       5
#     4   4   4   4   4
#     4   9  21  43  67  93 134 175 214 276 335 385
#     4  12  22  42  66  98 130 176 220 272 338 396
#     4  11  25  45  66  97 140 177 215 276 342 399
#     4  10  21  40  67  96 126 169 226 275 322 393
#     4  10  21  40  67  96 126 169 226 275 322 393
#
# _framework density 21.398218
#
# number of rings (size 3 to 8) (size 9 to 14) (size 15 to 20)
#    0.000    1.600    2.000    2.400    0.000    3.200 
#    3.600    0.000    0.000    0.000    0.000    0.000 
#    0.000    0.000    0.000    0.000    0.000    0.000 
#
# Total GULP energy -55794.438205 kJ/mol
# GULP energy per Si atom -5579.443821 kJ/mol
# Density = 2.134952 g / cm^3
# Si number density = 21.398218 Si / 1000 Ang^3
#
#
#
# Elastic Constant Matrix: (Units=GPa)
#
#
# Indices 1 2 3 4 5 6 
#
# 1 128.6980 52.2808 31.3307 0.0000 7.4513 0.0000
# 2 52.2808 99.1265 12.2929 0.0000 -6.0556 0.0000
# 3 31.3307 12.2929 65.9418 0.0000 -1.0463 0.0000
# 4 0.0000 0.0000 0.0000 31.8086 0.0000 -2.2726
# 5 7.4513 -6.0556 -1.0463 0.0000 26.6610 0.0000
# 6 0.0000 0.0000 0.0000 -2.2726 0.0000 49.1110
#
#
#
# Elastic Compliance Matrix: (Units=1/GPa)
#
#
# Indices 1 2 3 4 5 6 
#
# 1 0.011476 -0.005788 -0.004448 0.000000 -0.004697 0.000000
# 2 -0.005788 0.013385 0.000329 0.000000 0.004671 0.000000
# 3 -0.004448 0.000329 0.017249 0.000000 0.001995 0.000000
# 4 0.000000 0.000000 0.000000 0.031542 0.000000 0.001460
# 5 -0.004697 0.004671 0.001995 0.000000 0.039960 0.000000
# 6 0.000000 0.000000 0.000000 0.001460 0.000000 0.020430
#
#
# Mechanical properties :
#
#
# Convention : Reuss Voigt Hill
#
# Bulk Modulus (GPa) = 44.85193 53.95279 49.40236
# Shear Modulus (GPa) = 31.00038 34.70692 32.85365
#
# Velocity S-wave (km/s) = 3.81036 4.03172 3.92260
# Velocity P-wave (km/s) = 6.35331 6.85138 6.60704
#
# Compressibility (1/GPa) = 0.02229559
#
# Stress axis : x y z
#
# Youngs Moduli (GPa) = 87.13708 74.70852 57.97546
#
# Poissons Ratio (x) = 0.43241 0.25788
# Poissons Ratio (y) = 0.50435 -0.01907
# Poissons Ratio (z) = 0.38760 -0.02457
#
# Static dielectric constant tensor:
#      x y z
#    x 1.847410 0.000000 -0.000510 
#    y 0.000000 1.804200 0.000000 
#    z -0.000510 0.000000 1.709110 
# 
# From -- ./inp_files/7761.got.cif
#   From: 2010.05.17/outbox.cif.g08.bks.cpg/sg8_4_cif.got.tgz:7761.got - 2010.06.03 19:46:02.
