data_PCOD9133617
_publ_section_title
;
Structure prediction by ZEFSAII (Michael W. Deem and Ramdas Pophale) SiO2 
 PCOD9133617
Probable space group: C M
;
_chemical_formula_sum "Si O2"
_cell_formula_units_Z 24
_cell_length_a 16.785964
_cell_length_b 14.209677
_cell_length_c 9.663023
_cell_angle_alpha 90.000000
_cell_angle_beta 31.034922
_cell_angle_gamma 90.000000
_cell_volume 1188.291746
_symmetry_space_group_name_H-M "C M"
_symmetry_group_IT_number 8
_symmetry_cell_setting 'monoclinic'
loop_
_space_group_symop_operation_xyz
x,y,z
x,-y,z
1/2+x,1/2+y,z
1/2+x,1/2-y,z
loop_
_atom_site_type_symbol
_atom_site_label
_atom_site_fract_x
_atom_site_fract_y
_atom_site_fract_z
Si Si1 0.070280 0.500000 0.344391
Si Si2 0.051133 0.000000 0.708836
Si Si3 0.731297 0.500000 0.709940
Si Si4 0.623890 0.709215 0.942571
Si Si5 0.769512 0.801673 0.472538
Si Si6 0.517637 0.703279 0.660258
Si Si7 0.669450 0.790146 0.174495
Si Si8 0.245233 0.500000 0.361978
O O1 0.145433 0.401441 0.186631
O O2 0.102741 0.500000 0.463418
O O3 0.900541 0.500000 0.528325
O O4 0.199911 0.000000 0.590221
O O5 0.041643 0.908224 0.628790
O O6 0.900682 0.000000 0.035199
O O7 0.656439 0.598830 0.868456
O O8 0.444141 0.726926 0.177717
O O9 0.650409 0.734980 0.061356
O O10 0.732408 0.774403 0.685802
O O11 0.643579 0.743229 0.576540
O O12 0.747029 0.908490 0.455813
O O13 0.550437 0.751830 0.464910
O O14 0.343963 0.723692 0.967351
#
# Coordination Sequence:
#
# PCOD9133617 Si02
#       8
#     2   2   2   4   4   4   4   2
#     4  12  24  45  67  98 143 182 221 284 355 396
#     4  12  22  45  72  99 136 184 228 292 343 406
#     4  12  24  45  67  98 143 182 221 284 355 396
#     4  12  26  44  70 102 140 181 228 284 344 410
#     4  12  23  44  70 101 133 181 230 278 342 409
#     4  12  23  44  70 101 133 181 230 278 342 409
#     4  12  26  44  70 102 140 181 228 284 344 410
#     4  12  22  45  72  99 136 184 228 292 343 406
#
# _framework density 20.197061000000001
#
# number of rings (size 3 to 8) (size 9 to 14) (size 15 to 20)
#    0.000    0.000    6.667    4.000    0.000    1.333 
#    0.000    8.333    0.000    0.000    0.000    0.000 
#    0.000    0.000    0.000    0.000    0.000    0.000 
#
# Total GULP energy -67073.466907 kJ/mol
# GULP energy per Si atom -5589.455576 kJ/mol
# Density = 2.015109 g / cm^3
# Si number density = 20.197061 Si / 1000 Ang^3
#
#
#
# Elastic Constant Matrix: (Units=GPa)
#
#
# Indices 1 2 3 4 5 6 
#
# 1 76.8454 -9.5683 9.8622 0.0000 -25.3716 0.0000
# 2 -9.5683 84.7941 5.0094 0.0000 -15.3578 0.0000
# 3 9.8622 5.0094 74.8936 0.0000 -26.3028 0.0000
# 4 0.0000 0.0000 0.0000 12.5909 0.0000 -6.3873
# 5 -25.3716 -15.3578 -26.3028 0.0000 42.0903 0.0000
# 6 0.0000 0.0000 0.0000 -6.3873 0.0000 30.4552
#
#
#
# Elastic Compliance Matrix: (Units=1/GPa)
#
#
# Indices 1 2 3 4 5 6 
#
# 1 0.017789 0.004354 0.002165 0.000000 0.013665 0.000000
# 2 0.004354 0.013751 0.001526 0.000000 0.008596 0.000000
# 3 0.002165 0.001526 0.017448 0.000000 0.012766 0.000000
# 4 0.000000 0.000000 0.000000 0.088879 0.000000 0.018640
# 5 0.013665 0.008596 0.012766 0.000000 0.043110 0.000000
# 6 0.000000 0.000000 0.000000 0.018640 0.000000 0.036745
#
#
# Mechanical properties :
#
#
# Convention : Reuss Voigt Hill
#
# Bulk Modulus (GPa) = 15.36565 27.45997 21.41281
# Shear Modulus (GPa) = 22.38899 32.44261 27.41580
#
# Velocity S-wave (km/s) = 3.33307 4.01222 3.68831
# Velocity P-wave (km/s) = 4.73675 5.92363 5.36313
#
# Compressibility (1/GPa) = 0.06508021
#
# Stress axis : x y z
#
# Youngs Moduli (GPa) = 56.21387 72.72004 57.31177
#
# Poissons Ratio (x) = -0.31666 -0.12411
# Poissons Ratio (y) = -0.24478 -0.08744
# Poissons Ratio (z) = -0.12173 -0.11095
#
# Static dielectric constant tensor:
#      x y z
#    x 1.740500 0.000000 -0.010680 
#    y 0.000000 1.715930 0.000000 
#    z -0.010680 0.000000 1.712180 
# 
# From -- ./inp_files/15154.got.cif
#   From: 2010.05.17/outbox.cif.g08.bks.cpg/sg8_8_cif.got.tgz:15154.got - 2010.06.03 19:46:02.
