data_PCOD9133039
_publ_section_title
;
Structure prediction by ZEFSAII (Michael W. Deem and Ramdas Pophale) SiO2 
 PCOD9133039
Probable space group: C M
;
_chemical_formula_sum "Si O2"
_cell_formula_units_Z 30
_cell_length_a 8.625041
_cell_length_b 10.915362
_cell_length_c 14.333882
_cell_angle_alpha 90.000000
_cell_angle_beta 86.797874
_cell_angle_gamma 90.000000
_cell_volume 1347.362759
_symmetry_space_group_name_H-M "C M"
_symmetry_group_IT_number 8
_symmetry_cell_setting 'monoclinic'
loop_
_space_group_symop_operation_xyz
x,y,z
x,-y,z
1/2+x,1/2+y,z
1/2+x,1/2-y,z
loop_
_atom_site_type_symbol
_atom_site_label
_atom_site_fract_x
_atom_site_fract_y
_atom_site_fract_z
Si Si1 0.187230 0.638514 0.104720
Si Si2 0.865715 0.693233 0.214570
Si Si3 0.291952 0.362452 0.711944
Si Si4 0.627076 0.500000 0.278386
Si Si5 0.009325 0.719347 0.833422
Si Si6 0.640227 0.139104 0.519284
Si Si7 0.219078 0.138072 0.958840
Si Si8 0.938210 0.202912 0.400618
O O1 0.212946 0.500000 0.069610
O O2 0.310570 0.672588 0.182105
O O3 0.013103 0.649247 0.150824
O O4 0.211486 0.747679 0.030204
O O5 0.717495 0.606345 0.213741
O O6 0.910048 0.695436 0.321798
O O7 0.354796 0.500000 0.701169
O O8 0.419720 0.270598 0.746462
O O9 0.216051 0.329018 0.615879
O O10 0.154658 0.358441 0.793280
O O11 0.549015 0.605951 0.347869
O O12 0.884446 0.649690 0.900923
O O13 0.082568 0.831318 0.889814
O O14 0.514151 0.234358 0.487825
O O15 0.776301 0.145415 0.437690
O O16 0.579430 0.000000 0.527582
O O17 0.201408 0.000000 0.996138
#
# Coordination Sequence:
#
# PCOD9133039 Si02
#       8
#     4   4   4   2   4   4   4   4
#     4  12  28  44  67  97 130 166 218 268 326 382
#     4  12  26  43  66  91 128 172 218 263 318 382
#     4  10  21  40  65  93 128 168 208 262 312 380
#     4  12  24  42  66  90 124 176 214 266 316 376
#     4  10  22  42  67  93 129 166 214 254 324 383
#     4  11  24  39  63  96 130 166 215 262 316 370
#     4  11  25  43  68  98 129 168 211 268 322 391
#     4  12  24  41  64  92 128 171 214 263 313 375
#
# _framework density 22.265718
#
# number of rings (size 3 to 8) (size 9 to 14) (size 15 to 20)
#    0.000    0.800    4.000    2.400    2.800    6.933 
#    0.000    0.000    1.467    0.000    0.000    0.000 
#    0.000    0.000    0.000    0.000    0.000    0.000 
#
# Total GULP energy -83625.713080 kJ/mol
# GULP energy per Si atom -5575.047539 kJ/mol
# Density = 2.221504 g / cm^3
# Si number density = 22.265718 Si / 1000 Ang^3
#
#
#
# Elastic Constant Matrix: (Units=GPa)
#
#
# Indices 1 2 3 4 5 6 
#
# 1 48.1372 16.8117 -8.7136 0.0000 -6.3762 0.0000
# 2 16.8117 110.7610 20.4231 0.0000 2.0892 0.0000
# 3 -8.7136 20.4231 66.6576 0.0000 -0.7239 0.0000
# 4 0.0000 0.0000 0.0000 29.2566 0.0000 -5.9032
# 5 -6.3762 2.0892 -0.7239 0.0000 32.5873 0.0000
# 6 0.0000 0.0000 0.0000 -5.9032 0.0000 -3.4402
#
#
#
# Elastic Compliance Matrix: (Units=1/GPa)
#
#
# Indices 1 2 3 4 5 6 
#
# 1 0.023865 -0.004561 0.004572 0.000000 0.005064 0.000000
# 2 -0.004561 0.010456 -0.003818 0.000000 -0.001648 0.000000
# 3 0.004572 -0.003818 0.016786 0.000000 0.001512 0.000000
# 4 0.000000 0.000000 0.000000 0.025390 0.000000 -0.043567
# 5 0.005064 -0.001648 0.001512 0.000000 0.031817 0.000000
# 6 0.000000 0.000000 0.000000 -0.043567 0.000000 -0.215920
#
#
# Mechanical properties :
#
#
# Convention : Reuss Voigt Hill
#
# Bulk Modulus (GPa) = 22.99176 31.39981 27.19578
# Shear Modulus (GPa) = -58.48246 24.81636 -16.83305
#
# Velocity S-wave (km/s) = -5.13057 3.34212 -2.75254
# Velocity P-wave (km/s) = 4.97478 5.38757 1.46244
#
# Compressibility (1/GPa) = 0.04349385
#
# Stress axis : x y z
#
# Youngs Moduli (GPa) = 41.90205 95.64136 59.57413
#
# Poissons Ratio (x) = 0.43621 -0.27238
# Poissons Ratio (y) = 0.19111 0.22743
# Poissons Ratio (z) = -0.19158 0.36512
#
# Static dielectric constant tensor:
#      x y z
#    x 1.826830 0.000000 0.040780 
#    y 0.000000 1.809500 0.000000 
#    z 0.040780 0.000000 1.843860 
# 
# From -- ./inp_files/25156.got.cif
#   From: 2010.05.17/outbox.cif.g08.bks.cpg/sg8_13_cif.got.tgz:25156.got - 2010.06.03 19:46:02.
