data_PCOD9133838
_publ_section_title
;
Structure prediction by ZEFSAII (Michael W. Deem and Ramdas Pophale) SiO2 
 PCOD9133838
Probable space group: C C
;
_chemical_formula_sum "Si O2"
_cell_formula_units_Z 32
_cell_length_a 12.389689
_cell_length_b 6.847235
_cell_length_c 16.645213
_cell_angle_alpha 90.000000
_cell_angle_beta 54.756922
_cell_angle_gamma 90.000000
_cell_volume 1153.276776
_symmetry_space_group_name_H-M "C C"
_symmetry_group_IT_number 9
_symmetry_cell_setting 'monoclinic'
loop_
_space_group_symop_operation_xyz
x,y,z
x,-y,1/2+z
1/2+x,1/2+y,z
1/2+x,1/2-y,1/2+z
loop_
_atom_site_type_symbol
_atom_site_label
_atom_site_fract_x
_atom_site_fract_y
_atom_site_fract_z
Si Si1 0.652930 0.039593 0.397630
Si Si2 0.402711 0.331123 0.475328
Si Si3 0.391568 0.815291 0.350907
Si Si4 0.766087 0.080485 0.184440
Si Si5 0.477941 0.755031 0.771981
Si Si6 0.028926 0.247233 0.149231
Si Si7 0.498949 0.839716 0.592745
Si Si8 0.301529 0.929635 0.546221
O O1 0.532910 0.201702 0.444564
O O2 0.767711 0.181932 0.381466
O O3 0.706128 0.966552 0.288087
O O4 0.606227 0.858408 0.474077
O O5 0.341376 0.482321 0.567736
O O6 0.426681 0.371973 0.370789
O O7 0.297856 0.158401 0.530099
O O8 0.514108 0.727337 0.250783
O O9 0.405078 0.836620 0.439129
O O10 0.393126 0.042090 0.318530
O O11 0.632399 0.201746 0.223267
O O12 0.890112 0.197446 0.168323
O O13 0.474951 0.693677 0.678558
O O14 0.049037 0.470928 0.118888
O O15 0.162176 0.140521 0.073984
O O16 0.358563 0.882783 0.609321
#
# Coordination Sequence:
#
# PCOD9133838 Si02
#       8
#     4   4   4   4   4   4   4   4
#     4   9  16  29  57  83 104 136 195 238 285 339
#     4   9  17  32  54  83 108 144 188 237 285 347
#     4   9  17  30  52  81 105 140 188 240 287 346
#     4  10  17  32  56  79 111 146 193 239 284 351
#     4   9  20  31  53  81 113 151 185 231 301 351
#     4  10  18  31  56  80 107 143 192 240 285 344
#     4  10  18  34  54  82 108 144 188 237 287 349
#     4  10  17  31  56  81 106 142 193 238 286 343
#
# _framework density 27.747025000000001
#
# number of rings (size 3 to 8) (size 9 to 14) (size 15 to 20)
#    0.000    2.500    3.750    0.750    0.000    0.000 
#    0.000    1.250   16.500    0.000    0.000    0.000 
#    0.000    0.000    0.000    0.000    0.000    0.000 
#
# Total GULP energy -89155.742892 kJ/mol
# GULP energy per Si atom -5572.233931 kJ/mol
# Density = 2.768387 g / cm^3
# Si number density = 27.747025 Si / 1000 Ang^3
#
#
#
# Elastic Constant Matrix: (Units=GPa)
#
#
# Indices 1 2 3 4 5 6 
#
# 1 118.1477 28.6778 59.1929 0.0000 1.7440 0.0000
# 2 28.6778 66.4019 36.9159 0.0000 -1.1564 0.0000
# 3 59.1929 36.9159 235.5747 0.0000 42.6129 0.0000
# 4 0.0000 0.0000 0.0000 41.8288 0.0000 -1.4151
# 5 1.7440 -1.1564 42.6129 0.0000 65.4969 0.0000
# 6 0.0000 0.0000 0.0000 -1.4151 0.0000 16.4068
#
#
#
# Elastic Compliance Matrix: (Units=1/GPa)
#
#
# Indices 1 2 3 4 5 6 
#
# 1 0.010381 -0.003170 -0.002325 0.000000 0.001180 0.000000
# 2 -0.003170 0.017759 -0.002333 0.000000 0.001916 0.000000
# 3 -0.002325 -0.002333 0.005883 0.000000 -0.003807 0.000000
# 4 0.000000 0.000000 0.000000 0.023977 0.000000 0.002068
# 5 0.001180 0.001916 -0.003807 0.000000 0.017747 0.000000
# 6 0.000000 0.000000 0.000000 0.002068 0.000000 0.061129
#
#
# Mechanical properties :
#
#
# Convention : Reuss Voigt Hill
#
# Bulk Modulus (GPa) = 54.44500 74.41082 64.42791
# Shear Modulus (GPa) = 31.51483 44.43568 37.97525
#
# Velocity S-wave (km/s) = 3.37381 4.00616 3.70351
# Velocity P-wave (km/s) = 5.90265 6.94802 6.44656
#
# Compressibility (1/GPa) = 0.01836716
#
# Stress axis : x y z
#
# Youngs Moduli (GPa) = 96.33013 56.30855 169.96858
#
# Poissons Ratio (x) = 0.17850 0.39521
# Poissons Ratio (y) = 0.30538 0.39653
# Poissons Ratio (z) = 0.22398 0.13137
#
# Static dielectric constant tensor:
#      x y z
#    x 2.158420 0.000000 0.107270 
#    y 0.000000 2.192320 0.000000 
#    z 0.107270 0.000000 2.262030 
# 
# From -- ./inp_files/30007.got.cif
#   From: 2010.05.17/outbox.cif.g08.bks.cpg/sg9_16_cif.got.tgz:30007.got - 2010.06.03 20:04:27.
