data_PCOD9133028
_publ_section_title
;
Structure prediction by ZEFSAII (Michael W. Deem and Ramdas Pophale) SiO2 
 PCOD9133028
Probable space group: C M
;
_chemical_formula_sum "Si O2"
_cell_formula_units_Z 28
_cell_length_a 13.914585
_cell_length_b 10.062044
_cell_length_c 11.489548
_cell_angle_alpha 90.000000
_cell_angle_beta 56.741278
_cell_angle_gamma 90.000000
_cell_volume 1345.150786
_symmetry_space_group_name_H-M "C M"
_symmetry_group_IT_number 8
_symmetry_cell_setting 'monoclinic'
loop_
_space_group_symop_operation_xyz
x,y,z
x,-y,z
1/2+x,1/2+y,z
1/2+x,1/2-y,z
loop_
_atom_site_type_symbol
_atom_site_label
_atom_site_fract_x
_atom_site_fract_y
_atom_site_fract_z
Si Si1 0.776020 0.645909 0.599690
Si Si2 0.997413 0.851903 0.013362
Si Si3 0.444952 0.784575 0.667480
Si Si4 0.742826 0.155688 0.206164
Si Si5 0.649341 0.643656 0.446747
Si Si6 0.088932 0.645909 0.780423
Si Si7 0.240650 0.842882 0.980946
O O1 0.733224 0.500000 0.669003
O O2 0.901104 0.660516 0.572818
O O3 0.747154 0.648632 0.482226
O O4 0.704017 0.769108 0.695620
O O5 0.876307 0.839572 0.158912
O O6 0.994877 0.000000 0.960312
O O7 0.005711 0.735937 0.913306
O O8 0.111848 0.842674 0.014071
O O9 0.523055 0.655885 0.589220
O O10 0.535541 0.862826 0.687336
O O11 0.331602 0.789067 0.824498
O O12 0.666940 0.233474 0.349927
O O13 0.712596 0.000000 0.209750
O O14 0.740065 0.243419 0.090447
O O15 0.659220 0.500000 0.380499
O O16 0.105482 0.500000 0.818680
O O17 0.269681 0.000000 0.986354
#
# Coordination Sequence:
#
# PCOD9133028 Si02
#       7
#     4   4   4   4   4   4   4
#     4  10  21  40  63  89 125 167 208 253 314 377
#     4  10  22  40  61  88 126 168 207 255 315 374
#     4  11  22  38  66  98 127 164 211 261 320 378
#     4  11  25  44  66  92 129 170 215 268 317 379
#     4  10  25  45  66  91 127 173 217 263 317 382
#     4  11  21  33  56  93 127 159 202 255 307 366
#     4  11  22  40  68  97 129 169 210 259 322 384
#
# _framework density 20.815511000000001
#
# number of rings (size 3 to 8) (size 9 to 14) (size 15 to 20)
#    0.000    1.429    2.857    2.143    0.000    7.429 
#    0.000    2.857    0.000    0.000    0.000    0.000 
#    0.000    0.000    0.000    0.000    0.000    0.000 
#
# Total GULP energy -77980.449519 kJ/mol
# GULP energy per Si atom -5570.032109 kJ/mol
# Density = 2.076813 g / cm^3
# Si number density = 20.815511 Si / 1000 Ang^3
#
#
#
# Elastic Constant Matrix: (Units=GPa)
#
#
# Indices 1 2 3 4 5 6 
#
# 1 104.6918 47.2546 25.4153 0.0000 4.2338 0.0000
# 2 47.2546 177.1799 60.9825 0.0000 0.1794 0.0000
# 3 25.4153 60.9825 67.4936 0.0000 -1.9139 0.0000
# 4 0.0000 0.0000 0.0000 25.6810 0.0000 1.7160
# 5 4.2338 0.1794 -1.9139 0.0000 23.1238 0.0000
# 6 0.0000 0.0000 0.0000 1.7160 0.0000 4.9891
#
#
#
# Elastic Compliance Matrix: (Units=1/GPa)
#
#
# Indices 1 2 3 4 5 6 
#
# 1 0.011188 -0.002191 -0.002296 0.000000 -0.002222 0.000000
# 2 -0.002191 0.008631 -0.006980 0.000000 -0.000243 0.000000
# 3 -0.002296 -0.006980 0.022053 0.000000 0.002300 0.000000
# 4 0.000000 0.000000 0.000000 0.039855 0.000000 -0.013709
# 5 -0.002222 -0.000243 0.002300 0.000000 0.043845 0.000000
# 6 0.000000 0.000000 0.000000 -0.013709 0.000000 0.205153
#
#
# Mechanical properties :
#
#
# Convention : Reuss Voigt Hill
#
# Bulk Modulus (GPa) = 52.80683 68.51890 60.66286
# Shear Modulus (GPa) = 13.88993 25.13964 19.51478
#
# Velocity S-wave (km/s) = 2.58599 3.47902 3.06520
# Velocity P-wave (km/s) = 5.86008 7.00905 6.46016
#
# Compressibility (1/GPa) = 0.01893694
#
# Stress axis : x y z
#
# Youngs Moduli (GPa) = 89.37979 115.85903 45.34562
#
# Poissons Ratio (x) = 0.25390 0.10411
# Poissons Ratio (y) = 0.19587 0.31652
# Poissons Ratio (z) = 0.20521 0.80872
#
# Static dielectric constant tensor:
#      x y z
#    x 1.765150 0.000000 -0.003790 
#    y 0.000000 1.778120 0.000000 
#    z -0.003790 0.000000 1.763840 
# 
# From -- ./inp_files/21467.got.cif
#   From: 2010.05.17/outbox.cif.g08.bks.cpg/sg8_11_cif.got.tgz:21467.got - 2010.06.03 19:46:02.
