data_PCOD9133046
_publ_section_title
;
Structure prediction by ZEFSAII (Michael W. Deem and Ramdas Pophale) SiO2 
 PCOD9133046
Probable space group: C M
;
_chemical_formula_sum "Si O2"
_cell_formula_units_Z 32
_cell_length_a 11.378260
_cell_length_b 17.539109
_cell_length_c 14.765532
_cell_angle_alpha 90.000000
_cell_angle_beta 150.905829
_cell_angle_gamma 90.000000
_cell_volume 1432.811155
_symmetry_space_group_name_H-M "C M"
_symmetry_group_IT_number 8
_symmetry_cell_setting 'monoclinic'
loop_
_space_group_symop_operation_xyz
x,y,z
x,-y,z
1/2+x,1/2+y,z
1/2+x,1/2-y,z
loop_
_atom_site_type_symbol
_atom_site_label
_atom_site_fract_x
_atom_site_fract_y
_atom_site_fract_z
Si Si1 0.411690 0.412844 0.615220
Si Si2 0.439878 0.697937 0.466109
Si Si3 0.620487 0.384411 0.941540
Si Si4 0.990301 0.085174 0.169772
Si Si5 0.399263 0.914959 0.305243
Si Si6 0.891468 0.242316 0.059072
Si Si7 0.234609 0.911732 0.529468
Si Si8 0.682203 0.826816 0.745030
O O1 0.370792 0.500000 0.556780
O O2 0.467895 0.360281 0.568970
O O3 0.592521 0.416089 0.821701
O O4 0.159256 0.377427 0.482151
O O5 0.159841 0.720636 0.254499
O O6 0.579919 0.650994 0.481832
O O7 0.557321 0.775463 0.584051
O O8 0.365507 0.385190 0.821039
O O9 0.809112 0.416738 0.141126
O O10 0.704610 0.299088 0.979679
O O11 0.185219 0.111908 0.225030
O O12 0.833328 0.160622 0.065792
O O13 0.110042 0.080141 0.347783
O O14 0.899204 0.000000 0.084109
O O15 0.440675 0.000000 0.368941
O O16 0.828500 0.228770 0.911430
O O17 0.491279 0.873888 0.676738
O O18 0.249174 0.000000 0.576519
#
# Coordination Sequence:
#
# PCOD9133046 Si02
#       8
#     4   4   4   4   4   4   4   4
#     4  11  24  43  68 101 140 182 226 286 355 427
#     4  12  26  46  72 101 144 189 233 293 351 431
#     4  12  24  41  70 105 135 175 238 291 352 420
#     4  10  22  42  68 100 136 185 239 292 352 424
#     4  10  21  40  66  97 136 178 224 284 349 413
#     4  12  25  42  70 104 139 188 236 293 360 430
#     4  11  26  49  75 104 145 196 242 292 366 436
#     4  12  26  43  73 102 139 185 242 291 355 419
#
# _framework density 22.333718000000001
#
# number of rings (size 3 to 8) (size 9 to 14) (size 15 to 20)
#    0.000    0.750    5.000    2.250    1.750    2.500 
#    0.000    0.000    0.000    0.000    0.000    0.000 
#    0.000    0.000    0.000    0.000    0.000    0.000 
#
# Total GULP energy -89242.757617 kJ/mol
# GULP energy per Si atom -5577.672351 kJ/mol
# Density = 2.228289 g / cm^3
# Si number density = 22.333718 Si / 1000 Ang^3
#
#
#
# Elastic Constant Matrix: (Units=GPa)
#
#
# Indices 1 2 3 4 5 6 
#
# 1 66.6826 25.2958 20.9650 0.0039 -13.2210 0.0031
# 2 25.2958 125.4103 21.2757 0.0262 3.7728 0.0131
# 3 20.9650 21.2757 84.9881 0.0259 -18.4057 0.0233
# 4 0.0039 0.0262 0.0259 1.7428 0.0175 -1.5544
# 5 -13.2210 3.7728 -18.4057 0.0175 31.1579 0.0075
# 6 0.0031 0.0131 0.0233 -1.5544 0.0075 48.5499
#
#
#
# Elastic Compliance Matrix: (Units=1/GPa)
#
#
# Indices 1 2 3 4 5 6 
#
# 1 0.018402 -0.003559 -0.002138 -0.000027 0.006977 -0.000001
# 2 -0.003559 0.009199 -0.002286 -0.000059 -0.003974 -0.000002
# 3 -0.002138 -0.002286 0.014597 -0.000272 0.007993 -0.000016
# 4 -0.000027 -0.000059 -0.000272 0.590670 -0.000502 0.018911
# 5 0.006977 -0.003974 0.007993 -0.000502 0.040258 -0.000026
# 6 -0.000001 -0.000002 -0.000016 0.018911 -0.000026 0.021203
#
#
# Mechanical properties :
#
#
# Convention : Reuss Voigt Hill
#
# Bulk Modulus (GPa) = 38.11928 45.79490 41.95709
# Shear Modulus (GPa) = 6.95375 30.25975 18.60675
#
# Velocity S-wave (km/s) = 1.76644 3.68488 2.88952
# Velocity P-wave (km/s) = 4.61146 6.21722 5.47354
#
# Compressibility (1/GPa) = 0.02623345
#
# Stress axis : x y z
#
# Youngs Moduli (GPa) = 54.34267 108.70749 68.50798
#
# Poissons Ratio (x) = 0.38689 0.14644
# Poissons Ratio (y) = 0.19340 0.15658
# Poissons Ratio (z) = 0.11616 0.24846
#
# Static dielectric constant tensor:
#      x y z
#    x 1.877530 -0.000010 0.040410 
#    y -0.000010 1.873770 -0.000010 
#    z 0.040410 -0.000010 1.896600 
# 
# From -- ./inp_files/26282.got.cif
#   From: 2010.05.17/outbox.cif.g08.bks.cpg/sg8_14_cif.got.tgz:26282.got - 2010.06.03 19:46:02.
