data_PCOD9133356
_publ_section_title
;
Structure prediction by ZEFSAII (Michael W. Deem and Ramdas Pophale) SiO2 
 PCOD9133356
Probable space group: C M
;
_chemical_formula_sum "Si O2"
_cell_formula_units_Z 26
_cell_length_a 22.867785
_cell_length_b 7.618783
_cell_length_c 9.741880
_cell_angle_alpha 90.000000
_cell_angle_beta 137.391553
_cell_angle_gamma 90.000000
_cell_volume 1149.029543
_symmetry_space_group_name_H-M "C M"
_symmetry_group_IT_number 8
_symmetry_cell_setting 'monoclinic'
loop_
_space_group_symop_operation_xyz
x,y,z
x,-y,z
1/2+x,1/2+y,z
1/2+x,1/2-y,z
loop_
_atom_site_type_symbol
_atom_site_label
_atom_site_fract_x
_atom_site_fract_y
_atom_site_fract_z
Si Si1 0.755610 0.289124 0.268050
Si Si2 0.109070 0.204252 0.812569
Si Si3 0.199648 0.289094 0.685967
Si Si4 0.133481 0.703509 0.277178
Si Si5 0.399071 0.195804 0.043266
Si Si6 0.005940 0.000000 0.066934
Si Si7 0.428757 0.706758 0.408653
O O1 0.757919 0.500000 0.268544
O O2 0.727463 0.227008 0.369388
O O3 0.845326 0.227042 0.359907
O O4 0.677673 0.219360 0.037337
O O5 0.153330 0.217366 0.740241
O O6 0.013621 0.280516 0.630449
O O7 0.099331 0.000000 0.832230
O O8 0.203634 0.500000 0.702060
O O9 0.144846 0.244062 0.456350
O O10 0.296651 0.219232 0.844417
O O11 0.109400 0.500000 0.223982
O O12 0.067324 0.844442 0.103252
O O13 0.449528 0.345349 0.048660
O O14 0.415023 0.212398 0.234705
O O15 0.425339 0.000000 0.045698
O O16 0.442985 0.500000 0.408206
#
# Coordination Sequence:
#
# PCOD9133356 Si02
#       7
#     4   4   4   4   4   2   4
#     4  11  23  45  68  98 141 187 233 285 345 420
#     4  10  23  40  69 100 136 183 231 285 349 412
#     4  11  23  42  68 103 138 182 234 288 347 414
#     4  11  26  46  71 100 140 188 233 283 351 421
#     4  12  24  41  69 105 142 179 233 293 349 411
#     4  12  24  46  68 100 140 180 230 288 352 410
#     4  11  22  41  67 103 141 181 230 290 348 410
#
# _framework density 22.627789
#
# number of rings (size 3 to 8) (size 9 to 14) (size 15 to 20)
#    0.000    0.923    3.846    2.769    4.308    3.077 
#    2.769    0.000    0.000    0.000    0.000    0.000 
#    0.000    0.000    0.000    0.000    0.000    0.000 
#
# Total GULP energy -72487.714464 kJ/mol
# GULP energy per Si atom -5575.978036 kJ/mol
# Density = 2.257629 g / cm^3
# Si number density = 22.627789 Si / 1000 Ang^3
#
#
#
# Elastic Constant Matrix: (Units=GPa)
#
#
# Indices 1 2 3 4 5 6 
#
# 1 104.9481 12.1902 18.9553 0.0000 30.2637 0.0000
# 2 12.1902 126.0184 11.8352 0.0000 13.2785 0.0000
# 3 18.9553 11.8352 51.5581 0.0000 13.3162 0.0000
# 4 0.0000 0.0000 0.0000 3.7296 0.0000 -0.3684
# 5 30.2637 13.2785 13.3162 0.0000 36.3764 0.0000
# 6 0.0000 0.0000 0.0000 -0.3684 0.0000 40.1407
#
#
#
# Elastic Compliance Matrix: (Units=1/GPa)
#
#
# Indices 1 2 3 4 5 6 
#
# 1 0.012748 0.000004 -0.002152 0.000000 -0.009820 0.000000
# 2 0.000004 0.008324 -0.001244 0.000000 -0.002586 0.000000
# 3 -0.002152 -0.001244 0.021970 0.000000 -0.005798 0.000000
# 4 0.000000 0.000000 0.000000 0.268371 0.000000 0.002463
# 5 -0.009820 -0.002586 -0.005798 0.000000 0.038727 0.000000
# 6 0.000000 0.000000 0.000000 0.002463 0.000000 0.024935
#
#
# Mechanical properties :
#
#
# Convention : Reuss Voigt Hill
#
# Bulk Modulus (GPa) = 27.57997 40.94288 34.26142
# Shear Modulus (GPa) = 12.69210 32.01893 22.35551
#
# Velocity S-wave (km/s) = 2.37092 3.76576 3.14660
# Velocity P-wave (km/s) = 4.43959 6.08616 5.32688
#
# Compressibility (1/GPa) = 0.03625820
#
# Stress axis : x y z
#
# Youngs Moduli (GPa) = 78.44100 120.12937 45.51707
#
# Poissons Ratio (x) = -0.00043 0.09793
# Poissons Ratio (y) = -0.00028 0.05663
# Poissons Ratio (z) = 0.16877 0.14947
#
# Static dielectric constant tensor:
#      x y z
#    x 1.800770 0.000000 0.004090 
#    y 0.000000 1.823700 0.000000 
#    z 0.004090 0.000000 1.877880 
# 
# From -- ./inp_files/15959.got.cif
#   From: 2010.05.17/outbox.cif.g08.bks.cpg/sg8_8_cif.got.tgz:15959.got - 2010.06.03 19:46:02.
