data_PCOD9133672
_publ_section_title
;
Structure prediction by ZEFSAII (Michael W. Deem and Ramdas Pophale) SiO2 
 PCOD9133672
Probable space group: C M
;
_chemical_formula_sum "Si O2"
_cell_formula_units_Z 16
_cell_length_a 24.000000
_cell_length_b 9.000000
_cell_length_c 24.000000
_cell_angle_alpha 90.000000
_cell_angle_beta 20.000000
_cell_angle_gamma 90.000000
_cell_volume 1773.032423
_symmetry_space_group_name_H-M "C M"
_symmetry_group_IT_number 8
_symmetry_cell_setting 'monoclinic'
loop_
_space_group_symop_operation_xyz
x,y,z
x,-y,z
1/2+x,1/2+y,z
1/2+x,1/2-y,z
loop_
_atom_site_type_symbol
_atom_site_label
_atom_site_fract_x
_atom_site_fract_y
_atom_site_fract_z
Si Si1 0.319440 0.679542 0.230090
Si Si2 0.549891 0.678768 0.119023
Si Si3 0.519262 0.819749 0.270087
Si Si4 0.874107 0.679357 0.973307
Si Si5 0.574059 0.821356 0.902169
Si Si6 0.895985 0.824054 0.762608
Si Si7 0.131386 0.179055 0.643463
Si Si8 0.455213 0.323422 0.575329
O O1 0.308580 0.500000 0.235275
O O2 0.134133 0.746026 0.394341
O O3 0.405805 0.713054 0.209329
O O4 0.456130 0.742760 0.058485
O O5 0.552153 0.500000 0.124277
O O6 0.729957 0.733137 0.930395
O O7 0.523817 0.760906 0.202328
O O8 0.326639 0.781983 0.468360
O O9 0.533254 0.000000 0.259982
O O10 0.688024 0.750858 0.140678
O O11 0.855731 0.500000 0.984288
O O12 0.975517 0.705539 0.936208
O O13 0.001053 0.744327 0.807949
O O14 0.771662 0.778976 0.722033
O O15 0.573303 0.000000 0.912445
O O16 0.048929 0.787374 0.659966
O O17 0.937742 0.803516 0.658414
O O18 0.860473 0.000000 0.804807
O O19 0.123631 0.000000 0.657936
O O20 0.472891 0.500000 0.546128
#
# Coordination Sequence:
#
# PCOD9133672 Si02
#       8
#     4   4   4   4   4   4   4   4
#     4  11  24  39  60  92 126 158 195 245 304 357
#     4  11  22  36  58  91 126 159 193 241 303 355
#     4  11  23  40  63  90 122 160 202 242 293 362
#     4  11  24  41  62  89 120 156 201 254 305 349
#     4  10  23  43  64  86 116 159 208 251 294 352
#     4  10  19  35  62  90 117 153 197 245 296 356
#     4  10  22  39  61  90 119 155 199 245 297 356
#     4  10  21  39  64  90 118 158 203 245 294 355
#
# _framework density 9.0240880000000008
#
# number of rings (size 3 to 8) (size 9 to 14) (size 15 to 20)
#    0.000    1.500    2.500    2.250    0.000    6.500 
#    0.000    3.750    0.000    0.000    0.000    0.000 
#    0.000    0.000    0.000    0.000    0.000    0.000 
#
# Total GULP energy -89091.731010 kJ/mol
# GULP energy per Si atom -5568.233188 kJ/mol
# Density = 0.900355 g / cm^3
# Si number density = 9.024088 Si / 1000 Ang^3
#
#
#
# Elastic Constant Matrix: (Units=GPa)
#
#
# Indices 1 2 3 4 5 6 
#
# 1 124.3646 33.2125 47.9968 0.0002 -32.6824 -0.0001
# 2 33.2125 70.0806 45.7796 -0.0061 -12.8740 0.0009
# 3 47.9968 45.7796 160.8002 -0.0070 -42.0891 0.0011
# 4 0.0002 -0.0061 -0.0070 39.5853 0.0012 -7.6786
# 5 -32.6824 -12.8740 -42.0891 0.0012 43.4478 0.0003
# 6 -0.0001 0.0009 0.0011 -7.6786 0.0003 30.7621
#
#
#
# Elastic Compliance Matrix: (Units=1/GPa)
#
#
# Indices 1 2 3 4 5 6 
#
# 1 0.010961 -0.003651 -0.000479 -0.000001 0.006700 0.000000
# 2 -0.003651 0.018753 -0.004707 0.000002 -0.001750 0.000000
# 3 -0.000479 -0.004707 0.009703 0.000001 0.007645 0.000000
# 4 -0.000001 0.000002 0.000001 0.026547 0.000000 0.006627
# 5 0.006700 -0.001750 0.007645 0.000000 0.034943 -0.000001
# 6 0.000000 0.000000 0.000000 0.006627 -0.000001 0.034162
#
#
# Mechanical properties :
#
#
# Convention : Reuss Voigt Hill
#
# Bulk Modulus (GPa) = 45.99157 67.69148 56.84152
# Shear Modulus (GPa) = 31.25170 37.97613 34.61392
#
# Velocity S-wave (km/s) = 4.16573 4.59208 4.38409
# Velocity P-wave (km/s) = 6.97680 8.10578 7.56239
#
# Compressibility (1/GPa) = 0.02174311
#
# Stress axis : x y z
#
# Youngs Moduli (GPa) = 91.22929 53.32428 103.06264
#
# Poissons Ratio (x) = 0.19471 0.04933
# Poissons Ratio (y) = 0.33311 0.48513
# Poissons Ratio (z) = 0.04367 0.25100
#
# Static dielectric constant tensor:
#      x y z
#    x 1.655740 0.000000 0.000510 
#    y 0.000000 1.618340 0.000000 
#    z 0.000510 0.000000 1.638540 
# 
# From -- ./inp_files/32336.got.cif
#   From: 2010.05.17/outbox.ucp.g08.bks.cvg/sg8_17_cif.got.tgz:32336.got - 2010.06.11 13:00:03.
