data_PCOD9133170
_publ_section_title
;
Structure prediction by ZEFSAII (Michael W. Deem and Ramdas Pophale) SiO2 
 PCOD9133170
Probable space group: C M
;
_chemical_formula_sum "Si O2"
_cell_formula_units_Z 32
_cell_length_a 11.639045
_cell_length_b 24.042853
_cell_length_c 5.288173
_cell_angle_alpha 90.000000
_cell_angle_beta 97.825416
_cell_angle_gamma 90.000000
_cell_volume 1466.039609
_symmetry_space_group_name_H-M "C M"
_symmetry_group_IT_number 8
_symmetry_cell_setting 'monoclinic'
loop_
_space_group_symop_operation_xyz
x,y,z
x,-y,z
1/2+x,1/2+y,z
1/2+x,1/2-y,z
loop_
_atom_site_type_symbol
_atom_site_label
_atom_site_fract_x
_atom_site_fract_y
_atom_site_fract_z
Si Si1 0.730600 0.409962 0.181200
Si Si2 0.935109 0.162600 0.468571
Si Si3 0.365293 0.228897 0.759892
Si Si4 0.556542 0.867275 0.764379
Si Si5 0.666420 0.704987 0.313541
Si Si6 0.744951 0.805058 0.079241
Si Si7 0.001508 0.564542 0.248583
Si Si8 0.084453 0.062433 0.644477
O O1 0.729220 0.342775 0.168487
O O2 0.666371 0.426489 0.423672
O O3 0.861511 0.431119 0.216337
O O4 0.661084 0.431889 0.919097
O O5 0.915068 0.217197 0.629636
O O6 0.818210 0.153997 0.275088
O O7 0.041032 0.179690 0.320563
O O8 0.983151 0.108391 0.622542
O O9 0.454488 0.178494 0.765696
O O10 0.245206 0.210878 0.587805
O O11 0.333086 0.256797 0.015892
O O12 0.546053 0.899042 0.497644
O O13 0.678587 0.835546 0.836107
O O14 0.542887 0.909026 0.996852
O O15 0.653919 0.767044 0.202754
O O16 0.035002 0.500000 0.280219
O O17 0.038378 0.000000 0.610673
#
# Coordination Sequence:
#
# PCOD9133170 Si02
#       8
#     4   4   4   4   4   4   4   4
#     4  11  23  41  68 102 132 172 216 280 348 405
#     4  10  25  40  66  97 136 177 220 273 339 398
#     4  11  23  41  67 102 134 177 218 283 346 409
#     4  12  27  43  72 101 137 179 232 275 343 408
#     4  10  22  39  64 100 136 168 214 273 347 411
#     4  11  25  41  66  95 142 179 223 275 335 407
#     4  12  26  47  69  99 136 180 232 286 338 400
#     4  11  24  42  66  98 135 176 224 275 336 404
#
# _framework density 21.827514000000001
#
# number of rings (size 3 to 8) (size 9 to 14) (size 15 to 20)
#    0.000    1.000    1.250    4.500   17.500    0.000 
#    0.000    1.250    0.000    0.000    0.000    0.000 
#    0.000    0.000    0.000    0.000    0.000    0.000 
#
# Total GULP energy -89492.479611 kJ/mol
# GULP energy per Si atom -5593.279976 kJ/mol
# Density = 2.177783 g / cm^3
# Si number density = 21.827514 Si / 1000 Ang^3
#
#
#
# Elastic Constant Matrix: (Units=GPa)
#
#
# Indices 1 2 3 4 5 6 
#
# 1 23.9888 23.1596 4.6009 0.0000 10.0519 0.0000
# 2 23.1596 112.2557 45.9135 0.0000 26.4854 0.0000
# 3 4.6009 45.9135 102.7622 0.0000 8.2775 0.0000
# 4 0.0000 0.0000 0.0000 128.6629 0.0000 -46.8950
# 5 10.0519 26.4854 8.2775 0.0000 29.9680 0.0000
# 6 0.0000 0.0000 0.0000 -46.8950 0.0000 27.7459
#
#
#
# Elastic Compliance Matrix: (Units=1/GPa)
#
#
# Indices 1 2 3 4 5 6 
#
# 1 0.055265 -0.010135 0.002890 0.000000 -0.010378 0.000000
# 2 -0.010135 0.015368 -0.005720 0.000000 -0.008603 0.000000
# 3 0.002890 -0.005720 0.012097 0.000000 0.000744 0.000000
# 4 0.000000 0.000000 0.000000 0.020242 0.000000 0.034212
# 5 -0.010378 -0.008603 0.000744 0.000000 0.044247 0.000000
# 6 0.000000 0.000000 0.000000 0.034212 0.000000 0.093864
#
#
# Mechanical properties :
#
#
# Convention : Reuss Voigt Hill
#
# Bulk Modulus (GPa) = 17.60534 42.92829 30.26682
# Shear Modulus (GPa) = 17.48565 48.29756 32.89160
#
# Velocity S-wave (km/s) = 2.83341 4.70903 3.88608
# Velocity P-wave (km/s) = 4.33445 7.01971 5.83369
#
# Compressibility (1/GPa) = 0.05680094
#
# Stress axis : x y z
#
# Youngs Moduli (GPa) = 18.09455 65.06822 82.66216
#
# Poissons Ratio (x) = 0.65949 -0.23889
# Poissons Ratio (y) = 0.18339 0.47281
# Poissons Ratio (z) = -0.05229 0.37218
#
# Static dielectric constant tensor:
#      x y z
#    x 1.851160 0.000000 -0.052780 
#    y 0.000000 1.821080 0.000000 
#    z -0.052780 0.000000 1.824730 
# 
# From -- ./inp_files/3182.got.cif
#   From: 2010.05.17/outbox.cif.g08.bks.cpg/sg8_2_cif.got.tgz:3182.got - 2010.06.03 19:46:02.
