data_PCOD9133448
_publ_section_title
;
Structure prediction by ZEFSAII (Michael W. Deem and Ramdas Pophale) SiO2 
 PCOD9133448
Probable space group: C M
;
_chemical_formula_sum "Si O2"
_cell_formula_units_Z 28
_cell_length_a 4.810078
_cell_length_b 31.499452
_cell_length_c 7.228378
_cell_angle_alpha 90.000000
_cell_angle_beta 101.695131
_cell_angle_gamma 90.000000
_cell_volume 1072.469958
_symmetry_space_group_name_H-M "C M"
_symmetry_group_IT_number 8
_symmetry_cell_setting 'monoclinic'
loop_
_space_group_symop_operation_xyz
x,y,z
x,-y,z
1/2+x,1/2+y,z
1/2+x,1/2-y,z
loop_
_atom_site_type_symbol
_atom_site_label
_atom_site_fract_x
_atom_site_fract_y
_atom_site_fract_z
Si Si1 0.070510 0.602624 0.357810
Si Si2 0.984986 0.840114 0.656447
Si Si3 0.651201 0.720513 0.356705
Si Si4 0.403557 0.452023 0.863756
Si Si5 0.318770 0.279487 0.956190
Si Si6 0.066416 0.047977 0.449139
Si Si7 0.899463 0.397376 0.955085
O O1 0.256016 0.631967 0.515414
O O2 0.278849 0.564715 0.317936
O O3 0.811988 0.581077 0.431785
O O4 0.984986 0.625693 0.156447
O O5 0.132367 0.810803 0.523926
O O6 0.657985 0.918923 0.881109
O O7 0.213957 0.868033 0.797481
O O8 0.969360 0.736448 0.368937
O O9 0.484986 0.702028 0.156447
O O10 0.322755 0.500000 0.902443
O O11 0.484986 0.452241 0.656447
O O12 0.691124 0.435285 0.994958
O O13 0.500612 0.236448 0.943958
O O14 0.337604 0.310803 0.788968
O O15 0.147217 0.000000 0.410452
#
# Coordination Sequence:
#
# PCOD9133448 Si02
#       7
#     4   4   4   4   4   4   4
#     4  12  28  47  74 113 152 200 255 309 386 455
#     4  12  28  50  77 110 162 198 234 314 383 442
#     4  10  24  48  79 111 143 192 253 299 359 448
#     4  11  25  50  77 104 147 203 261 319 374 442
#     4  10  24  48  79 111 143 192 253 299 359 448
#     4  11  25  50  77 104 147 203 261 319 374 442
#     4  12  28  47  74 113 152 200 255 309 386 455
#
# _framework density 26.107955
#
# number of rings (size 3 to 8) (size 9 to 14) (size 15 to 20)
#    0.000    0.857    1.429    3.429    0.000   16.000 
#    0.000    0.000    0.000    0.000    0.000    0.000 
#    0.000    0.000    0.000    0.000    0.000    0.000 
#
# Total GULP energy -78600.300899 kJ/mol
# GULP energy per Si atom -5614.307207 kJ/mol
# Density = 2.604853 g / cm^3
# Si number density = 26.107955 Si / 1000 Ang^3
#
#
#
# Elastic Constant Matrix: (Units=GPa)
#
#
# Indices 1 2 3 4 5 6 
#
# 1 143.8693 32.9171 35.5267 0.0000 -3.0043 0.0000
# 2 32.9171 93.9211 69.8698 0.0000 -5.2207 0.0000
# 3 35.5267 69.8698 199.0172 0.0000 2.5214 0.0000
# 4 0.0000 0.0000 0.0000 -31.7033 0.0000 91.1896
# 5 -3.0043 -5.2207 2.5214 0.0000 34.3395 0.0000
# 6 0.0000 0.0000 0.0000 91.1896 0.0000 -110.3524
#
#
#
# Elastic Compliance Matrix: (Units=1/GPa)
#
#
# Indices 1 2 3 4 5 6 
#
# 1 0.007609 -0.002209 -0.000587 0.000000 0.000373 0.000000
# 2 -0.002209 0.015282 -0.005002 0.000000 0.002497 0.000000
# 3 -0.000587 -0.005002 0.006902 0.000000 -0.001319 0.000000
# 4 0.000000 0.000000 0.000000 0.022909 0.000000 0.018931
# 5 0.000373 0.002497 -0.001319 0.000000 0.029630 0.000000
# 6 0.000000 0.000000 0.000000 0.018931 0.000000 0.006582
#
#
# Mechanical properties :
#
#
# Convention : Reuss Voigt Hill
#
# Bulk Modulus (GPa) = 70.44490 79.27054 74.85772
# Shear Modulus (GPa) = 45.76955 -1.64363 22.06296
#
# Velocity S-wave (km/s) = 4.19153 -0.79430 2.91016
# Velocity P-wave (km/s) = 7.10394 5.43942 6.32666
#
# Compressibility (1/GPa) = 0.01419549
#
# Stress axis : x y z
#
# Youngs Moduli (GPa) = 131.42272 65.43838 144.87625
#
# Poissons Ratio (x) = 0.14455 0.08511
# Poissons Ratio (y) = 0.29031 0.72471
# Poissons Ratio (z) = 0.07721 0.32734
#
# Static dielectric constant tensor:
#      x y z
#    x 2.005050 0.000000 -0.015310 
#    y 0.000000 2.014090 0.000000 
#    z -0.015310 0.000000 2.125660 
# 
# From -- ./inp_files/7121.got.cif
#   From: 2010.05.17/outbox.cif.g08.bks.cpg/sg8_4_cif.got.tgz:7121.got - 2010.06.03 19:46:02.
