data_PCOD9133439
_publ_section_title
;
Structure prediction by ZEFSAII (Michael W. Deem and Ramdas Pophale) SiO2 
 PCOD9133439
Probable space group: C M
;
_chemical_formula_sum "Si O2"
_cell_formula_units_Z 32
_cell_length_a 14.896271
_cell_length_b 8.565913
_cell_length_c 11.039115
_cell_angle_alpha 90.000000
_cell_angle_beta 78.583396
_cell_angle_gamma 90.000000
_cell_volume 1380.722231
_symmetry_space_group_name_H-M "C M"
_symmetry_group_IT_number 8
_symmetry_cell_setting 'monoclinic'
loop_
_space_group_symop_operation_xyz
x,y,z
x,-y,z
1/2+x,1/2+y,z
1/2+x,1/2-y,z
loop_
_atom_site_type_symbol
_atom_site_label
_atom_site_fract_x
_atom_site_fract_y
_atom_site_fract_z
Si Si1 0.285350 0.317327 0.625000
Si Si2 0.950838 0.316950 0.706921
Si Si3 0.132024 0.316930 0.045070
Si Si4 0.869400 0.320537 0.209786
Si Si5 0.029906 0.816013 0.301261
Si Si6 0.349161 0.681853 0.963696
Si Si7 0.614427 0.317372 0.796571
Si Si8 0.695129 0.684243 0.413829
O O1 0.281252 0.500000 0.654110
O O2 0.387965 0.257241 0.619254
O O3 0.217545 0.225011 0.732539
O O4 0.242049 0.282504 0.506410
O O5 0.962694 0.500000 0.684585
O O6 0.047840 0.235541 0.706104
O O7 0.895128 0.283089 0.846619
O O8 0.118525 0.500000 0.076049
O O9 0.087637 0.216616 0.163218
O O10 0.240618 0.287854 0.003674
O O11 0.091090 0.275090 0.925079
O O12 0.885840 0.500000 0.172403
O O13 0.935923 0.273091 0.301590
O O14 0.887113 0.217003 0.087233
O O15 0.765534 0.304776 0.282743
O O16 0.095570 0.764692 0.393678
O O17 0.012611 0.000000 0.319524
O O18 0.363227 0.500000 0.928595
O O19 0.604498 0.500000 0.821055
O O20 0.691312 0.500000 0.450470
#
# Coordination Sequence:
#
# PCOD9133439 Si02
#       8
#     4   4   4   4   4   4   4   4
#     4  12  26  45  68  95 128 167 215 267 321 380
#     4  12  25  43  68  96 131 170 213 263 319 381
#     4  11  22  38  64  96 132 168 210 259 316 382
#     4  11  23  41  65  94 129 167 212 260 316 378
#     4  11  23  41  65  94 129 167 212 260 316 378
#     4  11  22  38  64  96 132 168 210 259 316 382
#     4  12  25  43  68  96 131 170 213 263 319 381
#     4  10  24  45  66  89 124 169 215 265 317 374
#
# _framework density 23.176273999999999
#
# number of rings (size 3 to 8) (size 9 to 14) (size 15 to 20)
#    0.000    0.750    2.500    5.625    0.000    4.000 
#    0.000    2.500    0.000    0.000    0.000    0.000 
#    0.000    0.000    0.000    0.000    0.000    0.000 
#
# Total GULP energy -89633.433962 kJ/mol
# GULP energy per Si atom -5602.089623 kJ/mol
# Density = 2.312352 g / cm^3
# Si number density = 23.176274 Si / 1000 Ang^3
#
#
#
# Elastic Constant Matrix: (Units=GPa)
#
#
# Indices 1 2 3 4 5 6 
#
# 1 117.3389 6.9362 1.6201 0.0000 31.4092 0.0000
# 2 6.9362 38.0687 -14.2299 0.0000 6.4008 0.0000
# 3 1.6201 -14.2299 59.7331 0.0000 26.8355 0.0000
# 4 0.0000 0.0000 0.0000 25.9411 0.0000 4.5493
# 5 31.4092 6.4008 26.8355 0.0000 42.1248 0.0000
# 6 0.0000 0.0000 0.0000 4.5493 0.0000 31.1231
#
#
#
# Elastic Compliance Matrix: (Units=1/GPa)
#
#
# Indices 1 2 3 4 5 6 
#
# 1 0.011783 0.002310 0.006074 0.000000 -0.013007 0.000000
# 2 0.002310 0.034658 0.015878 0.000000 -0.017104 0.000000
# 3 0.006074 0.015878 0.032891 0.000000 -0.027895 0.000000
# 4 0.000000 0.000000 0.000000 0.039563 0.000000 -0.005783
# 5 -0.013007 -0.017104 -0.027895 0.000000 0.053806 0.000000
# 6 0.000000 0.000000 0.000000 -0.005783 0.000000 0.032976
#
#
# Mechanical properties :
#
#
# Convention : Reuss Voigt Hill
#
# Bulk Modulus (GPa) = 7.82123 22.64370 15.23247
# Shear Modulus (GPa) = 25.02856 34.55874 29.79365
#
# Velocity S-wave (km/s) = 3.28978 3.86570 3.58931
# Velocity P-wave (km/s) = 4.22045 5.45126 4.87486
#
# Compressibility (1/GPa) = 0.12785707
#
# Stress axis : x y z
#
# Youngs Moduli (GPa) = 84.86460 28.85317 30.40371
#
# Poissons Ratio (x) = -0.06666 -0.18468
# Poissons Ratio (y) = -0.19607 -0.48274
# Poissons Ratio (z) = -0.51548 -0.45813
#
# Static dielectric constant tensor:
#      x y z
#    x 1.880330 0.000000 0.004450 
#    y 0.000000 1.767880 0.000000 
#    z 0.004450 0.000000 1.875780 
# 
# From -- ./inp_files/21554.got.cif
#   From: 2010.05.17/outbox.cif.g08.bks.cpg/sg8_11_cif.got.tgz:21554.got - 2010.06.03 19:46:02.
