data_PCOD9133456
_publ_section_title
;
Structure prediction by ZEFSAII (Michael W. Deem and Ramdas Pophale) SiO2 
 PCOD9133456
Probable space group: C M
;
_chemical_formula_sum "Si O2"
_cell_formula_units_Z 24
_cell_length_a 9.977042
_cell_length_b 16.647585
_cell_length_c 7.045287
_cell_angle_alpha 90.000000
_cell_angle_beta 137.757511
_cell_angle_gamma 90.000000
_cell_volume 786.674931
_symmetry_space_group_name_H-M "C M"
_symmetry_group_IT_number 8
_symmetry_cell_setting 'monoclinic'
loop_
_space_group_symop_operation_xyz
x,y,z
x,-y,z
1/2+x,1/2+y,z
1/2+x,1/2-y,z
loop_
_atom_site_type_symbol
_atom_site_label
_atom_site_fract_x
_atom_site_fract_y
_atom_site_fract_z
Si Si1 0.901310 0.500000 0.321590
Si Si2 0.339545 0.089888 0.886087
Si Si3 0.893033 0.910215 0.569775
Si Si4 0.405380 0.500000 0.935282
Si Si5 0.609445 0.779206 0.343091
Si Si6 0.322063 0.646238 0.107811
Si Si7 0.896139 0.354472 0.531140
O O1 0.137582 0.500000 0.661902
O O2 0.903637 0.400700 0.340759
O O3 0.656710 0.500000 0.129543
O O4 0.116511 0.094562 0.731782
O O5 0.348392 0.089264 0.666834
O O6 0.408120 0.000000 0.055231
O O7 0.455193 0.170036 0.057656
O O8 0.787211 0.842344 0.582750
O O9 0.865595 0.000000 0.637612
O O10 0.776601 0.905337 0.250212
O O11 0.419493 0.583058 0.068728
O O12 0.734645 0.714546 0.356525
O O13 0.473202 0.718048 0.319351
O O14 0.116554 0.678866 0.808405
#
# Coordination Sequence:
#
# PCOD9133456 Si02
#       7
#     2   4   4   2   4   4   4
#     4  10  25  45  82 105 145 214 243 293 392 461
#     4  10  25  49  76 108 151 201 249 300 375 466
#     4  10  25  49  76 108 151 201 249 300 375 466
#     4  10  25  45  82 105 145 214 243 293 392 461
#     4  12  29  47  76 118 152 180 266 315 355 452
#     4  12  27  48  80 109 152 200 245 314 383 432
#     4  12  27  48  80 109 152 200 245 314 383 432
#
# _framework density 30.508154000000001
#
# number of rings (size 3 to 8) (size 9 to 14) (size 15 to 20)
#    1.000    0.000    3.333    1.000    9.333    0.667 
#    0.000    3.333    0.000    3.000    0.000    0.000 
#    0.000    0.000    0.000    0.000    0.000    0.000 
#
# Total GULP energy -66974.247259 kJ/mol
# GULP energy per Si atom -5581.187272 kJ/mol
# Density = 3.043872 g / cm^3
# Si number density = 30.508154 Si / 1000 Ang^3
#
#
#
# Elastic Constant Matrix: (Units=GPa)
#
#
# Indices 1 2 3 4 5 6 
#
# 1 180.1554 68.8026 47.2588 0.0000 10.6503 0.0000
# 2 68.8026 219.5841 62.2292 0.0000 -2.6795 0.0000
# 3 47.2588 62.2292 157.8111 0.0000 17.3317 0.0000
# 4 0.0000 0.0000 0.0000 70.3725 0.0000 13.4233
# 5 10.6503 -2.6795 17.3317 0.0000 69.0601 0.0000
# 6 0.0000 0.0000 0.0000 13.4233 0.0000 41.6443
#
#
#
# Elastic Compliance Matrix: (Units=1/GPa)
#
#
# Indices 1 2 3 4 5 6 
#
# 1 0.006572 -0.001728 -0.001201 0.000000 -0.000779 0.000000
# 2 -0.001728 0.005617 -0.001800 0.000000 0.000936 0.000000
# 3 -0.001201 -0.001800 0.007603 0.000000 -0.001793 0.000000
# 4 0.000000 0.000000 0.000000 0.015141 0.000000 -0.004880
# 5 -0.000779 0.000936 -0.001793 0.000000 0.015087 0.000000
# 6 0.000000 0.000000 0.000000 -0.004880 0.000000 0.025586
#
#
# Mechanical properties :
#
#
# Convention : Reuss Voigt Hill
#
# Bulk Modulus (GPa) = 96.77616 101.57018 99.17317
# Shear Modulus (GPa) = 56.49117 61.49938 58.99528
#
# Velocity S-wave (km/s) = 4.30778 4.49468 4.40222
# Velocity P-wave (km/s) = 7.51883 7.76539 7.64310
#
# Compressibility (1/GPa) = 0.01033312
#
# Stress axis : x y z
#
# Youngs Moduli (GPa) = 152.16224 178.02376 131.52496
#
# Poissons Ratio (x) = 0.30769 0.15795
# Poissons Ratio (y) = 0.26299 0.23678
# Poissons Ratio (z) = 0.18274 0.32049
#
# Static dielectric constant tensor:
#      x y z
#    x 2.446530 0.000000 0.005410 
#    y 0.000000 2.451300 0.000000 
#    z 0.005410 0.000000 2.446860 
# 
# From -- ./inp_files/22254.got.cif
#   From: 2010.05.17/outbox.cif.g08.bks.cpg/sg8_12_cif.got.tgz:22254.got - 2010.06.03 19:46:02.
