data_PCOD9133140
_publ_section_title
;
Structure prediction by ZEFSAII (Michael W. Deem and Ramdas Pophale) SiO2 
 PCOD9133140
Probable space group: C M
;
_chemical_formula_sum "Si O2"
_cell_formula_units_Z 30
_cell_length_a 5.237515
_cell_length_b 32.268120
_cell_length_c 8.893427
_cell_angle_alpha 90.000000
_cell_angle_beta 120.768915
_cell_angle_gamma 90.000000
_cell_volume 1291.461152
_symmetry_space_group_name_H-M "C M"
_symmetry_group_IT_number 8
_symmetry_cell_setting 'monoclinic'
loop_
_space_group_symop_operation_xyz
x,y,z
x,-y,z
1/2+x,1/2+y,z
1/2+x,1/2-y,z
loop_
_atom_site_type_symbol
_atom_site_label
_atom_site_fract_x
_atom_site_fract_y
_atom_site_fract_z
Si Si1 0.409640 0.930495 0.376470
Si Si2 0.647222 0.357747 0.475626
Si Si3 0.044952 0.932881 0.658300
Si Si4 0.198134 0.351273 0.066718
Si Si5 0.158801 0.766766 0.585893
Si Si6 0.652748 0.599671 0.005014
Si Si7 0.379196 0.264746 0.981726
Si Si8 0.230730 0.000000 0.514620
O O1 0.377342 0.885791 0.448654
O O2 0.725450 0.950586 0.511352
O O3 0.361045 0.923228 0.187589
O O4 0.176461 0.962790 0.373604
O O5 0.565128 0.387854 0.587733
O O6 0.377511 0.350286 0.278117
O O7 0.744461 0.313556 0.569609
O O8 0.280797 0.963463 0.657125
O O9 0.061698 0.928541 0.839632
O O10 0.368013 0.384305 0.011544
O O11 0.860142 0.363820 0.998279
O O12 0.251081 0.308525 0.995444
O O13 0.306895 0.738360 0.502789
O O14 0.270899 0.750343 0.783342
O O15 0.733174 0.265053 0.063618
#
# Coordination Sequence:
#
# PCOD9133140 Si02
#       8
#     4   4   4   4   4   4   4   2
#     4  10  23  48  69 105 143 185 227 296 345 426
#     4  10  24  42  68  97 139 183 240 287 359 409
#     4  11  24  43  75 101 139 187 228 289 345 428
#     4  11  24  44  65  98 139 181 236 298 344 419
#     4  10  24  37  59  95 131 177 236 285 352 402
#     4  11  26  42  74 104 134 186 237 278 353 414
#     4  10  22  38  58  88 131 175 227 288 353 394
#     4  10  24  46  70 110 146 178 230 286 358 416
#
# _framework density 23.229500999999999
#
# number of rings (size 3 to 8) (size 9 to 14) (size 15 to 20)
#    0.000    1.600    1.333    1.200   13.067    1.600 
#    0.000    1.333    0.000    0.000    0.000    0.000 
#    0.000    0.000    0.000    0.000    0.000    0.000 
#
# Total GULP energy -83508.506011 kJ/mol
# GULP energy per Si atom -5567.233734 kJ/mol
# Density = 2.317663 g / cm^3
# Si number density = 23.229501 Si / 1000 Ang^3
#
#
#
# Elastic Constant Matrix: (Units=GPa)
#
#
# Indices 1 2 3 4 5 6 
#
# 1 78.5701 -2.3720 18.2076 0.0000 -24.0585 0.0000
# 2 -2.3720 128.0465 47.5174 0.0000 -19.0051 0.0000
# 3 18.2076 47.5174 127.6074 0.0000 -25.2646 0.0000
# 4 0.0000 0.0000 0.0000 18.7232 0.0000 -35.0265
# 5 -24.0585 -19.0051 -25.2646 0.0000 24.3077 0.0000
# 6 0.0000 0.0000 0.0000 -35.0265 0.0000 172.1304
#
#
#
# Elastic Compliance Matrix: (Units=1/GPa)
#
#
# Indices 1 2 3 4 5 6 
#
# 1 0.019698 0.003604 0.000334 0.000000 0.022661 0.000000
# 2 0.003604 0.010131 -0.002534 0.000000 0.008855 0.000000
# 3 0.000334 -0.002534 0.010583 0.000000 0.009350 0.000000
# 4 0.000000 0.000000 0.000000 0.086238 0.000000 0.017549
# 5 0.022661 0.008855 0.009350 0.000000 0.080209 0.000000
# 6 0.000000 0.000000 0.000000 0.017549 0.000000 0.009380
#
#
# Mechanical properties :
#
#
# Convention : Reuss Voigt Hill
#
# Bulk Modulus (GPa) = 23.13656 51.21444 37.17550
# Shear Modulus (GPa) = 21.94540 61.09033 41.51787
#
# Velocity S-wave (km/s) = 3.07697 5.13378 4.23222
# Velocity P-wave (km/s) = 4.75450 7.56544 6.31827
#
# Compressibility (1/GPa) = 0.04322164
#
# Stress axis : x y z
#
# Youngs Moduli (GPa) = 50.76693 98.70752 94.48724
#
# Poissons Ratio (x) = -0.35579 -0.03154
# Poissons Ratio (y) = -0.18299 0.23939
# Poissons Ratio (z) = -0.01695 0.25008
#
# Static dielectric constant tensor:
#      x y z
#    x 2.128610 0.000000 0.089000 
#    y 0.000000 1.838910 0.000000 
#    z 0.089000 0.000000 1.907970 
# 
# From -- ./inp_files/7190.got.cif
#   From: 2010.05.17/outbox.cif.g08.bks.cpg/sg8_4_cif.got.tgz:7190.got - 2010.06.03 19:46:02.
