data_PCOD9133652
_publ_section_title
;
Structure prediction by ZEFSAII (Michael W. Deem and Ramdas Pophale) SiO2 
 PCOD9133652
Probable space group: C M
;
_chemical_formula_sum "Si O2"
_cell_formula_units_Z 16
_cell_length_a 15.000000
_cell_length_b 9.000000
_cell_length_c 24.000000
_cell_angle_alpha 90.000000
_cell_angle_beta 30.000000
_cell_angle_gamma 90.000000
_cell_volume 1620.000000
_symmetry_space_group_name_H-M "C M"
_symmetry_group_IT_number 8
_symmetry_cell_setting 'monoclinic'
loop_
_space_group_symop_operation_xyz
x,y,z
x,-y,z
1/2+x,1/2+y,z
1/2+x,1/2-y,z
loop_
_atom_site_type_symbol
_atom_site_label
_atom_site_fract_x
_atom_site_fract_y
_atom_site_fract_z
Si Si1 0.043440 0.176875 0.121530
Si Si2 0.663328 0.680139 0.843942
Si Si3 0.742823 0.178937 0.374583
Si Si4 0.898850 0.822089 0.893841
Si Si5 0.377342 0.321836 0.089218
Si Si6 0.502926 0.178330 0.722910
Si Si7 0.890749 0.676217 0.506189
Si Si8 0.485749 0.823815 0.327161
O O1 0.893086 0.221979 0.247437
O O2 0.958571 0.199212 0.106458
O O3 0.079320 0.000000 0.108957
O O4 0.227470 0.267614 0.021786
O O5 0.663765 0.500000 0.847984
O O6 0.578983 0.715477 0.830150
O O7 0.864034 0.726759 0.749650
O O8 0.518802 0.736253 0.967687
O O9 0.544646 0.229353 0.465182
O O10 0.818679 0.242220 0.390558
O O11 0.738339 0.000000 0.377779
O O12 0.910006 0.736785 0.829646
O O13 0.889220 0.000000 0.891304
O O14 0.363906 0.500000 0.087557
O O15 0.173784 0.265339 0.200554
O O16 0.700607 0.244353 0.611713
O O17 0.513092 0.000000 0.718195
O O18 0.860557 0.500000 0.531830
O O19 0.977747 0.693349 0.397900
O O20 0.474561 0.000000 0.321514
#
# Coordination Sequence:
#
# PCOD9133652 Si02
#       8
#     4   4   4   4   4   4   4   4
#     4  10  18  34  60  86 116 155 191 227 279 344
#     4   9  19  35  58  83 111 148 186 224 280 346
#     4  10  21  37  59  86 118 154 189 231 287 342
#     4  11  22  37  59  89 118 148 187 236 288 340
#     4   9  15  31  59  84 110 149 188 223 273 341
#     4  11  23  41  62  82 109 152 197 239 285 338
#     4  10  22  41  60  81 113 154 195 237 286 339
#     4  10  20  36  61  87 113 150 193 235 282 338
#
# _framework density 9.8765429999999999
#
# number of rings (size 3 to 8) (size 9 to 14) (size 15 to 20)
#    0.000    2.000    2.500    1.500    0.000    3.500 
#    0.000    6.875    0.000    0.000    0.000    0.000 
#    0.000    0.000    0.000    0.000    0.000    0.000 
#
# Total GULP energy -89303.457741 kJ/mol
# GULP energy per Si atom -5581.466109 kJ/mol
# Density = 0.985406 g / cm^3
# Si number density = 9.876543 Si / 1000 Ang^3
#
#
#
# Elastic Constant Matrix: (Units=GPa)
#
#
# Indices 1 2 3 4 5 6 
#
# 1 82.8131 18.2364 15.9601 0.0000 -43.2012 0.0000
# 2 18.2364 26.1369 17.0898 -0.0001 -13.8981 0.0000
# 3 15.9601 17.0898 61.6246 -0.0006 -40.6770 0.0001
# 4 0.0000 -0.0001 -0.0006 33.2308 0.0000 -2.9476
# 5 -43.2012 -13.8981 -40.6770 0.0000 39.2386 0.0000
# 6 0.0000 0.0000 0.0001 -2.9476 0.0000 22.1929
#
#
#
# Elastic Compliance Matrix: (Units=1/GPa)
#
#
# Indices 1 2 3 4 5 6 
#
# 1 -0.102626 0.034013 -0.156729 -0.000002 -0.263416 0.000000
# 2 0.034013 0.036701 0.045330 0.000001 0.097439 0.000000
# 3 -0.156729 0.045330 -0.187045 -0.000003 -0.350402 0.000000
# 4 -0.000002 0.000001 -0.000003 0.030451 -0.000005 0.004044
# 5 -0.263416 0.097439 -0.350402 -0.000005 -0.593267 0.000000
# 6 0.000000 0.000000 0.000000 0.004044 0.000000 0.045597
#
#
# Mechanical properties :
#
#
# Convention : Reuss Voigt Hill
#
# Bulk Modulus (GPa) = -2.45254 30.34972 13.94859
# Shear Modulus (GPa) = -6.65485 26.88503 10.11509
#
# Velocity S-wave (km/s) = -1.83748 3.69325 2.26537
# Velocity P-wave (km/s) = 2.39710 5.79523 3.73086
#
# Compressibility (1/GPa) = -0.40773980
#
# Stress axis : x y z
#
# Youngs Moduli (GPa) = -9.74413 27.24685 -5.34630
#
# Poissons Ratio (x) = -0.92675 -0.83792
# Poissons Ratio (y) = 0.33143 0.24235
# Poissons Ratio (z) = -1.52718 -1.23511
#
# Static dielectric constant tensor:
#      x y z
#    x 1.722160 0.000000 0.000460 
#    y 0.000000 1.659040 0.000000 
#    z 0.000460 0.000000 1.692320 
# 
# From -- ./inp_files/26531.got.cif
#   From: 2010.05.17/outbox.ucp.g08.bks.cvg/sg8_14_cif.got.tgz:26531.got - 2010.06.11 13:00:03.
