data_PCOD9133654
_publ_section_title
;
Structure prediction by ZEFSAII (Michael W. Deem and Ramdas Pophale) SiO2 
 PCOD9133654
Probable space group: C M
;
_chemical_formula_sum "Si O2"
_cell_formula_units_Z 16
_cell_length_a 18.000000
_cell_length_b 15.000000
_cell_length_c 12.000000
_cell_angle_alpha 90.000000
_cell_angle_beta 30.000000
_cell_angle_gamma 90.000000
_cell_volume 1620.000000
_symmetry_space_group_name_H-M "C M"
_symmetry_group_IT_number 8
_symmetry_cell_setting 'monoclinic'
loop_
_space_group_symop_operation_xyz
x,y,z
x,-y,z
1/2+x,1/2+y,z
1/2+x,1/2-y,z
loop_
_atom_site_type_symbol
_atom_site_label
_atom_site_fract_x
_atom_site_fract_y
_atom_site_fract_z
Si Si1 0.498260 0.209282 0.299530
Si Si2 0.448720 0.154666 0.612509
Si Si3 0.689717 0.901969 0.468071
Si Si4 0.782936 0.099798 0.949334
Si Si5 0.087389 0.850580 0.463273
Si Si6 0.441707 0.395499 0.968513
Si Si7 0.150500 0.894621 0.136812
Si Si8 0.708154 0.290923 0.535229
O O1 0.447376 0.157093 0.479451
O O2 0.528919 0.315953 0.273807
O O3 0.371026 0.198825 0.373719
O O4 0.657548 0.164747 0.065011
O O5 0.570944 0.097431 0.520752
O O6 0.513681 0.253246 0.548349
O O7 0.293206 0.131336 0.875152
O O8 0.667774 0.813531 0.569656
O O9 0.684038 0.000000 0.529953
O O10 0.849229 0.889395 0.201457
O O11 0.835335 0.133369 0.003559
O O12 0.936841 0.094714 0.681616
O O13 0.721494 0.000000 0.040706
O O14 0.173165 0.881673 0.241383
O O15 0.187296 0.841815 0.444008
O O16 0.476900 0.500000 0.902925
O O17 0.587259 0.336025 0.773157
O O18 0.113925 0.000000 0.164770
#
# Coordination Sequence:
#
# PCOD9133654 Si02
#       8
#     4   4   4   4   4   4   4   4
#     4  11  23  39  59  99 128 161 203 260 316 365
#     4  10  20  37  63  90 122 158 212 263 297 355
#     4  10  20  37  63  91 121 164 213 252 300 369
#     4  10  18  35  64  87 117 162 210 256 303 364
#     4   9  20  39  63  89 119 161 211 251 305 370
#     4   9  19  38  62  87 116 161 211 252 300 363
#     4  11  23  40  65  92 126 167 210 256 306 370
#     4  10  23  37  61  93 131 160 196 258 319 370
#
# _framework density 9.8765429999999999
#
# number of rings (size 3 to 8) (size 9 to 14) (size 15 to 20)
#    0.000    2.000    2.500    0.750    0.000    3.000 
#    0.000    1.250    0.000    0.750    0.000    0.000 
#    0.000    0.000    0.000    0.000    0.000    0.000 
#
# Total GULP energy -89181.788297 kJ/mol
# GULP energy per Si atom -5573.861769 kJ/mol
# Density = 0.985406 g / cm^3
# Si number density = 9.876543 Si / 1000 Ang^3
#
#
#
# Elastic Constant Matrix: (Units=GPa)
#
#
# Indices 1 2 3 4 5 6 
#
# 1 88.8623 25.7462 36.8565 0.0000 -22.7842 0.0000
# 2 25.7462 121.2724 34.9769 0.0000 -16.2316 0.0000
# 3 36.8565 34.9769 94.9639 -0.0001 0.5649 0.0000
# 4 0.0000 0.0000 -0.0001 28.6229 0.0000 2.7281
# 5 -22.7842 -16.2316 0.5649 0.0000 28.9749 0.0000
# 6 0.0000 0.0000 0.0000 2.7281 0.0000 7.6945
#
#
#
# Elastic Compliance Matrix: (Units=1/GPa)
#
#
# Indices 1 2 3 4 5 6 
#
# 1 0.017767 0.000158 -0.007038 0.000000 0.014196 0.000000
# 2 0.000158 0.010096 -0.003815 0.000000 0.005855 0.000000
# 3 -0.007038 -0.003815 0.014714 0.000000 -0.007958 0.000000
# 4 0.000000 0.000000 0.000000 0.036159 0.000000 -0.012820
# 5 0.014196 0.005855 -0.007958 0.000000 0.049111 0.000000
# 6 0.000000 0.000000 0.000000 -0.012820 0.000000 0.134508
#
#
# Mechanical properties :
#
#
# Convention : Reuss Voigt Hill
#
# Bulk Modulus (GPa) = 47.19759 55.58422 51.39090
# Shear Modulus (GPa) = 17.19354 26.89307 22.04330
#
# Velocity S-wave (km/s) = 2.95349 3.69380 3.34420
# Velocity P-wave (km/s) = 5.96460 6.81123 6.40193
#
# Compressibility (1/GPa) = 0.02118752
#
# Stress axis : x y z
#
# Youngs Moduli (GPa) = 56.28531 99.04744 67.96114
#
# Poissons Ratio (x) = -0.01566 0.47832
# Poissons Ratio (y) = -0.00890 0.25926
# Poissons Ratio (z) = 0.39614 0.37785
#
# Static dielectric constant tensor:
#      x y z
#    x 1.705130 0.000000 0.020430 
#    y 0.000000 1.751610 0.000000 
#    z 0.020430 0.000000 1.712150 
# 
# From -- ./inp_files/23301.got.cif
#   From: 2010.05.17/outbox.ucp.g08.bks.cvg/sg8_12_cif.got.tgz:23301.got - 2010.06.11 13:00:03.
