data_PCOD9133715
_publ_section_title
;
Structure prediction by ZEFSAII (Michael W. Deem and Ramdas Pophale) SiO2 
 PCOD9133715
Probable space group: C M
;
_chemical_formula_sum "Si O2"
_cell_formula_units_Z 16
_cell_length_a 15.000000
_cell_length_b 9.000000
_cell_length_c 12.000000
_cell_angle_alpha 90.000000
_cell_angle_beta 90.000000
_cell_angle_gamma 90.000000
_cell_volume 1620.000000
_symmetry_space_group_name_H-M "C M"
_symmetry_group_IT_number 8
_symmetry_cell_setting 'monoclinic'
loop_
_space_group_symop_operation_xyz
x,y,z
x,-y,z
1/2+x,1/2+y,z
1/2+x,1/2-y,z
loop_
_atom_site_type_symbol
_atom_site_label
_atom_site_fract_x
_atom_site_fract_y
_atom_site_fract_z
Si Si1 0.110230 0.823347 0.209970
Si Si2 0.198302 0.176226 0.580221
Si Si3 0.089481 0.327402 0.975855
Si Si4 0.255331 0.327917 0.350319
Si Si5 0.007110 0.324730 0.601530
Si Si6 0.743022 0.174641 0.805479
Si Si7 0.456367 0.673245 0.382886
Si Si8 0.911831 0.329483 0.835724
O O1 0.200154 0.752584 0.255672
O O2 0.033061 0.779509 0.297755
O O3 0.115456 0.000000 0.211910
O O4 0.092291 0.766471 0.086990
O O5 0.234040 0.250638 0.467950
O O6 0.246417 0.237138 0.689847
O O7 0.096878 0.229397 0.597084
O O8 0.205054 0.000000 0.571841
O O9 0.110520 0.500000 0.001971
O O10 0.160597 0.278479 0.882472
O O11 0.992948 0.321394 0.920784
O O12 0.228507 0.500000 0.358452
O O13 0.360031 0.320368 0.327668
O O14 0.028902 0.500000 0.599559
O O15 0.955089 0.275484 0.491600
O O16 0.952835 0.296494 0.714013
O O17 0.834572 0.215648 0.865313
O O18 0.733868 0.000000 0.782285
O O19 0.472651 0.500000 0.415575
O O20 0.877987 0.500000 0.834399
#
# Coordination Sequence:
#
# PCOD9133715 Si02
#       8
#     4   4   4   4   4   4   4   4
#     4  11  24  42  63  90 122 159 208 260 306 358
#     4  12  23  37  61  93 128 162 201 250 305 364
#     4  10  23  44  64  85 121 164 207 255 306 363
#     4  11  23  41  65  92 124 164 204 247 307 367
#     4  11  21  37  63  92 125 163 199 243 305 371
#     4  11  23  41  64  92 124 162 206 251 306 366
#     4  10  23  41  61  90 126 159 199 251 302 363
#     4  10  22  41  63  92 126 159 202 253 305 364
#
# _framework density 9.8765429999999999
#
# number of rings (size 3 to 8) (size 9 to 14) (size 15 to 20)
#    0.000    1.250    2.500    3.375    0.000    7.000 
#    0.000    3.750    0.000    0.000    0.000    0.000 
#    0.000    0.000    0.000    0.000    0.000    0.000 
#
# Total GULP energy -89423.986997 kJ/mol
# GULP energy per Si atom -5588.999187 kJ/mol
# Density = 0.985406 g / cm^3
# Si number density = 9.876543 Si / 1000 Ang^3
#
#
#
# Elastic Constant Matrix: (Units=GPa)
#
#
# Indices 1 2 3 4 5 6 
#
# 1 41.4102 3.9527 3.0914 0.0000 25.2251 0.0000
# 2 3.9527 31.0284 28.0931 0.0000 17.8708 0.0000
# 3 3.0914 28.0931 53.1439 0.0000 34.4245 0.0000
# 4 0.0000 0.0000 0.0000 18.4922 0.0000 -17.8626
# 5 25.2251 17.8708 34.4245 0.0000 -3.1798 0.0000
# 6 0.0000 0.0000 0.0000 -17.8626 0.0000 -3.1073
#
#
#
# Elastic Compliance Matrix: (Units=1/GPa)
#
#
# Indices 1 2 3 4 5 6 
#
# 1 0.016092 -0.002009 -0.009391 0.000000 0.014693 0.000000
# 2 -0.002009 0.062048 -0.030981 0.000000 -0.002627 0.000000
# 3 -0.009391 -0.030981 0.024559 0.000000 0.017262 0.000000
# 4 0.000000 0.000000 0.000000 0.008252 0.000000 -0.047440
# 5 0.014693 -0.002627 0.017262 0.000000 -0.025823 0.000000
# 6 0.000000 0.000000 0.000000 -0.047440 0.000000 -0.049112
#
#
# Mechanical properties :
#
#
# Convention : Reuss Voigt Hill
#
# Bulk Modulus (GPa) = 55.75586 21.76190 38.75888
# Shear Modulus (GPa) = 39.44522 8.47071 23.95797
#
# Velocity S-wave (km/s) = 4.47353 2.07307 3.48641
# Velocity P-wave (km/s) = 7.41424 4.09524 5.98924
#
# Compressibility (1/GPa) = 0.01793533
#
# Stress axis : x y z
#
# Youngs Moduli (GPa) = 62.14440 16.11655 40.71795
#
# Poissons Ratio (x) = 0.03238 0.38238
# Poissons Ratio (y) = 0.12487 1.26149
# Poissons Ratio (z) = 0.58360 0.49931
#
# Static dielectric constant tensor:
#      x y z
#    x 1.740830 0.000000 0.051510 
#    y 0.000000 1.729430 0.000000 
#    z 0.051510 0.000000 1.674950 
# 
# From -- ./inp_files/21528.got.cif
#   From: 2010.05.17/outbox.ucp.g08.bks.cvg/sg8_11_cif.got.tgz:21528.got - 2010.06.11 13:00:03.
