data_PCOD9133373
_publ_section_title
;
Structure prediction by ZEFSAII (Michael W. Deem and Ramdas Pophale) SiO2 
 PCOD9133373
Probable space group: C M
;
_chemical_formula_sum "Si O2"
_cell_formula_units_Z 26
_cell_length_a 7.284715
_cell_length_b 22.635445
_cell_length_c 6.801332
_cell_angle_alpha 90.000000
_cell_angle_beta 58.340720
_cell_angle_gamma 90.000000
_cell_volume 954.595110
_symmetry_space_group_name_H-M "C M"
_symmetry_group_IT_number 8
_symmetry_cell_setting 'monoclinic'
loop_
_space_group_symop_operation_xyz
x,y,z
x,-y,z
1/2+x,1/2+y,z
1/2+x,1/2-y,z
loop_
_atom_site_type_symbol
_atom_site_label
_atom_site_fract_x
_atom_site_fract_y
_atom_site_fract_z
Si Si1 0.548460 0.606861 0.936580
Si Si2 0.071227 0.238733 0.998030
Si Si3 0.137494 0.261267 0.496211
Si Si4 0.103637 0.131294 0.441502
Si Si5 0.354358 0.000000 0.747123
Si Si6 0.660258 0.893138 0.557663
Si Si7 0.605084 0.131295 0.052739
O O1 0.630072 0.669493 0.982595
O O2 0.583766 0.611359 0.678581
O O3 0.688189 0.551723 0.918632
O O4 0.421692 0.600898 0.408652
O O5 0.104362 0.250000 0.747120
O O6 0.854362 0.244357 0.247121
O O7 0.177957 0.299605 0.016495
O O8 0.030766 0.200395 0.477747
O O9 0.078648 0.330506 0.511645
O O10 0.354361 0.123995 0.247122
O O11 0.520527 0.051723 0.575614
O O12 0.787027 0.899103 0.085590
O O13 0.624952 0.888640 0.815661
#
# Coordination Sequence:
#
# PCOD9133373 Si02
#       7
#     4   4   4   4   2   4   4
#     4  10  23  42  63  94 136 184 231 284 348 416
#     4   9  19  37  68 107 142 175 221 288 363 433
#     4   9  19  37  68 107 142 175 221 288 363 433
#     4   9  20  41  70  99 131 171 223 290 365 430
#     4  12  28  46  62  88 140 192 246 302 338 402
#     4  10  23  42  63  94 136 184 231 284 348 416
#     4   9  20  41  70  99 131 171 223 290 365 430
#
# _framework density 27.236675000000002
#
# number of rings (size 3 to 8) (size 9 to 14) (size 15 to 20)
#    0.000    2.462    0.000    0.000    0.000   17.231 
#    0.000    8.462    0.000    0.000    0.000    0.000 
#    0.000    0.000    0.000    0.000    0.000    0.000 
#
# Total GULP energy -72375.373190 kJ/mol
# GULP energy per Si atom -5567.336399 kJ/mol
# Density = 2.717468 g / cm^3
# Si number density = 27.236675 Si / 1000 Ang^3
#
#
#
# Elastic Constant Matrix: (Units=GPa)
#
#
# Indices 1 2 3 4 5 6 
#
# 1 160.0011 53.6452 56.7227 0.0000 -44.5911 0.0000
# 2 53.6452 199.2698 19.9712 0.0000 -26.1644 0.0000
# 3 56.7227 19.9712 139.2582 0.0000 -28.0918 0.0000
# 4 0.0000 0.0000 0.0000 37.3458 0.0000 -24.5824
# 5 -44.5911 -26.1644 -28.0918 0.0000 71.8846 0.0000
# 6 0.0000 0.0000 0.0000 -24.5824 0.0000 38.8419
#
#
#
# Elastic Compliance Matrix: (Units=1/GPa)
#
#
# Indices 1 2 3 4 5 6 
#
# 1 0.008770 -0.001597 -0.002565 0.000000 0.003856 0.000000
# 2 -0.001597 0.005582 0.000065 0.000000 0.001066 0.000000
# 3 -0.002565 0.000065 0.008576 0.000000 0.001784 0.000000
# 4 0.000000 0.000000 0.000000 0.045897 0.000000 0.029047
# 5 0.003856 0.001066 0.001784 0.000000 0.017388 0.000000
# 6 0.000000 0.000000 0.000000 0.029047 0.000000 0.044129
#
#
# Mechanical properties :
#
#
# Convention : Reuss Voigt Hill
#
# Bulk Modulus (GPa) = 67.87431 84.35637 76.11534
# Shear Modulus (GPa) = 34.85597 54.16046 44.50822
#
# Velocity S-wave (km/s) = 3.58123 4.46411 4.04682
# Velocity P-wave (km/s) = 6.48649 7.59012 7.05990
#
# Compressibility (1/GPa) = 0.01473311
#
# Stress axis : x y z
#
# Youngs Moduli (GPa) = 114.03075 179.15266 116.60109
#
# Poissons Ratio (x) = 0.28619 0.29909
# Poissons Ratio (y) = 0.18216 -0.00761
# Poissons Ratio (z) = 0.29250 -0.01169
#
# Static dielectric constant tensor:
#      x y z
#    x 2.442190 0.000000 0.059260 
#    y 0.000000 2.110420 0.000000 
#    z 0.059260 0.000000 2.240490 
# 
# From -- ./inp_files/2884.got.cif
#   From: 2010.05.17/outbox.cif.g08.bks.cpg/sg8_2_cif.got.tgz:2884.got - 2010.06.03 19:46:02.
