data_PCOD9133625
_publ_section_title
;
Structure prediction by ZEFSAII (Michael W. Deem and Ramdas Pophale) SiO2 
 PCOD9133625
Probable space group: C M
;
_chemical_formula_sum "Si O2"
_cell_formula_units_Z 16
_cell_length_a 4.811819
_cell_length_b 27.284361
_cell_length_c 4.894284
_cell_angle_alpha 90.000000
_cell_angle_beta 105.902866
_cell_angle_gamma 90.000000
_cell_volume 617.965626
_symmetry_space_group_name_H-M "C M"
_symmetry_group_IT_number 8
_symmetry_cell_setting 'monoclinic'
loop_
_space_group_symop_operation_xyz
x,y,z
x,-y,z
1/2+x,1/2+y,z
1/2+x,1/2-y,z
loop_
_atom_site_type_symbol
_atom_site_label
_atom_site_fract_x
_atom_site_fract_y
_atom_site_fract_z
Si Si1 0.737740 0.084823 0.322960
Si Si2 0.224992 0.849238 0.239632
Si Si3 0.300436 0.500000 0.727847
Si Si4 0.846889 0.500000 0.193244
Si Si5 0.629672 0.716659 0.719016
O O1 0.531197 0.126289 0.395014
O O2 0.976724 0.110032 0.202481
O O3 0.882255 0.050127 0.588407
O O4 0.509781 0.047795 0.116115
O O5 0.131584 0.806543 0.420802
O O6 0.248702 0.825071 0.950592
O O7 0.958088 0.500000 0.540005
O O8 0.510581 0.500000 0.045263
O O9 0.826030 0.764952 0.752044
#
# Coordination Sequence:
#
# PCOD9133625 Si02
#       5
#     4   4   2   2   4
#     4   9  24  41  72 107 148 193 248 297 368 433
#     4  12  24  46  72 109 140 193 248 306 362 462
#     4   8  20  42  70 104 158 196 244 304 368 438
#     4   8  20  42  70 104 158 196 244 304 368 438
#     4  12  26  46  72 101 144 185 242 310 386 438
#
# _framework density 25.891404999999999
#
# number of rings (size 3 to 8) (size 9 to 14) (size 15 to 20)
#    1.500    0.000    0.000    4.500    3.500    4.000 
#    0.000    2.500    0.000    0.000    0.000    0.000 
#    0.000    0.000    0.000    0.000    0.000    0.000 
#
# Total GULP energy -44742.881712 kJ/mol
# GULP energy per Si atom -5592.860214 kJ/mol
# Density = 2.583247 g / cm^3
# Si number density = 25.891405 Si / 1000 Ang^3
#
#
#
# Elastic Constant Matrix: (Units=GPa)
#
#
# Indices 1 2 3 4 5 6 
#
# 1 134.2210 27.8082 26.1567 0.0000 12.7479 0.0000
# 2 27.8082 91.3386 4.9992 0.0000 9.0992 0.0000
# 3 26.1567 4.9992 111.5945 0.0000 22.5474 0.0000
# 4 0.0000 0.0000 0.0000 25.8012 0.0000 -0.3594
# 5 12.7479 9.0992 22.5474 0.0000 27.8057 0.0000
# 6 0.0000 0.0000 0.0000 -0.3594 0.0000 56.2164
#
#
#
# Elastic Compliance Matrix: (Units=1/GPa)
#
#
# Indices 1 2 3 4 5 6 
#
# 1 0.008393 -0.002285 -0.001481 0.000000 -0.001899 0.000000
# 2 -0.002285 0.011947 0.000692 0.000000 -0.003423 0.000000
# 3 -0.001481 0.000692 0.010986 0.000000 -0.008456 0.000000
# 4 0.000000 0.000000 0.000000 0.038761 0.000000 0.000248
# 5 -0.001899 -0.003423 -0.008456 0.000000 0.044811 0.000000
# 6 0.000000 0.000000 0.000000 0.000248 0.000000 0.017790
#
#
# Mechanical properties :
#
#
# Convention : Reuss Voigt Hill
#
# Bulk Modulus (GPa) = 39.71826 50.56470 45.14148
# Shear Modulus (GPa) = 33.96077 40.51067 37.23572
#
# Velocity S-wave (km/s) = 3.62562 3.95984 3.79641
# Velocity P-wave (km/s) = 5.73589 6.36232 6.05721
#
# Compressibility (1/GPa) = 0.02517734
#
# Stress axis : x y z
#
# Youngs Moduli (GPa) = 119.14970 83.70243 91.02820
#
# Poissons Ratio (x) = 0.19126 0.13483
# Poissons Ratio (y) = 0.27225 -0.06299
# Poissons Ratio (z) = 0.17648 -0.05792
#
# Static dielectric constant tensor:
#      x y z
#    x 2.013230 0.000000 -0.023130 
#    y 0.000000 2.067770 0.000000 
#    z -0.023130 0.000000 2.026580 
# 
# From -- ./inp_files/484.got.cif
#   From: 2010.05.17/outbox.cif.g08.bks.cpg/sg8_1_cif.got.tgz:484.got - 2010.06.03 19:46:02.
