data_PCOD9133956
_publ_section_title
;
Structure prediction by ZEFSAII (Michael W. Deem and Ramdas Pophale) SiO2 
 PCOD9133956
Probable space group: C C
;
_chemical_formula_sum "Si O2"
_cell_formula_units_Z 32
_cell_length_a 33.301688
_cell_length_b 7.520016
_cell_length_c 5.500754
_cell_angle_alpha 90.000000
_cell_angle_beta 68.144910
_cell_angle_gamma 90.000000
_cell_volume 1278.542777
_symmetry_space_group_name_H-M "C C"
_symmetry_group_IT_number 9
_symmetry_cell_setting 'monoclinic'
loop_
_space_group_symop_operation_xyz
x,y,z
x,-y,1/2+z
1/2+x,1/2+y,z
1/2+x,1/2-y,1/2+z
loop_
_atom_site_type_symbol
_atom_site_label
_atom_site_fract_x
_atom_site_fract_y
_atom_site_fract_z
Si Si1 0.354820 0.019068 0.585520
Si Si2 0.558942 0.703278 0.741804
Si Si3 0.025006 0.201569 0.317249
Si Si4 0.660270 0.703714 0.401850
Si Si5 0.194212 0.201012 0.826209
Si Si6 0.874845 0.908619 0.546491
Si Si7 0.270219 0.407598 0.795662
Si Si8 0.445032 0.896300 0.386758
O O1 0.382909 0.198969 0.519933
O O2 0.329752 0.996704 0.392506
O O3 0.392964 0.872930 0.503859
O O4 0.536163 0.783772 0.554835
O O5 0.539803 0.502901 0.806134
O O6 0.609584 0.692328 0.571188
O O7 0.550434 0.782122 0.028103
O O8 0.974897 0.225923 0.363299
O O9 0.668667 0.781663 0.115290
O O10 0.679836 0.503788 0.337420
O O11 0.682543 0.784097 0.591444
O O12 0.244171 0.231462 0.780780
O O13 0.822104 0.902188 0.668706
O O14 0.889077 0.003303 0.266640
O O15 0.258676 0.539102 0.597349
O O16 0.455357 0.018752 0.600081
#
# Coordination Sequence:
#
# PCOD9133956 Si02
#       8
#     4   4   4   4   4   4   4   4
#     4  10  21  40  65  91 124 164 191 253 316 364
#     4  10  19  33  58  81 111 146 202 248 292 330
#     4  10  18  32  56  82 104 146 189 241 288 356
#     4  10  19  33  55  79 111 152 187 260 278 335
#     4  10  18  32  52  78 110 146 191 232 297 333
#     4  10  21  40  66  90 122 163 214 248 296 367
#     4  10  21  37  56  81 114 158 188 241 289 345
#     4  10  21  37  60  76 118 153 184 225 310 356
#
# _framework density 25.028490000000001
#
# number of rings (size 3 to 8) (size 9 to 14) (size 15 to 20)
#    0.000    2.000    0.000    6.000    0.000    0.000 
#    4.500    0.000   66.000   25.500    0.000    0.000 
#    0.000    0.000    0.000    0.000    0.000    0.000 
#
# Total GULP energy -89330.727154 kJ/mol
# GULP energy per Si atom -5583.170447 kJ/mol
# Density = 2.497152 g / cm^3
# Si number density = 25.028490 Si / 1000 Ang^3
#
#
#
# Elastic Constant Matrix: (Units=GPa)
#
#
# Indices 1 2 3 4 5 6 
#
# 1 74.9566 2.2211 34.9215 0.0000 19.1714 0.0000
# 2 2.2211 45.6435 18.4112 0.0000 9.6650 0.0000
# 3 34.9215 18.4112 202.8091 0.0000 58.4778 0.0000
# 4 0.0000 0.0000 0.0000 17.0341 0.0000 1.3175
# 5 19.1714 9.6650 58.4778 0.0000 48.8960 0.0000
# 6 0.0000 0.0000 0.0000 1.3175 0.0000 38.2900
#
#
#
# Elastic Compliance Matrix: (Units=1/GPa)
#
#
# Indices 1 2 3 4 5 6 
#
# 1 0.015095 0.000761 -0.001402 0.000000 -0.004393 0.000000
# 2 0.000761 0.023091 -0.001259 0.000000 -0.003356 0.000000
# 3 -0.001402 -0.001259 0.007718 0.000000 -0.008431 0.000000
# 4 0.000000 0.000000 0.000000 0.058862 0.000000 -0.002025
# 5 -0.004393 -0.003356 -0.008431 0.000000 0.032921 0.000000
# 6 0.000000 0.000000 0.000000 -0.002025 0.000000 0.026186
#
#
# Mechanical properties :
#
#
# Convention : Reuss Voigt Hill
#
# Bulk Modulus (GPa) = 23.75145 48.27962 36.01553
# Shear Modulus (GPa) = 27.51681 38.70105 33.10893
#
# Velocity S-wave (km/s) = 3.31935 3.93654 3.64105
# Velocity P-wave (km/s) = 4.91946 6.32405 5.66545
#
# Compressibility (1/GPa) = 0.04210270
#
# Stress axis : x y z
#
# Youngs Moduli (GPa) = 66.24698 43.30761 129.57532
#
# Poissons Ratio (x) = -0.03296 0.18163
# Poissons Ratio (y) = -0.05041 0.16320
# Poissons Ratio (z) = 0.09286 0.05455
#
# Static dielectric constant tensor:
#      x y z
#    x 1.945000 0.000000 0.034770 
#    y 0.000000 1.974220 0.000000 
#    z 0.034770 0.000000 2.057950 
# 
# From -- ./inp_files/3437.got.cif
#   From: 2010.05.17/outbox.cif.g08.bks.cpg/sg9_2_cif.got.tgz:3437.got - 2010.06.03 20:04:27.
