data_PCOD9133745
_publ_section_title
;
Structure prediction by ZEFSAII (Michael W. Deem and Ramdas Pophale) SiO2 
 PCOD9133745
Probable space group: C C
;
_chemical_formula_sum "Si O2"
_cell_formula_units_Z 20
_cell_length_a 17.773898
_cell_length_b 7.769222
_cell_length_c 14.693156
_cell_angle_alpha 90.000000
_cell_angle_beta 18.787055
_cell_angle_gamma 90.000000
_cell_volume 653.432973
_symmetry_space_group_name_H-M "C C"
_symmetry_group_IT_number 9
_symmetry_cell_setting 'monoclinic'
loop_
_space_group_symop_operation_xyz
x,y,z
x,-y,1/2+z
1/2+x,1/2+y,z
1/2+x,1/2-y,1/2+z
loop_
_atom_site_type_symbol
_atom_site_label
_atom_site_fract_x
_atom_site_fract_y
_atom_site_fract_z
Si Si1 0.611350 0.383185 0.060930
Si Si2 0.304801 0.491003 0.272994
Si Si3 0.349255 0.225714 0.528370
Si Si4 0.937007 0.608823 0.812604
Si Si5 0.755571 0.184897 0.667627
O O1 0.558574 0.477790 0.025990
O O2 0.416347 0.337363 0.360548
O O3 0.702634 0.194326 0.927623
O O4 0.782944 0.507302 0.916511
O O5 0.235593 0.491857 0.246833
O O6 0.173222 0.628461 0.485652
O O7 0.412196 0.026854 0.425908
O O8 0.062069 0.228601 0.856021
O O9 0.850464 0.783605 0.957945
O O10 0.989227 0.246883 0.459344
#
# Coordination Sequence:
#
# PCOD9133745 Si02
#       5
#     4   4   4   4   4
#     4  10  15  30  59  90 121 171 223 261 336 409
#     4  11  18  37  63  94 133 177 227 281 340 414
#     4   9  15  26  50  84 113 149 214 253 300 398
#     4  10  21  34  59  92 133 179 216 280 353 391
#     4  12  27  41  59 100 146 168 232 297 327 420
#
# _framework density 30.607578
#
# number of rings (size 3 to 8) (size 9 to 14) (size 15 to 20)
#    0.000    1.600   10.000    0.000    2.800    0.000 
#    0.000    0.000    0.000    0.000    0.000   58.800 
#    0.000    0.000    0.000    0.000    0.000    0.000 
#
# Total GULP energy -55778.349717 kJ/mol
# GULP energy per Si atom -5577.834972 kJ/mol
# Density = 3.053791 g / cm^3
# Si number density = 30.607578 Si / 1000 Ang^3
#
#
#
# Elastic Constant Matrix: (Units=GPa)
#
#
# Indices 1 2 3 4 5 6 
#
# 1 214.8956 34.4239 40.5693 -0.0011 -15.3527 0.0006
# 2 34.4239 122.2409 20.5070 -0.0057 -15.1246 0.0021
# 3 40.5693 20.5070 138.9527 -0.0162 -29.7524 0.0051
# 4 -0.0011 -0.0057 -0.0162 25.5958 0.0037 -1.6386
# 5 -15.3527 -15.1246 -29.7524 0.0037 43.3147 -0.0011
# 6 0.0006 0.0021 0.0051 -1.6386 -0.0011 61.8492
#
#
#
# Elastic Compliance Matrix: (Units=1/GPa)
#
#
# Indices 1 2 3 4 5 6 
#
# 1 0.005107 -0.001166 -0.001194 -0.000001 0.000583 0.000000
# 2 -0.001166 0.008880 -0.000463 0.000001 0.002370 0.000000
# 3 -0.001194 -0.000463 0.008780 0.000005 0.005446 0.000000
# 4 -0.000001 0.000001 0.000005 0.039135 0.000000 0.001037
# 5 0.000583 0.002370 0.005446 0.000000 0.027861 0.000000
# 6 0.000000 0.000000 0.000000 0.001037 0.000000 0.016196
#
#
# Mechanical properties :
#
#
# Convention : Reuss Voigt Hill
#
# Bulk Modulus (GPa) = 58.40776 74.12104 66.26440
# Shear Modulus (GPa) = 42.62140 51.52455 47.07298
#
# Velocity S-wave (km/s) = 3.73569 4.10737 3.92593
# Velocity P-wave (km/s) = 6.14258 6.83835 6.49979
#
# Compressibility (1/GPa) = 0.01712101
#
# Stress axis : x y z
#
# Youngs Moduli (GPa) = 195.79924 112.61680 113.89864
#
# Poissons Ratio (x) = 0.13129 0.13603
# Poissons Ratio (y) = 0.22826 0.05271
# Poissons Ratio (z) = 0.23384 0.05211
#
# Static dielectric constant tensor:
#      x y z
#    x 2.461980 0.000000 -0.041680 
#    y 0.000000 2.533440 0.000000 
#    z -0.041680 0.000000 2.719820 
# 
# From -- ./inp_files/16326.got.cif
#   From: 2010.05.17/outbox.cif.g08.bks.cpg/sg9_9_cif.got.tgz:16326.got - 2010.06.03 20:04:27.
