data_PCOD9133581
_publ_section_title
;
Structure prediction by ZEFSAII (Michael W. Deem and Ramdas Pophale) SiO2 
 PCOD9133581
Probable space group: C M
;
_chemical_formula_sum "Si O2"
_cell_formula_units_Z 22
_cell_length_a 13.889212
_cell_length_b 12.598429
_cell_length_c 6.379574
_cell_angle_alpha 90.000000
_cell_angle_beta 60.652050
_cell_angle_gamma 90.000000
_cell_volume 973.044052
_symmetry_space_group_name_H-M "C M"
_symmetry_group_IT_number 8
_symmetry_cell_setting 'monoclinic'
loop_
_space_group_symop_operation_xyz
x,y,z
x,-y,z
1/2+x,1/2+y,z
1/2+x,1/2-y,z
loop_
_atom_site_type_symbol
_atom_site_label
_atom_site_fract_x
_atom_site_fract_y
_atom_site_fract_z
Si Si1 0.782660 0.000000 0.698150
Si Si2 0.166728 0.330492 0.135369
Si Si3 0.439599 0.812197 0.507643
Si Si4 0.853595 0.167169 0.265758
Si Si5 0.017828 0.882142 0.719490
Si Si6 0.197353 0.881164 0.856936
O O1 0.729230 0.092561 0.909429
O O2 0.824344 0.090828 0.486899
O O3 0.150218 0.215991 0.042424
O O4 0.051266 0.375274 0.343411
O O5 0.244791 0.312676 0.249235
O O6 0.401857 0.771004 0.321166
O O7 0.479825 0.713672 0.611953
O O8 0.329904 0.866248 0.714992
O O9 0.941205 0.121789 0.007261
O O10 0.140554 0.873788 0.686435
O O11 0.997529 0.000000 0.642323
O O12 0.170304 0.000000 0.963955
#
# Coordination Sequence:
#
# PCOD9133581 Si02
#       6
#     2   4   4   4   4   4
#     4  12  26  46  72 108 144 190 248 316 362 426
#     4  12  27  47  71 111 146 194 249 308 374 440
#     4  12  26  44  75 101 152 193 244 299 376 444
#     4  12  23  43  76 105 143 187 248 315 358 433
#     4  11  24  44  76 111 144 194 254 307 367 436
#     4  11  25  48  71 107 153 193 241 301 375 446
#
# _framework density 22.609459999999999
#
# number of rings (size 3 to 8) (size 9 to 14) (size 15 to 20)
#    0.000    0.364    6.364    1.636    5.091    0.727 
#    0.000    0.909    0.000    0.000    0.000    0.000 
#    0.000    0.000    0.000    0.000    0.000    0.000 
#
# Total GULP energy -61269.860240 kJ/mol
# GULP energy per Si atom -5569.987295 kJ/mol
# Density = 2.255800 g / cm^3
# Si number density = 22.609460 Si / 1000 Ang^3
#
#
#
# Elastic Constant Matrix: (Units=GPa)
#
#
# Indices 1 2 3 4 5 6 
#
# 1 93.2345 7.5300 21.4048 0.0000 2.1583 0.0000
# 2 7.5300 103.2685 17.6160 0.0000 11.5045 0.0000
# 3 21.4048 17.6160 108.2647 0.0000 -8.5717 0.0000
# 4 0.0000 0.0000 0.0000 -6.5744 0.0000 2.9635
# 5 2.1583 11.5045 -8.5717 0.0000 30.2909 0.0000
# 6 0.0000 0.0000 0.0000 2.9635 0.0000 23.0796
#
#
#
# Elastic Compliance Matrix: (Units=1/GPa)
#
#
# Indices 1 2 3 4 5 6 
#
# 1 0.011307 -0.000283 -0.002296 0.000000 -0.001348 0.000000
# 2 -0.000283 0.010557 -0.002023 0.000000 -0.004562 0.000000
# 3 -0.002296 -0.002023 0.010325 0.000000 0.003854 0.000000
# 4 0.000000 0.000000 0.000000 -0.143784 0.000000 0.018462
# 5 -0.001348 -0.004562 0.003854 0.000000 0.035932 0.000000
# 6 0.000000 0.000000 0.000000 0.018462 0.000000 0.040958
#
#
# Mechanical properties :
#
#
# Convention : Reuss Voigt Hill
#
# Bulk Modulus (GPa) = 43.50606 44.20771 43.85689
# Shear Modulus (GPa) = -280.28675 26.57370 -126.85653
#
# Velocity S-wave (km/s) = -11.14621 3.43204 -7.49863
# Velocity P-wave (km/s) = 12.09820 5.94141 7.45205
#
# Compressibility (1/GPa) = 0.02298530
#
# Stress axis : x y z
#
# Youngs Moduli (GPa) = 88.44208 94.71981 96.85312
#
# Poissons Ratio (x) = 0.02677 0.22240
# Poissons Ratio (y) = 0.02499 0.19595
# Poissons Ratio (z) = 0.20308 0.19163
#
# Static dielectric constant tensor:
#      x y z
#    x 1.986190 0.000000 -0.058360 
#    y 0.000000 1.870940 0.000000 
#    z -0.058360 0.000000 1.808640 
# 
# From -- ./inp_files/3825.got.cif
#   From: 2010.05.17/outbox.cif.g08.bks.cpg/sg8_2_cif.got.tgz:3825.got - 2010.06.03 19:46:02.
