data_PCOD9133849
_publ_section_title
;
Structure prediction by ZEFSAII (Michael W. Deem and Ramdas Pophale) SiO2 
 PCOD9133849
Probable space group: C C
;
_chemical_formula_sum "Si O2"
_cell_formula_units_Z 32
_cell_length_a 24.645827
_cell_length_b 10.209655
_cell_length_c 9.590943
_cell_angle_alpha 90.000000
_cell_angle_beta 140.955992
_cell_angle_gamma 90.000000
_cell_volume 1520.194594
_symmetry_space_group_name_H-M "C C"
_symmetry_group_IT_number 9
_symmetry_cell_setting 'monoclinic'
loop_
_space_group_symop_operation_xyz
x,y,z
x,-y,1/2+z
1/2+x,1/2+y,z
1/2+x,1/2-y,1/2+z
loop_
_atom_site_type_symbol
_atom_site_label
_atom_site_fract_x
_atom_site_fract_y
_atom_site_fract_z
Si Si1 0.814080 0.390606 0.953510
Si Si2 0.004004 0.630270 0.732693
Si Si3 0.276965 0.422850 0.843293
Si Si4 0.299179 0.621945 0.095838
Si Si5 0.711326 0.491203 0.482926
Si Si6 0.619314 0.762036 0.238890
Si Si7 0.128664 0.252204 0.683787
Si Si8 0.625451 0.115862 0.472069
O O1 0.814709 0.247016 0.028355
O O2 0.744701 0.429589 0.694849
O O3 0.792589 0.482400 0.042670
O O4 0.905629 0.399504 0.062523
O O5 0.033998 0.688060 0.644331
O O6 0.057027 0.497530 0.865279
O O7 0.044202 0.733368 0.922210
O O8 0.325016 0.488179 0.070406
O O9 0.331649 0.374443 0.820208
O O10 0.210540 0.312576 0.763883
O O11 0.218650 0.548211 0.679551
O O12 0.195278 0.630886 0.915098
O O13 0.658923 0.628671 0.381232
O O14 0.651127 0.390519 0.281532
O O15 0.611490 0.768389 0.056537
O O16 0.116622 0.336937 0.798297
#
# Coordination Sequence:
#
# PCOD9133849 Si02
#       8
#     4   4   4   4   4   4   4   4
#     4  11  27  39  62  93 139 167 212 275 344 388
#     4  11  22  39  63  96 128 164 218 285 327 376
#     4  10  17  32  62  88 116 153 215 268 299 367
#     4  10  19  37  57  91 122 162 210 263 319 385
#     4  11  24  43  63  93 133 177 215 266 334 400
#     4  10  20  38  64  89 122 170 216 260 315 403
#     4  11  20  36  65  93 119 170 222 261 313 394
#     4  10  19  34  62  97 117 151 216 272 309 367
#
# _framework density 21.049937
#
# number of rings (size 3 to 8) (size 9 to 14) (size 15 to 20)
#    0.000    1.500    3.750    4.500    5.250    0.000 
#    0.000    1.250    0.000    0.000    0.000    0.000 
#    0.000    0.000    0.000    0.000    0.000    0.000 
#
# Total GULP energy -89220.253269 kJ/mol
# GULP energy per Si atom -5576.265829 kJ/mol
# Density = 2.100203 g / cm^3
# Si number density = 21.049937 Si / 1000 Ang^3
#
#
#
# Elastic Constant Matrix: (Units=GPa)
#
#
# Indices 1 2 3 4 5 6 
#
# 1 97.5410 22.8101 32.2549 0.0000 -17.3035 0.0000
# 2 22.8101 80.0262 26.1303 0.0000 -8.0672 0.0000
# 3 32.2549 26.1303 48.9438 0.0000 -26.7701 0.0000
# 4 0.0000 0.0000 0.0000 20.6794 0.0000 -13.7256
# 5 -17.3035 -8.0672 -26.7701 0.0000 38.2761 0.0000
# 6 0.0000 0.0000 0.0000 -13.7256 0.0000 21.7955
#
#
#
# Elastic Compliance Matrix: (Units=1/GPa)
#
#
# Indices 1 2 3 4 5 6 
#
# 1 0.013191 -0.001126 -0.008033 0.000000 0.000108 0.000000
# 2 -0.001126 0.015615 -0.009835 0.000000 -0.004097 0.000000
# 3 -0.008033 -0.009835 0.045114 0.000000 0.025848 0.000000
# 4 0.000000 0.000000 0.000000 0.083085 0.000000 0.052322
# 5 0.000108 -0.004097 0.025848 0.000000 0.043389 0.000000
# 6 0.000000 0.000000 0.000000 0.052322 0.000000 0.078831
#
#
# Mechanical properties :
#
#
# Convention : Reuss Voigt Hill
#
# Bulk Modulus (GPa) = 27.83064 43.21128 35.52096
# Shear Modulus (GPa) = 15.18870 25.83791 20.51331
#
# Velocity S-wave (km/s) = 2.68909 3.50731 3.12510
# Velocity P-wave (km/s) = 4.78451 6.08064 5.47110
#
# Compressibility (1/GPa) = 0.03593162
#
# Stress axis : x y z
#
# Youngs Moduli (GPa) = 75.80997 64.03947 22.16592
#
# Poissons Ratio (x) = 0.07211 0.17806
# Poissons Ratio (y) = 0.08537 0.21801
# Poissons Ratio (z) = 0.60898 0.62986
#
# Static dielectric constant tensor:
#      x y z
#    x 1.790800 0.000000 -0.053710 
#    y 0.000000 1.782020 0.000000 
#    z -0.053710 0.000000 1.825910 
# 
# From -- ./inp_files/12167.got.cif
#   From: 2010.05.17/outbox.cif.g08.bks.cpg/sg9_7_cif.got.tgz:12167.got - 2010.06.03 20:04:27.
