data_PCOD9133283
_publ_section_title
;
Structure prediction by ZEFSAII (Michael W. Deem and Ramdas Pophale) SiO2 
 PCOD9133283
Probable space group: C M
;
_chemical_formula_sum "Si O2"
_cell_formula_units_Z 18
_cell_length_a 13.462861
_cell_length_b 11.911752
_cell_length_c 4.953740
_cell_angle_alpha 90.000000
_cell_angle_beta 115.147379
_cell_angle_gamma 90.000000
_cell_volume 719.116503
_symmetry_space_group_name_H-M "C M"
_symmetry_group_IT_number 8
_symmetry_cell_setting 'monoclinic'
loop_
_space_group_symop_operation_xyz
x,y,z
x,-y,z
1/2+x,1/2+y,z
1/2+x,1/2-y,z
loop_
_atom_site_type_symbol
_atom_site_label
_atom_site_fract_x
_atom_site_fract_y
_atom_site_fract_z
Si Si1 0.646350 0.660449 0.381690
Si Si2 0.696185 0.500000 0.935659
Si Si3 0.403641 0.733613 0.077530
Si Si4 0.698379 0.127981 0.133226
Si Si5 0.454446 0.872911 0.632945
O O1 0.691386 0.598600 0.695066
O O2 0.513491 0.659292 0.240214
O O3 0.679294 0.788783 0.361562
O O4 0.684353 0.596051 0.159053
O O5 0.299986 0.667722 0.070058
O O6 0.423753 0.841582 0.293871
O O7 0.403212 0.781207 0.774414
O O8 0.714753 0.000000 0.241670
O O9 0.584470 0.133598 0.835160
O O10 0.419538 0.000000 0.654120
#
# Coordination Sequence:
#
# PCOD9133283 Si02
#       5
#     4   2   4   4   4
#     4  10  22  44  68 101 137 180 223 290 346 400
#     4  10  22  42  68  90 142 176 222 276 354 396
#     4  11  23  43  70 105 137 181 242 278 355 410
#     4  10  24  46  72 105 139 186 236 286 346 423
#     4  10  23  46  70  96 146 186 228 291 343 416
#
# _framework density 25.030716000000002
#
# number of rings (size 3 to 8) (size 9 to 14) (size 15 to 20)
#    0.000    1.778    0.000    3.333    3.111    6.222 
#   12.000    7.778    0.000    0.000    0.000    0.000 
#    0.000    0.000    0.000    0.000    0.000    0.000 
#
# Total GULP energy -50249.877531 kJ/mol
# GULP energy per Si atom -5583.319726 kJ/mol
# Density = 2.497375 g / cm^3
# Si number density = 25.030716 Si / 1000 Ang^3
#
#
#
# Elastic Constant Matrix: (Units=GPa)
#
#
# Indices 1 2 3 4 5 6 
#
# 1 149.7606 46.0280 44.1481 0.0000 10.0478 0.0000
# 2 46.0280 166.9318 32.5101 0.0000 -11.1228 0.0000
# 3 44.1481 32.5101 128.8450 0.0000 -36.1095 0.0000
# 4 0.0000 0.0000 0.0000 78.8936 0.0000 -25.9287
# 5 10.0478 -11.1228 -36.1095 0.0000 51.8080 0.0000
# 6 0.0000 0.0000 0.0000 -25.9287 0.0000 34.0043
#
#
#
# Elastic Compliance Matrix: (Units=1/GPa)
#
#
# Indices 1 2 3 4 5 6 
#
# 1 0.008740 -0.001982 -0.003839 0.000000 -0.004796 0.000000
# 2 -0.001982 0.006753 -0.000635 0.000000 0.001392 0.000000
# 3 -0.003839 -0.000635 0.011691 0.000000 0.008757 0.000000
# 4 0.000000 0.000000 0.000000 0.016914 0.000000 0.012897
# 5 -0.004796 0.001392 0.008757 0.000000 0.026634 0.000000
# 6 0.000000 0.000000 0.000000 0.012897 0.000000 0.039242
#
#
# Mechanical properties :
#
#
# Convention : Reuss Voigt Hill
#
# Bulk Modulus (GPa) = 70.06174 76.76775 73.41475
# Shear Modulus (GPa) = 39.17175 54.46458 46.81817
#
# Velocity S-wave (km/s) = 3.96023 4.66973 4.32954
# Velocity P-wave (km/s) = 6.99731 7.73376 7.37474
#
# Compressibility (1/GPa) = 0.01427312
#
# Stress axis : x y z
#
# Youngs Moduli (GPa) = 114.41891 148.07607 85.53696
#
# Poissons Ratio (x) = 0.29346 0.32835
# Poissons Ratio (y) = 0.22675 0.05431
# Poissons Ratio (z) = 0.43922 0.09401
#
# Static dielectric constant tensor:
#      x y z
#    x 2.026630 0.000000 0.097060 
#    y 0.000000 1.935760 0.000000 
#    z 0.097060 0.000000 1.937240 
# 
# From -- ./inp_files/4668.got.cif
#   From: 2010.05.17/outbox.cif.g08.bks.cpg/sg8_3_cif.got.tgz:4668.got - 2010.06.03 19:46:02.
