data_PCOD9133938
_publ_section_title
;
Structure prediction by ZEFSAII (Michael W. Deem and Ramdas Pophale) SiO2 
 PCOD9133938
Probable space group: C C
;
_chemical_formula_sum "Si O2"
_cell_formula_units_Z 32
_cell_length_a 14.723167
_cell_length_b 14.605237
_cell_length_c 7.757302
_cell_angle_alpha 90.000000
_cell_angle_beta 64.030616
_cell_angle_gamma 90.000000
_cell_volume 1499.663572
_symmetry_space_group_name_H-M "C C"
_symmetry_group_IT_number 9
_symmetry_cell_setting 'monoclinic'
loop_
_space_group_symop_operation_xyz
x,y,z
x,-y,1/2+z
1/2+x,1/2+y,z
1/2+x,1/2-y,1/2+z
loop_
_atom_site_type_symbol
_atom_site_label
_atom_site_fract_x
_atom_site_fract_y
_atom_site_fract_z
Si Si1 0.151100 0.863140 0.035370
Si Si2 0.966700 0.278424 0.994417
Si Si3 0.435314 0.925199 0.319169
Si Si4 0.213767 0.971222 0.645927
Si Si5 0.009653 0.898496 0.647927
Si Si6 0.935748 0.088077 0.585680
Si Si7 0.310800 0.273171 0.365674
Si Si8 0.475712 0.871464 0.646557
O O1 0.031006 0.868430 0.111862
O O2 0.196123 0.918732 0.160303
O O3 0.196821 0.926322 0.844821
O O4 0.198200 0.763894 0.967658
O O5 0.943141 0.355172 0.154823
O O6 0.023375 0.194160 0.032792
O O7 0.020486 0.322254 0.781601
O O8 0.862293 0.234179 0.010085
O O9 0.321351 0.941334 0.483431
O O10 0.503100 0.887410 0.423062
O O11 0.462640 0.025457 0.226141
O O12 0.117882 0.934158 0.619875
O O13 0.954156 0.979592 0.588755
O O14 0.947625 0.884029 0.877104
O O15 0.836795 0.131306 0.754088
O O16 0.376551 0.194493 0.213076
#
# Coordination Sequence:
#
# PCOD9133938 Si02
#       8
#     4   4   4   4   4   4   4   4
#     4  10  20  32  55  87 115 150 185 233 303 338
#     4  10  22  33  51  85 112 152 197 220 296 349
#     4  12  17  34  54  86 117 145 185 240 291 343
#     4  10  18  31  52  81 116 142 181 239 295 338
#     4  10  21  36  53  83 116 153 192 241 290 342
#     4  10  21  37  57  82 123 154 190 248 283 341
#     4  10  19  35  51  83 115 152 193 229 285 350
#     4  10  20  30  53  81 118 146 185 232 283 349
#
# _framework density 21.338118999999999
#
# number of rings (size 3 to 8) (size 9 to 14) (size 15 to 20)
#    0.750    1.000    3.750    1.500    1.750    1.000 
#    0.000    0.000    0.000    0.000    3.250    3.500 
#    7.500    0.000    0.000    0.000    0.000    0.000 
#
# Total GULP energy -89166.501606 kJ/mol
# GULP energy per Si atom -5572.906350 kJ/mol
# Density = 2.128955 g / cm^3
# Si number density = 21.338119 Si / 1000 Ang^3
#
#
#
# Elastic Constant Matrix: (Units=GPa)
#
#
# Indices 1 2 3 4 5 6 
#
# 1 17.6476 13.9936 18.2737 0.0000 4.6850 0.0000
# 2 13.9936 103.0719 33.1483 0.0000 1.6045 0.0000
# 3 18.2737 33.1483 96.2810 0.0000 18.0025 0.0000
# 4 0.0000 0.0000 0.0000 42.2449 0.0000 2.9739
# 5 4.6850 1.6045 18.0025 0.0000 30.0694 0.0000
# 6 0.0000 0.0000 0.0000 2.9739 0.0000 25.0413
#
#
#
# Elastic Compliance Matrix: (Units=1/GPa)
#
#
# Indices 1 2 3 4 5 6 
#
# 1 0.074467 -0.006491 -0.011029 0.000000 -0.004653 0.000000
# 2 -0.006491 0.011571 -0.003181 0.000000 0.002299 0.000000
# 3 -0.011029 -0.003181 0.014888 0.000000 -0.007026 0.000000
# 4 0.000000 0.000000 0.000000 0.023871 0.000000 -0.002835
# 5 -0.004653 0.002299 -0.007026 0.000000 0.038065 0.000000
# 6 0.000000 0.000000 0.000000 -0.002835 0.000000 0.040271
#
#
# Mechanical properties :
#
#
# Convention : Reuss Voigt Hill
#
# Bulk Modulus (GPa) = 16.79994 38.64796 27.72395
# Shear Modulus (GPa) = 18.91246 29.57677 24.24462
#
# Velocity S-wave (km/s) = 2.98035 3.72708 3.37443
# Velocity P-wave (km/s) = 4.44225 6.05582 5.31068
#
# Compressibility (1/GPa) = 0.05952403
#
# Stress axis : x y z
#
# Youngs Moduli (GPa) = 13.42879 86.42609 67.16622
#
# Poissons Ratio (x) = 0.56097 0.74076
# Poissons Ratio (y) = 0.08716 0.21369
# Poissons Ratio (z) = 0.14810 0.27496
#
# Static dielectric constant tensor:
#      x y z
#    x 1.805890 0.000000 0.043350 
#    y 0.000000 1.805600 0.000000 
#    z 0.043350 0.000000 1.839000 
# 
# From -- ./inp_files/10743.got.cif
#   From: 2010.05.17/outbox.cif.g08.bks.cpg/sg9_6_cif.got.tgz:10743.got - 2010.06.03 20:04:27.
