data_PCOD9133230
_publ_section_title
;
Structure prediction by ZEFSAII (Michael W. Deem and Ramdas Pophale) SiO2 
 PCOD9133230
Probable space group: C M
;
_chemical_formula_sum "Si O2"
_cell_formula_units_Z 22
_cell_length_a 10.262910
_cell_length_b 9.844571
_cell_length_c 12.855757
_cell_angle_alpha 90.000000
_cell_angle_beta 76.550401
_cell_angle_gamma 90.000000
_cell_volume 1263.246276
_symmetry_space_group_name_H-M "C M"
_symmetry_group_IT_number 8
_symmetry_cell_setting 'monoclinic'
loop_
_space_group_symop_operation_xyz
x,y,z
x,-y,z
1/2+x,1/2+y,z
1/2+x,1/2-y,z
loop_
_atom_site_type_symbol
_atom_site_label
_atom_site_fract_x
_atom_site_fract_y
_atom_site_fract_z
Si Si1 0.322170 0.337124 0.612110
Si Si2 0.611276 0.243000 0.473996
Si Si3 0.948626 0.500000 0.140379
Si Si4 0.554270 0.000000 0.339627
Si Si5 0.502672 0.152387 0.931893
Si Si6 0.749034 0.662128 0.828778
Si Si7 0.756461 0.500000 0.356590
O O1 0.329766 0.500000 0.630455
O O2 0.463551 0.283585 0.540644
O O3 0.203600 0.307391 0.551870
O O4 0.290942 0.247389 0.719477
O O5 0.611460 0.129497 0.385509
O O6 0.674945 0.371561 0.406786
O O7 0.808086 0.500000 0.227954
O O8 0.056218 0.500000 0.214113
O O9 0.966095 0.627093 0.059681
O O10 0.395780 0.000000 0.393219
O O11 0.612748 0.267173 0.893948
O O12 0.368640 0.176933 0.890517
O O13 0.554404 0.000000 0.889321
O O14 0.732281 0.500000 0.811546
#
# Coordination Sequence:
#
# PCOD9133230 Si02
#       7
#     4   4   2   2   4   4   2
#     4  12  25  38  61  94 126 174 203 248 309 376
#     4  12  23  40  64  93 131 163 207 253 304 372
#     4   8  20  44  67  85 123 169 201 259 323 349
#     4  10  22  41  62  92 126 160 203 262 302 363
#     4   9  21  43  62  89 123 162 202 263 303 368
#     4  11  24  39  64  92 127 160 211 254 313 367
#     4  10  22  41  63  93 125 159 208 255 305 368
#
# _framework density 17.415448000000001
#
# number of rings (size 3 to 8) (size 9 to 14) (size 15 to 20)
#    1.091    0.364    3.636    1.636    2.545    5.818 
#    0.000    0.000    2.000    0.000    0.000    0.000 
#    0.000    0.000    0.000    0.000    0.000    0.000 
#
# Total GULP energy -61279.818256 kJ/mol
# GULP energy per Si atom -5570.892569 kJ/mol
# Density = 1.737581 g / cm^3
# Si number density = 17.415448 Si / 1000 Ang^3
#
#
#
# Elastic Constant Matrix: (Units=GPa)
#
#
# Indices 1 2 3 4 5 6 
#
# 1 81.9008 41.3356 30.0314 0.0000 27.5298 0.0000
# 2 41.3356 137.6122 45.5550 0.0000 20.6782 0.0000
# 3 30.0314 45.5550 108.9293 0.0000 30.6452 0.0000
# 4 0.0000 0.0000 0.0000 31.0880 0.0000 -1.4975
# 5 27.5298 20.6782 30.6452 0.0000 26.5064 0.0000
# 6 0.0000 0.0000 0.0000 -1.4975 0.0000 36.3721
#
#
#
# Elastic Compliance Matrix: (Units=1/GPa)
#
#
# Indices 1 2 3 4 5 6 
#
# 1 0.020140 -0.003567 0.001543 0.000000 -0.019919 0.000000
# 2 -0.003567 0.009320 -0.002832 0.000000 -0.000291 0.000000
# 3 0.001543 -0.002832 0.014478 0.000000 -0.016131 0.000000
# 4 0.000000 0.000000 0.000000 0.032231 0.000000 0.001327
# 5 -0.019919 -0.000291 -0.016131 0.000000 0.077292 0.000000
# 6 0.000000 0.000000 0.000000 0.001327 0.000000 0.027548
#
#
# Mechanical properties :
#
#
# Convention : Reuss Voigt Hill
#
# Bulk Modulus (GPa) = 29.21904 62.47627 45.84765
# Shear Modulus (GPa) = 24.73672 32.89463 28.81567
#
# Velocity S-wave (km/s) = 3.77289 4.35077 4.07210
# Velocity P-wave (km/s) = 5.98278 7.82246 6.96364
#
# Compressibility (1/GPa) = 0.03422426
#
# Stress axis : x y z
#
# Youngs Moduli (GPa) = 49.65272 107.30039 69.07251
#
# Poissons Ratio (x) = 0.38278 -0.10659
# Poissons Ratio (y) = 0.17713 0.19563
# Poissons Ratio (z) = -0.07662 0.30389
#
# Static dielectric constant tensor:
#      x y z
#    x 1.593060 0.000000 0.004330 
#    y 0.000000 1.539980 0.000000 
#    z 0.004330 0.000000 1.581330 
# 
# From -- ./inp_files/19749.got.cif
#   From: 2010.05.17/outbox.cif.g08.bks.cpg/sg8_10_cif.got.tgz:19749.got - 2010.06.03 19:46:02.
