data_PCOD9133991
_publ_section_title
;
Structure prediction by ZEFSAII (Michael W. Deem and Ramdas Pophale) SiO2 
 PCOD9133991
Probable space group: C C
;
_chemical_formula_sum "Si O2"
_cell_formula_units_Z 32
_cell_length_a 19.099462
_cell_length_b 10.184962
_cell_length_c 8.743842
_cell_angle_alpha 90.000000
_cell_angle_beta 69.174500
_cell_angle_gamma 90.000000
_cell_volume 1589.790908
_symmetry_space_group_name_H-M "C C"
_symmetry_group_IT_number 9
_symmetry_cell_setting 'monoclinic'
loop_
_space_group_symop_operation_xyz
x,y,z
x,-y,1/2+z
1/2+x,1/2+y,z
1/2+x,1/2-y,1/2+z
loop_
_atom_site_type_symbol
_atom_site_label
_atom_site_fract_x
_atom_site_fract_y
_atom_site_fract_z
Si Si1 0.691500 0.615859 0.689200
Si Si2 0.605551 0.962312 0.250289
Si Si3 0.149180 0.325225 0.492196
Si Si4 0.989703 0.825815 0.111657
Si Si5 0.517882 0.596144 0.920169
Si Si6 0.879945 0.596568 0.110281
Si Si7 0.505135 0.874938 0.063421
Si Si8 0.280360 0.945031 0.405917
O O1 0.697067 0.725883 0.554483
O O2 0.607234 0.604154 0.816808
O O3 0.715481 0.487595 0.574597
O O4 0.745350 0.636843 0.793082
O O5 0.656656 0.864725 0.309821
O O6 0.650484 0.042693 0.089920
O O7 0.566647 0.067051 0.395425
O O8 0.538447 0.895062 0.207183
O O9 0.065617 0.261643 0.558442
O O10 0.926204 0.725949 0.110258
O O11 0.977293 0.878652 0.291548
O O12 0.000862 0.953696 0.999882
O O13 0.495831 0.720964 0.040893
O O14 0.816884 0.567918 0.286747
O O15 0.933820 0.467920 0.085578
O O16 0.844182 0.607106 0.969874
#
# Coordination Sequence:
#
# PCOD9133991 Si02
#       8
#     4   4   4   4   4   4   4   4
#     4  10  20  42  55  87 123 156 210 241 297 365
#     4  10  18  33  58  93 116 155 184 245 320 360
#     4  10  20  35  58  87 125 149 196 254 308 357
#     4  11  22  35  57  92 125 150 193 253 321 350
#     4  11  23  36  59  95 124 153 181 263 324 361
#     4  11  21  39  64  90 117 156 215 245 292 367
#     4  11  19  36  60  94 122 148 196 250 318 358
#     4  10  23  38  63  82 116 175 207 247 272 356
#
# _framework density 20.128433999999999
#
# number of rings (size 3 to 8) (size 9 to 14) (size 15 to 20)
#    0.000    1.500    5.000    3.000    1.750    0.000 
#    4.500    0.000    0.000   10.500    0.000    0.000 
#    0.000    0.000    0.000    0.000    0.000    0.000 
#
# Total GULP energy -89233.049386 kJ/mol
# GULP energy per Si atom -5577.065587 kJ/mol
# Density = 2.008262 g / cm^3
# Si number density = 20.128434 Si / 1000 Ang^3
#
#
#
# Elastic Constant Matrix: (Units=GPa)
#
#
# Indices 1 2 3 4 5 6 
#
# 1 94.3566 56.5052 53.4704 0.0000 39.8199 0.0000
# 2 56.5052 108.3420 47.6888 0.0000 21.3634 0.0000
# 3 53.4704 47.6888 93.9435 0.0000 44.3597 0.0000
# 4 0.0000 0.0000 0.0000 28.4806 0.0000 8.3497
# 5 39.8199 21.3634 44.3597 0.0000 48.1008 0.0000
# 6 0.0000 0.0000 0.0000 8.3497 0.0000 24.0509
#
#
#
# Elastic Compliance Matrix: (Units=1/GPa)
#
#
# Indices 1 2 3 4 5 6 
#
# 1 0.022020 -0.007852 -0.002810 0.000000 -0.012150 0.000000
# 2 -0.007852 0.014692 -0.005274 0.000000 0.004838 0.000000
# 3 -0.002810 -0.005274 0.022526 0.000000 -0.016106 0.000000
# 4 0.000000 0.000000 0.000000 0.039090 0.000000 -0.013571
# 5 -0.012150 0.004838 -0.016106 0.000000 0.043552 0.000000
# 6 0.000000 0.000000 0.000000 -0.013571 0.000000 0.046290
#
#
# Mechanical properties :
#
#
# Convention : Reuss Voigt Hill
#
# Bulk Modulus (GPa) = 36.54004 67.99677 52.26840
# Shear Modulus (GPa) = 21.81827 29.39165 25.60496
#
# Velocity S-wave (km/s) = 3.29592 3.82541 3.57049
# Velocity P-wave (km/s) = 5.71637 7.30523 6.55909
#
# Compressibility (1/GPa) = 0.02736724
#
# Stress axis : x y z
#
# Youngs Moduli (GPa) = 45.41285 68.06226 44.39219
#
# Poissons Ratio (x) = 0.53440 0.12476
# Poissons Ratio (y) = 0.35657 0.23412
# Poissons Ratio (z) = 0.12762 0.35896
#
# Static dielectric constant tensor:
#      x y z
#    x 1.739540 0.000000 -0.001920 
#    y 0.000000 1.728880 0.000000 
#    z -0.001920 0.000000 1.749310 
# 
# From -- ./inp_files/11322.got.cif
#   From: 2010.05.17/outbox.cif.g08.bks.cpg/sg9_6_cif.got.tgz:11322.got - 2010.06.03 20:04:27.
