data_PCOD9133720
_publ_section_title
;
Structure prediction by ZEFSAII (Michael W. Deem and Ramdas Pophale) SiO2 
 PCOD9133720
Probable space group: C C
;
_chemical_formula_sum "Si O2"
_cell_formula_units_Z 28
_cell_length_a 33.336231
_cell_length_b 6.860317
_cell_length_c 5.279494
_cell_angle_alpha 90.000000
_cell_angle_beta 98.875560
_cell_angle_gamma 90.000000
_cell_volume 1192.947285
_symmetry_space_group_name_H-M "C C"
_symmetry_group_IT_number 9
_symmetry_cell_setting 'monoclinic'
loop_
_space_group_symop_operation_xyz
x,y,z
x,-y,1/2+z
1/2+x,1/2+y,z
1/2+x,1/2-y,1/2+z
loop_
_atom_site_type_symbol
_atom_site_label
_atom_site_fract_x
_atom_site_fract_y
_atom_site_fract_z
Si Si1 0.622200 0.233219 0.462240
Si Si2 0.499772 0.221696 0.055116
Si Si3 0.090406 0.713216 0.931805
Si Si4 0.708869 0.130677 0.703659
Si Si5 0.383126 0.365991 0.307851
Si Si6 0.967038 0.715407 0.522685
Si Si7 0.794527 0.130668 0.682543
O O1 0.592250 0.302276 0.654340
O O2 0.667600 0.245268 0.611445
O O3 0.608081 0.005867 0.410777
O O4 0.618356 0.309040 0.174054
O O5 0.545281 0.213580 0.997480
O O6 0.471361 0.305717 0.805985
O O7 0.483511 0.002035 0.081732
O O8 0.495411 0.305727 0.331831
O O9 0.751857 0.236683 0.695034
O O10 0.708032 0.961519 0.484145
O O11 0.385623 0.485950 0.048492
O O12 0.421271 0.224817 0.378347
O O13 0.338208 0.270179 0.265242
O O14 0.793869 0.039994 0.398720
#
# Coordination Sequence:
#
# PCOD9133720 Si02
#       7
#     4   4   4   4   4   4   4
#     4  10  14  20  31  49  71 106 130 163 183 235
#     4  10  19  30  43  65  83 117 148 174 221 248
#     4  10  16  23  34  52  81 102 140 159 195 253
#     4  10  14  22  31  49  71 101 141 161 190 233
#     4  10  19  32  45  64  82 113 153 178 223 252
#     4  10  18  30  46  60  85 109 151 182 209 262
#     4   8  16  25  38  51  75 102 139 173 193 247
#
# _framework density 23.471278999999999
#
# number of rings (size 3 to 8) (size 9 to 14) (size 15 to 20)
#    0.000    2.286    2.857    5.143    0.000    0.000 
#    0.000    0.000    0.000    0.000    0.000    0.000 
#    0.000    0.000    0.000    0.000  184.571   48.000 
#
# Total GULP energy -78071.745547 kJ/mol
# GULP energy per Si atom -5576.553253 kJ/mol
# Density = 2.341786 g / cm^3
# Si number density = 23.471279 Si / 1000 Ang^3
#
#
#
# Elastic Constant Matrix: (Units=GPa)
#
#
# Indices 1 2 3 4 5 6 
#
# 1 153.2750 -17.4068 -13.2370 0.0000 12.1394 0.0000
# 2 -17.4068 50.9340 -19.4751 0.0000 -0.2075 0.0000
# 3 -13.2370 -19.4751 166.2390 0.0000 -4.6866 0.0000
# 4 0.0000 0.0000 0.0000 -6.6776 0.0000 6.9445
# 5 12.1394 -0.2075 -4.6866 0.0000 40.5685 0.0000
# 6 0.0000 0.0000 0.0000 6.9445 0.0000 12.5776
#
#
#
# Elastic Compliance Matrix: (Units=1/GPa)
#
#
# Indices 1 2 3 4 5 6 
#
# 1 0.007063 0.002721 0.000825 0.000000 -0.002004 0.000000
# 2 0.002721 0.021608 0.002737 0.000000 -0.000388 0.000000
# 3 0.000825 0.002737 0.006416 0.000000 0.000508 0.000000
# 4 0.000000 0.000000 0.000000 -0.095131 0.000000 0.052525
# 5 -0.002004 -0.000388 0.000508 0.000000 0.025306 0.000000
# 6 0.000000 0.000000 0.000000 0.052525 0.000000 0.050506
#
#
# Mechanical properties :
#
#
# Convention : Reuss Voigt Hill
#
# Bulk Modulus (GPa) = 20.98494 30.02337 25.50416
# Shear Modulus (GPa) = 261.95276 37.33149 149.64212
#
# Velocity S-wave (km/s) = 10.57582 3.99246 7.99336
# Velocity P-wave (km/s) = 12.57341 5.83714 9.80212
#
# Compressibility (1/GPa) = 0.04765322
#
# Stress axis : x y z
#
# Youngs Moduli (GPa) = 141.57884 46.27875 155.85802
#
# Poissons Ratio (x) = -0.12593 -0.12853
# Poissons Ratio (y) = -0.38524 -0.42661
# Poissons Ratio (z) = -0.11676 -0.12667
#
# Static dielectric constant tensor:
#      x y z
#    x 1.923490 0.000000 0.001100 
#    y 0.000000 1.938540 0.000000 
#    z 0.001100 0.000000 1.978950 
# 
# From -- ./inp_files/3431.got.cif
#   From: 2010.05.17/outbox.cif.g08.bks.cpg/sg9_2_cif.got.tgz:3431.got - 2010.06.03 20:04:27.
