data_PCOD9133457
_publ_section_title
;
Structure prediction by ZEFSAII (Michael W. Deem and Ramdas Pophale) SiO2 
 PCOD9133457
Probable space group: C M
;
_chemical_formula_sum "Si O2"
_cell_formula_units_Z 20
_cell_length_a 13.963551
_cell_length_b 11.645559
_cell_length_c 4.893754
_cell_angle_alpha 90.000000
_cell_angle_beta 81.226592
_cell_angle_gamma 90.000000
_cell_volume 786.478452
_symmetry_space_group_name_H-M "C M"
_symmetry_group_IT_number 8
_symmetry_cell_setting 'monoclinic'
loop_
_space_group_symop_operation_xyz
x,y,z
x,-y,z
1/2+x,1/2+y,z
1/2+x,1/2-y,z
loop_
_atom_site_type_symbol
_atom_site_label
_atom_site_fract_x
_atom_site_fract_y
_atom_site_fract_z
Si Si1 0.224651 0.500000 0.176131
Si Si2 0.212700 0.000000 0.602390
Si Si3 0.856620 0.000000 0.618855
Si Si4 0.080732 0.000000 0.159666
Si Si5 0.065082 0.623971 0.530461
Si Si6 0.872269 0.623971 0.248061
Si Si7 0.968676 0.811590 0.889260
O O1 0.319030 0.500000 0.328200
O O2 0.158070 0.608319 0.295260
O O3 0.261701 0.500000 0.853822
O O4 0.175651 0.000000 0.924699
O O5 0.279280 0.108319 0.483259
O O6 0.118320 0.000000 0.450322
O O7 0.919010 0.890740 0.683461
O O8 0.018342 0.109260 0.095058
O O9 0.062809 0.500000 0.682209
O O10 0.968675 0.628855 0.389264
O O11 0.053153 0.730596 0.732643
O O12 0.874543 0.500000 0.096313
O O13 0.884199 0.730596 0.045878
#
# Coordination Sequence:
#
# PCOD9133457 Si02
#       7
#     2   2   2   2   4   4   4
#     4  10  25  46  66 100 135 167 230 275 315 393
#     4  10  25  46  66 100 135 167 230 275 315 393
#     4  11  28  44  64 104 137 171 219 273 336 388
#     4  11  28  44  64 104 137 171 219 273 336 388
#     4   9  22  42  71  95 130 176 224 270 327 392
#     4   9  22  42  71  95 130 176 224 270 327 392
#     4  11  25  42  70  90 141 179 214 268 342 395
#
# _framework density 25.429815000000001
#
# number of rings (size 3 to 8) (size 9 to 14) (size 15 to 20)
#    1.200    0.800    0.000    0.600   11.200    4.800 
#    0.000    0.000    0.000    0.000    0.000    0.000 
#    0.000    0.000    0.000    0.000    0.000    0.000 
#
# Total GULP energy -55984.118381 kJ/mol
# GULP energy per Si atom -5598.411838 kJ/mol
# Density = 2.537194 g / cm^3
# Si number density = 25.429815 Si / 1000 Ang^3
#
#
#
# Elastic Constant Matrix: (Units=GPa)
#
#
# Indices 1 2 3 4 5 6 
#
# 1 128.3530 25.2216 29.5598 0.0000 -9.2560 0.0000
# 2 25.2216 134.1916 20.7930 0.0000 -6.2066 0.0000
# 3 29.5598 20.7930 69.7547 0.0000 -10.8839 0.0000
# 4 0.0000 0.0000 0.0000 63.1637 0.0000 -16.5252
# 5 -9.2560 -6.2066 -10.8839 0.0000 68.4656 0.0000
# 6 0.0000 0.0000 0.0000 -16.5252 0.0000 1.1184
#
#
#
# Elastic Compliance Matrix: (Units=1/GPa)
#
#
# Indices 1 2 3 4 5 6 
#
# 1 0.008814 -0.001117 -0.003314 0.000000 0.000563 0.000000
# 2 -0.001117 0.007962 -0.001857 0.000000 0.000276 0.000000
# 3 -0.003314 -0.001857 0.016610 0.000000 0.002024 0.000000
# 4 0.000000 0.000000 0.000000 -0.005525 0.000000 -0.081631
# 5 0.000563 0.000276 0.002024 0.000000 0.015029 0.000000
# 6 0.000000 0.000000 0.000000 -0.081631 0.000000 -0.312018
#
#
# Mechanical properties :
#
#
# Convention : Reuss Voigt Hill
#
# Bulk Modulus (GPa) = 48.05460 53.71645 50.88552
# Shear Modulus (GPa) = -20.03096 43.66453 11.81679
#
# Velocity S-wave (km/s) = -2.80964 4.14824 2.15799
# Velocity P-wave (km/s) = 2.90044 6.64177 5.12473
#
# Compressibility (1/GPa) = 0.02080966
#
# Stress axis : x y z
#
# Youngs Moduli (GPa) = 113.44993 125.58870 60.20513
#
# Poissons Ratio (x) = 0.14029 0.19954
# Poissons Ratio (y) = 0.12673 0.11181
# Poissons Ratio (z) = 0.37602 0.23324
#
# Static dielectric constant tensor:
#      x y z
#    x 1.986620 0.000000 -0.061390 
#    y 0.000000 2.001880 0.000000 
#    z -0.061390 0.000000 1.999810 
# 
# From -- ./inp_files/3715.got.cif
#   From: 2010.05.17/outbox.cif.g08.bks.cpg/sg8_2_cif.got.tgz:3715.got - 2010.06.03 19:46:02.
