data_PCOD9133240
_publ_section_title
;
Structure prediction by ZEFSAII (Michael W. Deem and Ramdas Pophale) SiO2 
 PCOD9133240
Probable space group: C M
;
_chemical_formula_sum "Si O2"
_cell_formula_units_Z 26
_cell_length_a 15.384065
_cell_length_b 7.521689
_cell_length_c 17.106677
_cell_angle_alpha 90.000000
_cell_angle_beta 35.211258
_cell_angle_gamma 90.000000
_cell_volume 1141.356715
_symmetry_space_group_name_H-M "C M"
_symmetry_group_IT_number 8
_symmetry_cell_setting 'monoclinic'
loop_
_space_group_symop_operation_xyz
x,y,z
x,-y,z
1/2+x,1/2+y,z
1/2+x,1/2-y,z
loop_
_atom_site_type_symbol
_atom_site_label
_atom_site_fract_x
_atom_site_fract_y
_atom_site_fract_z
Si Si1 0.776541 0.500000 0.801740
Si Si2 0.889981 0.204832 0.592023
Si Si3 0.395392 0.706530 0.310544
Si Si4 0.180891 0.202854 0.604638
Si Si5 0.221363 0.214125 0.286523
Si Si6 0.847053 0.204401 0.856225
Si Si7 0.231252 0.215455 0.103181
O O1 0.828529 0.341894 0.700979
O O2 0.736955 0.342897 0.896210
O O3 0.775817 0.204643 0.602495
O O4 0.053468 0.265097 0.438886
O O5 0.905406 0.000000 0.609292
O O6 0.394094 0.500000 0.334168
O O7 0.275347 0.795690 0.455933
O O8 0.341019 0.726328 0.262431
O O9 0.562779 0.773176 0.203145
O O10 0.014278 0.275468 0.711310
O O11 0.157242 0.000000 0.648057
O O12 0.257250 0.276152 0.172622
O O13 0.220792 0.000000 0.284865
O O14 0.824521 0.000000 0.849483
O O15 0.838137 0.215532 0.956615
O O16 0.238884 0.000000 0.096290
#
# Coordination Sequence:
#
# PCOD9133240 Si02
#       7
#     2   4   4   4   4   4   4
#     4  12  24  44  68  98 138 180 226 288 346 402
#     4  11  23  41  68 104 140 177 230 288 345 408
#     4  11  23  39  69 101 134 179 231 285 344 407
#     4  11  23  42  66 101 137 180 233 285 343 412
#     4  10  22  41  65 101 138 177 229 286 340 412
#     4  11  26  45  69  99 139 186 232 279 344 417
#     4  10  22  46  67  93 140 186 227 282 343 414
#
# _framework density 22.779906
#
# number of rings (size 3 to 8) (size 9 to 14) (size 15 to 20)
#    0.000    1.231    3.077    2.308    5.385    4.308 
#    2.769    0.000    0.000    0.000    0.000    0.000 
#    0.000    0.000    0.000    0.000    0.000    0.000 
#
# Total GULP energy -72474.368862 kJ/mol
# GULP energy per Si atom -5574.951451 kJ/mol
# Density = 2.272806 g / cm^3
# Si number density = 22.779906 Si / 1000 Ang^3
#
#
#
# Elastic Constant Matrix: (Units=GPa)
#
#
# Indices 1 2 3 4 5 6 
#
# 1 89.1067 10.4414 31.3081 0.0000 24.1118 0.0000
# 2 10.4414 114.8327 9.2909 0.0000 15.3176 0.0000
# 3 31.3081 9.2909 48.4122 0.0000 23.1849 0.0000
# 4 0.0000 0.0000 0.0000 35.2884 0.0000 17.0118
# 5 24.1118 15.3176 23.1849 0.0000 40.7142 0.0000
# 6 0.0000 0.0000 0.0000 17.0118 0.0000 24.1758
#
#
#
# Elastic Compliance Matrix: (Units=1/GPa)
#
#
# Indices 1 2 3 4 5 6 
#
# 1 0.015142 -0.000151 -0.007557 0.000000 -0.004607 0.000000
# 2 -0.000151 0.009171 -0.000073 0.000000 -0.003320 0.000000
# 3 -0.007557 -0.000073 0.032175 0.000000 -0.013820 0.000000
# 4 0.000000 0.000000 0.000000 0.042886 0.000000 -0.030178
# 5 -0.004607 -0.003320 -0.013820 0.000000 0.036409 0.000000
# 6 0.000000 0.000000 0.000000 -0.030178 0.000000 0.062599
#
#
# Mechanical properties :
#
#
# Convention : Reuss Voigt Hill
#
# Bulk Modulus (GPa) = 24.43365 39.38138 31.90751
# Shear Modulus (GPa) = 21.96982 33.45641 27.71311
#
# Velocity S-wave (km/s) = 3.10891 3.83649 3.49171
# Velocity P-wave (km/s) = 4.86172 6.07867 5.50393
#
# Compressibility (1/GPa) = 0.04092717
#
# Stress axis : x y z
#
# Youngs Moduli (GPa) = 66.04110 109.04281 31.07975
#
# Poissons Ratio (x) = 0.01645 0.23487
# Poissons Ratio (y) = 0.00996 0.00226
# Poissons Ratio (z) = 0.49907 0.00793
#
# Static dielectric constant tensor:
#      x y z
#    x 1.866380 0.000000 -0.023710 
#    y 0.000000 1.834650 0.000000 
#    z -0.023710 0.000000 1.848530 
# 
# From -- ./inp_files/15970.got.cif
#   From: 2010.05.17/outbox.cif.g08.bks.cpg/sg8_8_cif.got.tgz:15970.got - 2010.06.03 19:46:02.
