data_PCOD9133869
_publ_section_title
;
Structure prediction by ZEFSAII (Michael W. Deem and Ramdas Pophale) SiO2 
 PCOD9133869
Probable space group: C C
;
_chemical_formula_sum "Si O2"
_cell_formula_units_Z 32
_cell_length_a 7.539883
_cell_length_b 13.229016
_cell_length_c 12.503981
_cell_angle_alpha 90.000000
_cell_angle_beta 86.854812
_cell_angle_gamma 90.000000
_cell_volume 1245.333831
_symmetry_space_group_name_H-M "C C"
_symmetry_group_IT_number 9
_symmetry_cell_setting 'monoclinic'
loop_
_space_group_symop_operation_xyz
x,y,z
x,-y,1/2+z
1/2+x,1/2+y,z
1/2+x,1/2-y,1/2+z
loop_
_atom_site_type_symbol
_atom_site_label
_atom_site_fract_x
_atom_site_fract_y
_atom_site_fract_z
Si Si1 0.156140 0.395312 0.447260
Si Si2 0.566393 0.995129 0.643059
Si Si3 0.559404 0.399354 0.138322
Si Si4 0.876388 0.287007 0.040563
Si Si5 0.327820 0.105057 0.327959
Si Si6 0.707851 0.186886 0.727537
Si Si7 0.939681 0.113094 0.184111
Si Si8 0.955012 0.067083 0.411868
O O1 0.014294 0.449205 0.529333
O O2 0.234236 0.293896 0.496152
O O3 0.102154 0.359074 0.332317
O O4 0.317279 0.475694 0.425523
O O5 0.448725 0.958305 0.744839
O O6 0.753527 0.937047 0.654346
O O7 0.617833 0.113869 0.638688
O O8 0.414953 0.351891 0.222093
O O9 0.568514 0.518602 0.159032
O O10 0.754522 0.354171 0.123644
O O11 0.470540 0.380379 0.025106
O O12 0.926492 0.346316 0.929325
O O13 0.988498 0.208934 0.110375
O O14 0.243101 0.195906 0.257618
O O15 0.161567 0.041446 0.380226
O O16 0.904235 0.132800 0.310410
#
# Coordination Sequence:
#
# PCOD9133869 Si02
#       8
#     4   4   4   4   4   4   4   4
#     4  10  17  34  60  85 116 162 214 248 310 383
#     4  10  19  36  60  88 117 167 210 256 317 382
#     4  10  18  33  62  91 119 169 210 257 318 380
#     4   9  19  35  59  92 123 159 213 254 317 386
#     4  10  23  36  59  91 128 155 212 264 316 376
#     4  10  18  34  61  83 114 161 204 249 311 371
#     4  10  19  35  63  86 121 165 220 250 318 385
#     4  11  19  37  58  92 124 166 211 268 313 385
#
# _framework density 25.695919
#
# number of rings (size 3 to 8) (size 9 to 14) (size 15 to 20)
#    0.000    2.000    6.250    1.500    0.000    0.000 
#    0.000    6.250    0.000    0.000    0.000    0.000 
#    0.000    0.000    0.000    0.000    0.000    0.000 
#
# Total GULP energy -89254.127136 kJ/mol
# GULP energy per Si atom -5578.382946 kJ/mol
# Density = 2.563743 g / cm^3
# Si number density = 25.695919 Si / 1000 Ang^3
#
#
#
# Elastic Constant Matrix: (Units=GPa)
#
#
# Indices 1 2 3 4 5 6 
#
# 1 21.0530 16.5392 6.1402 0.0000 -26.1029 0.0000
# 2 16.5392 148.6377 32.5604 0.0000 -26.4218 0.0000
# 3 6.1402 32.5604 127.7792 0.0000 -13.1557 0.0000
# 4 0.0000 0.0000 0.0000 11.4870 0.0000 -29.0748
# 5 -26.1029 -26.4218 -13.1557 0.0000 51.7166 0.0000
# 6 0.0000 0.0000 0.0000 -29.0748 0.0000 18.3138
#
#
#
# Elastic Compliance Matrix: (Units=1/GPa)
#
#
# Indices 1 2 3 4 5 6 
#
# 1 0.128340 -0.003271 0.001195 0.000000 0.063410 0.000000
# 2 -0.003271 0.007789 -0.001631 0.000000 0.001914 0.000000
# 3 0.001195 -0.001631 0.008380 0.000000 0.001902 0.000000
# 4 0.000000 0.000000 0.000000 -0.028842 0.000000 -0.045789
# 5 0.063410 0.001914 0.001902 0.000000 0.052803 0.000000
# 6 0.000000 0.000000 0.000000 -0.045789 0.000000 -0.018090
#
#
# Mechanical properties :
#
#
# Convention : Reuss Voigt Hill
#
# Bulk Modulus (GPa) = 7.29414 45.32772 26.31093
# Shear Modulus (GPa) = 24.57102 32.45214 28.51158
#
# Velocity S-wave (km/s) = 3.09564 3.55763 3.33464
# Velocity P-wave (km/s) = 3.95248 5.87826 5.00880
#
# Compressibility (1/GPa) = 0.13709638
#
# Stress axis : x y z
#
# Youngs Moduli (GPa) = 7.79178 128.38454 119.33342
#
# Poissons Ratio (x) = 0.41990 -0.14257
# Poissons Ratio (y) = 0.02548 0.19458
# Poissons Ratio (z) = -0.00931 0.20934
#
# Static dielectric constant tensor:
#      x y z
#    x 2.204540 0.000000 0.155770 
#    y 0.000000 2.069090 0.000000 
#    z 0.155770 0.000000 2.111610 
# 
# From -- ./inp_files/23207.got.cif
#   From: 2010.05.17/outbox.cif.g08.bks.cpg/sg9_12_cif.got.tgz:23207.got - 2010.06.03 20:04:27.
