data_PCOD9133076
_publ_section_title
;
Structure prediction by ZEFSAII (Michael W. Deem and Ramdas Pophale) SiO2 
 PCOD9133076
Probable space group: C M
;
_chemical_formula_sum "Si O2"
_cell_formula_units_Z 26
_cell_length_a 14.776752
_cell_length_b 7.440545
_cell_length_c 17.681077
_cell_angle_alpha 90.000000
_cell_angle_beta 147.829050
_cell_angle_gamma 90.000000
_cell_volume 1035.068215
_symmetry_space_group_name_H-M "C M"
_symmetry_group_IT_number 8
_symmetry_cell_setting 'monoclinic'
loop_
_space_group_symop_operation_xyz
x,y,z
x,-y,z
1/2+x,1/2+y,z
1/2+x,1/2-y,z
loop_
_atom_site_type_symbol
_atom_site_label
_atom_site_fract_x
_atom_site_fract_y
_atom_site_fract_z
Si Si1 0.214070 0.290526 0.855380
Si Si2 0.759975 0.301291 0.139537
Si Si3 0.558274 0.500000 0.361443
Si Si4 0.973113 0.718027 0.810612
Si Si5 0.573914 0.213667 0.161065
Si Si6 0.644693 0.301401 0.649303
Si Si7 0.283344 0.284003 0.458309
O O1 0.193142 0.500000 0.822569
O O2 0.244782 0.188246 0.799591
O O3 0.053300 0.221773 0.788208
O O4 0.379102 0.271275 0.023539
O O5 0.831697 0.500000 0.174721
O O6 0.669147 0.297850 0.157148
O O7 0.908483 0.155992 0.248031
O O8 0.610888 0.266559 0.972724
O O9 0.708141 0.658192 0.469581
O O10 0.965127 0.500000 0.804854
O O11 0.784093 0.787229 0.694622
O O12 0.658890 0.260326 0.300015
O O13 0.584506 0.000000 0.159025
O O14 0.603041 0.500000 0.587690
O O15 0.466428 0.227381 0.552821
O O16 0.286980 0.500000 0.474387
#
# Coordination Sequence:
#
# PCOD9133076 Si02
#       7
#     4   4   2   4   4   4   4
#     4  11  23  37  66 103 133 178 231 279 340 406
#     4  12  24  40  67 103 138 175 231 288 341 404
#     4  12  24  44  68  96 138 178 224 284 346 400
#     4  10  21  41  66  99 139 180 223 282 343 402
#     4  11  22  42  66 100 137 181 227 285 344 400
#     4  10  22  45  67  94 138 182 225 279 339 409
#     4  10  25  45  70  99 137 184 228 276 344 414
#
# _framework density 25.119116999999999
#
# number of rings (size 3 to 8) (size 9 to 14) (size 15 to 20)
#    0.000    1.231    3.077    2.308    5.385    2.462 
#    2.769    0.000    0.000    0.000    0.000    0.000 
#    0.000    0.000    0.000    0.000    0.000    0.000 
#
# Total GULP energy -72513.846296 kJ/mol
# GULP energy per Si atom -5577.988177 kJ/mol
# Density = 2.506194 g / cm^3
# Si number density = 25.119117 Si / 1000 Ang^3
#
#
#
# Elastic Constant Matrix: (Units=GPa)
#
#
# Indices 1 2 3 4 5 6 
#
# 1 97.9450 13.2288 21.3477 0.0000 25.6842 0.0000
# 2 13.2288 129.0062 21.5080 0.0000 15.9852 0.0000
# 3 21.3477 21.5080 110.8016 0.0001 42.1675 0.0000
# 4 0.0000 0.0000 0.0001 29.2764 0.0000 0.6616
# 5 25.6842 15.9852 42.1675 0.0000 52.8608 0.0000
# 6 0.0000 0.0000 0.0000 0.6616 0.0000 -11.3891
#
#
#
# Elastic Compliance Matrix: (Units=1/GPa)
#
#
# Indices 1 2 3 4 5 6 
#
# 1 0.011734 -0.000511 -0.000073 0.000000 -0.005489 0.000000
# 2 -0.000511 0.008141 -0.000918 0.000000 -0.001481 0.000000
# 3 -0.000073 -0.000918 0.013064 0.000000 -0.010109 0.000000
# 4 0.000000 0.000000 0.000000 0.034112 0.000000 0.001982
# 5 -0.005489 -0.001481 -0.010109 0.000000 0.030096 0.000000
# 6 0.000000 0.000000 0.000000 0.001982 0.000000 -0.087688
#
#
# Mechanical properties :
#
#
# Convention : Reuss Voigt Hill
#
# Bulk Modulus (GPa) = 33.40530 49.99132 41.69831
# Shear Modulus (GPa) = 222.80269 32.92751 127.86510
#
# Velocity S-wave (km/s) = 9.42820 3.62450 7.14241
# Velocity P-wave (km/s) = 11.48255 6.12053 9.20081
#
# Compressibility (1/GPa) = 0.02993537
#
# Stress axis : x y z
#
# Youngs Moduli (GPa) = 85.22234 122.84184 76.54416
#
# Poissons Ratio (x) = 0.06277 0.00556
# Poissons Ratio (y) = 0.04355 0.07027
# Poissons Ratio (z) = 0.00619 0.11278
#
# Static dielectric constant tensor:
#      x y z
#    x 2.014480 0.000000 -0.020610 
#    y 0.000000 1.989850 0.000000 
#    z -0.020610 0.000000 2.014240 
# 
# From -- ./inp_files/30720.got.cif
#   From: 2010.05.17/outbox.cif.g08.bks.cpg/sg8_16_cif.got.tgz:30720.got - 2010.06.03 19:46:02.
