data_PCOD9133146
_publ_section_title
;
Structure prediction by ZEFSAII (Michael W. Deem and Ramdas Pophale) SiO2 
 PCOD9133146
Probable space group: C M
;
_chemical_formula_sum "Si O2"
_cell_formula_units_Z 28
_cell_length_a 10.808592
_cell_length_b 22.211639
_cell_length_c 8.117471
_cell_angle_alpha 90.000000
_cell_angle_beta 43.710526
_cell_angle_gamma 90.000000
_cell_volume 1346.660394
_symmetry_space_group_name_H-M "C M"
_symmetry_group_IT_number 8
_symmetry_cell_setting 'monoclinic'
loop_
_space_group_symop_operation_xyz
x,y,z
x,-y,z
1/2+x,1/2+y,z
1/2+x,1/2-y,z
loop_
_atom_site_type_symbol
_atom_site_label
_atom_site_fract_x
_atom_site_fract_y
_atom_site_fract_z
Si Si1 0.796900 0.810020 0.744780
Si Si2 0.699089 0.068184 0.668574
Si Si3 0.910434 0.313533 0.505382
Si Si4 0.317204 0.328344 0.092059
Si Si5 0.482862 0.565519 0.110145
Si Si6 0.816634 0.376449 0.939137
Si Si7 0.868924 0.294386 0.189441
O O1 0.793245 0.878788 0.684029
O O2 0.899252 0.759004 0.542372
O O3 0.866538 0.805226 0.863908
O O4 0.584321 0.794934 0.955231
O O5 0.497825 0.089093 0.817651
O O6 0.809794 0.065919 0.393383
O O7 0.699906 0.000000 0.738771
O O8 0.840183 0.341350 0.743003
O O9 0.820285 0.321986 0.413320
O O10 0.106447 0.342390 0.291062
O O11 0.444881 0.382333 0.017557
O O12 0.323839 0.275600 0.219822
O O13 0.505440 0.500000 0.011377
O O14 0.651676 0.579972 0.062782
O O15 0.782448 0.330209 0.121120
#
# Coordination Sequence:
#
# PCOD9133146 Si02
#       7
#     4   4   4   4   4   4   4
#     4  10  22  38  60  92 125 166 205 253 314 368
#     4  10  22  42  65  88 123 171 210 250 307 365
#     4  11  22  37  63  94 127 164 200 256 320 366
#     4  11  22  38  60  92 129 161 207 259 304 374
#     4  11  24  41  64  91 122 166 214 254 301 373
#     4  11  22  43  66  93 125 165 202 262 310 368
#     4  10  23  37  60  96 126 159 206 254 312 372
#
# _framework density 20.792176999999999
#
# number of rings (size 3 to 8) (size 9 to 14) (size 15 to 20)
#    0.000    1.429    2.857    2.143    6.000    1.714 
#    0.000    0.000    0.000    1.714    0.000    0.000 
#    0.000    0.000    0.000    0.000    0.000    0.000 
#
# Total GULP energy -78141.550745 kJ/mol
# GULP energy per Si atom -5581.539339 kJ/mol
# Density = 2.074485 g / cm^3
# Si number density = 20.792177 Si / 1000 Ang^3
#
#
#
# Elastic Constant Matrix: (Units=GPa)
#
#
# Indices 1 2 3 4 5 6 
#
# 1 66.9549 13.7580 19.9972 0.0000 8.7720 0.0000
# 2 13.7580 74.4272 -1.6591 0.0000 -5.0284 0.0000
# 3 19.9972 -1.6591 39.0789 0.0000 7.0344 0.0000
# 4 0.0000 0.0000 0.0000 16.2700 0.0000 5.4954
# 5 8.7720 -5.0284 7.0344 0.0000 40.2594 0.0000
# 6 0.0000 0.0000 0.0000 5.4954 0.0000 23.5850
#
#
#
# Elastic Compliance Matrix: (Units=1/GPa)
#
#
# Indices 1 2 3 4 5 6 
#
# 1 0.018907 -0.003904 -0.009304 0.000000 -0.002982 0.000000
# 2 -0.003904 0.014359 0.002201 0.000000 0.002260 0.000000
# 3 -0.009304 0.002201 0.031004 0.000000 -0.003115 0.000000
# 4 0.000000 0.000000 0.000000 0.066713 0.000000 -0.015544
# 5 -0.002982 0.002260 -0.003115 0.000000 0.026315 0.000000
# 6 0.000000 0.000000 0.000000 -0.015544 0.000000 0.046022
#
#
# Mechanical properties :
#
#
# Convention : Reuss Voigt Hill
#
# Bulk Modulus (GPa) = 23.66523 27.18368 25.42445
# Shear Modulus (GPa) = 20.88373 25.91386 23.39880
#
# Velocity S-wave (km/s) = 3.17267 3.53417 3.35829
# Velocity P-wave (km/s) = 4.98273 5.45492 5.22416
#
# Compressibility (1/GPa) = 0.04225609
#
# Stress axis : x y z
#
# Youngs Moduli (GPa) = 52.89045 69.64127 32.25352
#
# Poissons Ratio (x) = 0.27187 0.30009
# Poissons Ratio (y) = 0.20648 -0.07097
# Poissons Ratio (z) = 0.49209 -0.15325
#
# Static dielectric constant tensor:
#      x y z
#    x 1.738070 0.000000 -0.014950 
#    y 0.000000 1.771380 0.000000 
#    z -0.014950 0.000000 1.749430 
# 
# From -- ./inp_files/11416.got.cif
#   From: 2010.05.17/outbox.cif.g08.bks.cpg/sg8_6_cif.got.tgz:11416.got - 2010.06.03 19:46:02.
