data_PCOD9133799
_publ_section_title
;
Structure prediction by ZEFSAII (Michael W. Deem and Ramdas Pophale) SiO2 
 PCOD9133799
Probable space group: C C
;
_chemical_formula_sum "Si O2"
_cell_formula_units_Z 32
_cell_length_a 18.451819
_cell_length_b 14.562744
_cell_length_c 7.883905
_cell_angle_alpha 90.000000
_cell_angle_beta 37.074037
_cell_angle_gamma 90.000000
_cell_volume 1277.116552
_symmetry_space_group_name_H-M "C C"
_symmetry_group_IT_number 9
_symmetry_cell_setting 'monoclinic'
loop_
_space_group_symop_operation_xyz
x,y,z
x,-y,1/2+z
1/2+x,1/2+y,z
1/2+x,1/2-y,1/2+z
loop_
_atom_site_type_symbol
_atom_site_label
_atom_site_fract_x
_atom_site_fract_y
_atom_site_fract_z
Si Si1 0.018500 0.024480 0.163920
Si Si2 0.135824 0.194789 0.812502
Si Si3 0.588242 0.070729 0.652950
Si Si4 0.802042 0.864223 0.979619
Si Si5 0.078889 0.626673 0.293743
Si Si6 0.822098 0.299856 0.235686
Si Si7 0.581954 0.359266 0.874079
Si Si8 0.938223 0.732343 0.958468
O O1 0.096912 0.089629 0.891973
O O2 0.035758 0.069988 0.314948
O O3 0.880590 0.045528 0.370549
O O4 0.066628 0.921717 0.065682
O O5 0.125001 0.268833 0.683482
O O6 0.043988 0.237410 0.126619
O O7 0.266689 0.196591 0.652954
O O8 0.672960 0.111888 0.642837
O O9 0.625530 0.097293 0.392724
O O10 0.457554 0.122153 0.923233
O O11 0.602375 0.961210 0.634945
O O12 0.856470 0.803531 0.723197
O O13 0.829149 0.793400 0.086200
O O14 0.934947 0.636617 0.556782
O O15 0.713985 0.329406 0.566421
O O16 0.489286 0.275213 0.036100
#
# Coordination Sequence:
#
# PCOD9133799 Si02
#       8
#     4   4   4   4   4   4   4   4
#     4   9  18  32  54  81 103 131 180 221 258 314
#     4   8  16  32  51  74 101 140 181 208 251 325
#     4  11  21  34  55  85 112 138 183 227 268 321
#     4  10  16  34  59  72 100 150 180 210 258 320
#     4  11  21  34  55  85 112 138 183 227 268 321
#     4  10  16  34  59  72 100 150 180 210 258 320
#     4   9  18  32  54  81 103 131 180 221 258 314
#     4   8  16  32  51  74 101 140 181 208 251 325
#
# _framework density 25.056445
#
# number of rings (size 3 to 8) (size 9 to 14) (size 15 to 20)
#    0.000    3.000    7.500    0.000    0.000    4.000 
#    0.000    1.250    0.000    3.000    0.000    0.000 
#    0.000    0.000    0.000    0.000    0.000    0.000 
#
# Total GULP energy -89086.128625 kJ/mol
# GULP energy per Si atom -5567.883039 kJ/mol
# Density = 2.499942 g / cm^3
# Si number density = 25.056445 Si / 1000 Ang^3
#
#
#
# Elastic Constant Matrix: (Units=GPa)
#
#
# Indices 1 2 3 4 5 6 
#
# 1 72.6553 2.2550 24.5746 0.0000 -31.6100 0.0000
# 2 2.2550 82.8389 -1.3954 0.0000 4.4861 0.0000
# 3 24.5746 -1.3954 67.0028 0.0000 -11.4526 0.0000
# 4 0.0000 0.0000 0.0000 16.3415 0.0000 8.2940
# 5 -31.6100 4.4861 -11.4526 0.0000 28.0264 0.0000
# 6 0.0000 0.0000 0.0000 8.2940 0.0000 31.2891
#
#
#
# Elastic Compliance Matrix: (Units=1/GPa)
#
#
# Indices 1 2 3 4 5 6 
#
# 1 0.029252 -0.002576 -0.005454 0.000000 0.031176 0.000000
# 2 -0.002576 0.012405 0.000395 0.000000 -0.004730 0.000000
# 3 -0.005454 0.000395 0.017063 0.000000 0.000758 0.000000
# 4 0.000000 0.000000 0.000000 0.070707 0.000000 -0.018743
# 5 0.031176 -0.004730 0.000758 0.000000 0.071910 0.000000
# 6 0.000000 0.000000 0.000000 -0.018743 0.000000 0.036928
#
#
# Mechanical properties :
#
#
# Convention : Reuss Voigt Hill
#
# Bulk Modulus (GPa) = 23.01556 30.37393 26.69475
# Shear Modulus (GPa) = 18.65545 28.26891 23.46218
#
# Velocity S-wave (km/s) = 2.73158 3.36253 3.06334
# Velocity P-wave (km/s) = 4.37654 5.21766 4.81550
#
# Compressibility (1/GPa) = 0.04344886
#
# Stress axis : x y z
#
# Youngs Moduli (GPa) = 34.18577 80.61548 58.60705
#
# Poissons Ratio (x) = 0.20770 0.31962
# Poissons Ratio (y) = 0.08808 -0.02314
# Poissons Ratio (z) = 0.18643 -0.03183
#
# Static dielectric constant tensor:
#      x y z
#    x 2.079120 0.000000 0.041040 
#    y 0.000000 2.067830 0.000000 
#    z 0.041040 0.000000 2.049090 
# 
# From -- ./inp_files/20328.got.cif
#   From: 2010.05.17/outbox.cif.g08.bks.cpg/sg9_11_cif.got.tgz:20328.got - 2010.06.03 20:04:27.
