data_PCOD9133964
_publ_section_title
;
Structure prediction by ZEFSAII (Michael W. Deem and Ramdas Pophale) SiO2 
 PCOD9133964
Probable space group: C C
;
_chemical_formula_sum "Si O2"
_cell_formula_units_Z 32
_cell_length_a 6.458285
_cell_length_b 18.602584
_cell_length_c 12.187310
_cell_angle_alpha 90.000000
_cell_angle_beta 64.487162
_cell_angle_gamma 90.000000
_cell_volume 1321.417820
_symmetry_space_group_name_H-M "C C"
_symmetry_group_IT_number 9
_symmetry_cell_setting 'monoclinic'
loop_
_space_group_symop_operation_xyz
x,y,z
x,-y,1/2+z
1/2+x,1/2+y,z
1/2+x,1/2-y,1/2+z
loop_
_atom_site_type_symbol
_atom_site_label
_atom_site_fract_x
_atom_site_fract_y
_atom_site_fract_z
Si Si1 0.494450 0.556782 0.335940
Si Si2 0.952182 0.714183 0.353446
Si Si3 0.772777 0.566681 0.469662
Si Si4 0.897235 0.223114 0.107425
Si Si5 0.670367 0.106716 0.048914
Si Si6 0.928433 0.538134 0.664660
Si Si7 0.613041 0.050802 0.844731
Si Si8 0.714602 0.303149 0.706638
O O1 0.529387 0.567042 0.460637
O O2 0.712440 0.507235 0.257711
O O3 0.286537 0.516037 0.324835
O O4 0.529878 0.634960 0.276387
O O5 0.917797 0.627217 0.370481
O O6 0.903066 0.740147 0.487201
O O7 0.761757 0.737695 0.308316
O O8 0.189552 0.736988 0.240863
O O9 0.824227 0.582183 0.586238
O O10 0.873442 0.485988 0.437613
O O11 0.871731 0.139501 0.075397
O O12 0.125493 0.238865 0.122606
O O13 0.451333 0.156699 0.123460
O O14 0.605858 0.024942 0.090181
O O15 0.707148 0.107225 0.910426
O O16 0.056037 0.576969 0.736027
#
# Coordination Sequence:
#
# PCOD9133964 Si02
#       8
#     4   4   4   4   4   4   4   4
#     4   9  17  31  55  82 111 154 192 230 291 365
#     4  10  23  42  60  89 115 155 210 253 292 361
#     4   9  19  36  53  78 118 155 192 242 294 355
#     4  11  22  41  64  86 114 161 205 248 306 353
#     4   9  20  35  55  84 120 152 198 246 290 368
#     4   9  18  32  52  83 116 151 188 242 299 346
#     4  10  18  32  54  85 118 149 191 239 299 355
#     4   9  19  39  63  81 114 161 200 242 299 355
#
# _framework density 24.216415000000001
#
# number of rings (size 3 to 8) (size 9 to 14) (size 15 to 20)
#    0.000    2.500    0.000    3.750    0.000    8.000 
#    6.750    0.000    0.000    0.000    0.000    0.000 
#    0.000    0.000    0.000    0.000    0.000    0.000 
#
# Total GULP energy -89146.425264 kJ/mol
# GULP energy per Si atom -5571.651579 kJ/mol
# Density = 2.416130 g / cm^3
# Si number density = 24.216415 Si / 1000 Ang^3
#
#
#
# Elastic Constant Matrix: (Units=GPa)
#
#
# Indices 1 2 3 4 5 6 
#
# 1 85.3210 8.4254 55.2318 0.0000 44.5149 0.0000
# 2 8.4254 29.4985 22.1815 0.0000 4.4858 0.0000
# 3 55.2318 22.1815 148.8042 0.0000 49.8332 0.0000
# 4 0.0000 0.0000 0.0000 33.0848 0.0000 11.4773
# 5 44.5149 4.4858 49.8332 0.0000 57.7424 0.0000
# 6 0.0000 0.0000 0.0000 11.4773 0.0000 7.7408
#
#
#
# Elastic Compliance Matrix: (Units=1/GPa)
#
#
# Indices 1 2 3 4 5 6 
#
# 1 0.020761 -0.001644 -0.003015 0.000000 -0.013275 0.000000
# 2 -0.001644 0.038620 -0.006423 0.000000 0.003810 0.000000
# 3 -0.003015 -0.006423 0.011043 0.000000 -0.006707 0.000000
# 4 0.000000 0.000000 0.000000 0.062239 0.000000 -0.092282
# 5 -0.013275 0.003810 -0.006707 0.000000 0.033045 0.000000
# 6 0.000000 0.000000 0.000000 -0.092282 0.000000 0.266013
#
#
# Mechanical properties :
#
#
# Convention : Reuss Voigt Hill
#
# Bulk Modulus (GPa) = 20.72098 48.36679 34.54389
# Shear Modulus (GPa) = 10.63899 31.56592 21.10246
#
# Velocity S-wave (km/s) = 2.09829 3.61431 2.95517
# Velocity P-wave (km/s) = 3.80074 6.11831 5.09310
#
# Compressibility (1/GPa) = 0.04826026
#
# Stress axis : x y z
#
# Youngs Moduli (GPa) = 48.16830 25.89351 90.55668
#
# Poissons Ratio (x) = 0.04256 0.27303
# Poissons Ratio (y) = 0.07918 0.58161
# Poissons Ratio (z) = 0.14523 0.16630
#
# Static dielectric constant tensor:
#      x y z
#    x 1.971560 0.000000 0.027350 
#    y 0.000000 1.949260 0.000000 
#    z 0.027350 0.000000 2.062750 
# 
# From -- ./inp_files/13742.got.cif
#   From: 2010.05.17/outbox.cif.g08.bks.cpg/sg9_7_cif.got.tgz:13742.got - 2010.06.03 20:04:27.
