data_PCOD9133988
_publ_section_title
;
Structure prediction by ZEFSAII (Michael W. Deem and Ramdas Pophale) SiO2 
 PCOD9133988
Probable space group: C C
;
_chemical_formula_sum "Si O2"
_cell_formula_units_Z 32
_cell_length_a 14.936129
_cell_length_b 11.323486
_cell_length_c 7.883154
_cell_angle_alpha 90.000000
_cell_angle_beta 105.541326
_cell_angle_gamma 90.000000
_cell_volume 1284.522566
_symmetry_space_group_name_H-M "C C"
_symmetry_group_IT_number 9
_symmetry_cell_setting 'monoclinic'
loop_
_space_group_symop_operation_xyz
x,y,z
x,-y,1/2+z
1/2+x,1/2+y,z
1/2+x,1/2-y,1/2+z
loop_
_atom_site_type_symbol
_atom_site_label
_atom_site_fract_x
_atom_site_fract_y
_atom_site_fract_z
Si Si1 0.411860 0.103068 0.542370
Si Si2 0.094111 0.469614 0.045865
Si Si3 0.456848 0.607809 0.317997
Si Si4 0.854588 0.682462 0.883863
Si Si5 0.856302 0.916010 0.417780
Si Si6 0.285148 0.820550 0.703456
Si Si7 0.083155 0.238877 0.155629
Si Si8 0.206193 0.623958 0.297517
O O1 0.485907 0.004419 0.520007
O O2 0.383550 0.119987 0.722576
O O3 0.321617 0.105196 0.381066
O O4 0.481693 0.216771 0.529290
O O5 0.113544 0.374916 0.209409
O O6 0.155400 0.583434 0.102383
O O7 0.127403 0.394337 0.901764
O O8 0.428086 0.709431 0.434741
O O9 0.449387 0.477822 0.389878
O O10 0.552627 0.650817 0.287205
O O11 0.379944 0.611803 0.125480
O O12 0.755589 0.751168 0.808309
O O13 0.837917 0.633480 0.063834
O O14 0.817218 0.812267 0.277795
O O15 0.784306 0.025751 0.379480
O O16 0.174656 0.817934 0.621710
#
# Coordination Sequence:
#
# PCOD9133988 Si02
#       8
#     4   4   4   4   4   4   4   4
#     4   9  21  39  52  84 130 152 193 244 293 361
#     4  10  20  35  51  85 131 146 188 250 306 344
#     4  10  20  32  55  82 126 141 190 245 291 347
#     4  10  18  33  56  88 113 152 194 235 300 353
#     4  11  17  31  56  91 110 148 188 246 293 337
#     4  12  19  36  65  81 121 160 192 241 306 348
#     4   9  19  37  50  85 124 150 189 246 295 353
#     4  11  18  31  57  90 117 145 198 247 296 357
#
# _framework density 24.911981000000001
#
# number of rings (size 3 to 8) (size 9 to 14) (size 15 to 20)
#    0.750    1.000    5.000    3.000    0.000    0.000 
#    2.250    3.750    0.000    1.500    0.000    0.000 
#    0.000    0.000    0.000    0.000    0.000    0.000 
#
# Total GULP energy -89090.512239 kJ/mol
# GULP energy per Si atom -5568.157015 kJ/mol
# Density = 2.485528 g / cm^3
# Si number density = 24.911981 Si / 1000 Ang^3
#
#
#
# Elastic Constant Matrix: (Units=GPa)
#
#
# Indices 1 2 3 4 5 6 
#
# 1 128.0741 0.2072 37.5539 0.0000 -30.4647 0.0000
# 2 0.2072 46.2953 13.8540 0.0000 -9.4326 0.0000
# 3 37.5539 13.8540 113.8447 0.0000 -24.8299 0.0000
# 4 0.0000 0.0000 0.0000 35.3170 0.0000 -6.9447
# 5 -30.4647 -9.4326 -24.8299 0.0000 36.1913 0.0000
# 6 0.0000 0.0000 0.0000 -6.9447 0.0000 32.2571
#
#
#
# Elastic Compliance Matrix: (Units=1/GPa)
#
#
# Indices 1 2 3 4 5 6 
#
# 1 0.010236 0.002130 -0.001923 0.000000 0.007852 0.000000
# 2 0.002130 0.023552 -0.002162 0.000000 0.006447 0.000000
# 3 -0.001923 -0.002162 0.010825 0.000000 0.005244 0.000000
# 4 0.000000 0.000000 0.000000 0.029567 0.000000 0.006366
# 5 0.007852 0.006447 0.005244 0.000000 0.039519 0.000000
# 6 0.000000 0.000000 0.000000 0.006366 0.000000 0.032371
#
#
# Mechanical properties :
#
#
# Convention : Reuss Voigt Hill
#
# Bulk Modulus (GPa) = 24.56929 43.49383 34.03156
# Shear Modulus (GPa) = 30.57183 36.52635 33.54909
#
# Velocity S-wave (km/s) = 3.50693 3.83327 3.67373
# Velocity P-wave (km/s) = 5.12659 6.09007 5.62898
#
# Compressibility (1/GPa) = 0.04070121
#
# Stress axis : x y z
#
# Youngs Moduli (GPa) = 97.69242 42.45986 92.37634
#
# Poissons Ratio (x) = -0.09042 0.17766
# Poissons Ratio (y) = -0.20804 0.19975
# Poissons Ratio (z) = 0.18788 0.09181
#
# Static dielectric constant tensor:
#      x y z
#    x 2.108420 0.000000 -0.036820 
#    y 0.000000 2.198880 0.000000 
#    z -0.036820 0.000000 1.981360 
# 
# From -- ./inp_files/9578.got.cif
#   From: 2010.05.17/outbox.cif.g08.bks.cpg/sg9_5_cif.got.tgz:9578.got - 2010.06.03 20:04:27.
