data_PCOD9133004
_publ_section_title
;
Structure prediction by ZEFSAII (Michael W. Deem and Ramdas Pophale) SiO2 
 PCOD9133004
Probable space group: C M
;
_chemical_formula_sum "Si O2"
_cell_formula_units_Z 32
_cell_length_a 13.433898
_cell_length_b 11.825959
_cell_length_c 15.170367
_cell_angle_alpha 90.000000
_cell_angle_beta 140.364234
_cell_angle_gamma 90.000000
_cell_volume 1537.412488
_symmetry_space_group_name_H-M "C M"
_symmetry_group_IT_number 8
_symmetry_cell_setting 'monoclinic'
loop_
_space_group_symop_operation_xyz
x,y,z
x,-y,z
1/2+x,1/2+y,z
1/2+x,1/2-y,z
loop_
_atom_site_type_symbol
_atom_site_label
_atom_site_fract_x
_atom_site_fract_y
_atom_site_fract_z
Si Si1 0.153340 0.867149 0.137710
Si Si2 0.404171 0.128158 0.168275
Si Si3 0.212279 0.874973 0.559244
Si Si4 0.700362 0.709223 0.364164
Si Si5 0.652542 0.666234 0.858168
Si Si6 0.319703 0.372333 0.696267
Si Si7 0.482608 0.377915 0.563548
Si Si8 0.799428 0.129840 0.885603
O O1 0.282165 0.822130 0.157328
O O2 0.206841 0.850904 0.274318
O O3 0.140305 0.000000 0.107313
O O4 0.976245 0.822034 0.010597
O O5 0.556319 0.203793 0.264725
O O6 0.445625 0.000000 0.222578
O O7 0.308099 0.124228 0.011422
O O8 0.175552 0.870734 0.430891
O O9 0.280763 0.747846 0.623947
O O10 0.068136 0.874551 0.528421
O O11 0.291234 0.000000 0.629778
O O12 0.860017 0.778054 0.486688
O O13 0.507911 0.629886 0.819988
O O14 0.607167 0.627541 0.728603
O O15 0.682157 0.799278 0.865020
O O16 0.273381 0.500000 0.631353
O O17 0.257710 0.365296 0.753724
O O18 0.401768 0.500000 0.516631
O O19 0.802363 0.000000 0.915650
#
# Coordination Sequence:
#
# PCOD9133004 Si02
#       8
#     4   4   4   4   4   4   4   4
#     4  10  21  40  62  88 123 163 208 265 316 371
#     4  11  23  38  64  95 122 159 218 270 310 377
#     4  11  25  43  63  93 131 172 215 262 320 385
#     4  12  23  41  63  89 124 172 215 256 313 384
#     4  12  21  39  67  95 122 163 207 261 326 377
#     4  11  22  41  69  96 127 169 215 266 319 379
#     4  11  24  41  62  90 130 167 205 262 326 381
#     4  10  21  39  64  94 127 165 214 266 320 380
#
# _framework density 20.814193
#
# number of rings (size 3 to 8) (size 9 to 14) (size 15 to 20)
#    0.000    1.000    5.000    2.625    0.000    1.000 
#    0.000    1.250    0.000    0.750    0.000    0.000 
#    0.000    0.000    0.000    0.000    0.000    0.000 
#
# Total GULP energy -89184.673602 kJ/mol
# GULP energy per Si atom -5574.042100 kJ/mol
# Density = 2.076682 g / cm^3
# Si number density = 20.814193 Si / 1000 Ang^3
#
#
#
# Elastic Constant Matrix: (Units=GPa)
#
#
# Indices 1 2 3 4 5 6 
#
# 1 72.3778 22.8394 24.6993 0.0000 -11.7154 0.0000
# 2 22.8394 115.0920 19.0544 0.0000 7.1578 0.0000
# 3 24.6993 19.0544 72.5981 0.0000 -12.4073 0.0000
# 4 0.0000 0.0000 0.0000 14.4544 0.0000 16.1414
# 5 -11.7154 7.1578 -12.4073 0.0000 26.6793 0.0000
# 6 0.0000 0.0000 0.0000 16.1414 0.0000 -17.8978
#
#
#
# Elastic Compliance Matrix: (Units=1/GPa)
#
#
# Indices 1 2 3 4 5 6 
#
# 1 0.017219 -0.003183 -0.003894 0.000000 0.006604 0.000000
# 2 -0.003183 0.010051 -0.002450 0.000000 -0.005234 0.000000
# 3 -0.003894 -0.002450 0.016906 0.000000 0.006809 0.000000
# 4 0.000000 0.000000 0.000000 0.034469 0.000000 0.031086
# 5 0.006604 -0.005234 0.006809 0.000000 0.044953 0.000000
# 6 0.000000 0.000000 0.000000 0.031086 0.000000 -0.027837
#
#
# Mechanical properties :
#
#
# Convention : Reuss Voigt Hill
#
# Bulk Modulus (GPa) = 39.80468 43.69491 41.74980
# Shear Modulus (GPa) = 40.58828 17.54550 29.06689
#
# Velocity S-wave (km/s) = 4.42070 2.90652 3.74102
# Velocity P-wave (km/s) = 6.72474 5.68351 6.22593
#
# Compressibility (1/GPa) = 0.02512267
#
# Stress axis : x y z
#
# Youngs Moduli (GPa) = 58.07666 99.48867 59.15055
#
# Poissons Ratio (x) = 0.31667 0.23033
# Poissons Ratio (y) = 0.18486 0.14490
# Poissons Ratio (z) = 0.22615 0.24371
#
# Static dielectric constant tensor:
#      x y z
#    x 1.728940 0.000000 -0.005540 
#    y 0.000000 1.790810 0.000000 
#    z -0.005540 0.000000 1.772660 
# 
# From -- ./inp_files/26830.got.cif
#   From: 2010.05.17/outbox.cif.g08.bks.cpg/sg8_14_cif.got.tgz:26830.got - 2010.06.03 19:46:02.
