data_PCOD9133029
_publ_section_title
;
Structure prediction by ZEFSAII (Michael W. Deem and Ramdas Pophale) SiO2 
 PCOD9133029
Probable space group: C M
;
_chemical_formula_sum "Si O2"
_cell_formula_units_Z 20
_cell_length_a 9.958306
_cell_length_b 15.397364
_cell_length_c 7.288962
_cell_angle_alpha 90.000000
_cell_angle_beta 127.225973
_cell_angle_gamma 90.000000
_cell_volume 889.918261
_symmetry_space_group_name_H-M "C M"
_symmetry_group_IT_number 8
_symmetry_cell_setting 'monoclinic'
loop_
_space_group_symop_operation_xyz
x,y,z
x,-y,z
1/2+x,1/2+y,z
1/2+x,1/2-y,z
loop_
_atom_site_type_symbol
_atom_site_label
_atom_site_fract_x
_atom_site_fract_y
_atom_site_fract_z
Si Si1 0.263370 0.658632 0.637820
Si Si2 0.681713 0.215590 0.194655
Si Si3 0.636098 0.597912 0.036291
Si Si4 0.091727 0.594429 0.812897
Si Si5 0.318741 0.841803 0.834990
O O1 0.278619 0.664799 0.432280
O O2 0.436442 0.618518 0.857417
O O3 0.114580 0.607108 0.615664
O O4 0.233740 0.758271 0.674120
O O5 0.710160 0.318135 0.203756
O O6 0.694955 0.169505 0.006737
O O7 0.484604 0.196448 0.076026
O O8 0.665955 0.500000 0.128799
O O9 0.709027 0.607340 0.890021
O O10 0.157035 0.500000 0.919664
O O11 0.905419 0.604327 0.742507
#
# Coordination Sequence:
#
# PCOD9133029 Si02
#       5
#     4   4   4   4   4
#     4  11  20  42  67  88 125 171 207 256 316 372
#     4   9  23  40  67  86 130 171 207 245 324 380
#     4  11  22  41  66  97 129 160 212 271 310 362
#     4  10  21  40  63  90 122 162 213 253 301 382
#     4   9  20  41  61  89 126 166 201 259 311 370
#
# _framework density 22.473974999999999
#
# number of rings (size 3 to 8) (size 9 to 14) (size 15 to 20)
#    1.200    0.800    2.000    1.200    0.000    4.800 
#    0.000    4.000    0.000    0.000    0.000    0.000 
#    0.000    0.000    0.000    0.000    0.000    0.000 
#
# Total GULP energy -55701.661703 kJ/mol
# GULP energy per Si atom -5570.166170 kJ/mol
# Density = 2.242282 g / cm^3
# Si number density = 22.473975 Si / 1000 Ang^3
#
#
#
# Elastic Constant Matrix: (Units=GPa)
#
#
# Indices 1 2 3 4 5 6 
#
# 1 81.4994 18.1433 4.3229 0.0000 -31.6793 0.0000
# 2 18.1433 149.2204 17.0226 0.0000 -11.3580 0.0000
# 3 4.3229 17.0226 52.7582 0.0000 -21.4952 0.0000
# 4 0.0000 0.0000 0.0000 6.2524 0.0000 -0.6958
# 5 -31.6793 -11.3580 -21.4952 0.0000 27.3131 0.0000
# 6 0.0000 0.0000 0.0000 -0.6958 0.0000 19.2762
#
#
#
# Elastic Compliance Matrix: (Units=1/GPa)
#
#
# Indices 1 2 3 4 5 6 
#
# 1 0.031000 -0.002090 0.018296 0.000000 0.049485 0.000000
# 2 -0.002090 0.007150 -0.002814 0.000000 -0.001665 0.000000
# 3 0.018296 -0.002814 0.039055 0.000000 0.050787 0.000000
# 4 0.000000 0.000000 0.000000 0.160584 0.000000 0.005796
# 5 0.049485 -0.001665 0.050787 0.000000 0.133285 0.000000
# 6 0.000000 0.000000 0.000000 0.005796 0.000000 0.052087
#
#
# Mechanical properties :
#
#
# Convention : Reuss Voigt Hill
#
# Bulk Modulus (GPa) = 9.61640 40.27285 24.94463
# Shear Modulus (GPa) = 11.59986 26.83428 19.21707
#
# Velocity S-wave (km/s) = 2.27435 3.45920 2.92735
# Velocity P-wave (km/s) = 3.34441 5.82353 4.74861
#
# Compressibility (1/GPa) = 0.10398901
#
# Stress axis : x y z
#
# Youngs Moduli (GPa) = 32.25799 139.86281 25.60482
#
# Poissons Ratio (x) = 0.29228 -0.46846
# Poissons Ratio (y) = 0.06741 0.07206
# Poissons Ratio (z) = -0.59019 0.39360
#
# Static dielectric constant tensor:
#      x y z
#    x 1.823260 0.000000 0.008350 
#    y 0.000000 1.831100 0.000000 
#    z 0.008350 0.000000 1.869930 
# 
# From -- ./inp_files/2583.got.cif
#   From: 2010.05.17/outbox.cif.g08.bks.cpg/sg8_2_cif.got.tgz:2583.got - 2010.06.03 19:46:02.
