data_PCOD9133040
_publ_section_title
;
Structure prediction by ZEFSAII (Michael W. Deem and Ramdas Pophale) SiO2 
 PCOD9133040
Probable space group: C M
;
_chemical_formula_sum "Si O2"
_cell_formula_units_Z 32
_cell_length_a 10.927109
_cell_length_b 15.650178
_cell_length_c 8.430141
_cell_angle_alpha 90.000000
_cell_angle_beta 90.722883
_cell_angle_gamma 90.000000
_cell_volume 1441.533796
_symmetry_space_group_name_H-M "C M"
_symmetry_group_IT_number 8
_symmetry_cell_setting 'monoclinic'
loop_
_space_group_symop_operation_xyz
x,y,z
x,-y,z
1/2+x,1/2+y,z
1/2+x,1/2-y,z
loop_
_atom_site_type_symbol
_atom_site_label
_atom_site_fract_x
_atom_site_fract_y
_atom_site_fract_z
Si Si1 0.644140 0.270801 0.787380
Si Si2 0.637867 0.770801 0.156962
Si Si3 0.502877 0.596808 0.597356
Si Si4 0.108892 0.592774 0.632369
Si Si5 0.349903 0.906214 0.786497
Si Si6 0.673120 0.592773 0.311973
Si Si7 0.779132 0.903193 0.346982
Si Si8 0.932109 0.593786 0.157856
O O1 0.528781 0.327142 0.721928
O O2 0.658015 0.179618 0.706008
O O3 0.760126 0.329435 0.755859
O O4 0.640999 0.249998 0.972170
O O5 0.623999 0.679617 0.238328
O O6 0.753227 0.827143 0.222409
O O7 0.521882 0.829434 0.188497
O O8 0.483975 0.500000 0.662562
O O9 0.624450 0.593758 0.489372
O O10 0.391004 0.612964 0.472169
O O11 0.150860 0.500000 0.700420
O O12 0.157559 0.593757 0.454969
O O13 0.965408 0.596257 0.670922
O O14 0.290819 0.000000 0.769683
O O15 0.391006 0.900210 0.972176
O O16 0.631151 0.500000 0.243921
O O17 0.816605 0.596255 0.273431
O O18 0.798034 0.000000 0.281777
O O19 0.991195 0.500000 0.174667
#
# Coordination Sequence:
#
# PCOD9133040 Si02
#       8
#     4   4   4   4   4   4   4   4
#     4  12  24  39  69 101 136 180 231 284 344 408
#     4  12  24  39  69 101 136 180 231 284 344 408
#     4  10  24  46  69  99 142 184 228 284 348 417
#     4  10  23  43  66  95 135 181 226 281 347 408
#     4  10  21  40  65  97 137 174 223 289 347 403
#     4  10  23  43  66  95 135 181 226 281 347 408
#     4  10  24  46  69  99 142 184 228 284 348 417
#     4  10  21  40  65  97 137 174 223 289 347 403
#
# _framework density 22.198578999999999
#
# number of rings (size 3 to 8) (size 9 to 14) (size 15 to 20)
#    0.000    1.500    2.500    1.500    3.500    2.000 
#    0.000    3.750    0.000    5.250    0.000    0.000 
#    0.000    0.000    0.000    0.000    0.000    0.000 
#
# Total GULP energy -89327.559770 kJ/mol
# GULP energy per Si atom -5582.972486 kJ/mol
# Density = 2.214805 g / cm^3
# Si number density = 22.198579 Si / 1000 Ang^3
#
#
#
# Elastic Constant Matrix: (Units=GPa)
#
#
# Indices 1 2 3 4 5 6 
#
# 1 85.1238 55.4706 37.0409 0.0000 0.5699 0.0000
# 2 55.4706 245.8532 60.8886 0.0000 31.0338 0.0000
# 3 37.0409 60.8886 85.4626 0.0000 15.0151 0.0000
# 4 0.0000 0.0000 0.0000 26.3487 0.0000 11.1116
# 5 0.5699 31.0338 15.0151 0.0000 32.2383 0.0000
# 6 0.0000 0.0000 0.0000 11.1116 0.0000 49.2661
#
#
#
# Elastic Compliance Matrix: (Units=1/GPa)
#
#
# Indices 1 2 3 4 5 6 
#
# 1 0.016117 -0.002835 -0.005876 0.000000 0.005181 0.000000
# 2 -0.002835 0.005804 -0.002106 0.000000 -0.004556 0.000000
# 3 -0.005876 -0.002106 0.016744 0.000000 -0.005668 0.000000
# 4 0.000000 0.000000 0.000000 0.041942 0.000000 -0.009460
# 5 0.005181 -0.004556 -0.005668 0.000000 0.037953 0.000000
# 6 0.000000 0.000000 0.000000 -0.009460 0.000000 0.022431
#
#
# Mechanical properties :
#
#
# Convention : Reuss Voigt Hill
#
# Bulk Modulus (GPa) = 58.71525 80.35996 69.53760
# Shear Modulus (GPa) = 29.70865 39.10660 34.40763
#
# Velocity S-wave (km/s) = 3.66226 4.20178 3.94127
# Velocity P-wave (km/s) = 6.66261 7.73428 7.21836
#
# Compressibility (1/GPa) = 0.01703135
#
# Stress axis : x y z
#
# Youngs Moduli (GPa) = 62.04526 172.30185 59.72435
#
# Poissons Ratio (x) = 0.48852 0.35093
# Poissons Ratio (y) = 0.17591 0.12576
# Poissons Ratio (z) = 0.36456 0.36280
#
# Static dielectric constant tensor:
#      x y z
#    x 1.866910 0.000000 0.036380 
#    y 0.000000 1.824470 0.000000 
#    z 0.036380 0.000000 1.882960 
# 
# From -- ./inp_files/10745.got.cif
#   From: 2010.05.17/outbox.cif.g08.bks.cpg/sg8_6_cif.got.tgz:10745.got - 2010.06.03 19:46:02.
