data_PCOD9133022
_publ_section_title
;
Structure prediction by ZEFSAII (Michael W. Deem and Ramdas Pophale) SiO2 
 PCOD9133022
Probable space group: C M
;
_chemical_formula_sum "Si O2"
_cell_formula_units_Z 18
_cell_length_a 8.936414
_cell_length_b 15.535548
_cell_length_c 9.011765
_cell_angle_alpha 90.000000
_cell_angle_beta 49.301857
_cell_angle_gamma 90.000000
_cell_volume 948.545108
_symmetry_space_group_name_H-M "C M"
_symmetry_group_IT_number 8
_symmetry_cell_setting 'monoclinic'
loop_
_space_group_symop_operation_xyz
x,y,z
x,-y,z
1/2+x,1/2+y,z
1/2+x,1/2-y,z
loop_
_atom_site_type_symbol
_atom_site_label
_atom_site_fract_x
_atom_site_fract_y
_atom_site_fract_z
Si Si1 0.502321 0.000000 0.806381
Si Si2 0.905580 0.663952 0.676031
Si Si3 0.972201 0.837430 0.816100
Si Si4 0.936902 0.000000 0.621603
Si Si5 0.154268 0.599074 0.247906
Si Si6 0.372172 0.000000 0.230149
O O1 0.421473 0.083497 0.776102
O O2 0.740197 0.000000 0.651388
O O3 0.439566 0.000000 0.018101
O O4 0.931877 0.750724 0.751632
O O5 0.694692 0.662694 0.731860
O O6 0.072613 0.648587 0.442917
O O7 0.937267 0.917303 0.728375
O O8 0.824129 0.852018 0.049542
O O9 0.138991 0.000000 0.399510
O O10 0.217289 0.500000 0.246197
O O11 0.971940 0.580477 0.252424
#
# Coordination Sequence:
#
# PCOD9133022 Si02
#       6
#     2   4   4   2   4   2
#     4  12  24  42  68 104 132 180 228 280 330 408
#     4  12  27  43  70 102 138 175 232 277 336 398
#     4  12  24  42  72  99 136 178 224 281 331 399
#     4  12  21  43  69  97 136 179 218 278 337 394
#     4  10  21  44  72  95 134 183 221 274 338 404
#     4  10  21  39  73  95 134 181 222 268 345 404
#
# _framework density 18.976430000000001
#
# number of rings (size 3 to 8) (size 9 to 14) (size 15 to 20)
#    0.667    0.000    6.667    2.000    0.000    5.333 
#    0.000    0.000    0.000    0.000    0.000    0.000 
#    0.000    0.000    0.000    0.000    0.000    0.000 
#
# Total GULP energy -50290.743032 kJ/mol
# GULP energy per Si atom -5587.860337 kJ/mol
# Density = 1.893324 g / cm^3
# Si number density = 18.976430 Si / 1000 Ang^3
#
#
#
# Elastic Constant Matrix: (Units=GPa)
#
#
# Indices 1 2 3 4 5 6 
#
# 1 75.9179 47.1503 -6.6664 0.0000 1.3386 0.0000
# 2 47.1503 166.0337 44.5559 0.0000 8.3349 0.0000
# 3 -6.6664 44.5559 142.0738 0.0000 -0.2223 0.0000
# 4 0.0000 0.0000 0.0000 22.4147 0.0000 -4.2785
# 5 1.3386 8.3349 -0.2223 0.0000 23.2439 0.0000
# 6 0.0000 0.0000 0.0000 -4.2785 0.0000 10.2940
#
#
#
# Elastic Compliance Matrix: (Units=1/GPa)
#
#
# Indices 1 2 3 4 5 6 
#
# 1 0.016786 -0.005492 0.002512 0.000000 0.001027 0.000000
# 2 -0.005492 0.008508 -0.002930 0.000000 -0.002762 0.000000
# 3 0.002512 -0.002930 0.008077 0.000000 0.000983 0.000000
# 4 0.000000 0.000000 0.000000 0.048458 0.000000 0.020141
# 5 0.001027 -0.002762 0.000983 0.000000 0.043963 0.000000
# 6 0.000000 0.000000 0.000000 0.020141 0.000000 0.105515
#
#
# Mechanical properties :
#
#
# Convention : Reuss Voigt Hill
#
# Bulk Modulus (GPa) = 46.40671 61.56723 53.98697
# Shear Modulus (GPa) = 19.97515 31.12289 25.54902
#
# Velocity S-wave (km/s) = 3.24794 4.05419 3.67325
# Velocity P-wave (km/s) = 6.21076 7.37765 6.81921
#
# Compressibility (1/GPa) = 0.02154861
#
# Stress axis : x y z
#
# Youngs Moduli (GPa) = 59.57447 117.54226 123.80989
#
# Poissons Ratio (x) = 0.64559 -0.31097
# Poissons Ratio (y) = 0.32721 0.36278
# Poissons Ratio (z) = -0.14963 0.34441
#
# Static dielectric constant tensor:
#      x y z
#    x 1.630170 0.000000 -0.005820 
#    y 0.000000 1.634020 0.000000 
#    z -0.005820 0.000000 1.647320 
# 
# From -- ./inp_files/7747.got.cif
#   From: 2010.05.17/outbox.cif.g08.bks.cpg/sg8_4_cif.got.tgz:7747.got - 2010.06.03 19:46:02.
