data_PCOD9133081
_publ_section_title
;
Structure prediction by ZEFSAII (Michael W. Deem and Ramdas Pophale) SiO2 
 PCOD9133081
Probable space group: C M
;
_chemical_formula_sum "Si O2"
_cell_formula_units_Z 24
_cell_length_a 14.906739
_cell_length_b 17.340272
_cell_length_c 10.286291
_cell_angle_alpha 90.000000
_cell_angle_beta 28.223960
_cell_angle_gamma 90.000000
_cell_volume 1257.431593
_symmetry_space_group_name_H-M "C M"
_symmetry_group_IT_number 8
_symmetry_cell_setting 'monoclinic'
loop_
_space_group_symop_operation_xyz
x,y,z
x,-y,z
1/2+x,1/2+y,z
1/2+x,1/2-y,z
loop_
_atom_site_type_symbol
_atom_site_label
_atom_site_fract_x
_atom_site_fract_y
_atom_site_fract_z
Si Si1 0.945470 0.092032 0.114190
Si Si2 0.230486 0.672863 0.159021
Si Si3 0.670508 0.907448 0.706920
Si Si4 0.771743 0.355238 0.121480
Si Si5 0.370943 0.590752 0.722737
Si Si6 0.346514 0.909345 0.733264
O O1 0.878395 0.139238 0.075496
O O2 0.807697 0.111907 0.410990
O O3 0.925234 0.000000 0.115298
O O4 0.160509 0.106337 0.884432
O O5 0.233144 0.764754 0.156900
O O6 0.025036 0.640796 0.462232
O O7 0.287675 0.640289 0.945932
O O8 0.771051 0.888036 0.713992
O O9 0.644108 0.000000 0.737598
O O10 0.467757 0.868704 0.946628
O O11 0.594062 0.394086 0.419478
O O12 0.796300 0.392022 0.947155
O O13 0.338006 0.500000 0.789249
O O14 0.394396 0.000000 0.660528
#
# Coordination Sequence:
#
# PCOD9133081 Si02
#       6
#     4   4   4   4   4   4
#     4  10  21  41  69  94 119 167 223 258 298 376
#     4  12  26  40  63  98 136 160 200 270 329 363
#     4  10  21  41  69  93 120 168 222 257 298 377
#     4  12  24  40  66  95 130 169 208 253 323 382
#     4  11  24  43  64  94 128 165 212 266 311 364
#     4  11  22  43  71  92 119 173 223 254 301 382
#
# _framework density 19.086525999999999
#
# number of rings (size 3 to 8) (size 9 to 14) (size 15 to 20)
#    0.000    1.000    3.333    4.000    0.000    4.000 
#    0.000    1.667    0.000    0.000    0.000    0.000 
#    0.000    0.000    0.000    0.000    0.000    0.000 
#
# Total GULP energy -67138.036189 kJ/mol
# GULP energy per Si atom -5594.836349 kJ/mol
# Density = 1.904308 g / cm^3
# Si number density = 19.086526 Si / 1000 Ang^3
#
#
#
# Elastic Constant Matrix: (Units=GPa)
#
#
# Indices 1 2 3 4 5 6 
#
# 1 63.9801 29.3885 -6.8534 0.0021 -8.5044 -0.0024
# 2 29.3885 47.8632 0.5790 -0.0046 -1.8965 -0.0010
# 3 -6.8534 0.5790 49.6598 0.0003 -3.6485 0.0020
# 4 0.0021 -0.0046 0.0003 11.8960 0.0015 -7.8581
# 5 -8.5044 -1.8965 -3.6485 0.0015 38.8072 -0.0011
# 6 -0.0024 -0.0010 0.0020 -7.8581 -0.0011 -7.9184
#
#
#
# Elastic Compliance Matrix: (Units=1/GPa)
#
#
# Indices 1 2 3 4 5 6 
#
# 1 0.023105 -0.014045 0.003700 -0.000008 0.004725 0.000003
# 2 -0.014045 0.029472 -0.002419 0.000009 -0.001865 -0.000009
# 3 0.003700 -0.002419 0.020871 0.000000 0.002655 0.000004
# 4 -0.000008 0.000009 0.000000 0.050776 -0.000005 -0.050390
# 5 0.004725 -0.001865 0.002655 -0.000005 0.026962 0.000000
# 6 0.000003 -0.000009 0.000004 -0.050390 0.000000 -0.076283
#
#
# Mechanical properties :
#
#
# Convention : Reuss Voigt Hill
#
# Bulk Modulus (GPa) = 20.86793 23.08124 21.97459
# Shear Modulus (GPa) = 42.95355 17.78290 30.36822
#
# Velocity S-wave (km/s) = 4.74905 3.05569 3.99316
# Velocity P-wave (km/s) = 6.40534 4.95670 5.72701
#
# Compressibility (1/GPa) = 0.04792043
#
# Stress axis : x y z
#
# Youngs Moduli (GPa) = 43.27996 33.93079 47.91372
#
# Poissons Ratio (x) = 0.47654 -0.17726
# Poissons Ratio (y) = 0.60785 0.11590
# Poissons Ratio (z) = -0.16012 0.08207
#
# Static dielectric constant tensor:
#      x y z
#    x 1.644350 0.000000 -0.006860 
#    y 0.000000 1.656240 0.000000 
#    z -0.006860 0.000000 1.628390 
# 
# From -- ./inp_files/13533.got.cif
#   From: 2010.05.17/outbox.cif.g08.bks.cpg/sg8_7_cif.got.tgz:13533.got - 2010.06.03 19:46:02.
