data_PCOD9133555
_publ_section_title
;
Structure prediction by ZEFSAII (Michael W. Deem and Ramdas Pophale) SiO2 
 PCOD9133555
Probable space group: C M
;
_chemical_formula_sum "Si O2"
_cell_formula_units_Z 30
_cell_length_a 11.248034
_cell_length_b 19.261266
_cell_length_c 14.134515
_cell_angle_alpha 90.000000
_cell_angle_beta 154.720687
_cell_angle_gamma 90.000000
_cell_volume 1307.682108
_symmetry_space_group_name_H-M "C M"
_symmetry_group_IT_number 8
_symmetry_cell_setting 'monoclinic'
loop_
_space_group_symop_operation_xyz
x,y,z
x,-y,z
1/2+x,1/2+y,z
1/2+x,1/2-y,z
loop_
_atom_site_type_symbol
_atom_site_label
_atom_site_fract_x
_atom_site_fract_y
_atom_site_fract_z
Si Si1 0.803240 0.181256 0.021510
Si Si2 0.788022 0.686158 0.107784
Si Si3 0.903867 0.270942 0.393467
Si Si4 0.835179 0.921409 0.211984
Si Si5 0.954955 0.000000 0.642908
Si Si6 0.296494 0.603740 0.701561
Si Si7 0.501727 0.924705 0.674303
Si Si8 0.845514 0.124652 0.426690
O O1 0.705545 0.260060 0.965949
O O2 0.736126 0.132302 0.062231
O O3 0.136725 0.193822 0.252456
O O4 0.664300 0.140457 0.835265
O O5 0.806807 0.732924 0.214852
O O6 0.079474 0.650723 0.293751
O O7 0.571331 0.623859 0.958144
O O8 0.989746 0.197700 0.501331
O O9 0.151795 0.324719 0.569870
O O10 0.740155 0.904816 0.249878
O O11 0.173026 0.917598 0.455085
O O12 0.752632 0.000000 0.129198
O O13 0.883329 0.940759 0.673986
O O14 0.991943 0.937183 0.589139
O O15 0.078272 0.572382 0.618774
O O16 0.591088 0.000000 0.779445
#
# Coordination Sequence:
#
# PCOD9133555 Si02
#       8
#     4   4   4   4   2   4   4   4
#     4  11  23  42  69 101 133 178 230 291 348 422
#     4  11  25  44  70 105 137 182 243 289 358 427
#     4  11  23  45  73  99 140 183 237 291 357 419
#     4  11  23  43  67  98 140 184 227 285 355 427
#     4  12  26  48  72 106 148 194 240 288 382 416
#     4  12  25  45  74 105 137 185 235 300 355 425
#     4  11  24  42  67 104 133 175 233 290 350 424
#     4  11  25  47  70 101 146 193 233 293 360 437
#
# _framework density 22.941355999999999
#
# number of rings (size 3 to 8) (size 9 to 14) (size 15 to 20)
#    0.000    0.800    6.667    0.400    1.867    1.600 
#    6.000    0.000    0.000    0.000    0.000    0.000 
#    0.000    0.000    0.000    0.000    0.000    0.000 
#
# Total GULP energy -83510.348247 kJ/mol
# GULP energy per Si atom -5567.356550 kJ/mol
# Density = 2.288914 g / cm^3
# Si number density = 22.941356 Si / 1000 Ang^3
#
#
#
# Elastic Constant Matrix: (Units=GPa)
#
#
# Indices 1 2 3 4 5 6 
#
# 1 95.8701 17.4209 1.4773 -0.0010 -20.8289 0.0096
# 2 17.4209 140.8205 22.1302 -0.0009 -2.2115 0.0030
# 3 1.4773 22.1302 17.3178 -0.0042 -3.1991 0.0372
# 4 -0.0010 -0.0009 -0.0042 21.0576 -0.0010 -19.1368
# 5 -20.8289 -2.2115 -3.1991 -0.0010 25.2257 0.0140
# 6 0.0096 0.0030 0.0372 -19.1368 0.0140 21.3825
#
#
#
# Elastic Compliance Matrix: (Units=1/GPa)
#
#
# Indices 1 2 3 4 5 6 
#
# 1 0.013160 -0.002002 0.003493 -0.000083 0.011133 -0.000093
# 2 -0.002002 0.009202 -0.012026 0.000096 -0.002372 0.000108
# 3 0.003493 -0.012026 0.074908 -0.000589 0.011330 -0.000664
# 4 -0.000083 0.000096 -0.000589 0.254419 -0.000251 0.227700
# 5 0.011133 -0.002372 0.011330 -0.000251 0.050064 -0.000282
# 6 -0.000093 0.000108 -0.000664 0.227700 -0.000282 0.250555
#
#
# Mechanical properties :
#
#
# Convention : Reuss Voigt Hill
#
# Bulk Modulus (GPa) = 13.12360 37.34059 25.23210
# Shear Modulus (GPa) = 7.15534 27.73182 17.44358
#
# Velocity S-wave (km/s) = 1.76798 3.48057 2.76045
# Velocity P-wave (km/s) = 3.14652 5.69775 4.60244
#
# Compressibility (1/GPa) = 0.07619862
#
# Stress axis : x y z
#
# Youngs Moduli (GPa) = 75.99000 108.67676 13.34962
#
# Poissons Ratio (x) = 0.21757 -0.04663
# Poissons Ratio (y) = 0.15213 0.16054
# Poissons Ratio (z) = -0.26540 1.30696
#
# Static dielectric constant tensor:
#      x y z
#    x 1.864730 0.000000 -0.010660 
#    y 0.000000 1.941860 0.000030 
#    z -0.010660 0.000030 1.901970 
# 
# From -- ./inp_files/26236.got.cif
#   From: 2010.05.17/outbox.cif.g08.bks.cpg/sg8_14_cif.got.tgz:26236.got - 2010.06.03 19:46:02.
