data_PCOD9133350
_publ_section_title
;
Structure prediction by ZEFSAII (Michael W. Deem and Ramdas Pophale) SiO2 
 PCOD9133350
Probable space group: C M
;
_chemical_formula_sum "Si O2"
_cell_formula_units_Z 32
_cell_length_a 17.294380
_cell_length_b 13.321203
_cell_length_c 6.532885
_cell_angle_alpha 90.000000
_cell_angle_beta 75.388747
_cell_angle_gamma 90.000000
_cell_volume 1456.384629
_symmetry_space_group_name_H-M "C M"
_symmetry_group_IT_number 8
_symmetry_cell_setting 'monoclinic'
loop_
_space_group_symop_operation_xyz
x,y,z
x,-y,z
1/2+x,1/2+y,z
1/2+x,1/2-y,z
loop_
_atom_site_type_symbol
_atom_site_label
_atom_site_fract_x
_atom_site_fract_y
_atom_site_fract_z
Si Si1 0.503800 0.882696 0.746130
Si Si2 0.617056 0.381953 0.932227
Si Si3 0.802886 0.158368 0.837954
Si Si4 0.197683 0.763032 0.207033
Si Si5 0.414367 0.778790 0.476027
Si Si6 0.432424 0.386340 0.102070
Si Si7 0.173455 0.311519 0.668370
Si Si8 0.359370 0.887542 0.150772
O O1 0.490060 0.811202 0.559327
O O2 0.590282 0.862706 0.781984
O O3 0.496524 0.000000 0.695367
O O4 0.434578 0.859828 0.958074
O O5 0.637824 0.500000 0.896742
O O6 0.635408 0.340441 0.148701
O O7 0.522272 0.370972 0.955573
O O8 0.667431 0.304184 0.759897
O O9 0.849883 0.246349 0.688101
O O10 0.920944 0.192017 0.297320
O O11 0.751115 0.121786 0.676028
O O12 0.724524 0.181232 0.024303
O O13 0.174488 0.708049 0.426760
O O14 0.281711 0.820408 0.177593
O O15 0.368259 0.618931 0.957423
O O16 0.386571 0.874313 0.365495
O O17 0.429300 0.500000 0.187470
O O18 0.336940 0.000000 0.113500
#
# Coordination Sequence:
#
# PCOD9133350 Si02
#       8
#     4   4   4   4   4   4   4   4
#     4  11  25  43  67 100 135 175 223 276 332 399
#     4  10  23  39  61  95 131 167 212 270 334 393
#     4  11  22  41  66  90 130 173 217 270 326 384
#     4  11  21  42  62  95 131 169 217 274 328 385
#     4  12  20  42  66  94 129 172 219 268 330 390
#     4  11  24  42  66  97 130 171 221 268 326 397
#     4  11  23  41  67  95 132 176 219 270 336 391
#     4  11  22  38  65 100 134 173 220 270 330 397
#
# _framework density 21.972216
#
# number of rings (size 3 to 8) (size 9 to 14) (size 15 to 20)
#    0.000    1.000    3.750    3.000    0.000    3.000 
#    0.000    5.000    0.000    0.000    0.000    0.000 
#    0.000    0.000    0.000    0.000    0.000    0.000 
#
# Total GULP energy -89117.401834 kJ/mol
# GULP energy per Si atom -5569.837615 kJ/mol
# Density = 2.192221 g / cm^3
# Si number density = 21.972216 Si / 1000 Ang^3
#
#
#
# Elastic Constant Matrix: (Units=GPa)
#
#
# Indices 1 2 3 4 5 6 
#
# 1 137.5962 16.0292 -0.6500 0.0000 12.8674 0.0000
# 2 16.0292 68.7145 21.6341 0.0000 -1.1893 0.0000
# 3 -0.6500 21.6341 67.1358 0.0000 1.8273 0.0000
# 4 0.0000 0.0000 0.0000 18.2377 0.0000 -1.5300
# 5 12.8674 -1.1893 1.8273 0.0000 31.0425 0.0000
# 6 0.0000 0.0000 0.0000 -1.5300 0.0000 14.7720
#
#
#
# Elastic Compliance Matrix: (Units=1/GPa)
#
#
# Indices 1 2 3 4 5 6 
#
# 1 0.007840 -0.002159 0.000864 0.000000 -0.003383 0.000000
# 2 -0.002159 0.016818 -0.005491 0.000000 0.001863 0.000000
# 3 0.000864 -0.005491 0.016715 0.000000 -0.001552 0.000000
# 4 0.000000 0.000000 0.000000 0.055312 0.000000 0.005729
# 5 -0.003383 0.001863 -0.001552 0.000000 0.033779 0.000000
# 6 0.000000 0.000000 0.000000 0.005729 0.000000 0.068289
#
#
# Mechanical properties :
#
#
# Convention : Reuss Voigt Hill
#
# Bulk Modulus (GPa) = 35.97172 38.60811 37.28992
# Shear Modulus (GPa) = 22.56396 28.57265 25.56831
#
# Velocity S-wave (km/s) = 3.20805 3.61002 3.41495
# Velocity P-wave (km/s) = 5.48900 5.91488 5.70591
#
# Compressibility (1/GPa) = 0.02779962
#
# Stress axis : x y z
#
# Youngs Moduli (GPa) = 127.55675 59.46113 59.82560
#
# Poissons Ratio (x) = 0.12839 -0.05168
# Poissons Ratio (y) = 0.27543 0.32850
# Poissons Ratio (z) = -0.11018 0.32650
#
# Static dielectric constant tensor:
#      x y z
#    x 1.826930 0.000000 0.062860 
#    y 0.000000 1.876380 0.000000 
#    z 0.062860 0.000000 1.877390 
# 
# From -- ./inp_files/5641.got.cif
#   From: 2010.05.17/outbox.cif.g08.bks.cpg/sg8_3_cif.got.tgz:5641.got - 2010.06.03 19:46:02.
