data_PCOD9133901
_publ_section_title
;
Structure prediction by ZEFSAII (Michael W. Deem and Ramdas Pophale) SiO2 
 PCOD9133901
Probable space group: C C
;
_chemical_formula_sum "Si O2"
_cell_formula_units_Z 28
_cell_length_a 16.687201
_cell_length_b 9.485598
_cell_length_c 8.586457
_cell_angle_alpha 90.000000
_cell_angle_beta 101.860117
_cell_angle_gamma 90.000000
_cell_volume 1330.119395
_symmetry_space_group_name_H-M "C C"
_symmetry_group_IT_number 9
_symmetry_cell_setting 'monoclinic'
loop_
_space_group_symop_operation_xyz
x,y,z
x,-y,1/2+z
1/2+x,1/2+y,z
1/2+x,1/2-y,1/2+z
loop_
_atom_site_type_symbol
_atom_site_label
_atom_site_fract_x
_atom_site_fract_y
_atom_site_fract_z
Si Si1 0.100220 0.781574 0.215870
Si Si2 0.724917 0.629992 0.253828
Si Si3 0.367344 0.931656 0.425475
Si Si4 0.122666 0.974005 0.965241
Si Si5 0.444817 0.152155 0.273733
Si Si6 0.286430 0.676678 0.213754
Si Si7 0.324649 0.371953 0.362086
O O1 0.099407 0.885836 0.364154
O O2 0.190881 0.720690 0.211440
O O3 0.032542 0.668975 0.230854
O O4 0.069599 0.883079 0.063014
O O5 0.795399 0.546324 0.374505
O O6 0.696117 0.532325 0.102693
O O7 0.650015 0.633481 0.343031
O O8 0.756936 0.784727 0.235374
O O9 0.382956 0.884282 0.607057
O O10 0.341376 0.801840 0.307104
O O11 0.443262 0.020798 0.390137
O O12 0.409108 0.293208 0.344407
O O13 0.314153 0.533801 0.312192
O O14 0.304055 0.655114 0.036326
#
# Coordination Sequence:
#
# PCOD9133901 Si02
#       7
#     4   4   4   4   4   4   4
#     4  11  25  42  66 102 134 173 221 286 337 399
#     4  10  17  37  66  96 115 170 226 270 310 394
#     4  11  21  42  72  94 130 182 223 271 325 423
#     4  10  19  38  69  92 129 169 225 269 331 397
#     4  11  26  45  66  98 140 172 224 271 358 389
#     4  12  24  41  70  97 133 172 238 272 333 391
#     4  11  24  39  65  97 133 172 221 283 328 401
#
# _framework density 21.050742
#
# number of rings (size 3 to 8) (size 9 to 14) (size 15 to 20)
#    0.000    1.143    4.286    4.286    2.000    3.429 
#    0.000    2.857    0.000    0.000    0.000    0.000 
#    0.000    0.000    0.000    0.000    0.000    0.000 
#
# Total GULP energy -78054.968802 kJ/mol
# GULP energy per Si atom -5575.354914 kJ/mol
# Density = 2.100283 g / cm^3
# Si number density = 21.050742 Si / 1000 Ang^3
#
#
#
# Elastic Constant Matrix: (Units=GPa)
#
#
# Indices 1 2 3 4 5 6 
#
# 1 72.3905 28.2633 29.0465 0.0000 -24.1365 0.0000
# 2 28.2633 129.3183 27.0819 0.0000 -16.1234 0.0000
# 3 29.0465 27.0819 85.3133 0.0000 -29.1356 0.0000
# 4 0.0000 0.0000 0.0000 29.2267 0.0000 -2.0623
# 5 -24.1365 -16.1234 -29.1356 0.0000 17.2111 0.0000
# 6 0.0000 0.0000 0.0000 -2.0623 0.0000 27.4312
#
#
#
# Elastic Compliance Matrix: (Units=1/GPa)
#
#
# Indices 1 2 3 4 5 6 
#
# 1 0.029076 -0.001421 0.009535 0.000000 0.055585 0.000000
# 2 -0.001421 0.008825 -0.000414 0.000000 0.005573 0.000000
# 3 0.009535 -0.000414 0.030911 0.000000 0.065311 0.000000
# 4 0.000000 0.000000 0.000000 0.034398 0.000000 0.002586
# 5 0.055585 0.005573 0.065311 0.000000 0.251835 0.000000
# 6 0.000000 0.000000 0.000000 0.002586 0.000000 0.036649
#
#
# Mechanical properties :
#
#
# Convention : Reuss Voigt Hill
#
# Bulk Modulus (GPa) = 11.87495 50.64505 31.26000
# Shear Modulus (GPa) = 12.36502 28.28250 20.32376
#
# Velocity S-wave (km/s) = 2.42624 3.66941 3.11056
# Velocity P-wave (km/s) = 3.67454 6.48564 5.27095
#
# Compressibility (1/GPa) = 0.08421088
#
# Stress axis : x y z
#
# Youngs Moduli (GPa) = 34.39221 113.31363 32.35064
#
# Poissons Ratio (x) = 0.16104 -0.30845
# Poissons Ratio (y) = 0.04888 0.01341
# Poissons Ratio (z) = -0.32792 0.04696
#
# Static dielectric constant tensor:
#      x y z
#    x 1.847720 0.000000 -0.020830 
#    y 0.000000 1.749490 0.000000 
#    z -0.020830 0.000000 1.786610 
# 
# From -- ./inp_files/10359.got.cif
#   From: 2010.05.17/outbox.cif.g08.bks.cpg/sg9_6_cif.got.tgz:10359.got - 2010.06.03 20:04:27.
