data_PCOD9133728
_publ_section_title
;
Structure prediction by ZEFSAII (Michael W. Deem and Ramdas Pophale) SiO2 
 PCOD9133728
Probable space group: C C
;
_chemical_formula_sum "Si O2"
_cell_formula_units_Z 20
_cell_length_a 25.473514
_cell_length_b 7.553885
_cell_length_c 5.568813
_cell_angle_alpha 90.000000
_cell_angle_beta 48.437771
_cell_angle_gamma 90.000000
_cell_volume 801.789259
_symmetry_space_group_name_H-M "C C"
_symmetry_group_IT_number 9
_symmetry_cell_setting 'monoclinic'
loop_
_space_group_symop_operation_xyz
x,y,z
x,-y,1/2+z
1/2+x,1/2+y,z
1/2+x,1/2-y,1/2+z
loop_
_atom_site_type_symbol
_atom_site_label
_atom_site_fract_x
_atom_site_fract_y
_atom_site_fract_z
Si Si1 0.480720 0.396342 0.275200
Si Si2 0.176586 0.820652 0.176351
Si Si3 0.343351 0.904566 0.684542
Si Si4 0.833966 0.984469 0.221773
Si Si5 0.622173 0.274921 0.840812
O O1 0.494118 0.501140 0.483642
O O2 0.396596 0.372547 0.530956
O O3 0.538711 0.243152 0.100361
O O4 0.154192 0.721455 0.487606
O O5 0.136553 0.010431 0.294656
O O6 0.258758 0.871262 0.937538
O O7 0.157343 0.723970 0.986339
O O8 0.371934 0.705491 0.603146
O O9 0.361048 0.999083 0.380239
O O10 0.794612 0.998296 0.591387
#
# Coordination Sequence:
#
# PCOD9133728 Si02
#       5
#     4   4   4   4   4
#     4  10  16  27  47  68 103 126 170 215 271 297
#     4  10  16  25  44  77 105 120 162 229 280 284
#     4  12  21  35  56  81 113 141 185 225 266 327
#     4  10  23  38  52  78 114 150 180 216 273 329
#     4  10  14  25  43  74 105 119 161 233 278 279
#
# _framework density 24.944210000000002
#
# number of rings (size 3 to 8) (size 9 to 14) (size 15 to 20)
#    0.000    1.600    8.000    1.200    0.000    0.000 
#    0.000    0.000    0.000    0.000    0.000    2.800 
#    0.000    0.000    0.000    0.000    0.000    0.000 
#
# Total GULP energy -55770.655759 kJ/mol
# GULP energy per Si atom -5577.065576 kJ/mol
# Density = 2.488744 g / cm^3
# Si number density = 24.944210 Si / 1000 Ang^3
#
#
#
# Elastic Constant Matrix: (Units=GPa)
#
#
# Indices 1 2 3 4 5 6 
#
# 1 112.5005 19.8268 102.0609 0.0000 49.5664 0.0000
# 2 19.8268 70.1919 19.0786 0.0000 18.3612 0.0000
# 3 102.0609 19.0786 107.9046 0.0000 77.0939 0.0000
# 4 0.0000 0.0000 0.0000 11.5264 0.0000 -0.7817
# 5 49.5664 18.3612 77.0939 0.0000 96.9092 0.0000
# 6 0.0000 0.0000 0.0000 -0.7817 0.0000 14.5276
#
#
#
# Elastic Compliance Matrix: (Units=1/GPa)
#
#
# Indices 1 2 3 4 5 6 
#
# 1 0.379610 -0.025327 -0.508038 0.000000 0.214797 0.000000
# 2 -0.025327 0.016776 0.032447 0.000000 -0.016037 0.000000
# 3 -0.508038 0.032447 0.701525 0.000000 -0.304383 0.000000
# 4 0.000000 0.000000 0.000000 0.087075 0.000000 0.004685
# 5 0.214797 -0.016037 -0.304383 0.000000 0.145640 0.000000
# 6 0.000000 0.000000 0.000000 0.004685 0.000000 0.069087
#
#
# Mechanical properties :
#
#
# Convention : Reuss Voigt Hill
#
# Bulk Modulus (GPa) = 10.40843 63.61441 37.01142
# Shear Modulus (GPa) = 2.05459 34.56802 18.31131
#
# Velocity S-wave (km/s) = 0.90855 3.72669 2.71235
# Velocity P-wave (km/s) = 2.29834 6.63895 4.96780
#
# Compressibility (1/GPa) = 0.09607594
#
# Stress axis : x y z
#
# Youngs Moduli (GPa) = 2.63429 59.60743 1.42547
#
# Poissons Ratio (x) = 1.50967 0.72419
# Poissons Ratio (y) = 0.06672 -0.04625
# Poissons Ratio (z) = 1.33832 -1.93408
#
# Static dielectric constant tensor:
#      x y z
#    x 2.004730 0.000000 0.023130 
#    y 0.000000 2.016590 0.000000 
#    z 0.023130 0.000000 2.011320 
# 
# From -- ./inp_files/2834.got.cif
#   From: 2010.05.17/outbox.cif.g08.bks.cpg/sg9_2_cif.got.tgz:2834.got - 2010.06.03 20:04:27.
