data_PCOD9133100
_publ_section_title
;
Structure prediction by ZEFSAII (Michael W. Deem and Ramdas Pophale) SiO2 
 PCOD9133100
Probable space group: C M
;
_chemical_formula_sum "Si O2"
_cell_formula_units_Z 20
_cell_length_a 5.682343
_cell_length_b 24.891090
_cell_length_c 6.748458
_cell_angle_alpha 90.000000
_cell_angle_beta 108.438335
_cell_angle_gamma 90.000000
_cell_volume 905.500320
_symmetry_space_group_name_H-M "C M"
_symmetry_group_IT_number 8
_symmetry_cell_setting 'monoclinic'
loop_
_space_group_symop_operation_xyz
x,y,z
x,-y,z
1/2+x,1/2+y,z
1/2+x,1/2-y,z
loop_
_atom_site_type_symbol
_atom_site_label
_atom_site_fract_x
_atom_site_fract_y
_atom_site_fract_z
Si Si1 0.921070 0.635006 0.140460
Si Si2 0.599175 0.440171 0.294471
Si Si3 0.645251 0.063804 0.862953
Si Si4 0.108055 0.781766 0.853880
Si Si5 0.840192 0.870011 0.536341
O O1 0.824238 0.592888 0.272241
O O2 0.168374 0.654987 0.315498
O O3 0.717767 0.680705 0.056367
O O4 0.965258 0.601006 0.950876
O O5 0.678669 0.500000 0.350216
O O6 0.494182 0.415345 0.465047
O O7 0.389487 0.438612 0.068012
O O8 0.709238 0.099172 0.686014
O O9 0.575413 0.000000 0.813611
O O10 0.355987 0.749516 0.850191
O O11 0.014025 0.823029 0.663005
#
# Coordination Sequence:
#
# PCOD9133100 Si02
#       5
#     4   4   4   4   4
#     4  11  25  45  72 104 150 187 245 306 364 441
#     4  10  22  41  70 109 148 188 232 292 372 450
#     4  10  21  42  70 106 152 197 233 291 369 449
#     4  12  29  51  76 105 144 199 259 315 371 424
#     4  11  25  45  73 104 147 189 247 302 366 442
#
# _framework density 22.087237999999999
#
# number of rings (size 3 to 8) (size 9 to 14) (size 15 to 20)
#    0.000    1.200    2.000    2.400    8.400    4.000 
#    0.000    0.000    0.000    0.000    0.000    0.000 
#    0.000    0.000    0.000    0.000    0.000    0.000 
#
# Total GULP energy -55829.017082 kJ/mol
# GULP energy per Si atom -5582.901708 kJ/mol
# Density = 2.203697 g / cm^3
# Si number density = 22.087238 Si / 1000 Ang^3
#
#
#
# Elastic Constant Matrix: (Units=GPa)
#
#
# Indices 1 2 3 4 5 6 
#
# 1 107.3980 62.2006 53.7749 0.0000 -8.4412 0.0000
# 2 62.2006 118.8512 60.1178 0.0000 19.7147 0.0000
# 3 53.7749 60.1178 117.4315 0.0000 -6.4829 0.0000
# 4 0.0000 0.0000 0.0000 36.9737 0.0000 1.6375
# 5 -8.4412 19.7147 -6.4829 0.0000 46.7686 0.0000
# 6 0.0000 0.0000 0.0000 1.6375 0.0000 40.1157
#
#
#
# Elastic Compliance Matrix: (Units=1/GPa)
#
#
# Indices 1 2 3 4 5 6 
#
# 1 0.015652 -0.007635 -0.002948 0.000000 0.005635 0.000000
# 2 -0.007635 0.016772 -0.005599 0.000000 -0.009224 0.000000
# 3 -0.002948 -0.005599 0.012932 0.000000 0.003621 0.000000
# 4 0.000000 0.000000 0.000000 0.027095 0.000000 -0.001106
# 5 0.005635 -0.009224 0.003621 0.000000 0.026789 0.000000
# 6 0.000000 0.000000 0.000000 -0.001106 0.000000 0.024973
#
#
# Mechanical properties :
#
#
# Convention : Reuss Voigt Hill
#
# Bulk Modulus (GPa) = 76.97152 77.31859 77.14506
# Shear Modulus (GPa) = 31.07379 35.94410 33.50895
#
# Velocity S-wave (km/s) = 3.75489 4.03844 3.89925
# Velocity P-wave (km/s) = 7.32963 7.53839 7.43474
#
# Compressibility (1/GPa) = 0.01299182
#
# Stress axis : x y z
#
# Youngs Moduli (GPa) = 63.89004 59.62324 77.32934
#
# Poissons Ratio (x) = 0.45523 0.22794
# Poissons Ratio (y) = 0.48781 0.43298
# Poissons Ratio (z) = 0.18832 0.33384
#
# Static dielectric constant tensor:
#      x y z
#    x 1.858630 0.000000 0.021890 
#    y 0.000000 1.799180 0.000000 
#    z 0.021890 0.000000 1.773750 
# 
# From -- ./inp_files/517.got.cif
#   From: 2010.05.17/outbox.cif.g08.bks.cpg/sg8_1_cif.got.tgz:517.got - 2010.06.03 19:46:02.
