data_PCOD9133322
_publ_section_title
;
Structure prediction by ZEFSAII (Michael W. Deem and Ramdas Pophale) SiO2 
 PCOD9133322
Probable space group: C M
;
_chemical_formula_sum "Si O2"
_cell_formula_units_Z 32
_cell_length_a 5.295740
_cell_length_b 26.030726
_cell_length_c 11.918538
_cell_angle_alpha 90.000000
_cell_angle_beta 111.971932
_cell_angle_gamma 90.000000
_cell_volume 1523.658638
_symmetry_space_group_name_H-M "C M"
_symmetry_group_IT_number 8
_symmetry_cell_setting 'monoclinic'
loop_
_space_group_symop_operation_xyz
x,y,z
x,-y,z
1/2+x,1/2+y,z
1/2+x,1/2-y,z
loop_
_atom_site_type_symbol
_atom_site_label
_atom_site_fract_x
_atom_site_fract_y
_atom_site_fract_z
Si Si1 0.871910 0.281721 0.876800
Si Si2 0.329553 0.444305 0.712965
Si Si3 0.827572 0.106763 0.278832
Si Si4 0.645227 0.216035 0.160544
Si Si5 0.085885 0.940699 0.533272
Si Si6 0.740614 0.438749 0.168829
Si Si7 0.876757 0.443854 0.943558
Si Si8 0.989255 0.380049 0.767281
O O1 0.574537 0.261672 0.860872
O O2 0.870565 0.326658 0.784923
O O3 0.021533 0.298622 0.017507
O O4 0.195578 0.500000 0.725567
O O5 0.337345 0.443677 0.580425
O O6 0.623800 0.449877 0.818214
O O7 0.262930 0.386653 0.743447
O O8 0.743341 0.165398 0.241726
O O9 0.019378 0.093819 0.415883
O O10 0.545963 0.076541 0.257503
O O11 0.997936 0.087039 0.198712
O O12 0.402083 0.246529 0.181792
O O13 0.311808 0.913547 0.649122
O O14 0.148298 0.000000 0.511726
O O15 0.704364 0.500000 0.169383
O O16 0.761863 0.423331 0.041127
O O17 0.002242 0.500000 0.986330
O O18 0.061239 0.408616 0.896698
#
# Coordination Sequence:
#
# PCOD9133322 Si02
#       8
#     4   4   4   4   4   4   4   4
#     4  10  24  41  65  95 127 160 209 276 332 388
#     4   9  19  35  59  88 124 165 209 256 313 387
#     4  12  25  43  67  93 128 181 224 265 327 388
#     4  10  22  44  68  95 126 165 220 281 336 388
#     4  10  23  41  61  94 132 173 222 261 309 386
#     4  11  24  39  60  96 136 168 211 269 331 401
#     4   9  20  34  55  92 126 158 204 259 323 395
#     4  11  21  37  65  87 125 170 213 259 327 385
#
# _framework density 21.002081
#
# number of rings (size 3 to 8) (size 9 to 14) (size 15 to 20)
#    0.000    1.750    0.000    4.500    8.750    1.000 
#    0.000    1.250    0.000    0.000    0.000    0.000 
#    0.000    0.000    0.000    0.000    0.000    0.000 
#
# Total GULP energy -89096.185847 kJ/mol
# GULP energy per Si atom -5568.511615 kJ/mol
# Density = 2.095428 g / cm^3
# Si number density = 21.002081 Si / 1000 Ang^3
#
#
#
# Elastic Constant Matrix: (Units=GPa)
#
#
# Indices 1 2 3 4 5 6 
#
# 1 51.1042 3.4746 -7.7584 0.0000 0.0863 0.0000
# 2 3.4746 60.4057 24.4453 0.0000 -2.3311 0.0000
# 3 -7.7584 24.4453 73.9951 0.0000 -4.8783 0.0000
# 4 0.0000 0.0000 0.0000 204.1373 0.0000 -139.3891
# 5 0.0863 -2.3311 -4.8783 0.0000 20.9957 0.0000
# 6 0.0000 0.0000 0.0000 -139.3891 0.0000 129.4653
#
#
#
# Elastic Compliance Matrix: (Units=1/GPa)
#
#
# Indices 1 2 3 4 5 6 
#
# 1 0.020166 -0.002322 0.002904 0.000000 0.000334 0.000000
# 2 -0.002322 0.019386 -0.006607 0.000000 0.000627 0.000000
# 3 0.002904 -0.006607 0.016200 0.000000 0.003019 0.000000
# 4 0.000000 0.000000 0.000000 0.018497 0.000000 0.019915
# 5 0.000334 0.000627 0.003019 0.000000 0.048398 0.000000
# 6 0.000000 0.000000 0.000000 0.019915 0.000000 0.029165
#
#
# Mechanical properties :
#
#
# Convention : Reuss Voigt Hill
#
# Bulk Modulus (GPa) = 22.88213 25.09199 23.98706
# Shear Modulus (GPa) = 28.02215 81.94258 54.98236
#
# Velocity S-wave (km/s) = 3.65671 6.25309 5.12214
# Velocity P-wave (km/s) = 5.36167 8.00676 6.81380
#
# Compressibility (1/GPa) = 0.04370223
#
# Stress axis : x y z
#
# Youngs Moduli (GPa) = 49.58842 51.58337 61.72678
#
# Poissons Ratio (x) = 0.11978 -0.17923
# Poissons Ratio (y) = 0.11515 0.40780
# Poissons Ratio (z) = -0.14398 0.34079
#
# Static dielectric constant tensor:
#      x y z
#    x 1.952890 0.000000 0.018840 
#    y 0.000000 1.454410 0.000000 
#    z 0.018840 0.000000 1.738500 
# 
# From -- ./inp_files/18190.got.cif
#   From: 2010.05.17/outbox.cif.g08.bks.cpg/sg8_10_cif.got.tgz:18190.got - 2010.06.03 19:46:02.
