data_PCOD9133057
_publ_section_title
;
Structure prediction by ZEFSAII (Michael W. Deem and Ramdas Pophale) SiO2 
 PCOD9133057
Probable space group: C M
;
_chemical_formula_sum "Si O2"
_cell_formula_units_Z 28
_cell_length_a 6.631368
_cell_length_b 30.088620
_cell_length_c 5.691933
_cell_angle_alpha 90.000000
_cell_angle_beta 108.462240
_cell_angle_gamma 90.000000
_cell_volume 1077.252284
_symmetry_space_group_name_H-M "C M"
_symmetry_group_IT_number 8
_symmetry_cell_setting 'monoclinic'
loop_
_space_group_symop_operation_xyz
x,y,z
x,-y,z
1/2+x,1/2+y,z
1/2+x,1/2-y,z
loop_
_atom_site_type_symbol
_atom_site_label
_atom_site_fract_x
_atom_site_fract_y
_atom_site_fract_z
Si Si1 0.979080 0.366351 0.033580
Si Si2 0.687198 0.582839 0.265952
Si Si3 0.921511 0.547633 0.739544
Si Si4 0.999710 0.763956 0.565051
Si Si5 0.453008 0.547626 0.792402
Si Si6 0.375220 0.763955 0.966363
Si Si7 0.895340 0.133654 0.498534
O O1 0.783096 0.384858 0.109565
O O2 0.187098 0.363113 0.266191
O O3 0.017674 0.406370 0.865251
O O4 0.919922 0.316759 0.944870
O O5 0.872183 0.553131 0.445886
O O6 0.591113 0.615115 0.422256
O O7 0.502386 0.553089 0.086079
O O8 0.018807 0.500000 0.841032
O O9 0.687243 0.545679 0.765928
O O10 0.101673 0.755516 0.904953
O O11 0.773294 0.744429 0.626378
O O12 0.954762 0.816743 0.586910
O O13 0.937476 0.750022 0.265684
O O14 0.355675 0.500000 0.690801
O O15 0.356861 0.593646 0.666998
#
# Coordination Sequence:
#
# PCOD9133057 Si02
#       7
#     4   4   4   4   4   4   4
#     4  11  25  43  66  98 137 177 230 287 351 422
#     4  10  21  40  68  92 134 176 228 280 353 414
#     4   9  19  38  64  95 131 175 226 282 347 417
#     4  12  27  48  74 106 143 187 239 298 363 430
#     4   9  19  38  64  95 131 175 226 282 347 417
#     4  12  27  48  74 106 143 187 239 298 363 430
#     4  11  25  43  66  98 137 177 230 287 351 422
#
# _framework density 25.992054
#
# number of rings (size 3 to 8) (size 9 to 14) (size 15 to 20)
#    0.000    1.429    0.000    5.571    8.000    2.857 
#    0.000    1.429    0.000    0.000    0.000    0.000 
#    0.000    0.000    0.000    0.000    0.000    0.000 
#
# Total GULP energy -78027.278707 kJ/mol
# GULP energy per Si atom -5573.377050 kJ/mol
# Density = 2.593289 g / cm^3
# Si number density = 25.992054 Si / 1000 Ang^3
#
#
#
# Elastic Constant Matrix: (Units=GPa)
#
#
# Indices 1 2 3 4 5 6 
#
# 1 168.0203 56.0413 71.9611 0.0000 0.4294 0.0000
# 2 56.0413 306.6090 107.2480 0.0000 7.5721 0.0000
# 3 71.9611 107.2480 175.4823 0.0000 22.1817 0.0000
# 4 0.0000 0.0000 0.0000 -13.0081 0.0000 36.4787
# 5 0.4294 7.5721 22.1817 0.0000 82.1967 0.0000
# 6 0.0000 0.0000 0.0000 36.4787 0.0000 -50.6835
#
#
#
# Elastic Compliance Matrix: (Units=1/GPa)
#
#
# Indices 1 2 3 4 5 6 
#
# 1 0.007298 -0.000346 -0.002879 0.000000 0.000771 0.000000
# 2 -0.000346 0.004172 -0.002443 0.000000 0.000277 0.000000
# 3 -0.002879 -0.002443 0.008636 0.000000 -0.002091 0.000000
# 4 0.000000 0.000000 0.000000 0.075490 0.000000 0.054333
# 5 0.000771 0.000277 -0.002091 0.000000 0.012701 0.000000
# 6 0.000000 0.000000 0.000000 0.054333 0.000000 0.019375
#
#
# Mechanical properties :
#
#
# Convention : Reuss Voigt Hill
#
# Bulk Modulus (GPa) = 114.00849 124.51250 119.26049
# Shear Modulus (GPa) = 35.22831 31.35843 33.29337
#
# Velocity S-wave (km/s) = 3.68550 3.47718 3.58286
# Velocity P-wave (km/s) = 7.87836 8.00807 7.94348
#
# Compressibility (1/GPa) = 0.00877128
#
# Stress axis : x y z
#
# Youngs Moduli (GPa) = 137.02380 239.66598 115.78812
#
# Poissons Ratio (x) = 0.08293 0.33332
# Poissons Ratio (y) = 0.04741 0.28289
# Poissons Ratio (z) = 0.39445 0.58554
#
# Static dielectric constant tensor:
#      x y z
#    x 2.353210 0.000000 0.074950 
#    y 0.000000 1.968860 0.000000 
#    z 0.074950 0.000000 2.297490 
# 
# From -- ./inp_files/2025.got.cif
#   From: 2010.05.17/outbox.cif.g08.bks.cpg/sg8_2_cif.got.tgz:2025.got - 2010.06.03 19:46:02.
