data_PCOD9133131
_publ_section_title
;
Structure prediction by ZEFSAII (Michael W. Deem and Ramdas Pophale) SiO2 
 PCOD9133131
Probable space group: C M
;
_chemical_formula_sum "Si O2"
_cell_formula_units_Z 26
_cell_length_a 15.515015
_cell_length_b 7.715268
_cell_length_c 9.623568
_cell_angle_alpha 90.000000
_cell_angle_beta 80.354290
_cell_angle_gamma 90.000000
_cell_volume 1135.679433
_symmetry_space_group_name_H-M "C M"
_symmetry_group_IT_number 8
_symmetry_cell_setting 'monoclinic'
loop_
_space_group_symop_operation_xyz
x,y,z
x,-y,z
1/2+x,1/2+y,z
1/2+x,1/2-y,z
loop_
_atom_site_type_symbol
_atom_site_label
_atom_site_fract_x
_atom_site_fract_y
_atom_site_fract_z
Si Si1 0.089700 0.205421 0.423190
Si Si2 0.916107 0.207096 0.648942
Si Si3 0.218277 0.704144 0.627652
Si Si4 0.730881 0.500000 0.028051
Si Si5 0.408390 0.000000 0.861287
Si Si6 0.492049 0.701957 0.189140
Si Si7 0.618844 0.789698 0.932180
Si Si8 0.873582 0.500000 0.187325
O O1 0.170468 0.269036 0.493514
O O2 0.068594 0.265853 0.272992
O O3 0.997182 0.239667 0.524988
O O4 0.100712 0.000000 0.414211
O O5 0.819632 0.262451 0.617230
O O6 0.937412 0.328580 0.774477
O O7 0.913858 0.000000 0.679975
O O8 0.224312 0.500000 0.648090
O O9 0.151505 0.763960 0.768637
O O10 0.804018 0.500000 0.889197
O O11 0.683344 0.679786 0.013245
O O12 0.773565 0.500000 0.169134
O O13 0.420165 0.000000 0.022385
O O14 0.473276 0.500000 0.221093
O O15 0.409327 0.823923 0.241839
O O16 0.528446 0.721203 0.022827
O O17 0.622373 0.000000 0.941252
#
# Coordination Sequence:
#
# PCOD9133131 Si02
#       8
#     4   4   4   2   2   4   4   2
#     4  10  25  42  62  91 128 167 215 257 313 375
#     4  10  22  42  62  92 134 161 206 264 311 378
#     4  10  22  38  65  95 120 164 208 257 319 370
#     4  10  22  40  62  98 129 158 208 266 316 382
#     4  10  22  37  65  98 126 155 209 261 320 379
#     4  11  24  43  62  91 129 169 213 262 308 378
#     4  11  22  40  67  94 129 161 210 263 316 377
#     4  10  24  41  63  92 129 161 215 259 320 377
#
# _framework density 22.893782999999999
#
# number of rings (size 3 to 8) (size 9 to 14) (size 15 to 20)
#    0.462    1.231    3.077    0.000    6.462    1.231 
#    2.769    0.000    0.000    0.000    0.000    0.000 
#    0.000    0.000    0.000    0.000    0.000    0.000 
#
# Total GULP energy -72420.594579 kJ/mol
# GULP energy per Si atom -5570.814968 kJ/mol
# Density = 2.284168 g / cm^3
# Si number density = 22.893783 Si / 1000 Ang^3
#
#
#
# Elastic Constant Matrix: (Units=GPa)
#
#
# Indices 1 2 3 4 5 6 
#
# 1 51.5946 1.3328 9.6777 0.0000 8.2546 0.0000
# 2 1.3328 71.9065 1.0089 0.0000 -0.8165 0.0000
# 3 9.6777 1.0089 74.1746 0.0000 6.6570 0.0000
# 4 0.0000 0.0000 0.0000 28.0760 0.0000 3.0832
# 5 8.2546 -0.8165 6.6570 0.0000 38.7160 0.0000
# 6 0.0000 0.0000 0.0000 3.0832 0.0000 46.5708
#
#
#
# Elastic Compliance Matrix: (Units=1/GPa)
#
#
# Indices 1 2 3 4 5 6 
#
# 1 0.020461 -0.000392 -0.002308 0.000000 -0.003974 0.000000
# 2 -0.000392 0.013921 -0.000175 0.000000 0.000407 0.000000
# 3 -0.002308 -0.000175 0.013957 0.000000 -0.001911 0.000000
# 4 0.000000 0.000000 0.000000 0.035878 0.000000 -0.002375
# 5 -0.003974 0.000407 -0.001911 0.000000 0.027014 0.000000
# 6 0.000000 0.000000 0.000000 -0.002375 0.000000 0.021630
#
#
# Mechanical properties :
#
#
# Convention : Reuss Voigt Hill
#
# Bulk Modulus (GPa) = 23.47968 24.63494 24.05731
# Shear Modulus (GPa) = 32.72126 35.04965 33.88546
#
# Velocity S-wave (km/s) = 3.78466 3.91700 3.85140
# Velocity P-wave (km/s) = 5.42000 5.58938 5.50534
#
# Compressibility (1/GPa) = 0.04259002
#
# Stress axis : x y z
#
# Youngs Moduli (GPa) = 48.87441 71.83246 71.65016
#
# Poissons Ratio (x) = 0.02816 0.16534
# Poissons Ratio (y) = 0.01916 0.01252
# Poissons Ratio (z) = 0.11278 0.01255
#
# Static dielectric constant tensor:
#      x y z
#    x 1.951080 0.000000 0.016740 
#    y 0.000000 1.847070 0.000000 
#    z 0.016740 0.000000 1.884240 
# 
# From -- ./inp_files/14487.got.cif
#   From: 2010.05.17/outbox.cif.g08.bks.cpg/sg8_8_cif.got.tgz:14487.got - 2010.06.03 19:46:02.
