data_PCOD9133726
_publ_section_title
;
Structure prediction by ZEFSAII (Michael W. Deem and Ramdas Pophale) SiO2 
 PCOD9133726
Probable space group: C C
;
_chemical_formula_sum "Si O2"
_cell_formula_units_Z 32
_cell_length_a 18.936200
_cell_length_b 7.538437
_cell_length_c 11.597812
_cell_angle_alpha 90.000000
_cell_angle_beta 128.202760
_cell_angle_gamma 90.000000
_cell_volume 1300.999739
_symmetry_space_group_name_H-M "C C"
_symmetry_group_IT_number 9
_symmetry_cell_setting 'monoclinic'
loop_
_space_group_symop_operation_xyz
x,y,z
x,-y,1/2+z
1/2+x,1/2+y,z
1/2+x,1/2-y,1/2+z
loop_
_atom_site_type_symbol
_atom_site_label
_atom_site_fract_x
_atom_site_fract_y
_atom_site_fract_z
Si Si1 0.587590 0.165205 0.765400
Si Si2 0.460581 0.830121 0.699567
Si Si3 0.279497 0.044025 0.290399
Si Si4 0.472451 0.188198 0.453349
Si Si5 0.219578 0.410308 0.808872
Si Si6 0.756052 0.404635 0.509861
Si Si7 0.892057 0.821753 0.902826
Si Si8 0.063157 0.296947 0.491084
O O1 0.527819 0.270423 0.613852
O O2 0.605029 0.234565 0.908843
O O3 0.529620 0.983580 0.733807
O O4 0.675930 0.096093 0.794380
O O5 0.484107 0.728637 0.839742
O O6 0.364601 0.923621 0.626504
O O7 0.442854 0.702300 0.575658
O O8 0.368929 0.166612 0.384029
O O9 0.227241 0.076874 0.115620
O O10 0.233357 0.023904 0.371632
O O11 0.330277 0.853778 0.325334
O O12 0.517065 0.991593 0.471295
O O13 0.310522 0.454790 0.831905
O O14 0.145602 0.297763 0.662745
O O15 0.237739 0.294489 0.942581
O O16 0.975650 0.827975 0.904117
#
# Coordination Sequence:
#
# PCOD9133726 Si02
#       8
#     4   4   4   4   4   4   4   4
#     4  10  14  24  41  66  93 115 153 191 238 279
#     4   8  12  21  36  61  85 108 140 179 227 271
#     4   8  13  22  38  63  90 117 146 183 238 284
#     4   8  12  19  36  61  84 107 137 181 224 272
#     4   9  17  27  41  71  95 121 154 198 233 288
#     4   9  15  24  41  64  92 119 151 190 237 283
#     4   9  15  26  43  68  93 115 150 195 240 275
#     4   9  16  25  42  66  90 116 155 195 231 272
#
# _framework density 24.59647
#
# number of rings (size 3 to 8) (size 9 to 14) (size 15 to 20)
#    0.000    3.500    5.000    0.750    0.000    0.000 
#    0.000    0.000    0.000    9.000    6.500    0.000 
#    0.000    0.000    0.000    0.000    0.000    0.000 
#
# Total GULP energy -89071.357195 kJ/mol
# GULP energy per Si atom -5566.959825 kJ/mol
# Density = 2.454049 g / cm^3
# Si number density = 24.596470 Si / 1000 Ang^3
#
#
#
# Elastic Constant Matrix: (Units=GPa)
#
#
# Indices 1 2 3 4 5 6 
#
# 1 47.7131 -4.1965 15.2779 0.0000 8.0288 0.0000
# 2 -4.1965 52.0984 16.0537 0.0000 12.0058 0.0000
# 3 15.2779 16.0537 121.8405 0.0000 -22.5196 0.0000
# 4 0.0000 0.0000 0.0000 5.7134 0.0000 0.5190
# 5 8.0288 12.0058 -22.5196 0.0000 46.1307 0.0000
# 6 0.0000 0.0000 0.0000 0.5190 0.0000 1.5460
#
#
#
# Elastic Compliance Matrix: (Units=1/GPa)
#
#
# Indices 1 2 3 4 5 6 
#
# 1 0.024561 0.005547 -0.005350 0.000000 -0.008330 0.000000
# 2 0.005547 0.023653 -0.005637 0.000000 -0.009873 0.000000
# 3 -0.005350 -0.005637 0.011062 0.000000 0.007799 0.000000
# 4 0.000000 0.000000 0.000000 0.180534 0.000000 -0.060609
# 5 -0.008330 -0.009873 0.007799 0.000000 0.029504 0.000000
# 6 0.000000 0.000000 0.000000 -0.060609 0.000000 0.667186
#
#
# Mechanical properties :
#
#
# Convention : Reuss Voigt Hill
#
# Bulk Modulus (GPa) = 20.66278 30.65802 25.66040
# Shear Modulus (GPa) = 5.18934 23.64579 14.41757
#
# Velocity S-wave (km/s) = 1.45409 3.10393 2.42371
# Velocity P-wave (km/s) = 3.35233 5.03361 4.27641
#
# Compressibility (1/GPa) = 0.04839620
#
# Stress axis : x y z
#
# Youngs Moduli (GPa) = 40.71430 42.27723 90.39574
#
# Poissons Ratio (x) = -0.23450 0.48365
# Poissons Ratio (y) = -0.22583 0.50955
# Poissons Ratio (z) = 0.21783 0.23831
#
# Static dielectric constant tensor:
#      x y z
#    x 2.025710 0.000000 -0.048150 
#    y 0.000000 2.062470 0.000000 
#    z -0.048150 0.000000 1.992260 
# 
# From -- ./inp_files/18344.got.cif
#   From: 2010.05.17/outbox.cif.g08.bks.cpg/sg9_10_cif.got.tgz:18344.got - 2010.06.03 20:04:27.
