data_PCOD9133863
_publ_section_title
;
Structure prediction by ZEFSAII (Michael W. Deem and Ramdas Pophale) SiO2 
 PCOD9133863
Probable space group: C C
;
_chemical_formula_sum "Si O2"
_cell_formula_units_Z 28
_cell_length_a 10.975102
_cell_length_b 13.471051
_cell_length_c 8.243850
_cell_angle_alpha 90.000000
_cell_angle_beta 118.987258
_cell_angle_gamma 90.000000
_cell_volume 1066.136735
_symmetry_space_group_name_H-M "C C"
_symmetry_group_IT_number 9
_symmetry_cell_setting 'monoclinic'
loop_
_space_group_symop_operation_xyz
x,y,z
x,-y,1/2+z
1/2+x,1/2+y,z
1/2+x,1/2-y,1/2+z
loop_
_atom_site_type_symbol
_atom_site_label
_atom_site_fract_x
_atom_site_fract_y
_atom_site_fract_z
Si Si1 0.086220 0.798499 0.064610
Si Si2 0.969633 0.146924 0.012622
Si Si3 0.045610 0.011586 0.363289
Si Si4 0.339553 0.890679 0.553446
Si Si5 0.898569 0.695506 0.675856
Si Si6 0.166296 0.708314 0.451815
Si Si7 0.995987 0.451138 0.973252
O O1 0.249008 0.828181 0.150440
O O2 0.092913 0.733471 0.232504
O O3 0.023208 0.908337 0.995015
O O4 0.011700 0.739577 0.871443
O O5 0.856447 0.216639 0.020319
O O6 0.024412 0.075903 0.189816
O O7 0.085139 0.226429 0.033259
O O8 0.940824 0.077829 0.840573
O O9 0.194409 0.954245 0.445781
O O10 0.307405 0.772088 0.524144
O O11 0.390901 0.913201 0.767837
O O12 0.448867 0.938689 0.495278
O O13 0.964491 0.605629 0.620210
O O14 0.140005 0.594396 0.490363
#
# Coordination Sequence:
#
# PCOD9133863 Si02
#       7
#     4   4   4   4   4   4   4
#     4  11  22  40  65 102 137 189 240 302 372 438
#     4   9  19  36  59 100 132 175 231 303 356 425
#     4  10  17  33  64  96 130 176 247 290 348 443
#     4  11  21  38  69 102 137 193 238 307 365 441
#     4  10  24  40  66 101 141 185 242 304 369 441
#     4  10  23  38  62 104 140 183 239 303 367 440
#     4  11  24  39  67 107 141 183 251 307 365 444
#
# _framework density 26.263047
#
# number of rings (size 3 to 8) (size 9 to 14) (size 15 to 20)
#    0.000    1.714    1.429    4.286    8.000    0.000 
#    0.000    0.000    0.000   10.286    0.000    0.000 
#    0.000    0.000    0.000    0.000    0.000    0.000 
#
# Total GULP energy -78103.505226 kJ/mol
# GULP energy per Si atom -5578.821802 kJ/mol
# Density = 2.620327 g / cm^3
# Si number density = 26.263047 Si / 1000 Ang^3
#
#
#
# Elastic Constant Matrix: (Units=GPa)
#
#
# Indices 1 2 3 4 5 6 
#
# 1 50.6303 31.8861 26.7461 0.0000 -5.2740 0.0000
# 2 31.8861 123.3821 14.2604 0.0000 0.1698 0.0000
# 3 26.7461 14.2604 101.7932 0.0000 -1.4782 0.0000
# 4 0.0000 0.0000 0.0000 47.5448 0.0000 -17.4851
# 5 -5.2740 0.1698 -1.4782 0.0000 39.2570 0.0000
# 6 0.0000 0.0000 0.0000 -17.4851 0.0000 55.1920
#
#
#
# Elastic Compliance Matrix: (Units=1/GPa)
#
#
# Indices 1 2 3 4 5 6 
#
# 1 0.027435 -0.006371 -0.006266 0.000000 0.003477 0.000000
# 2 -0.006371 0.009718 0.000300 0.000000 -0.000887 0.000000
# 3 -0.006266 0.000300 0.011422 0.000000 -0.000413 0.000000
# 4 0.000000 0.000000 0.000000 0.023806 0.000000 0.007542
# 5 0.003477 -0.000887 -0.000413 0.000000 0.025929 0.000000
# 6 0.000000 0.000000 0.000000 0.007542 0.000000 0.020508
#
#
# Mechanical properties :
#
#
# Convention : Reuss Voigt Hill
#
# Bulk Modulus (GPa) = 41.83779 46.84343 44.34061
# Shear Modulus (GPa) = 33.01213 41.92629 37.46921
#
# Velocity S-wave (km/s) = 3.54924 3.99983 3.78125
# Velocity P-wave (km/s) = 5.72372 6.26151 5.99864
#
# Compressibility (1/GPa) = 0.02390184
#
# Stress axis : x y z
#
# Youngs Moduli (GPa) = 36.44922 102.90256 87.54908
#
# Poissons Ratio (x) = 0.65558 0.54855
# Poissons Ratio (y) = 0.23221 -0.02624
# Poissons Ratio (z) = 0.22838 -0.03084
#
# Static dielectric constant tensor:
#      x y z
#    x 2.148260 0.000000 -0.103620 
#    y 0.000000 2.104210 0.000000 
#    z -0.103620 0.000000 2.136010 
# 
# From -- ./inp_files/7339.got.cif
#   From: 2010.05.17/outbox.cif.g08.bks.cpg/sg9_4_cif.got.tgz:7339.got - 2010.06.03 20:04:27.
