data_PCOD9133377
_publ_section_title
;
Structure prediction by ZEFSAII (Michael W. Deem and Ramdas Pophale) SiO2 
 PCOD9133377
Probable space group: C M
;
_chemical_formula_sum "Si O2"
_cell_formula_units_Z 32
_cell_length_a 14.875639
_cell_length_b 8.381955
_cell_length_c 11.105852
_cell_angle_alpha 90.000000
_cell_angle_beta 101.292170
_cell_angle_gamma 90.000000
_cell_volume 1357.947791
_symmetry_space_group_name_H-M "C M"
_symmetry_group_IT_number 8
_symmetry_cell_setting 'monoclinic'
loop_
_space_group_symop_operation_xyz
x,y,z
x,-y,z
1/2+x,1/2+y,z
1/2+x,1/2-y,z
loop_
_atom_site_type_symbol
_atom_site_label
_atom_site_fract_x
_atom_site_fract_y
_atom_site_fract_z
Si Si1 0.907400 0.185803 0.269650
Si Si2 0.749756 0.312883 0.088236
Si Si3 0.984566 0.816470 0.647480
Si Si4 0.815335 0.684246 0.479337
Si Si5 0.147947 0.309582 0.557447
Si Si6 0.450799 0.185069 0.884295
Si Si7 0.748118 0.813617 0.833753
Si Si8 0.061522 0.192807 0.143007
O O1 0.838615 0.207308 0.138585
O O2 0.857411 0.285678 0.359396
O O3 0.005891 0.242914 0.247299
O O4 0.912445 0.000000 0.307308
O O5 0.771261 0.500000 0.109374
O O6 0.667764 0.265860 0.156426
O O7 0.717787 0.283548 0.943380
O O8 0.879472 0.790229 0.582119
O O9 0.047001 0.758750 0.552932
O O10 0.002319 0.713965 0.771542
O O11 0.002844 0.000000 0.678054
O O12 0.826020 0.500000 0.515753
O O13 0.710363 0.734522 0.469886
O O14 0.145194 0.500000 0.544398
O O15 0.199839 0.266169 0.696656
O O16 0.357018 0.284528 0.852682
O O17 0.426217 0.000000 0.889886
O O18 0.510499 0.237421 0.013231
O O19 0.729287 0.000000 0.848880
O O20 0.055159 0.000000 0.136427
#
# Coordination Sequence:
#
# PCOD9133377 Si02
#       8
#     4   4   4   4   4   4   4   4
#     4  11  24  44  67  90 125 171 216 266 323 379
#     4  11  23  40  64  96 129 166 213 262 317 382
#     4  12  25  43  67  96 133 172 214 264 323 385
#     4  12  26  45  68  94 128 169 219 271 323 381
#     4  11  24  43  68  98 131 169 216 265 322 387
#     4  12  23  37  64  97 131 168 213 262 319 384
#     4  11  22  38  63  94 131 170 208 257 323 386
#     4  10  23  42  65  93 130 169 209 259 322 382
#
# _framework density 23.564969999999999
#
# number of rings (size 3 to 8) (size 9 to 14) (size 15 to 20)
#    0.000    0.750    2.500    5.625    0.000    6.000 
#    0.000    3.750    0.000    0.000    0.000    0.000 
#    0.000    0.000    0.000    0.000    0.000    0.000 
#
# Total GULP energy -89619.272083 kJ/mol
# GULP energy per Si atom -5601.204505 kJ/mol
# Density = 2.351134 g / cm^3
# Si number density = 23.564970 Si / 1000 Ang^3
#
#
#
# Elastic Constant Matrix: (Units=GPa)
#
#
# Indices 1 2 3 4 5 6 
#
# 1 108.0929 8.7819 10.8923 0.0000 -35.0641 0.0000
# 2 8.7819 49.7940 -5.4978 0.0000 -8.4411 0.0000
# 3 10.8923 -5.4978 67.4816 0.0000 -24.2709 0.0000
# 4 0.0000 0.0000 0.0000 28.9714 0.0000 -5.0225
# 5 -35.0641 -8.4411 -24.2709 0.0000 43.6084 0.0000
# 6 0.0000 0.0000 0.0000 -5.0225 0.0000 26.3136
#
#
#
# Elastic Compliance Matrix: (Units=1/GPa)
#
#
# Indices 1 2 3 4 5 6 
#
# 1 0.012736 -0.000101 0.002016 0.000000 0.011343 0.000000
# 2 -0.000101 0.021630 0.004070 0.000000 0.006371 0.000000
# 3 0.002016 0.004070 0.019619 0.000000 0.013328 0.000000
# 4 0.000000 0.000000 0.000000 0.035698 0.000000 0.006814
# 5 0.011343 0.006371 0.013328 0.000000 0.040703 0.000000
# 6 0.000000 0.000000 0.000000 0.006814 0.000000 0.039304
#
#
# Mechanical properties :
#
#
# Convention : Reuss Voigt Hill
#
# Bulk Modulus (GPa) = 15.16207 28.19125 21.67666
# Shear Modulus (GPa) = 27.82360 33.85815 30.84087
#
# Velocity S-wave (km/s) = 3.43989 3.79463 3.62160
# Velocity P-wave (km/s) = 4.71436 5.58463 5.16785
#
# Compressibility (1/GPa) = 0.06595403
#
# Stress axis : x y z
#
# Youngs Moduli (GPa) = 78.51844 46.23233 50.97216
#
# Poissons Ratio (x) = 0.00466 -0.10275
# Poissons Ratio (y) = 0.00791 -0.20745
# Poissons Ratio (z) = -0.15827 -0.18816
#
# Static dielectric constant tensor:
#      x y z
#    x 1.897940 0.000000 -0.023970 
#    y 0.000000 1.770530 0.000000 
#    z -0.023970 0.000000 1.932520 
# 
# From -- ./inp_files/21575.got.cif
#   From: 2010.05.17/outbox.cif.g08.bks.cpg/sg8_11_cif.got.tgz:21575.got - 2010.06.03 19:46:02.
