data_PCOD9133521
_publ_section_title
;
Structure prediction by ZEFSAII (Michael W. Deem and Ramdas Pophale) SiO2 
 PCOD9133521
Probable space group: C M
;
_chemical_formula_sum "Si O2"
_cell_formula_units_Z 28
_cell_length_a 10.923916
_cell_length_b 16.251491
_cell_length_c 7.022559
_cell_angle_alpha 90.000000
_cell_angle_beta 77.997890
_cell_angle_gamma 90.000000
_cell_volume 1219.461109
_symmetry_space_group_name_H-M "C M"
_symmetry_group_IT_number 8
_symmetry_cell_setting 'monoclinic'
loop_
_space_group_symop_operation_xyz
x,y,z
x,-y,z
1/2+x,1/2+y,z
1/2+x,1/2-y,z
loop_
_atom_site_type_symbol
_atom_site_label
_atom_site_fract_x
_atom_site_fract_y
_atom_site_fract_z
Si Si1 0.462390 0.407513 0.121710
Si Si2 0.524501 0.239906 0.495646
Si Si3 0.130165 0.593045 0.957074
Si Si4 0.390611 0.172866 0.170634
Si Si5 0.704071 0.907619 0.380500
Si Si6 0.655963 0.591896 0.378707
Si Si7 0.346302 0.711804 0.873690
O O1 0.438049 0.500000 0.057112
O O2 0.353056 0.392798 0.316198
O O3 0.591974 0.407037 0.190465
O O4 0.446087 0.345417 0.954049
O O5 0.466079 0.225224 0.303933
O O6 0.621096 0.164756 0.494251
O O7 0.595415 0.327305 0.492971
O O8 0.411950 0.241477 0.681717
O O9 0.135432 0.500000 0.885794
O O10 0.234716 0.653624 0.841081
O O11 0.164678 0.590910 0.170720
O O12 0.991970 0.630120 0.001881
O O13 0.302931 0.108659 0.307384
O O14 0.305122 0.228735 0.060352
O O15 0.682241 0.000000 0.461548
O O16 0.631425 0.500000 0.466939
#
# Coordination Sequence:
#
# PCOD9133521 Si02
#       7
#     4   4   4   4   4   4   4
#     4   9  18  37  65  92 125 171 215 260 317 377
#     4  11  24  39  66  95 129 164 214 262 324 378
#     4   9  19  38  64  87 116 165 209 253 311 365
#     4  11  22  42  63  87 127 164 211 265 308 376
#     4   8  16  36  64  90 121 165 214 262 311 370
#     4  11  23  40  64  96 132 172 209 258 326 384
#     4  11  22  38  66  91 124 161 213 262 318 368
#
# _framework density 22.960964000000001
#
# number of rings (size 3 to 8) (size 9 to 14) (size 15 to 20)
#    0.000    2.000    1.429    4.286    0.000    2.857 
#    0.000    1.429    0.000    0.000    0.000    0.000 
#    0.000    0.000    0.000    0.000    0.000    0.000 
#
# Total GULP energy -78219.586414 kJ/mol
# GULP energy per Si atom -5587.113315 kJ/mol
# Density = 2.290870 g / cm^3
# Si number density = 22.960964 Si / 1000 Ang^3
#
#
#
# Elastic Constant Matrix: (Units=GPa)
#
#
# Indices 1 2 3 4 5 6 
#
# 1 66.4553 41.0877 14.5117 0.0000 -12.6471 0.0000
# 2 41.0877 160.0989 39.2586 0.0000 -10.2426 0.0000
# 3 14.5117 39.2586 88.6142 0.0000 -2.5974 0.0000
# 4 0.0000 0.0000 0.0000 -4.4919 0.0000 -14.4538
# 5 -12.6471 -10.2426 -2.5974 0.0000 20.6013 0.0000
# 6 0.0000 0.0000 0.0000 -14.4538 0.0000 27.1241
#
#
#
# Elastic Compliance Matrix: (Units=1/GPa)
#
#
# Indices 1 2 3 4 5 6 
#
# 1 0.019749 -0.004165 -0.001098 0.000000 0.009915 0.000000
# 2 -0.004165 0.008089 -0.002869 0.000000 0.001103 0.000000
# 3 -0.001098 -0.002869 0.012721 0.000000 -0.000497 0.000000
# 4 0.000000 0.000000 0.000000 -0.082008 0.000000 -0.043700
# 5 0.009915 0.001103 -0.000497 0.000000 0.055113 0.000000
# 6 0.000000 0.000000 0.000000 -0.043700 0.000000 0.013581
#
#
# Mechanical properties :
#
#
# Convention : Reuss Voigt Hill
#
# Bulk Modulus (GPa) = 41.16108 56.09826 48.62967
# Shear Modulus (GPa) = 96.88009 23.33406 60.10708
#
# Velocity S-wave (km/s) = 6.50269 3.19132 5.12199
# Velocity P-wave (km/s) = 8.62238 6.16964 7.49700
#
# Compressibility (1/GPa) = 0.02429479
#
# Stress axis : x y z
#
# Youngs Moduli (GPa) = 50.63424 123.62178 78.60766
#
# Poissons Ratio (x) = 0.51486 0.08635
# Poissons Ratio (y) = 0.21088 0.22555
# Poissons Ratio (z) = 0.05562 0.35472
#
# Static dielectric constant tensor:
#      x y z
#    x 1.885880 0.000000 -0.008000 
#    y 0.000000 1.912290 0.000000 
#    z -0.008000 0.000000 1.840330 
# 
# From -- ./inp_files/10705.got.cif
#   From: 2010.05.17/outbox.cif.g08.bks.cpg/sg8_6_cif.got.tgz:10705.got - 2010.06.03 19:46:02.
