data_PCOD9133507
_publ_section_title
;
Structure prediction by ZEFSAII (Michael W. Deem and Ramdas Pophale) SiO2 
 PCOD9133507
Probable space group: C M
;
_chemical_formula_sum "Si O2"
_cell_formula_units_Z 20
_cell_length_a 7.562093
_cell_length_b 14.742400
_cell_length_c 9.943457
_cell_angle_alpha 90.000000
_cell_angle_beta 51.029015
_cell_angle_gamma 90.000000
_cell_volume 861.843087
_symmetry_space_group_name_H-M "C M"
_symmetry_group_IT_number 8
_symmetry_cell_setting 'monoclinic'
loop_
_space_group_symop_operation_xyz
x,y,z
x,-y,z
1/2+x,1/2+y,z
1/2+x,1/2-y,z
loop_
_atom_site_type_symbol
_atom_site_label
_atom_site_fract_x
_atom_site_fract_y
_atom_site_fract_z
Si Si1 0.653870 0.641887 0.289980
Si Si2 0.210554 0.096616 0.570202
Si Si3 0.917832 0.245117 0.760468
Si Si4 0.005385 0.604668 0.910045
Si Si5 0.683057 0.835191 0.384588
O O1 0.625133 0.609745 0.457535
O O2 0.700592 0.750136 0.275747
O O3 0.423872 0.626115 0.315362
O O4 0.868766 0.599456 0.114262
O O5 0.115831 0.174102 0.714271
O O6 0.482941 0.101335 0.428759
O O7 0.135786 0.000000 0.658148
O O8 0.854799 0.328726 0.886535
O O9 0.068465 0.292127 0.572302
O O10 0.725381 0.169844 0.821128
O O11 0.046448 0.500000 0.843311
#
# Coordination Sequence:
#
# PCOD9133507 Si02
#       5
#     4   4   4   4   4
#     4  11  22  42  68  99 134 180 228 283 342 408
#     4  11  23  41  69 101 132 180 237 283 338 409
#     4  11  22  45  68  96 138 178 229 287 337 410
#     4  12  26  44  69 102 142 185 221 282 359 411
#     4  11  21  42  72  94 134 181 229 285 336 400
#
# _framework density 23.20608
#
# number of rings (size 3 to 8) (size 9 to 14) (size 15 to 20)
#    0.000    0.800    6.000    3.600    0.000    2.400 
#    0.000    0.000    0.000    0.000    0.000    0.000 
#    0.000    0.000    0.000    0.000    0.000    0.000 
#
# Total GULP energy -55729.882994 kJ/mol
# GULP energy per Si atom -5572.988299 kJ/mol
# Density = 2.315326 g / cm^3
# Si number density = 23.206080 Si / 1000 Ang^3
#
#
#
# Elastic Constant Matrix: (Units=GPa)
#
#
# Indices 1 2 3 4 5 6 
#
# 1 91.7481 11.1294 -2.4879 0.0000 -22.1389 0.0000
# 2 11.1294 177.6455 24.1680 0.0000 2.1167 0.0000
# 3 -2.4879 24.1680 77.9209 0.0000 -8.1658 0.0000
# 4 0.0000 0.0000 0.0000 27.2091 0.0000 1.8140
# 5 -22.1389 2.1167 -8.1658 0.0000 27.4371 0.0000
# 6 0.0000 0.0000 0.0000 1.8140 0.0000 -1.0076
#
#
#
# Elastic Compliance Matrix: (Units=1/GPa)
#
#
# Indices 1 2 3 4 5 6 
#
# 1 0.014022 -0.001310 0.002116 0.000000 0.012045 0.000000
# 2 -0.001310 0.006028 -0.002138 0.000000 -0.002158 0.000000
# 3 0.002116 -0.002138 0.014203 0.000000 0.006100 0.000000
# 4 0.000000 0.000000 0.000000 0.032814 0.000000 0.059077
# 5 0.012045 -0.002158 0.006100 0.000000 0.048148 0.000000
# 6 0.000000 0.000000 0.000000 0.059077 0.000000 -0.886135
#
#
# Mechanical properties :
#
#
# Convention : Reuss Voigt Hill
#
# Bulk Modulus (GPa) = 31.65456 45.88148 38.76802
# Shear Modulus (GPa) = -6.59869 31.69474 12.54803
#
# Velocity S-wave (km/s) = -1.68810 3.69968 2.32786
# Velocity P-wave (km/s) = 3.14176 6.16963 4.89566
#
# Compressibility (1/GPa) = 0.03159103
#
# Stress axis : x y z
#
# Youngs Moduli (GPa) = 71.31505 165.89861 70.40610
#
# Poissons Ratio (x) = 0.21732 -0.14900
# Poissons Ratio (y) = 0.09342 0.15050
# Poissons Ratio (z) = -0.15093 0.35462
#
# Static dielectric constant tensor:
#      x y z
#    x 2.035010 0.000000 -0.005930 
#    y 0.000000 1.961070 0.000000 
#    z -0.005930 0.000000 1.843510 
# 
# From -- ./inp_files/7708.got.cif
#   From: 2010.05.17/outbox.cif.g08.bks.cpg/sg8_4_cif.got.tgz:7708.got - 2010.06.03 19:46:02.
