data_PCOD9133864
_publ_section_title
;
Structure prediction by ZEFSAII (Michael W. Deem and Ramdas Pophale) SiO2 
 PCOD9133864
Probable space group: C C
;
_chemical_formula_sum "Si O2"
_cell_formula_units_Z 32
_cell_length_a 16.668173
_cell_length_b 13.622954
_cell_length_c 13.002066
_cell_angle_alpha 90.000000
_cell_angle_beta 147.594055
_cell_angle_gamma 90.000000
_cell_volume 1582.220773
_symmetry_space_group_name_H-M "C C"
_symmetry_group_IT_number 9
_symmetry_cell_setting 'monoclinic'
loop_
_space_group_symop_operation_xyz
x,y,z
x,-y,1/2+z
1/2+x,1/2+y,z
1/2+x,1/2-y,1/2+z
loop_
_atom_site_type_symbol
_atom_site_label
_atom_site_fract_x
_atom_site_fract_y
_atom_site_fract_z
Si Si1 0.638890 0.406073 0.333980
Si Si2 0.225393 0.279679 0.042676
Si Si3 0.887036 0.453564 0.013601
Si Si4 0.642354 0.291013 0.785327
Si Si5 0.928088 0.044750 0.772785
Si Si6 0.696762 0.090052 0.924000
Si Si7 0.424171 0.543052 0.008816
Si Si8 0.978657 0.338176 0.932669
O O1 0.667274 0.293470 0.392059
O O2 0.779786 0.458039 0.431766
O O3 0.587299 0.455167 0.387688
O O4 0.499036 0.438422 0.112173
O O5 0.339510 0.362594 0.129362
O O6 0.325069 0.212229 0.227750
O O7 0.091141 0.334341 0.957435
O O8 0.030162 0.452616 0.243011
O O9 0.790880 0.353103 0.923097
O O10 0.940612 0.438511 0.952953
O O11 0.679761 0.207255 0.907739
O O12 0.521168 0.375177 0.674871
O O13 0.567473 0.230177 0.610806
O O14 0.818104 0.953838 0.632915
O O15 0.938517 0.063379 0.904624
O O16 0.763553 0.057263 0.884645
#
# Coordination Sequence:
#
# PCOD9133864 Si02
#       8
#     4   4   4   4   4   4   4   4
#     4  10  24  37  56  92 132 163 205 269 330 372
#     4  12  21  37  62  97 124 161 216 268 315 377
#     4  10  21  35  55  92 132 156 203 273 324 371
#     4  10  17  34  56  85 117 157 204 261 310 361
#     4  11  22  38  61  88 125 168 212 262 319 388
#     4  10  21  33  56  92 118 158 210 273 309 375
#     4  10  20  39  59  85 123 165 210 262 327 376
#     4  11  20  33  63  93 123 160 216 262 316 362
#
# _framework density 20.224737999999999
#
# number of rings (size 3 to 8) (size 9 to 14) (size 15 to 20)
#    0.000    1.500    3.750    3.000    3.500    0.000 
#    0.000    0.000    0.000   12.000    0.000    0.000 
#    0.000    0.000    0.000    0.000    0.000    0.000 
#
# Total GULP energy -89151.824684 kJ/mol
# GULP energy per Si atom -5571.989043 kJ/mol
# Density = 2.017871 g / cm^3
# Si number density = 20.224738 Si / 1000 Ang^3
#
#
#
# Elastic Constant Matrix: (Units=GPa)
#
#
# Indices 1 2 3 4 5 6 
#
# 1 90.1356 28.1418 18.6232 0.0000 19.4765 0.0000
# 2 28.1418 89.0724 30.5744 0.0000 -7.3482 0.0000
# 3 18.6232 30.5744 57.1374 0.0000 15.8899 0.0000
# 4 0.0000 0.0000 0.0000 41.6059 0.0000 2.4342
# 5 19.4765 -7.3482 15.8899 0.0000 24.3549 0.0000
# 6 0.0000 0.0000 0.0000 2.4342 0.0000 28.3564
#
#
#
# Elastic Compliance Matrix: (Units=1/GPa)
#
#
# Indices 1 2 3 4 5 6 
#
# 1 0.016866 -0.008290 0.004136 0.000000 -0.018687 0.000000
# 2 -0.008290 0.020711 -0.014613 0.000000 0.022412 0.000000
# 3 0.004136 -0.014613 0.031909 0.000000 -0.028535 0.000000
# 4 0.000000 0.000000 0.000000 0.024156 0.000000 -0.002074
# 5 -0.018687 0.022412 -0.028535 0.000000 0.081382 0.000000
# 6 0.000000 0.000000 0.000000 -0.002074 0.000000 0.035443
#
#
# Mechanical properties :
#
#
# Convention : Reuss Voigt Hill
#
# Bulk Modulus (GPa) = 31.29855 43.44715 37.37285
# Shear Modulus (GPa) = 19.33085 29.46385 24.39735
#
# Velocity S-wave (km/s) = 3.09496 3.82097 3.47697
# Velocity P-wave (km/s) = 5.31796 6.40276 5.88540
#
# Compressibility (1/GPa) = 0.03195036
#
# Stress axis : x y z
#
# Youngs Moduli (GPa) = 59.29072 48.28343 31.33919
#
# Poissons Ratio (x) = 0.40026 -0.12960
# Poissons Ratio (y) = 0.49151 0.45797
# Poissons Ratio (z) = -0.24520 0.70559
#
# Static dielectric constant tensor:
#      x y z
#    x 1.780220 0.000000 0.026730 
#    y 0.000000 1.747220 0.000000 
#    z 0.026730 0.000000 1.748060 
# 
# From -- ./inp_files/18457.got.cif
#   From: 2010.05.17/outbox.cif.g08.bks.cpg/sg9_10_cif.got.tgz:18457.got - 2010.06.03 20:04:27.
