data_PCOD9133053
_publ_section_title
;
Structure prediction by ZEFSAII (Michael W. Deem and Ramdas Pophale) SiO2 
 PCOD9133053
Probable space group: C M
;
_chemical_formula_sum "Si O2"
_cell_formula_units_Z 32
_cell_length_a 12.635701
_cell_length_b 13.783902
_cell_length_c 8.860146
_cell_angle_alpha 90.000000
_cell_angle_beta 116.279565
_cell_angle_gamma 90.000000
_cell_volume 1383.670352
_symmetry_space_group_name_H-M "C M"
_symmetry_group_IT_number 8
_symmetry_cell_setting 'monoclinic'
loop_
_space_group_symop_operation_xyz
x,y,z
x,-y,z
1/2+x,1/2+y,z
1/2+x,1/2-y,z
loop_
_atom_site_type_symbol
_atom_site_label
_atom_site_fract_x
_atom_site_fract_y
_atom_site_fract_z
Si Si1 0.237410 0.727120 0.763910
Si Si2 0.855977 0.391412 0.254632
Si Si3 0.185448 0.612214 0.021753
Si Si4 0.580186 0.615477 0.135590
Si Si5 0.928857 0.111792 0.751553
Si Si6 0.065476 0.744044 0.401278
Si Si7 0.277317 0.383961 0.396036
Si Si8 0.412424 0.893708 0.934645
O O1 0.299144 0.629310 0.740924
O O2 0.133356 0.769887 0.597457
O O3 0.339719 0.806906 0.817899
O O4 0.199801 0.694019 0.905236
O O5 0.882455 0.500000 0.328430
O O6 0.720506 0.370431 0.206238
O O7 0.949792 0.315293 0.371620
O O8 0.877127 0.392283 0.088001
O O9 0.202563 0.500000 0.979794
O O10 0.275407 0.630098 0.215491
O O11 0.052173 0.616493 0.001753
O O12 0.556883 0.500000 0.139679
O O13 0.541384 0.674963 0.258832
O O14 0.517038 0.647529 0.939173
O O15 0.895236 0.147169 0.561410
O O16 0.962896 0.000000 0.755239
O O17 0.162600 0.672480 0.384409
O O18 0.261810 0.500000 0.409653
O O19 0.378885 0.000000 0.851705
#
# Coordination Sequence:
#
# PCOD9133053 Si02
#       8
#     4   4   4   4   4   4   4   4
#     4  11  24  37  63  99 132 173 220 273 329 389
#     4  10  21  40  68  96 123 168 223 272 326 388
#     4  10  21  40  68 100 131 172 222 273 329 389
#     4  10  23  42  67  95 134 181 218 265 333 399
#     4   9  19  38  63  96 135 170 212 271 336 396
#     4  11  22  39  64  97 132 171 222 277 323 384
#     4   9  18  36  65  97 130 165 211 275 333 383
#     4  10  22  40  64  94 133 172 216 274 327 388
#
# _framework density 23.126895999999999
#
# number of rings (size 3 to 8) (size 9 to 14) (size 15 to 20)
#    0.000    2.000    1.250    1.500    1.750    3.000 
#    0.000    3.750    0.000    1.500    0.000    3.500 
#    0.000    0.000    0.000    0.000    0.000    0.000 
#
# Total GULP energy -89362.804431 kJ/mol
# GULP energy per Si atom -5585.175277 kJ/mol
# Density = 2.307426 g / cm^3
# Si number density = 23.126896 Si / 1000 Ang^3
#
#
#
# Elastic Constant Matrix: (Units=GPa)
#
#
# Indices 1 2 3 4 5 6 
#
# 1 87.1714 44.0454 39.3949 0.0000 15.0529 0.0000
# 2 44.0454 105.3452 67.8969 0.0000 14.1641 0.0000
# 3 39.3949 67.8969 172.8873 0.0000 22.1415 0.0000
# 4 0.0000 0.0000 0.0000 26.3674 0.0000 3.5313
# 5 15.0529 14.1641 22.1415 0.0000 31.2327 0.0000
# 6 0.0000 0.0000 0.0000 3.5313 0.0000 29.1144
#
#
#
# Elastic Compliance Matrix: (Units=1/GPa)
#
#
# Indices 1 2 3 4 5 6 
#
# 1 0.015262 -0.005239 -0.000861 0.000000 -0.004370 0.000000
# 2 -0.005239 0.014680 -0.004446 0.000000 -0.000981 0.000000
# 3 -0.000861 -0.004446 0.008155 0.000000 -0.003350 0.000000
# 4 0.000000 0.000000 0.000000 0.038552 0.000000 -0.004676
# 5 -0.004370 -0.000981 -0.003350 0.000000 0.036944 0.000000
# 6 0.000000 0.000000 0.000000 -0.004676 0.000000 0.034914
#
#
# Mechanical properties :
#
#
# Convention : Reuss Voigt Hill
#
# Bulk Modulus (GPa) = 58.79976 74.23093 66.51534
# Shear Modulus (GPa) = 28.52770 31.61403 30.07087
#
# Velocity S-wave (km/s) = 3.51597 3.70128 3.60982
# Velocity P-wave (km/s) = 6.47787 7.10161 6.79690
#
# Compressibility (1/GPa) = 0.01700687
#
# Stress axis : x y z
#
# Youngs Moduli (GPa) = 65.52095 68.11789 122.61913
#
# Poissons Ratio (x) = 0.35687 0.10553
# Poissons Ratio (y) = 0.34327 0.54516
# Poissons Ratio (z) = 0.05639 0.30285
#
# Static dielectric constant tensor:
#      x y z
#    x 1.846150 0.000000 -0.024900 
#    y 0.000000 1.917830 0.000000 
#    z -0.024900 0.000000 1.928400 
# 
# From -- ./inp_files/13299.got.cif
#   From: 2010.05.17/outbox.cif.g08.bks.cpg/sg8_7_cif.got.tgz:13299.got - 2010.06.03 19:46:02.
