data_PCOD9133361
_publ_section_title
;
Structure prediction by ZEFSAII (Michael W. Deem and Ramdas Pophale) SiO2 
 PCOD9133361
Probable space group: C M
;
_chemical_formula_sum "Si O2"
_cell_formula_units_Z 32
_cell_length_a 10.447753
_cell_length_b 9.774177
_cell_length_c 28.236506
_cell_angle_alpha 90.000000
_cell_angle_beta 149.387733
_cell_angle_gamma 90.000000
_cell_volume 1468.332312
_symmetry_space_group_name_H-M "C M"
_symmetry_group_IT_number 8
_symmetry_cell_setting 'monoclinic'
loop_
_space_group_symop_operation_xyz
x,y,z
x,-y,z
1/2+x,1/2+y,z
1/2+x,1/2-y,z
loop_
_atom_site_type_symbol
_atom_site_label
_atom_site_fract_x
_atom_site_fract_y
_atom_site_fract_z
Si Si1 0.354440 0.647274 0.023130
Si Si2 0.148328 0.660152 0.858775
Si Si3 0.410517 0.847371 0.113291
Si Si4 0.994440 0.854841 0.310784
Si Si5 0.434218 0.151973 0.220694
Si Si6 0.732952 0.340452 0.483277
Si Si7 0.170256 0.164881 0.574024
Si Si8 0.145474 0.835762 0.763053
O O1 0.224158 0.500000 0.988154
O O2 0.263410 0.772668 0.025185
O O3 0.635609 0.633456 0.133283
O O4 0.345827 0.677598 0.964917
O O5 0.156815 0.500000 0.845603
O O6 0.884915 0.679651 0.803949
O O7 0.181293 0.765448 0.826209
O O8 0.709560 0.866011 0.201102
O O9 0.422802 0.769542 0.167207
O O10 0.304960 0.000000 0.086337
O O11 0.081704 0.726706 0.308639
O O12 0.019468 0.831449 0.374517
O O13 0.123230 0.000000 0.341388
O O14 0.541277 0.000000 0.248066
O O15 0.823194 0.500000 0.510911
O O16 0.651935 0.314082 0.511323
O O17 0.944908 0.236181 0.531620
O O18 0.417895 0.247670 0.668734
O O19 0.183134 0.000000 0.586911
O O20 0.095011 0.000000 0.750878
#
# Coordination Sequence:
#
# PCOD9133361 Si02
#       8
#     4   4   4   4   4   4   4   4
#     4   9  19  35  52  79 115 150 192 241 290 342
#     4  10  23  41  63  92 125 159 201 251 299 357
#     4   9  18  32  53  78 110 151 194 238 285 342
#     4   9  19  35  52  78 114 150 191 241 291 341
#     4   9  18  32  53  78 110 151 194 238 285 342
#     4  10  23  41  63  92 124 158 201 250 299 359
#     4  11  24  42  66  92 120 158 197 245 306 365
#     4  11  24  42  64  91 122 157 198 248 303 364
#
# _framework density 21.793431999999999
#
# number of rings (size 3 to 8) (size 9 to 14) (size 15 to 20)
#    0.000    2.250    0.000    1.500    3.500    5.500 
#    0.000    0.000    0.000    0.000    0.000    0.000 
#    0.000    0.000    0.000    0.000    0.000    0.000 
#
# Total GULP energy -89093.675174 kJ/mol
# GULP energy per Si atom -5568.354698 kJ/mol
# Density = 2.174383 g / cm^3
# Si number density = 21.793432 Si / 1000 Ang^3
#
#
#
# Elastic Constant Matrix: (Units=GPa)
#
#
# Indices 1 2 3 4 5 6 
#
# 1 77.0898 57.9887 28.2594 0.0000 -12.2323 0.0000
# 2 57.9887 115.8533 57.0398 0.0000 -23.0054 0.0000
# 3 28.2594 57.0398 102.3675 0.0000 -15.5489 0.0000
# 4 0.0000 0.0000 0.0000 -8.3776 0.0000 -3.3017
# 5 -12.2323 -23.0054 -15.5489 0.0000 41.9168 0.0000
# 6 0.0000 0.0000 0.0000 -3.3017 0.0000 29.9188
#
#
#
# Elastic Compliance Matrix: (Units=1/GPa)
#
#
# Indices 1 2 3 4 5 6 
#
# 1 0.020812 -0.010387 0.000105 0.000000 0.000412 0.000000
# 2 -0.010387 0.017863 -0.006419 0.000000 0.004392 0.000000
# 3 0.000105 -0.006419 0.013549 0.000000 0.001534 0.000000
# 4 0.000000 0.000000 0.000000 -0.114391 0.000000 -0.012624
# 5 0.000412 0.004392 0.001534 0.000000 0.026956 0.000000
# 6 0.000000 0.000000 0.000000 -0.012624 0.000000 0.032031
#
#
# Mechanical properties :
#
#
# Convention : Reuss Voigt Hill
#
# Bulk Modulus (GPa) = 53.12823 64.65404 58.89114
# Shear Modulus (GPa) = 136.99887 22.82647 79.91267
#
# Velocity S-wave (km/s) = 7.93719 3.23987 6.06200
# Velocity P-wave (km/s) = 10.41295 6.61263 8.72228
#
# Compressibility (1/GPa) = 0.01882239
#
# Stress axis : x y z
#
# Youngs Moduli (GPa) = 48.04877 55.98116 73.80405
#
# Poissons Ratio (x) = 0.58149 -0.00775
# Poissons Ratio (y) = 0.49909 0.47374
# Poissons Ratio (z) = -0.00504 0.35934
#
# Static dielectric constant tensor:
#      x y z
#    x 1.838870 0.000000 0.069680 
#    y 0.000000 1.915300 0.000000 
#    z 0.069680 0.000000 1.852710 
# 
# From -- ./inp_files/25850.got.cif
#   From: 2010.05.17/outbox.cif.g08.bks.cpg/sg8_13_cif.got.tgz:25850.got - 2010.06.03 19:46:02.
