data_PCOD9133156
_publ_section_title
;
Structure prediction by ZEFSAII (Michael W. Deem and Ramdas Pophale) SiO2 
 PCOD9133156
Probable space group: C M
;
_chemical_formula_sum "Si O2"
_cell_formula_units_Z 32
_cell_length_a 14.504904
_cell_length_b 7.806158
_cell_length_c 12.572531
_cell_angle_alpha 90.000000
_cell_angle_beta 90.515126
_cell_angle_gamma 90.000000
_cell_volume 1423.499630
_symmetry_space_group_name_H-M "C M"
_symmetry_group_IT_number 8
_symmetry_cell_setting 'monoclinic'
loop_
_space_group_symop_operation_xyz
x,y,z
x,-y,z
1/2+x,1/2+y,z
1/2+x,1/2-y,z
loop_
_atom_site_type_symbol
_atom_site_label
_atom_site_fract_x
_atom_site_fract_y
_atom_site_fract_z
Si Si1 0.044240 0.293472 0.987810
Si Si2 0.318178 0.205013 0.356179
Si Si3 0.169467 0.702633 0.619502
Si Si4 0.473456 0.296935 0.219296
Si Si5 0.876336 0.697648 0.574270
Si Si6 0.411387 0.202416 0.802159
Si Si7 0.110955 0.793240 0.399974
Si Si8 0.704310 0.794098 0.851820
O O1 0.044533 0.500000 0.981616
O O2 0.145680 0.234757 0.952214
O O3 0.974889 0.226886 0.896148
O O4 0.010494 0.249148 0.104213
O O5 0.370146 0.241956 0.247692
O O6 0.378373 0.277064 0.456526
O O7 0.213523 0.266985 0.366069
O O8 0.315172 0.000000 0.369581
O O9 0.188781 0.500000 0.615107
O O10 0.265313 0.799194 0.595213
O O11 0.099450 0.742673 0.523480
O O12 0.147572 0.742568 0.741869
O O13 0.476003 0.500000 0.227188
O O14 0.539193 0.224481 0.313184
O O15 0.907594 0.500000 0.568207
O O16 0.917956 0.776526 0.682370
O O17 0.305498 0.219294 0.838168
O O18 0.432459 0.000000 0.791868
O O19 0.110079 0.000000 0.396640
O O20 0.715032 0.000000 0.857514
#
# Coordination Sequence:
#
# PCOD9133156 Si02
#       8
#     4   4   4   4   4   4   4   4
#     4  10  22  39  55  74 104 142 182 218 257 311
#     4   9  18  35  58  80 105 138 172 210 260 317
#     4   9  16  28  52  84 111 134 167 212 260 310
#     4  11  24  39  54  76 105 137 180 228 265 302
#     4   8  15  30  53  80 109 139 170 205 254 318
#     4   9  18  34  57  81 106 139 175 211 256 313
#     4   9  20  38  56  76 107 143 174 210 261 318
#     4   9  19  35  55  81 111 138 168 214 265 309
#
# _framework density 22.479807000000001
#
# number of rings (size 3 to 8) (size 9 to 14) (size 15 to 20)
#    0.000    2.750    0.000    1.500    0.000    6.500 
#    0.000    6.250    0.000    0.000    0.000    0.000 
#    0.000    0.000    0.000    0.000    0.000    0.000 
#
# Total GULP energy -89283.154032 kJ/mol
# GULP energy per Si atom -5580.197127 kJ/mol
# Density = 2.242864 g / cm^3
# Si number density = 22.479807 Si / 1000 Ang^3
#
#
#
# Elastic Constant Matrix: (Units=GPa)
#
#
# Indices 1 2 3 4 5 6 
#
# 1 53.2498 0.2926 27.6757 0.0000 -9.2149 0.0000
# 2 0.2926 35.9789 0.1775 0.0000 0.9045 0.0000
# 3 27.6757 0.1775 87.3865 0.0000 -24.1262 0.0000
# 4 0.0000 0.0000 0.0000 22.2832 0.0000 -0.5199
# 5 -9.2149 0.9045 -24.1262 0.0000 39.2168 0.0000
# 6 0.0000 0.0000 0.0000 -0.5199 0.0000 14.9741
#
#
#
# Elastic Compliance Matrix: (Units=1/GPa)
#
#
# Indices 1 2 3 4 5 6 
#
# 1 0.022519 -0.000177 -0.006830 0.000000 0.001094 0.000000
# 2 -0.000177 0.027817 -0.000228 0.000000 -0.000823 0.000000
# 3 -0.006830 -0.000228 0.015859 0.000000 0.008157 0.000000
# 4 0.000000 0.000000 0.000000 0.044913 0.000000 0.001559
# 5 0.001094 -0.000823 0.008157 0.000000 0.030793 0.000000
# 6 0.000000 0.000000 0.000000 0.001559 0.000000 0.066836
#
#
# Mechanical properties :
#
#
# Convention : Reuss Voigt Hill
#
# Bulk Modulus (GPa) = 19.33231 25.87853 22.60542
# Shear Modulus (GPa) = 20.79444 25.19278 22.99361
#
# Velocity S-wave (km/s) = 3.04473 3.35130 3.20168
# Velocity P-wave (km/s) = 4.58028 5.14896 4.87293
#
# Compressibility (1/GPa) = 0.05172688
#
# Stress axis : x y z
#
# Youngs Moduli (GPa) = 44.40641 35.94884 63.05644
#
# Poissons Ratio (x) = 0.00636 0.43065
# Poissons Ratio (y) = 0.00786 0.01436
# Poissons Ratio (z) = 0.30328 0.00819
#
# Static dielectric constant tensor:
#      x y z
#    x 1.866460 0.000000 0.009970 
#    y 0.000000 1.820260 0.000000 
#    z 0.009970 0.000000 1.863070 
# 
# From -- ./inp_files/21538.got.cif
#   From: 2010.05.17/outbox.cif.g08.bks.cpg/sg8_11_cif.got.tgz:21538.got - 2010.06.03 19:46:02.
