data_PCOD9133438
_publ_section_title
;
Structure prediction by ZEFSAII (Michael W. Deem and Ramdas Pophale) SiO2 
 PCOD9133438
Probable space group: C M
;
_chemical_formula_sum "Si O2"
_cell_formula_units_Z 32
_cell_length_a 7.179129
_cell_length_b 25.455580
_cell_length_c 10.151988
_cell_angle_alpha 90.000000
_cell_angle_beta 51.529704
_cell_angle_gamma 90.000000
_cell_volume 1452.543739
_symmetry_space_group_name_H-M "C M"
_symmetry_group_IT_number 8
_symmetry_cell_setting 'monoclinic'
loop_
_space_group_symop_operation_xyz
x,y,z
x,-y,z
1/2+x,1/2+y,z
1/2+x,1/2-y,z
loop_
_atom_site_type_symbol
_atom_site_label
_atom_site_fract_x
_atom_site_fract_y
_atom_site_fract_z
Si Si1 0.509600 0.138722 0.245200
Si Si2 0.277842 0.357069 0.715161
Si Si3 0.412697 0.059504 0.790761
Si Si4 0.652369 0.940550 0.396207
Si Si5 0.570330 0.749154 0.916582
Si Si6 0.528660 0.635828 0.322661
Si Si7 0.514274 0.633379 0.876401
Si Si8 0.588044 0.252347 0.174928
O O1 0.509351 0.098273 0.364154
O O2 0.301027 0.125612 0.236352
O O3 0.491536 0.200345 0.291172
O O4 0.759566 0.135809 0.059571
O O5 0.395761 0.355655 0.520091
O O6 0.468372 0.372692 0.742132
O O7 0.074137 0.401293 0.804411
O O8 0.170614 0.300559 0.800705
O O9 0.533586 0.058013 0.592448
O O10 0.162557 0.087251 0.876342
O O11 0.399516 0.000000 0.846525
O O12 0.905861 0.912371 0.303328
O O13 0.667015 0.000000 0.339449
O O14 0.777476 0.751755 0.962864
O O15 0.379773 0.753952 0.128763
O O16 0.636555 0.689984 0.844876
O O17 0.509753 0.689539 0.249920
#
# Coordination Sequence:
#
# PCOD9133438 Si02
#       8
#     4   4   4   4   4   4   4   4
#     4  11  23  40  64  93 128 167 209 260 319 379
#     4  11  23  39  63  97 127 165 215 263 315 382
#     4  10  24  45  65  89 126 169 216 269 317 370
#     4  10  24  45  64  89 126 169 217 266 317 372
#     4  11  20  39  60  88 129 170 198 256 321 376
#     4  11  23  39  65  95 127 169 214 258 317 386
#     4  11  23  40  65  94 130 167 210 258 323 381
#     4  11  20  39  60  87 129 170 201 252 323 374
#
# _framework density 22.030318000000001
#
# number of rings (size 3 to 8) (size 9 to 14) (size 15 to 20)
#    0.000    1.250    3.750    3.000    0.000    4.500 
#    0.000    2.500    0.000    0.000    0.000    0.000 
#    0.000    0.000    0.000    0.000    0.000    0.000 
#
# Total GULP energy -89378.844170 kJ/mol
# GULP energy per Si atom -5586.177761 kJ/mol
# Density = 2.198018 g / cm^3
# Si number density = 22.030318 Si / 1000 Ang^3
#
#
#
# Elastic Constant Matrix: (Units=GPa)
#
#
# Indices 1 2 3 4 5 6 
#
# 1 125.9243 56.3028 20.4296 0.0000 4.3141 0.0000
# 2 56.3028 160.1189 33.6372 0.0000 2.4663 0.0000
# 3 20.4296 33.6372 34.1253 0.0000 3.5342 0.0000
# 4 0.0000 0.0000 0.0000 24.4637 0.0000 -1.6997
# 5 4.3141 2.4663 3.5342 0.0000 35.8366 0.0000
# 6 0.0000 0.0000 0.0000 -1.6997 0.0000 28.5379
#
#
#
# Elastic Compliance Matrix: (Units=1/GPa)
#
#
# Indices 1 2 3 4 5 6 
#
# 1 0.009688 -0.002765 -0.003004 0.000000 -0.000680 0.000000
# 2 -0.002765 0.008667 -0.006931 0.000000 0.000420 0.000000
# 3 -0.003004 -0.006931 0.038238 0.000000 -0.002932 0.000000
# 4 0.000000 0.000000 0.000000 0.041047 0.000000 0.002445
# 5 -0.000680 0.000420 -0.002932 0.000000 0.028247 0.000000
# 6 0.000000 0.000000 0.000000 0.002445 0.000000 0.035187
#
#
# Mechanical properties :
#
#
# Convention : Reuss Voigt Hill
#
# Bulk Modulus (GPa) = 32.05900 60.10086 46.07993
# Shear Modulus (GPa) = 25.39714 31.75424 28.57569
#
# Velocity S-wave (km/s) = 3.39901 3.80068 3.60545
# Velocity P-wave (km/s) = 5.47615 6.82645 6.18824
#
# Compressibility (1/GPa) = 0.03119249
#
# Stress axis : x y z
#
# Youngs Moduli (GPa) = 103.21757 115.37564 26.15190
#
# Poissons Ratio (x) = 0.31903 0.07856
# Poissons Ratio (y) = 0.28541 0.18127
# Poissons Ratio (z) = 0.31007 0.79972
#
# Static dielectric constant tensor:
#      x y z
#    x 2.507710 0.000000 0.009610 
#    y 0.000000 1.716650 0.000000 
#    z 0.009610 0.000000 1.799880 
# 
# From -- ./inp_files/19254.got.cif
#   From: 2010.05.17/outbox.cif.g08.bks.cpg/sg8_10_cif.got.tgz:19254.got - 2010.06.03 19:46:02.
