data_PCOD9133113
_publ_section_title
;
Structure prediction by ZEFSAII (Michael W. Deem and Ramdas Pophale) SiO2 
 PCOD9133113
Probable space group: C M
;
_chemical_formula_sum "Si O2"
_cell_formula_units_Z 32
_cell_length_a 9.661341
_cell_length_b 15.844855
_cell_length_c 8.008262
_cell_angle_alpha 90.000000
_cell_angle_beta 73.382523
_cell_angle_gamma 90.000000
_cell_volume 1174.724856
_symmetry_space_group_name_H-M "C M"
_symmetry_group_IT_number 8
_symmetry_cell_setting 'monoclinic'
loop_
_space_group_symop_operation_xyz
x,y,z
x,-y,z
1/2+x,1/2+y,z
1/2+x,1/2-y,z
loop_
_atom_site_type_symbol
_atom_site_label
_atom_site_fract_x
_atom_site_fract_y
_atom_site_fract_z
Si Si1 0.832350 0.226620 0.637510
Si Si2 0.355298 0.096659 0.438013
Si Si3 0.588765 0.845059 0.110122
Si Si4 0.099577 0.904307 0.267898
Si Si5 0.504639 0.594407 0.774195
Si Si6 0.613537 0.092315 0.743830
Si Si7 0.778525 0.630921 0.871419
Si Si8 0.389802 0.687980 0.134846
O O1 0.718268 0.192830 0.178444
O O2 0.955276 0.162458 0.655827
O O3 0.872081 0.310638 0.521594
O O4 0.936697 0.122383 0.974781
O O5 0.173481 0.096731 0.762411
O O6 0.364002 0.000000 0.502710
O O7 0.487843 0.099067 0.261254
O O8 0.205570 0.104994 0.386945
O O9 0.645874 0.896191 0.929994
O O10 0.478972 0.773710 0.076918
O O11 0.205658 0.891553 0.070966
O O12 0.960536 0.845858 0.282595
O O13 0.046315 0.000000 0.284963
O O14 0.464042 0.500000 0.739832
O O15 0.197955 0.668835 0.626188
O O16 0.440781 0.099422 0.797008
O O17 0.657605 0.000000 0.668095
O O18 0.780230 0.730245 0.831554
#
# Coordination Sequence:
#
# PCOD9133113 Si02
#       8
#     4   4   4   4   4   4   4   4
#     4  12  26  47  72 114 163 210 260 333 399 474
#     4  11  27  50  77 112 165 225 269 327 410 493
#     4  12  24  44  74 118 158 208 264 331 399 481
#     4  10  21  43  76 113 153 204 267 327 396 473
#     4  11  24  43  75 118 161 204 262 333 400 469
#     4  12  24  42  79 119 152 201 269 332 394 470
#     4  11  22  44  75 112 152 205 263 331 393 474
#     4  11  23  41  76 118 156 203 262 338 403 462
#
# _framework density 27.240418999999999
#
# number of rings (size 3 to 8) (size 9 to 14) (size 15 to 20)
#    0.000    0.750    2.500    6.750    1.750    3.000 
#    9.000    0.000    0.000    2.250    0.000    0.000 
#    0.000    0.000    0.000    0.000    0.000    0.000 
#
# Total GULP energy -89674.691004 kJ/mol
# GULP energy per Si atom -5604.668188 kJ/mol
# Density = 2.717842 g / cm^3
# Si number density = 27.240419 Si / 1000 Ang^3
#
#
#
# Elastic Constant Matrix: (Units=GPa)
#
#
# Indices 1 2 3 4 5 6 
#
# 1 199.8991 58.7019 27.6837 0.0000 -8.1177 0.0000
# 2 58.7019 210.7974 42.6430 0.0000 7.0055 0.0000
# 3 27.6837 42.6430 84.1862 0.0000 6.0408 0.0000
# 4 0.0000 0.0000 0.0000 33.0489 0.0000 0.8448
# 5 -8.1177 7.0055 6.0408 0.0000 50.0272 0.0000
# 6 0.0000 0.0000 0.0000 0.8448 0.0000 38.9959
#
#
#
# Elastic Compliance Matrix: (Units=1/GPa)
#
#
# Indices 1 2 3 4 5 6 
#
# 1 0.005625 -0.001354 -0.001254 0.000000 0.001254 0.000000
# 2 -0.001354 0.005620 -0.002350 0.000000 -0.000723 0.000000
# 3 -0.001254 -0.002350 0.013590 0.000000 -0.001515 0.000000
# 4 0.000000 0.000000 0.000000 0.030275 0.000000 -0.000656
# 5 0.001254 -0.000723 -0.001515 0.000000 0.020477 0.000000
# 6 0.000000 0.000000 0.000000 -0.000656 0.000000 0.025658
#
#
# Mechanical properties :
#
#
# Convention : Reuss Voigt Hill
#
# Bulk Modulus (GPa) = 67.02643 83.66000 75.34322
# Shear Modulus (GPa) = 43.05414 48.80468 45.92941
#
# Velocity S-wave (km/s) = 3.97989 4.23735 4.11064
# Velocity P-wave (km/s) = 6.76597 7.39720 7.08862
#
# Compressibility (1/GPa) = 0.01491949
#
# Stress axis : x y z
#
# Youngs Moduli (GPa) = 177.78471 177.92260 73.58599
#
# Poissons Ratio (x) = 0.24099 0.09224
# Poissons Ratio (y) = 0.24080 0.17290
# Poissons Ratio (z) = 0.22286 0.41805
#
# Static dielectric constant tensor:
#      x y z
#    x 2.138790 0.000000 0.035540 
#    y 0.000000 2.053840 0.000000 
#    z 0.035540 0.000000 2.283810 
# 
# From -- ./inp_files/20640.got.cif
#   From: 2010.05.17/outbox.cif.g08.bks.cpg/sg8_11_cif.got.tgz:20640.got - 2010.06.03 19:46:02.
