data_PCOD9133865
_publ_section_title
;
Structure prediction by ZEFSAII (Michael W. Deem and Ramdas Pophale) SiO2 
 PCOD9133865
Probable space group: C C
;
_chemical_formula_sum "Si O2"
_cell_formula_units_Z 20
_cell_length_a 5.488116
_cell_length_b 25.494030
_cell_length_c 5.043051
_cell_angle_alpha 90.000000
_cell_angle_beta 97.090215
_cell_angle_gamma 90.000000
_cell_volume 700.198758
_symmetry_space_group_name_H-M "C C"
_symmetry_group_IT_number 9
_symmetry_cell_setting 'monoclinic'
loop_
_space_group_symop_operation_xyz
x,y,z
x,-y,1/2+z
1/2+x,1/2+y,z
1/2+x,1/2-y,1/2+z
loop_
_atom_site_type_symbol
_atom_site_label
_atom_site_fract_x
_atom_site_fract_y
_atom_site_fract_z
Si Si1 0.267020 0.888942 0.102180
Si Si2 0.350998 0.524377 0.813967
Si Si3 0.993832 0.563984 0.105825
Si Si4 0.079214 0.703346 0.885302
Si Si5 0.369903 0.684045 0.424571
O O1 0.270481 0.924525 0.371613
O O2 0.371773 0.834337 0.237665
O O3 0.428323 0.909063 0.876387
O O4 0.010230 0.870857 0.942869
O O5 0.476042 0.486232 0.047474
O O6 0.232293 0.575415 0.939767
O O7 0.094011 0.492470 0.708646
O O8 0.303691 0.693958 0.719485
O O9 0.018774 0.764492 0.856696
O O10 0.141834 0.686439 0.191863
#
# Coordination Sequence:
#
# PCOD9133865 Si02
#       5
#     4   4   4   4   4
#     4  12  23  36  66  90 126 160 212 250 307 360
#     4   8  14  30  52  88 124 142 206 244 298 372
#     4  10  17  34  56  98 116 160 200 258 297 368
#     4  12  26  43  62  90 123 170 212 255 309 363
#     4  12  26  43  62  90 123 170 212 255 309 363
#
# _framework density 28.563316
#
# number of rings (size 3 to 8) (size 9 to 14) (size 15 to 20)
#    1.200    0.000    4.000    3.600    2.800    0.000 
#    0.000    0.000    0.000    0.000    0.000   98.000 
#    0.000    0.000    0.000    0.000    0.000    0.000 
#
# Total GULP energy -55824.423653 kJ/mol
# GULP energy per Si atom -5582.442365 kJ/mol
# Density = 2.849830 g / cm^3
# Si number density = 28.563316 Si / 1000 Ang^3
#
#
#
# Elastic Constant Matrix: (Units=GPa)
#
#
# Indices 1 2 3 4 5 6 
#
# 1 26.6926 0.8717 -0.6563 0.0000 -5.1815 0.0000
# 2 0.8717 102.1106 47.9779 0.0000 -5.1591 0.0000
# 3 -0.6563 47.9779 218.8574 0.0000 14.6792 0.0000
# 4 0.0000 0.0000 0.0000 66.4019 0.0000 -4.9230
# 5 -5.1815 -5.1591 14.6792 0.0000 54.5645 0.0000
# 6 0.0000 0.0000 0.0000 -4.9230 0.0000 45.5606
#
#
#
# Elastic Compliance Matrix: (Units=1/GPa)
#
#
# Indices 1 2 3 4 5 6 
#
# 1 0.038172 -0.000090 -0.000110 0.000000 0.003646 0.000000
# 2 -0.000090 0.011076 -0.002544 0.000000 0.001723 0.000000
# 3 -0.000110 -0.002544 0.005238 0.000000 -0.001660 0.000000
# 4 0.000000 0.000000 0.000000 0.015181 0.000000 0.001640
# 5 0.003646 0.001723 -0.001660 0.000000 0.019283 0.000000
# 6 0.000000 0.000000 0.000000 0.001640 0.000000 0.022126
#
#
# Mechanical properties :
#
#
# Convention : Reuss Voigt Hill
#
# Bulk Modulus (GPa) = 20.40920 49.33857 34.87388
# Shear Modulus (GPa) = 37.62313 53.26990 45.44652
#
# Velocity S-wave (km/s) = 3.63324 4.32322 3.99316
# Velocity P-wave (km/s) = 4.97608 6.49856 5.78760
#
# Compressibility (1/GPa) = 0.04899752
#
# Stress axis : x y z
#
# Youngs Moduli (GPa) = 26.19753 90.28148 190.91599
#
# Poissons Ratio (x) = 0.00810 0.02108
# Poissons Ratio (y) = 0.00235 0.48570
# Poissons Ratio (z) = 0.00289 0.22968
#
# Static dielectric constant tensor:
#      x y z
#    x 2.478620 0.000000 -0.091600 
#    y 0.000000 2.345310 0.000000 
#    z -0.091600 0.000000 2.279090 
# 
# From -- ./inp_files/244.got.cif
#   From: 2010.05.17/outbox.cif.g08.bks.cpg/sg9_1_cif.got.tgz:244.got - 2010.06.03 20:04:27.
