data_PCOD9133026
_publ_section_title
;
Structure prediction by ZEFSAII (Michael W. Deem and Ramdas Pophale) SiO2 
 PCOD9133026
Probable space group: C M
;
_chemical_formula_sum "Si O2"
_cell_formula_units_Z 32
_cell_length_a 25.037751
_cell_length_b 8.559665
_cell_length_c 16.243904
_cell_angle_alpha 90.000000
_cell_angle_beta 27.033209
_cell_angle_gamma 90.000000
_cell_volume 1582.278538
_symmetry_space_group_name_H-M "C M"
_symmetry_group_IT_number 8
_symmetry_cell_setting 'monoclinic'
loop_
_space_group_symop_operation_xyz
x,y,z
x,-y,z
1/2+x,1/2+y,z
1/2+x,1/2-y,z
loop_
_atom_site_type_symbol
_atom_site_label
_atom_site_fract_x
_atom_site_fract_y
_atom_site_fract_z
Si Si1 0.705240 0.315443 0.422130
Si Si2 0.398600 0.687095 0.274522
Si Si3 0.849387 0.686777 0.517401
Si Si4 0.667516 0.689086 0.909694
Si Si5 0.372615 0.188169 0.741934
Si Si6 0.248688 0.683498 0.182917
Si Si7 0.458877 0.184842 0.807002
Si Si8 0.041876 0.184205 0.369510
O O1 0.689361 0.500000 0.449835
O O2 0.823523 0.262935 0.305171
O O3 0.711282 0.264960 0.318834
O O4 0.594487 0.231411 0.616460
O O5 0.397721 0.500000 0.266303
O O6 0.341546 0.733481 0.439943
O O7 0.533976 0.744336 0.089973
O O8 0.843931 0.500000 0.516450
O O9 0.747283 0.736468 0.721853
O O10 0.972788 0.735000 0.389856
O O11 0.662745 0.500000 0.914870
O O12 0.742478 0.730206 0.888317
O O13 0.404290 0.222161 0.792025
O O14 0.462183 0.276167 0.558749
O O15 0.387796 0.000000 0.708643
O O16 0.228680 0.500000 0.218419
O O17 0.168706 0.749737 0.218824
O O18 0.382978 0.722631 0.977671
O O19 0.445904 0.000000 0.838901
O O20 0.048718 0.000000 0.345230
#
# Coordination Sequence:
#
# PCOD9133026 Si02
#       8
#     4   4   4   4   4   4   4   4
#     4  12  26  46  66  90 128 172 220 269 320 379
#     4  11  23  41  66  93 123 167 216 263 319 381
#     4  10  21  40  62  91 127 166 209 261 322 380
#     4   8  18  37  61  89 123 163 203 249 311 375
#     4   9  18  36  62  91 128 166 203 257 323 381
#     4  12  25  42  64  94 129 168 214 266 325 385
#     4  11  23  40  66  97 128 165 212 265 325 387
#     4  11  21  36  61  93 130 169 211 260 319 382
#
# _framework density 20.223998000000002
#
# number of rings (size 3 to 8) (size 9 to 14) (size 15 to 20)
#    0.000    1.500    1.250    5.250    1.750    1.500 
#    0.000   10.000    0.000    0.000    0.000    0.000 
#    0.000    0.000    0.000    0.000    0.000    0.000 
#
# Total GULP energy -89456.741512 kJ/mol
# GULP energy per Si atom -5591.046345 kJ/mol
# Density = 2.017797 g / cm^3
# Si number density = 20.223998 Si / 1000 Ang^3
#
#
#
# Elastic Constant Matrix: (Units=GPa)
#
#
# Indices 1 2 3 4 5 6 
#
# 1 55.3092 9.4077 13.7330 0.0001 -17.6215 0.0000
# 2 9.4077 32.2830 -6.6051 -0.0002 1.3887 0.0000
# 3 13.7330 -6.6051 57.5329 -0.0002 -22.1449 0.0001
# 4 0.0001 -0.0002 -0.0002 26.7250 0.0000 1.1029
# 5 -17.6215 1.3887 -22.1449 0.0000 29.3092 0.0000
# 6 0.0000 0.0000 0.0001 1.1029 0.0000 31.4693
#
#
#
# Elastic Compliance Matrix: (Units=1/GPa)
#
#
# Indices 1 2 3 4 5 6 
#
# 1 0.024191 -0.007920 -0.001327 0.000000 0.013917 0.000000
# 2 -0.007920 0.034378 0.004763 0.000000 -0.002792 0.000000
# 3 -0.001327 0.004763 0.025171 0.000000 0.017995 0.000000
# 4 0.000000 0.000000 0.000000 0.037472 0.000000 -0.001313
# 5 0.013917 -0.002792 0.017995 0.000000 0.056215 0.000000
# 6 0.000000 0.000000 0.000000 -0.001313 0.000000 0.031823
#
#
# Mechanical properties :
#
#
# Convention : Reuss Voigt Hill
#
# Bulk Modulus (GPa) = 13.37385 19.79961 16.58673
# Shear Modulus (GPa) = 20.56409 26.07334 23.31871
#
# Velocity S-wave (km/s) = 3.19222 3.59448 3.39930
# Velocity P-wave (km/s) = 4.49602 5.19985 4.86069
#
# Compressibility (1/GPa) = 0.07477280
#
# Stress axis : x y z
#
# Youngs Moduli (GPa) = 41.33840 29.08801 39.72775
#
# Poissons Ratio (x) = 0.23036 0.05271
# Poissons Ratio (y) = 0.32738 -0.18921
# Poissons Ratio (z) = 0.05485 -0.13853
#
# Static dielectric constant tensor:
#      x y z
#    x 1.707150 0.000000 -0.014620 
#    y 0.000000 1.670430 0.000000 
#    z -0.014620 0.000000 1.730950 
# 
# From -- ./inp_files/28191.got.cif
#   From: 2010.05.17/outbox.cif.g08.bks.cpg/sg8_15_cif.got.tgz:28191.got - 2010.06.03 19:46:02.
