data_PCOD9133180
_publ_section_title
;
Structure prediction by ZEFSAII (Michael W. Deem and Ramdas Pophale) SiO2 
 PCOD9133180
Probable space group: C M
;
_chemical_formula_sum "Si O2"
_cell_formula_units_Z 32
_cell_length_a 25.850523
_cell_length_b 13.745724
_cell_length_c 10.568145
_cell_angle_alpha 90.000000
_cell_angle_beta 153.662841
_cell_angle_gamma 90.000000
_cell_volume 1666.014055
_symmetry_space_group_name_H-M "C M"
_symmetry_group_IT_number 8
_symmetry_cell_setting 'monoclinic'
loop_
_space_group_symop_operation_xyz
x,y,z
x,-y,z
1/2+x,1/2+y,z
1/2+x,1/2-y,z
loop_
_atom_site_type_symbol
_atom_site_label
_atom_site_fract_x
_atom_site_fract_y
_atom_site_fract_z
Si Si1 0.230220 0.260484 0.404410
Si Si2 0.578778 0.609197 0.934934
Si Si3 0.385269 0.888094 0.875282
Si Si4 0.165598 0.612038 0.501930
Si Si5 0.152642 0.381937 0.761547
Si Si6 0.788100 0.610588 0.204371
Si Si7 0.327591 0.685450 0.362419
Si Si8 0.386691 0.116152 0.156645
O O1 0.331547 0.182590 0.654985
O O2 0.210652 0.322421 0.486985
O O3 0.266941 0.325874 0.365625
O O4 0.121395 0.193272 0.123484
O O5 0.596530 0.500000 0.025344
O O6 0.444687 0.624643 0.607881
O O7 0.661948 0.617114 0.993673
O O8 0.347236 0.000000 0.772153
O O9 0.524888 0.887279 0.183868
O O10 0.348367 0.850743 0.934176
O O11 0.204647 0.500000 0.572551
O O12 0.192507 0.642667 0.705628
O O13 0.154566 0.500000 0.775696
O O14 0.017215 0.348476 0.478224
O O15 0.236110 0.339430 0.051609
O O16 0.831971 0.500000 0.322825
O O17 0.858574 0.699728 0.418431
O O18 0.796891 0.628824 0.073723
O O19 0.401375 0.000000 0.171870
#
# Coordination Sequence:
#
# PCOD9133180 Si02
#       8
#     4   4   4   4   4   4   4   4
#     4  11  22  36  56  87 111 149 195 230 274 332
#     4  10  22  40  56  79 120 157 186 228 280 338
#     4   9  18  36  60  82 109 148 185 231 288 336
#     4   9  20  39  60  83 113 143 185 238 285 333
#     4   9  19  37  60  87 114 147 184 234 291 337
#     4   9  20  36  55  82 115 145 185 237 281 326
#     4  11  23  35  59  83 117 154 191 225 284 336
#     4   8  16  33  59  85 109 137 186 241 282 324
#
# _framework density 19.207522000000001
#
# number of rings (size 3 to 8) (size 9 to 14) (size 15 to 20)
#    0.000    2.500    0.000    3.000    5.250    1.500 
#    0.000    0.625    2.750    0.000    0.000    0.000 
#    0.000    0.000    0.000    0.000    0.000    0.000 
#
# Total GULP energy -89187.582866 kJ/mol
# GULP energy per Si atom -5574.223929 kJ/mol
# Density = 1.916380 g / cm^3
# Si number density = 19.207522 Si / 1000 Ang^3
#
#
#
# Elastic Constant Matrix: (Units=GPa)
#
#
# Indices 1 2 3 4 5 6 
#
# 1 100.0264 52.6850 33.2216 0.0000 -28.3477 0.0000
# 2 52.6850 64.2808 20.8892 0.0000 -7.8258 0.0000
# 3 33.2216 20.8892 85.9292 0.0000 -22.9062 0.0000
# 4 0.0000 0.0000 0.0000 25.1658 0.0000 -7.9265
# 5 -28.3477 -7.8258 -22.9062 0.0000 23.0633 0.0000
# 6 0.0000 0.0000 0.0000 -7.9265 0.0000 13.1682
#
#
#
# Elastic Compliance Matrix: (Units=1/GPa)
#
#
# Indices 1 2 3 4 5 6 
#
# 1 0.028728 -0.020491 0.001950 0.000000 0.030295 0.000000
# 2 -0.020491 0.031594 -0.004916 0.000000 -0.019349 0.000000
# 3 0.001950 -0.004916 0.016692 0.000000 0.017308 0.000000
# 4 0.000000 0.000000 0.000000 0.049033 0.000000 0.029515
# 5 0.030295 -0.019349 0.017308 0.000000 0.091219 0.000000
# 6 0.000000 0.000000 0.000000 0.029515 0.000000 0.093706
#
#
# Mechanical properties :
#
#
# Convention : Reuss Voigt Hill
#
# Bulk Modulus (GPa) = 33.22254 51.53645 42.37950
# Shear Modulus (GPa) = 13.58992 21.84216 17.71604
#
# Velocity S-wave (km/s) = 2.66283 3.37585 3.04031
# Velocity P-wave (km/s) = 5.17575 6.48728 5.86827
#
# Compressibility (1/GPa) = 0.03010004
#
# Stress axis : x y z
#
# Youngs Moduli (GPa) = 34.80889 31.65198 59.90826
#
# Poissons Ratio (x) = 0.64860 -0.11684
# Poissons Ratio (y) = 0.71329 0.29450
# Poissons Ratio (z) = -0.06789 0.15559
#
# Static dielectric constant tensor:
#      x y z
#    x 1.694380 0.000000 -0.008550 
#    y 0.000000 1.695610 0.000000 
#    z -0.008550 0.000000 1.649690 
# 
# From -- ./inp_files/17129.got.cif
#   From: 2010.05.17/outbox.cif.g08.bks.cpg/sg8_9_cif.got.tgz:17129.got - 2010.06.03 19:46:02.
