data_PCOD9133041
_publ_section_title
;
Structure prediction by ZEFSAII (Michael W. Deem and Ramdas Pophale) SiO2 
 PCOD9133041
Probable space group: C M
;
_chemical_formula_sum "Si O2"
_cell_formula_units_Z 28
_cell_length_a 8.820097
_cell_length_b 29.520555
_cell_length_c 5.085791
_cell_angle_alpha 90.000000
_cell_angle_beta 117.047106
_cell_angle_gamma 90.000000
_cell_volume 1179.383799
_symmetry_space_group_name_H-M "C M"
_symmetry_group_IT_number 8
_symmetry_cell_setting 'monoclinic'
loop_
_space_group_symop_operation_xyz
x,y,z
x,-y,z
1/2+x,1/2+y,z
1/2+x,1/2-y,z
loop_
_atom_site_type_symbol
_atom_site_label
_atom_site_fract_x
_atom_site_fract_y
_atom_site_fract_z
Si Si1 0.896460 0.551380 0.813720
Si Si2 0.759348 0.206750 0.556128
Si Si3 0.427133 0.214655 0.980480
Si Si4 0.099157 0.168844 0.834534
Si Si5 0.473173 0.626454 0.245493
Si Si6 0.158382 0.049512 0.121474
Si Si7 0.607683 0.860274 0.818158
O O1 0.973084 0.500000 0.908297
O O2 0.761791 0.546857 0.473619
O O3 0.014970 0.592265 0.800842
O O4 0.797715 0.562706 0.008617
O O5 0.806484 0.243357 0.815756
O O6 0.951798 0.201517 0.596043
O O7 0.691471 0.158320 0.613807
O O8 0.605103 0.225426 0.260535
O O9 0.485373 0.181787 0.789754
O O10 0.293091 0.182595 0.019981
O O11 0.075542 0.129027 0.598942
O O12 0.041995 0.162153 0.088236
O O13 0.505504 0.581924 0.091635
O O14 0.275318 0.635871 0.131780
O O15 0.094631 0.000000 0.989279
#
# Coordination Sequence:
#
# PCOD9133041 Si02
#       7
#     4   4   4   4   4   4   4
#     4  10  23  42  70 106 140 186 240 293 360 438
#     4  11  28  45  69 104 140 191 253 303 366 438
#     4  12  26  46  72  98 144 193 244 309 367 433
#     4  11  26  44  69  97 140 180 242 292 361 430
#     4  11  23  43  65 103 135 184 238 294 354 438
#     4  10  21  40  66 100 139 181 234 292 362 431
#     4  11  25  42  70 100 146 189 243 299 366 428
#
# _framework density 23.741209000000001
#
# number of rings (size 3 to 8) (size 9 to 14) (size 15 to 20)
#    0.000    1.143    1.429    3.429   10.000    2.857 
#    0.000    0.000    0.000    6.000    0.000    0.000 
#    0.000    0.000    0.000    0.000    0.000    0.000 
#
# Total GULP energy -77970.179905 kJ/mol
# GULP energy per Si atom -5569.298565 kJ/mol
# Density = 2.368717 g / cm^3
# Si number density = 23.741209 Si / 1000 Ang^3
#
#
#
# Elastic Constant Matrix: (Units=GPa)
#
#
# Indices 1 2 3 4 5 6 
#
# 1 110.7930 26.7452 24.1713 0.0000 -7.7093 0.0000
# 2 26.7452 90.8171 9.3065 0.0000 -4.2458 0.0000
# 3 24.1713 9.3065 86.4473 0.0000 0.1828 0.0000
# 4 0.0000 0.0000 0.0000 18.5606 0.0000 5.5728
# 5 -7.7093 -4.2458 0.1828 0.0000 46.0592 0.0000
# 6 0.0000 0.0000 0.0000 5.5728 0.0000 33.9780
#
#
#
# Elastic Compliance Matrix: (Units=1/GPa)
#
#
# Indices 1 2 3 4 5 6 
#
# 1 0.010353 -0.002712 -0.002606 0.000000 0.001493 0.000000
# 2 -0.002712 0.011894 -0.000523 0.000000 0.000645 0.000000
# 3 -0.002606 -0.000523 0.012354 0.000000 -0.000533 0.000000
# 4 0.000000 0.000000 0.000000 0.056668 0.000000 -0.009294
# 5 0.001493 0.000645 -0.000533 0.000000 0.022023 0.000000
# 6 0.000000 0.000000 0.000000 -0.009294 0.000000 0.030955
#
#
# Mechanical properties :
#
#
# Convention : Reuss Voigt Hill
#
# Bulk Modulus (GPa) = 43.63476 45.38926 44.51201
# Shear Modulus (GPa) = 30.56820 34.90851 32.73836
#
# Velocity S-wave (km/s) = 3.59215 3.83871 3.71747
# Velocity P-wave (km/s) = 5.96858 6.22956 6.10047
#
# Compressibility (1/GPa) = 0.02291751
#
# Stress axis : x y z
#
# Youngs Moduli (GPa) = 96.59082 84.07886 80.94629
#
# Poissons Ratio (x) = 0.22803 0.21094
# Poissons Ratio (y) = 0.26196 0.04237
# Poissons Ratio (z) = 0.25171 0.04401
#
# Static dielectric constant tensor:
#      x y z
#    x 1.951350 0.000000 -0.016060 
#    y 0.000000 2.165400 0.000000 
#    z -0.016060 0.000000 1.960400 
# 
# From -- ./inp_files/2031.got.cif
#   From: 2010.05.17/outbox.cif.g08.bks.cpg/sg8_2_cif.got.tgz:2031.got - 2010.06.03 19:46:02.
