data_PCOD9133268
_publ_section_title
;
Structure prediction by ZEFSAII (Michael W. Deem and Ramdas Pophale) SiO2 
 PCOD9133268
Probable space group: C M
;
_chemical_formula_sum "Si O2"
_cell_formula_units_Z 24
_cell_length_a 7.854915
_cell_length_b 19.226230
_cell_length_c 7.403191
_cell_angle_alpha 90.000000
_cell_angle_beta 124.802185
_cell_angle_gamma 90.000000
_cell_volume 918.047484
_symmetry_space_group_name_H-M "C M"
_symmetry_group_IT_number 8
_symmetry_cell_setting 'monoclinic'
loop_
_space_group_symop_operation_xyz
x,y,z
x,-y,z
1/2+x,1/2+y,z
1/2+x,1/2-y,z
loop_
_atom_site_type_symbol
_atom_site_label
_atom_site_fract_x
_atom_site_fract_y
_atom_site_fract_z
Si Si1 0.937340 0.000000 0.850091
Si Si2 0.372789 0.354533 0.314007
Si Si3 0.683020 0.000000 0.162955
Si Si4 0.010979 0.500000 0.453362
Si Si5 0.025383 0.850299 0.820139
Si Si6 0.802013 0.372916 0.491501
Si Si7 0.737909 0.500000 0.708552
Si Si8 0.454950 0.795446 0.914330
O O1 0.007924 0.079570 0.931475
O O2 0.044556 0.000000 0.719041
O O3 0.689836 0.000000 0.714092
O O4 0.309671 0.430784 0.201724
O O5 0.407876 0.354892 0.553508
O O6 0.586849 0.330981 0.346282
O O7 0.172701 0.309590 0.142154
O O8 0.628394 0.000000 0.339099
O O9 0.456744 0.000000 0.938960
O O10 0.898512 0.424549 0.400360
O O11 0.263614 0.830401 0.909200
O O12 0.927549 0.786023 0.866641
O O13 0.728877 0.433460 0.581788
O O14 0.954001 0.327949 0.709138
#
# Coordination Sequence:
#
# PCOD9133268 Si02
#       8
#     2   4   2   2   4   4   2   4
#     4  12  20  45  68  99 139 193 225 289 353 417
#     4  11  21  44  74  95 141 200 234 280 370 435
#     4  12  19  37  72 105 135 189 242 287 350 429
#     4  11  23  37  67 113 149 173 249 300 349 406
#     4  11  25  44  72 104 144 184 240 297 352 423
#     4  10  22  42  65 102 144 186 233 299 349 422
#     4  11  18  41  67  99 135 191 238 272 354 440
#     4  11  25  43  71 103 139 192 243 289 361 428
#
# _framework density 26.142441000000002
#
# number of rings (size 3 to 8) (size 9 to 14) (size 15 to 20)
#    0.000    1.000    6.667    1.000    2.333    2.667 
#    3.000    3.333    0.000    0.000    0.000    0.000 
#    0.000    0.000    0.000    0.000    0.000    0.000 
#
# Total GULP energy -67053.147706 kJ/mol
# GULP energy per Si atom -5587.762309 kJ/mol
# Density = 2.608294 g / cm^3
# Si number density = 26.142441 Si / 1000 Ang^3
#
#
#
# Elastic Constant Matrix: (Units=GPa)
#
#
# Indices 1 2 3 4 5 6 
#
# 1 104.2582 29.1722 56.7957 0.0000 26.0897 0.0000
# 2 29.1722 162.0947 22.1597 0.0000 3.0478 0.0000
# 3 56.7957 22.1597 140.7909 0.0000 41.4660 0.0000
# 4 0.0000 0.0000 0.0000 31.4123 0.0000 -13.5475
# 5 26.0897 3.0478 41.4660 0.0000 46.7528 0.0000
# 6 0.0000 0.0000 0.0000 -13.5475 0.0000 48.5616
#
#
#
# Elastic Compliance Matrix: (Units=1/GPa)
#
#
# Indices 1 2 3 4 5 6 
#
# 1 0.013162 -0.001761 -0.003929 0.000000 -0.003745 0.000000
# 2 -0.001761 0.006555 -0.000656 0.000000 0.001138 0.000000
# 3 -0.003929 -0.000656 0.011008 0.000000 -0.007528 0.000000
# 4 0.000000 0.000000 0.000000 0.036189 0.000000 0.010096
# 5 -0.003745 0.001138 -0.007528 0.000000 0.030081 0.000000
# 6 0.000000 0.000000 0.000000 0.010096 0.000000 0.023409
#
#
# Mechanical properties :
#
#
# Convention : Reuss Voigt Hill
#
# Bulk Modulus (GPa) = 55.45928 69.26656 62.36292
# Shear Modulus (GPa) = 35.94320 45.27974 40.61147
#
# Velocity S-wave (km/s) = 3.71198 4.16629 3.94568
# Velocity P-wave (km/s) = 6.29540 7.04963 6.68317
#
# Compressibility (1/GPa) = 0.01803125
#
# Stress axis : x y z
#
# Youngs Moduli (GPa) = 75.97549 152.56662 90.84018
#
# Poissons Ratio (x) = 0.26870 0.35696
# Poissons Ratio (y) = 0.13381 0.05961
# Poissons Ratio (z) = 0.29855 0.10011
#
# Static dielectric constant tensor:
#      x y z
#    x 2.076520 0.000000 0.049860 
#    y 0.000000 1.932480 0.000000 
#    z 0.049860 0.000000 2.203660 
# 
# From -- ./inp_files/8776.got.cif
#   From: 2010.05.17/outbox.cif.g08.bks.cpg/sg8_5_cif.got.tgz:8776.got - 2010.06.03 19:46:02.
