data_PCOD9133023
_publ_section_title
;
Structure prediction by ZEFSAII (Michael W. Deem and Ramdas Pophale) SiO2 
 PCOD9133023
Probable space group: C M
;
_chemical_formula_sum "Si O2"
_cell_formula_units_Z 32
_cell_length_a 10.882436
_cell_length_b 22.530915
_cell_length_c 7.561793
_cell_angle_alpha 90.000000
_cell_angle_beta 59.070638
_cell_angle_gamma 90.000000
_cell_volume 1590.437468
_symmetry_space_group_name_H-M "C M"
_symmetry_group_IT_number 8
_symmetry_cell_setting 'monoclinic'
loop_
_space_group_symop_operation_xyz
x,y,z
x,-y,z
1/2+x,1/2+y,z
1/2+x,1/2-y,z
loop_
_atom_site_type_symbol
_atom_site_label
_atom_site_fract_x
_atom_site_fract_y
_atom_site_fract_z
Si Si1 0.393870 0.713050 0.190890
Si Si2 0.723621 0.172370 0.790098
Si Si3 0.943966 0.934619 0.624790
Si Si4 0.063829 0.110927 0.885723
Si Si5 0.097988 0.715263 0.255104
Si Si6 0.415511 0.166940 0.949564
Si Si7 0.311058 0.803932 0.638129
Si Si8 0.197217 0.067180 0.152381
O O1 0.441840 0.653249 0.058878
O O2 0.218499 0.715676 0.320608
O O3 0.519522 0.723249 0.248152
O O4 0.419661 0.772134 0.055661
O O5 0.578886 0.147995 0.810764
O O6 0.771496 0.234268 0.665292
O O7 0.841447 0.121993 0.687037
O O8 0.680463 0.188192 0.025061
O O9 0.068737 0.928319 0.387476
O O10 0.876782 0.000000 0.646777
O O11 0.005615 0.931564 0.777862
O O12 0.138762 0.079400 0.996911
O O13 0.174548 0.155414 0.704170
O O14 0.952717 0.681861 0.420661
O O15 0.350957 0.183193 0.809825
O O16 0.316731 0.116354 0.104676
O O17 0.254176 0.000000 0.118724
#
# Coordination Sequence:
#
# PCOD9133023 Si02
#       8
#     4   4   4   4   4   4   4   4
#     4  11  21  39  56  95 128 161 197 256 323 375
#     4  11  23  39  57  90 126 159 200 258 310 382
#     4  11  25  42  65  90 120 170 216 254 308 367
#     4  11  21  42  66  92 129 158 207 265 311 380
#     4  11  23  35  58  89 132 162 203 246 320 387
#     4  10  21  40  59  87 126 157 202 256 314 373
#     4  11  23  36  61  96 124 162 199 256 326 386
#     4  10  24  43  65  91 119 167 218 259 306 368
#
# _framework density 20.120251
#
# number of rings (size 3 to 8) (size 9 to 14) (size 15 to 20)
#    0.000    1.250    5.000    1.125    8.750    0.500 
#    0.000    0.000    0.000    0.750    0.000    0.000 
#    0.000    0.000    0.000    0.000    0.000    0.000 
#
# Total GULP energy -89211.994964 kJ/mol
# GULP energy per Si atom -5575.749685 kJ/mol
# Density = 2.007446 g / cm^3
# Si number density = 20.120251 Si / 1000 Ang^3
#
#
#
# Elastic Constant Matrix: (Units=GPa)
#
#
# Indices 1 2 3 4 5 6 
#
# 1 74.0721 19.0342 7.2925 0.0000 -17.1631 0.0000
# 2 19.0342 96.4147 26.9708 0.0000 -1.8506 0.0000
# 3 7.2925 26.9708 66.6820 0.0000 -11.8653 0.0000
# 4 0.0000 0.0000 0.0000 -0.8062 0.0000 20.0298
# 5 -17.1631 -1.8506 -11.8653 0.0000 24.0735 0.0000
# 6 0.0000 0.0000 0.0000 20.0298 0.0000 -3.4432
#
#
#
# Elastic Compliance Matrix: (Units=1/GPa)
#
#
# Indices 1 2 3 4 5 6 
#
# 1 0.017267 -0.003695 0.001914 0.000000 0.012969 0.000000
# 2 -0.003695 0.012540 -0.005443 0.000000 -0.004353 0.000000
# 3 0.001914 -0.005443 0.018806 0.000000 0.010215 0.000000
# 4 0.000000 0.000000 0.000000 0.008642 0.000000 0.050273
# 5 0.012969 -0.004353 0.010215 0.000000 0.055486 0.000000
# 6 0.000000 0.000000 0.000000 0.050273 0.000000 0.002023
#
#
# Mechanical properties :
#
#
# Convention : Reuss Voigt Hill
#
# Bulk Modulus (GPa) = 29.26920 38.19597 33.73258
# Shear Modulus (GPa) = 35.56150 16.22291 25.89220
#
# Velocity S-wave (km/s) = 4.20866 2.84262 3.59119
# Velocity P-wave (km/s) = 6.18028 5.45885 5.83073
#
# Compressibility (1/GPa) = 0.03416561
#
# Stress axis : x y z
#
# Youngs Moduli (GPa) = 57.91527 79.74266 53.17359
#
# Poissons Ratio (x) = 0.29467 -0.10178
# Poissons Ratio (y) = 0.21401 0.28940
# Poissons Ratio (z) = -0.11085 0.43401
#
# Static dielectric constant tensor:
#      x y z
#    x 1.789230 0.000000 0.018170 
#    y 0.000000 1.699010 0.000000 
#    z 0.018170 0.000000 1.765010 
# 
# From -- ./inp_files/11443.got.cif
#   From: 2010.05.17/outbox.cif.g08.bks.cpg/sg8_6_cif.got.tgz:11443.got - 2010.06.03 19:46:02.
