data_PCOD9133550
_publ_section_title
;
Structure prediction by ZEFSAII (Michael W. Deem and Ramdas Pophale) SiO2 
 PCOD9133550
Probable space group: C M
;
_chemical_formula_sum "Si O2"
_cell_formula_units_Z 20
_cell_length_a 4.826874
_cell_length_b 29.232128
_cell_length_c 5.594392
_cell_angle_alpha 90.000000
_cell_angle_beta 80.656165
_cell_angle_gamma 90.000000
_cell_volume 778.894090
_symmetry_space_group_name_H-M "C M"
_symmetry_group_IT_number 8
_symmetry_cell_setting 'monoclinic'
loop_
_space_group_symop_operation_xyz
x,y,z
x,-y,z
1/2+x,1/2+y,z
1/2+x,1/2-y,z
loop_
_atom_site_type_symbol
_atom_site_label
_atom_site_fract_x
_atom_site_fract_y
_atom_site_fract_z
Si Si1 0.061290 0.780248 0.087850
Si Si2 0.936630 0.149496 0.466317
Si Si3 0.482551 0.576134 0.114086
Si Si4 0.661236 0.000000 0.916108
Si Si5 0.861185 0.364413 0.786602
Si Si6 0.187874 0.500000 0.407338
O O1 0.254110 0.735408 0.054207
O O2 0.028581 0.800880 0.359799
O O3 0.212791 0.818924 0.910088
O O4 0.681490 0.145230 0.684039
O O5 0.851950 0.123083 0.234046
O O6 0.203033 0.126629 0.557365
O O7 0.395509 0.542941 0.344644
O O8 0.352903 0.545273 0.921082
O O9 0.782471 0.594102 0.976998
O O10 0.528321 0.000000 0.676887
O O11 0.498098 0.000000 0.192253
#
# Coordination Sequence:
#
# PCOD9133550 Si02
#       6
#     4   4   4   2   4   2
#     4  11  24  41  60  91 124 161 216 269 326 393
#     4  11  23  40  63  90 125 168 212 268 329 390
#     4   8  20  35  62  92 128 168 214 275 316 400
#     4   8  16  34  62  95 132 175 221 273 326 392
#     4  11  23  40  63  90 125 168 212 268 329 390
#     4   8  16  34  62  95 132 175 221 273 326 392
#
# _framework density 25.677432
#
# number of rings (size 3 to 8) (size 9 to 14) (size 15 to 20)
#    1.200    0.800    0.000    3.600    0.000    9.600 
#    0.000    4.000    0.000   12.000    0.000    0.000 
#    0.000    0.000    0.000    0.000    0.000    0.000 
#
# Total GULP energy -55768.243001 kJ/mol
# GULP energy per Si atom -5576.824300 kJ/mol
# Density = 2.561899 g / cm^3
# Si number density = 25.677432 Si / 1000 Ang^3
#
#
#
# Elastic Constant Matrix: (Units=GPa)
#
#
# Indices 1 2 3 4 5 6 
#
# 1 89.5188 6.7018 21.7172 0.0000 -20.1756 0.0000
# 2 6.7018 85.9229 15.3196 0.0000 -9.0606 0.0000
# 3 21.7172 15.3196 142.5252 0.0000 -3.3532 0.0000
# 4 0.0000 0.0000 0.0000 37.3875 0.0000 1.4579
# 5 -20.1756 -9.0606 -3.3532 0.0000 37.4715 0.0000
# 6 0.0000 0.0000 0.0000 1.4579 0.0000 20.3715
#
#
#
# Elastic Compliance Matrix: (Units=1/GPa)
#
#
# Indices 1 2 3 4 5 6 
#
# 1 0.013181 0.000033 -0.001849 0.000000 0.006940 0.000000
# 2 0.000033 0.012158 -0.001245 0.000000 0.002846 0.000000
# 3 -0.001849 -0.001245 0.007417 0.000000 -0.000633 0.000000
# 4 0.000000 0.000000 0.000000 0.026822 0.000000 -0.001919
# 5 0.006940 0.002846 -0.000633 0.000000 0.031055 0.000000
# 6 0.000000 0.000000 0.000000 -0.001919 0.000000 0.049226
#
#
# Mechanical properties :
#
#
# Convention : Reuss Voigt Hill
#
# Bulk Modulus (GPa) = 37.54466 45.04935 41.29700
# Shear Modulus (GPa) = 32.28786 37.32797 34.80791
#
# Velocity S-wave (km/s) = 3.54989 3.81691 3.68582
# Velocity P-wave (km/s) = 5.60854 6.08338 5.85078
#
# Compressibility (1/GPa) = 0.02663495
#
# Stress axis : x y z
#
# Youngs Moduli (GPa) = 75.86757 82.25146 134.82666
#
# Poissons Ratio (x) = -0.00274 0.24926
# Poissons Ratio (y) = -0.00253 0.16785
# Poissons Ratio (z) = 0.14026 0.10240
#
# Static dielectric constant tensor:
#      x y z
#    x 1.964520 0.000000 0.084890 
#    y 0.000000 2.070140 0.000000 
#    z 0.084890 0.000000 2.078680 
# 
# From -- ./inp_files/585.got.cif
#   From: 2010.05.17/outbox.cif.g08.bks.cpg/sg8_1_cif.got.tgz:585.got - 2010.06.03 19:46:02.
