data_PCOD9133900
_publ_section_title
;
Structure prediction by ZEFSAII (Michael W. Deem and Ramdas Pophale) SiO2 
 PCOD9133900
Probable space group: C C
;
_chemical_formula_sum "Si O2"
_cell_formula_units_Z 28
_cell_length_a 27.918287
_cell_length_b 9.417001
_cell_length_c 8.911126
_cell_angle_alpha 90.000000
_cell_angle_beta 140.422108
_cell_angle_gamma 90.000000
_cell_volume 1492.655993
_symmetry_space_group_name_H-M "C C"
_symmetry_group_IT_number 9
_symmetry_cell_setting 'monoclinic'
loop_
_space_group_symop_operation_xyz
x,y,z
x,-y,1/2+z
1/2+x,1/2+y,z
1/2+x,1/2-y,1/2+z
loop_
_atom_site_type_symbol
_atom_site_label
_atom_site_fract_x
_atom_site_fract_y
_atom_site_fract_z
Si Si1 0.276990 0.868161 0.888520
Si Si2 0.874698 0.518424 0.378185
Si Si3 0.247272 0.329349 0.848330
Si Si4 0.414328 0.792728 0.724808
Si Si5 0.204477 0.377706 0.396219
Si Si6 0.571822 0.667675 0.119327
Si Si7 0.645494 0.432318 0.091256
O O1 0.250882 0.720138 0.892065
O O2 0.336673 0.870110 0.899835
O O3 0.206759 0.962230 0.663805
O O4 0.313786 0.951595 0.117688
O O5 0.904345 0.391545 0.554086
O O6 0.930636 0.601632 0.404142
O O7 0.231618 0.356722 0.633230
O O8 0.219735 0.463359 0.878156
O O9 0.195968 0.196427 0.773777
O O10 0.335199 0.285604 0.068454
O O11 0.484792 0.691033 0.877474
O O12 0.120981 0.307294 0.192798
O O13 0.603710 0.532371 0.107175
O O14 0.589460 0.633902 0.334846
#
# Coordination Sequence:
#
# PCOD9133900 Si02
#       7
#     4   4   4   4   4   4   4
#     4  10  17  37  63  92 109 161 215 254 286 370
#     4  10  19  36  66  87 120 162 207 253 308 366
#     4  11  22  37  62  90 123 155 217 249 303 361
#     4  11  23  39  62  95 125 157 206 263 310 369
#     4  10  23  37  59  90 123 159 203 260 300 362
#     4  10  24  42  60  90 128 158 205 252 321 367
#     4  10  20  40  66  86 120 168 209 245 304 385
#
# _framework density 18.758507999999999
#
# number of rings (size 3 to 8) (size 9 to 14) (size 15 to 20)
#    0.000    1.714    4.286    1.714    2.000    4.571 
#    0.000    1.429    0.000    0.000    0.000    0.000 
#    0.000    0.000    0.000    0.000    0.000    0.000 
#
# Total GULP energy -78082.143729 kJ/mol
# GULP energy per Si atom -5577.295981 kJ/mol
# Density = 1.871581 g / cm^3
# Si number density = 18.758508 Si / 1000 Ang^3
#
#
#
# Elastic Constant Matrix: (Units=GPa)
#
#
# Indices 1 2 3 4 5 6 
#
# 1 69.7219 45.7577 45.8235 0.0000 5.1674 0.0000
# 2 45.7577 121.2869 34.6433 0.0000 13.7217 0.0000
# 3 45.8235 34.6433 78.7714 0.0000 9.7360 0.0000
# 4 0.0000 0.0000 0.0000 23.9213 0.0000 -3.4941
# 5 5.1674 13.7217 9.7360 0.0000 27.3681 0.0000
# 6 0.0000 0.0000 0.0000 -3.4941 0.0000 21.8924
#
#
#
# Elastic Compliance Matrix: (Units=1/GPa)
#
#
# Indices 1 2 3 4 5 6 
#
# 1 0.027338 -0.006867 -0.013253 0.000000 0.002996 0.000000
# 2 -0.006867 0.011467 -0.000521 0.000000 -0.004267 0.000000
# 3 -0.013253 -0.000521 0.021226 0.000000 -0.004787 0.000000
# 4 0.000000 0.000000 0.000000 0.042802 0.000000 0.006831
# 5 0.002996 -0.004267 -0.004787 0.000000 0.039816 0.000000
# 6 0.000000 0.000000 0.000000 0.006831 0.000000 0.046768
#
#
# Mechanical properties :
#
#
# Convention : Reuss Voigt Hill
#
# Bulk Modulus (GPa) = 53.33956 58.02546 55.68251
# Shear Modulus (GPa) = 21.10158 24.20676 22.65417
#
# Velocity S-wave (km/s) = 3.35760 3.59617 3.47893
# Velocity P-wave (km/s) = 6.59757 6.94574 6.77389
#
# Compressibility (1/GPa) = 0.01874781
#
# Stress axis : x y z
#
# Youngs Moduli (GPa) = 36.57900 87.20469 47.11270
#
# Poissons Ratio (x) = 0.59885 0.62441
# Poissons Ratio (y) = 0.25119 0.02455
# Poissons Ratio (z) = 0.48480 0.04543
#
# Static dielectric constant tensor:
#      x y z
#    x 1.649080 0.000000 -0.004830 
#    y 0.000000 1.661490 0.000000 
#    z -0.004830 0.000000 1.652620 
# 
# From -- ./inp_files/10352.got.cif
#   From: 2010.05.17/outbox.cif.g08.bks.cpg/sg9_6_cif.got.tgz:10352.got - 2010.06.03 20:04:27.
