data_PCOD9133949
_publ_section_title
;
Structure prediction by ZEFSAII (Michael W. Deem and Ramdas Pophale) SiO2 
 PCOD9133949
Probable space group: C C
;
_chemical_formula_sum "Si O2"
_cell_formula_units_Z 28
_cell_length_a 10.167223
_cell_length_b 25.179738
_cell_length_c 5.438416
_cell_angle_alpha 90.000000
_cell_angle_beta 57.354346
_cell_angle_gamma 90.000000
_cell_volume 1172.329917
_symmetry_space_group_name_H-M "C C"
_symmetry_group_IT_number 9
_symmetry_cell_setting 'monoclinic'
loop_
_space_group_symop_operation_xyz
x,y,z
x,-y,1/2+z
1/2+x,1/2+y,z
1/2+x,1/2-y,1/2+z
loop_
_atom_site_type_symbol
_atom_site_label
_atom_site_fract_x
_atom_site_fract_y
_atom_site_fract_z
Si Si1 0.446090 0.525667 0.289490
Si Si2 0.279347 0.704417 0.996070
Si Si3 0.467767 0.205684 0.526803
Si Si4 0.802361 0.515255 0.345411
Si Si5 0.191856 0.779837 0.687479
Si Si6 0.990897 0.138947 0.093050
Si Si7 0.273241 0.871337 0.973014
O O1 0.381188 0.497394 0.598245
O O2 0.431366 0.589636 0.314345
O O3 0.630438 0.508591 0.081554
O O4 0.409016 0.749414 0.898845
O O5 0.370705 0.652283 0.992514
O O6 0.152156 0.712403 0.343045
O O7 0.199288 0.722054 0.819103
O O8 0.431490 0.149553 0.435084
O O9 0.352345 0.210078 0.873495
O O10 0.880609 0.512780 0.535316
O O11 0.790065 0.577218 0.292928
O O12 0.046768 0.806864 0.678693
O O13 0.200929 0.822250 0.899974
O O14 0.149000 0.117205 0.810852
#
# Coordination Sequence:
#
# PCOD9133949 Si02
#       7
#     4   4   4   4   4   4   4
#     4  10  19  35  61  98 132 164 221 278 330 388
#     4  11  24  43  61  91 128 167 218 270 325 404
#     4  10  23  40  61  90 124 163 220 264 326 396
#     4  10  18  31  57  93 128 159 212 271 323 379
#     4  10  22  41  63  88 131 169 213 277 329 393
#     4  11  22  37  66  97 127 174 219 272 337 391
#     4  10  20  35  61  93 122 166 213 266 328 389
#
# _framework density 23.884060999999999
#
# number of rings (size 3 to 8) (size 9 to 14) (size 15 to 20)
#    0.000    1.714    2.857    4.286    2.000    6.857 
#    0.000    1.429    0.000    1.714    0.000    0.000 
#    0.000    0.000    0.000    0.000    0.000    0.000 
#
# Total GULP energy -78016.875459 kJ/mol
# GULP energy per Si atom -5572.633961 kJ/mol
# Density = 2.382970 g / cm^3
# Si number density = 23.884061 Si / 1000 Ang^3
#
#
#
# Elastic Constant Matrix: (Units=GPa)
#
#
# Indices 1 2 3 4 5 6 
#
# 1 70.3091 31.1293 34.6892 0.0000 11.6462 0.0000
# 2 31.1293 98.5289 -4.1826 0.0000 5.6288 0.0000
# 3 34.6892 -4.1826 75.2922 0.0000 22.8770 0.0000
# 4 0.0000 0.0000 0.0000 21.6869 0.0000 15.8671
# 5 11.6462 5.6288 22.8770 0.0000 42.9455 0.0000
# 6 0.0000 0.0000 0.0000 15.8671 0.0000 27.2888
#
#
#
# Elastic Compliance Matrix: (Units=1/GPa)
#
#
# Indices 1 2 3 4 5 6 
#
# 1 0.023165 -0.007846 -0.011349 0.000000 0.000792 0.000000
# 2 -0.007846 0.012969 0.005017 0.000000 -0.002245 0.000000
# 3 -0.011349 0.005017 0.021540 0.000000 -0.009054 0.000000
# 4 0.000000 0.000000 0.000000 0.080251 0.000000 -0.046662
# 5 0.000792 -0.002245 -0.009054 0.000000 0.028188 0.000000
# 6 0.000000 0.000000 0.000000 -0.046662 0.000000 0.063777
#
#
# Mechanical properties :
#
#
# Convention : Reuss Voigt Hill
#
# Bulk Modulus (GPa) = 34.10730 40.82246 37.46488
# Shear Modulus (GPa) = 18.65544 30.55054 24.60299
#
# Velocity S-wave (km/s) = 2.79782 3.58036 3.21300
# Velocity P-wave (km/s) = 4.97478 5.84987 5.42998
#
# Compressibility (1/GPa) = 0.02931924
#
# Stress axis : x y z
#
# Youngs Moduli (GPa) = 43.16870 77.10491 46.42455
#
# Poissons Ratio (x) = 0.60495 0.52688
# Poissons Ratio (y) = 0.33869 -0.23293
# Poissons Ratio (z) = 0.48993 -0.38686
#
# Static dielectric constant tensor:
#      x y z
#    x 2.018960 0.000000 0.132690 
#    y 0.000000 1.962800 0.000000 
#    z 0.132690 0.000000 1.965690 
# 
# From -- ./inp_files/1927.got.cif
#   From: 2010.05.17/outbox.cif.g08.bks.cpg/sg9_1_cif.got.tgz:1927.got - 2010.06.03 20:04:27.
