data_PCOD9133477
_publ_section_title
;
Structure prediction by ZEFSAII (Michael W. Deem and Ramdas Pophale) SiO2 
 PCOD9133477
Probable space group: C M
;
_chemical_formula_sum "Si O2"
_cell_formula_units_Z 32
_cell_length_a 20.339452
_cell_length_b 16.487230
_cell_length_c 20.509795
_cell_angle_alpha 90.000000
_cell_angle_beta 165.759677
_cell_angle_gamma 90.000000
_cell_volume 1691.862224
_symmetry_space_group_name_H-M "C M"
_symmetry_group_IT_number 8
_symmetry_cell_setting 'monoclinic'
loop_
_space_group_symop_operation_xyz
x,y,z
x,-y,z
1/2+x,1/2+y,z
1/2+x,1/2-y,z
loop_
_atom_site_type_symbol
_atom_site_label
_atom_site_fract_x
_atom_site_fract_y
_atom_site_fract_z
Si Si1 0.059120 0.093925 0.556420
Si Si2 0.056054 0.093098 0.398060
Si Si3 0.506136 0.094280 0.438303
Si Si4 0.548899 0.196894 0.064960
Si Si5 0.654179 0.906835 0.809842
Si Si6 0.193198 0.140198 0.269474
Si Si7 0.587745 0.175739 0.876206
Si Si8 0.055091 0.810248 0.943983
O O1 0.104587 0.099866 0.522052
O O2 0.759152 0.125041 0.276719
O O3 0.097673 0.000000 0.612211
O O4 0.258248 0.156466 0.782866
O O5 0.283562 0.145498 0.582859
O O6 0.085817 0.000000 0.407493
O O7 0.765498 0.123169 0.097444
O O8 0.358613 0.109763 0.365573
O O9 0.768932 0.149018 0.682438
O O10 0.573394 0.000000 0.497254
O O11 0.287062 0.124157 0.175917
O O12 0.610885 0.266726 0.176924
O O13 0.591601 0.243195 0.036683
O O14 0.390801 0.877393 0.519017
O O15 0.705716 0.845985 0.919298
O O16 0.618879 0.000000 0.798693
O O17 0.911560 0.904024 0.010176
O O18 0.581298 0.265102 0.900308
#
# Coordination Sequence:
#
# PCOD9133477 Si02
#       8
#     4   4   4   4   4   4   4   4
#     4  11  20  32  54  84 117 149 187 233 291 356
#     4  11  20  33  52  80 118 160 190 224 276 344
#     4  11  22  38  61  87 114 147 189 254 308 344
#     4  11  20  37  55  83 115 151 196 243 298 341
#     4  12  24  40  58  86 122 165 205 233 273 348
#     4  11  24  39  61  83 117 160 205 245 287 341
#     4  12  23  37  56  83 123 160 196 235 281 345
#     4  11  21  36  57  86 116 150 190 239 300 363
#
# _framework density 18.914069999999999
#
# number of rings (size 3 to 8) (size 9 to 14) (size 15 to 20)
#    0.000    0.750    2.500    8.250    0.000    2.000 
#    0.000    0.000    0.000    0.000    0.000   17.500 
#    0.000    0.000    0.000    0.000    0.000    0.000 
#
# Total GULP energy -89384.855558 kJ/mol
# GULP energy per Si atom -5586.553472 kJ/mol
# Density = 1.887102 g / cm^3
# Si number density = 18.914070 Si / 1000 Ang^3
#
#
#
# Elastic Constant Matrix: (Units=GPa)
#
#
# Indices 1 2 3 4 5 6 
#
# 1 44.5087 32.7029 8.4541 0.2836 -4.7704 0.2168
# 2 32.7029 90.3953 19.0669 0.5946 -6.7506 0.5298
# 3 8.4541 19.0669 82.9777 0.8839 -13.0045 0.6340
# 4 0.2836 0.5946 0.8839 72.3136 0.7737 31.5367
# 5 -4.7704 -6.7506 -13.0045 0.7737 8.9097 0.6222
# 6 0.2168 0.5298 0.6340 31.5367 0.6222 38.7704
#
#
#
# Elastic Compliance Matrix: (Units=1/GPa)
#
#
# Indices 1 2 3 4 5 6 
#
# 1 0.031262 -0.010750 0.000825 -0.000097 0.009815 -0.000120
# 2 -0.010750 0.015610 -0.001992 -0.000033 0.003177 -0.000145
# 3 0.000825 -0.001992 0.015911 -0.000248 0.022204 -0.000392
# 4 -0.000097 -0.000033 -0.000248 0.021440 -0.001084 -0.017417
# 5 0.009815 0.003177 0.022204 -0.001084 0.152544 -0.002028
# 6 -0.000120 -0.000145 -0.000392 -0.017417 -0.002028 0.040002
#
#
# Mechanical properties :
#
#
# Convention : Reuss Voigt Hill
#
# Bulk Modulus (GPa) = 25.67456 37.59216 31.63336
# Shear Modulus (GPa) = 15.94461 34.50925 25.22693
#
# Velocity S-wave (km/s) = 2.90660 4.27608 3.65604
# Velocity P-wave (km/s) = 4.98680 6.65569 5.88075
#
# Compressibility (1/GPa) = 0.03894906
#
# Stress axis : x y z
#
# Youngs Moduli (GPa) = 31.98739 64.06117 62.85072
#
# Poissons Ratio (x) = 0.68864 -0.05186
# Poissons Ratio (y) = 0.34386 0.12522
# Poissons Ratio (z) = -0.02639 0.12764
#
# Static dielectric constant tensor:
#      x y z
#    x 1.677390 -0.000070 -0.005250 
#    y -0.000070 1.662120 -0.000080 
#    z -0.005250 -0.000080 1.643800 
# 
# From -- ./inp_files/32584.got.cif
#   From: 2010.05.17/outbox.cif.g08.bks.cpg/sg8_17_cif.got.tgz:32584.got - 2010.06.03 19:46:02.
