data_PCOD9133223
_publ_section_title
;
Structure prediction by ZEFSAII (Michael W. Deem and Ramdas Pophale) SiO2 
 PCOD9133223
Probable space group: C M
;
_chemical_formula_sum "Si O2"
_cell_formula_units_Z 26
_cell_length_a 28.323769
_cell_length_b 7.850062
_cell_length_c 19.823383
_cell_angle_alpha 90.000000
_cell_angle_beta 15.681014
_cell_angle_gamma 90.000000
_cell_volume 1191.291666
_symmetry_space_group_name_H-M "C M"
_symmetry_group_IT_number 8
_symmetry_cell_setting 'monoclinic'
loop_
_space_group_symop_operation_xyz
x,y,z
x,-y,z
1/2+x,1/2+y,z
1/2+x,1/2-y,z
loop_
_atom_site_type_symbol
_atom_site_label
_atom_site_fract_x
_atom_site_fract_y
_atom_site_fract_z
Si Si1 0.678340 0.805955 0.484520
Si Si2 0.411135 0.308269 0.284839
Si Si3 0.419442 0.000000 0.368546
Si Si4 0.112265 0.198557 0.427927
Si Si5 0.798123 0.801065 0.769157
Si Si6 0.815215 0.192798 0.020350
Si Si7 0.537446 0.691694 0.305673
O O1 0.683950 0.781218 0.396871
O O2 0.521231 0.694923 0.729330
O O3 0.852530 0.776604 0.287992
O O4 0.624680 0.000000 0.571039
O O5 0.351223 0.500000 0.385131
O O6 0.343904 0.152914 0.422292
O O7 0.620497 0.298742 0.003936
O O8 0.493982 0.153082 0.316634
O O9 0.927521 0.260028 0.650250
O O10 0.084298 0.000000 0.480977
O O11 0.248939 0.218788 0.179266
O O12 0.908833 0.800017 0.547918
O O13 0.743408 0.000000 0.859031
O O14 0.747385 0.000000 0.114975
O O15 0.728133 0.283748 0.076021
O O16 0.521895 0.500000 0.298203
#
# Coordination Sequence:
#
# PCOD9133223 Si02
#       7
#     4   4   2   4   4   4   4
#     4  11  25  44  63  92 133 176 218 272 327 387
#     4  11  26  43  64  94 133 172 220 267 323 388
#     4  12  24  42  66  96 130 176 212 274 318 400
#     4  10  22  40  68  98 126 170 217 269 331 382
#     4   9  20  41  66  96 130 166 214 268 321 389
#     4  11  22  40  67  99 132 169 219 272 323 393
#     4  10  22  41  66 100 133 166 214 271 328 384
#
# _framework density 21.825050999999998
#
# number of rings (size 3 to 8) (size 9 to 14) (size 15 to 20)
#    0.000    1.538    1.538    3.692    5.385    1.231 
#    2.769    0.000    0.000    0.000    0.000    0.000 
#    0.000    0.000    0.000    0.000    0.000    0.000 
#
# Total GULP energy -72386.571659 kJ/mol
# GULP energy per Si atom -5568.197820 kJ/mol
# Density = 2.177538 g / cm^3
# Si number density = 21.825051 Si / 1000 Ang^3
#
#
#
# Elastic Constant Matrix: (Units=GPa)
#
#
# Indices 1 2 3 4 5 6 
#
# 1 169.3868 56.1579 27.8465 0.0000 -22.7582 0.0000
# 2 56.1579 157.3793 9.7020 0.0000 -12.0959 0.0000
# 3 27.8465 9.7020 -36.3693 0.0000 69.1737 0.0000
# 4 0.0000 0.0000 0.0000 26.7594 -0.0001 0.0958
# 5 -22.7582 -12.0959 69.1737 -0.0001 -58.8001 0.0000
# 6 0.0000 0.0000 0.0000 0.0958 0.0000 36.2815
#
#
#
# Elastic Compliance Matrix: (Units=1/GPa)
#
#
# Indices 1 2 3 4 5 6 
#
# 1 0.006457 -0.002469 -0.000402 0.000000 -0.002465 0.000000
# 2 -0.002469 0.007217 0.000785 0.000000 0.000394 0.000000
# 3 -0.000402 0.000785 0.022307 0.000000 0.026236 0.000000
# 4 0.000000 0.000000 0.000000 0.037370 0.000000 -0.000099
# 5 -0.002465 0.000394 0.026236 0.000000 0.014731 0.000000
# 6 0.000000 0.000000 0.000000 -0.000099 0.000000 0.027563
#
#
# Mechanical properties :
#
#
# Convention : Reuss Voigt Hill
#
# Bulk Modulus (GPa) = 31.43821 53.08996 42.26409
# Shear Modulus (GPa) = 38.33770 13.96087 26.14928
#
# Velocity S-wave (km/s) = 4.19572 2.53192 3.46516
# Velocity P-wave (km/s) = 6.15695 5.73808 5.95120
#
# Compressibility (1/GPa) = 0.03180843
#
# Stress axis : x y z
#
# Youngs Moduli (GPa) = 154.86776 138.56337 44.82949
#
# Poissons Ratio (x) = 0.34208 0.01804
# Poissons Ratio (y) = 0.38233 -0.03519
# Poissons Ratio (z) = 0.06231 -0.10876
#
# Static dielectric constant tensor:
#      x y z
#    x 1.873630 0.000000 0.013040 
#    y 0.000000 1.773420 0.000000 
#    z 0.013040 0.000000 1.838990 
# 
# From -- ./inp_files/30069.got.cif
#   From: 2010.05.17/outbox.cif.g08.bks.cpg/sg8_16_cif.got.tgz:30069.got - 2010.06.03 19:46:02.
