data_PCOD9133370
_publ_section_title
;
Structure prediction by ZEFSAII (Michael W. Deem and Ramdas Pophale) SiO2 
 PCOD9133370
Probable space group: C M
;
_chemical_formula_sum "Si O2"
_cell_formula_units_Z 30
_cell_length_a 9.118232
_cell_length_b 32.720726
_cell_length_c 4.929728
_cell_angle_alpha 90.000000
_cell_angle_beta 119.552947
_cell_angle_gamma 90.000000
_cell_volume 1279.457886
_symmetry_space_group_name_H-M "C M"
_symmetry_group_IT_number 8
_symmetry_cell_setting 'monoclinic'
loop_
_space_group_symop_operation_xyz
x,y,z
x,-y,z
1/2+x,1/2+y,z
1/2+x,1/2-y,z
loop_
_atom_site_type_symbol
_atom_site_label
_atom_site_fract_x
_atom_site_fract_y
_atom_site_fract_z
Si Si1 0.058800 0.000000 0.492841
Si Si2 0.423331 0.568564 0.667727
Si Si3 0.726082 0.434454 0.319074
Si Si4 0.617909 0.638478 0.570873
Si Si5 0.496240 0.145923 0.048311
Si Si6 0.108037 0.271992 0.850635
Si Si7 0.494230 0.724192 0.236364
Si Si8 0.585979 0.095842 0.615481
O O1 0.916790 0.963828 0.421274
O O2 0.199762 0.964357 0.545994
O O3 0.481110 0.612709 0.612231
O O4 0.257407 0.573341 0.694452
O O5 0.583096 0.550078 0.981383
O O6 0.666123 0.389681 0.358022
O O7 0.917770 0.430594 0.399913
O O8 0.552955 0.681877 0.418190
O O9 0.794756 0.642227 0.887665
O O10 0.534334 0.188891 0.940450
O O11 0.574540 0.135905 0.410659
O O12 0.567173 0.111449 0.905843
O O13 0.302621 0.279263 0.966024
O O14 0.098397 0.236268 0.066399
O O15 0.015646 0.257951 0.493118
#
# Coordination Sequence:
#
# PCOD9133370 Si02
#       8
#     2   4   4   4   4   4   4   4
#     4  10  24  44  68 102 136 172 224 266 348 396
#     4  11  23  43  70  98 132 180 217 281 331 412
#     4  10  23  45  66  99 134 178 214 285 328 411
#     4  10  23  41  69  93 135 174 229 277 345 390
#     4  11  23  45  65 100 133 179 225 289 327 406
#     4  12  26  43  66  96 139 180 233 284 350 396
#     4  12  26  43  65  99 134 185 228 288 342 409
#     4  11  25  41  72 101 136 176 234 269 339 397
#
# _framework density 23.447434000000001
#
# number of rings (size 3 to 8) (size 9 to 14) (size 15 to 20)
#    0.000    1.067    1.333    4.400    7.467    1.600 
#    0.000    1.333    0.000    0.000    0.000    0.000 
#    0.000    0.000    0.000    0.000    0.000    0.000 
#
# Total GULP energy -83688.515222 kJ/mol
# GULP energy per Si atom -5579.234348 kJ/mol
# Density = 2.339407 g / cm^3
# Si number density = 23.447434 Si / 1000 Ang^3
#
#
#
# Elastic Constant Matrix: (Units=GPa)
#
#
# Indices 1 2 3 4 5 6 
#
# 1 160.9926 35.5969 10.6136 0.0000 18.3898 0.0000
# 2 35.5969 83.1569 -9.9286 0.0000 6.9212 0.0000
# 3 10.6136 -9.9286 59.5296 0.0000 -0.1992 0.0000
# 4 0.0000 0.0000 0.0000 50.2664 0.0000 -46.3258
# 5 18.3898 6.9212 -0.1992 0.0000 24.6101 0.0000
# 6 0.0000 0.0000 0.0000 -46.3258 0.0000 -11.3540
#
#
#
# Elastic Compliance Matrix: (Units=1/GPa)
#
#
# Indices 1 2 3 4 5 6 
#
# 1 0.007560 -0.003060 -0.001874 0.000000 -0.004804 0.000000
# 2 -0.003060 0.013806 0.002843 0.000000 -0.001573 0.000000
# 3 -0.001874 0.002843 0.017609 0.000000 0.000744 0.000000
# 4 0.000000 0.000000 0.000000 0.004179 0.000000 -0.017052
# 5 -0.004804 -0.001573 0.000744 0.000000 0.044672 0.000000
# 6 0.000000 0.000000 0.000000 -0.017052 0.000000 -0.018502
#
#
# Mechanical properties :
#
#
# Convention : Reuss Voigt Hill
#
# Bulk Modulus (GPa) = 28.74238 41.80477 35.27358
# Shear Modulus (GPa) = 58.75054 30.53097 44.64075
#
# Velocity S-wave (km/s) = 5.01105 3.61238 4.36806
# Velocity P-wave (km/s) = 6.76504 5.93860 6.36524
#
# Compressibility (1/GPa) = 0.03479183
#
# Stress axis : x y z
#
# Youngs Moduli (GPa) = 132.26693 72.43306 56.78844
#
# Poissons Ratio (x) = 0.22167 0.10645
# Poissons Ratio (y) = 0.40479 -0.16145
# Poissons Ratio (z) = 0.24793 -0.20593
#
# Static dielectric constant tensor:
#      x y z
#    x 1.872360 0.000000 -0.051370 
#    y 0.000000 1.880220 0.000000 
#    z -0.051370 0.000000 2.005040 
# 
# From -- ./inp_files/1983.got.cif
#   From: 2010.05.17/outbox.cif.g08.bks.cpg/sg8_1_cif.got.tgz:1983.got - 2010.06.03 19:46:02.
