data_PCOD9133255
_publ_section_title
;
Structure prediction by ZEFSAII (Michael W. Deem and Ramdas Pophale) SiO2 
 PCOD9133255
Probable space group: C M
;
_chemical_formula_sum "Si O2"
_cell_formula_units_Z 26
_cell_length_a 23.705302
_cell_length_b 7.616043
_cell_length_c 9.562118
_cell_angle_alpha 90.000000
_cell_angle_beta 142.580574
_cell_angle_gamma 90.000000
_cell_volume 1049.008516
_symmetry_space_group_name_H-M "C M"
_symmetry_group_IT_number 8
_symmetry_cell_setting 'monoclinic'
loop_
_space_group_symop_operation_xyz
x,y,z
x,-y,z
1/2+x,1/2+y,z
1/2+x,1/2-y,z
loop_
_atom_site_type_symbol
_atom_site_label
_atom_site_fract_x
_atom_site_fract_y
_atom_site_fract_z
Si Si1 0.672660 0.713316 0.637570
Si Si2 0.508849 0.684426 0.958406
Si Si3 0.613275 0.000000 0.046731
Si Si4 0.429445 0.198777 0.523325
Si Si5 0.209483 0.794182 0.033194
Si Si6 0.839998 0.695826 0.810672
Si Si7 0.469419 0.708866 0.291797
O O1 0.678960 0.500000 0.644946
O O2 0.741231 0.779239 0.651992
O O3 0.565712 0.761258 0.410294
O O4 0.699987 0.759876 0.851175
O O5 0.555211 0.500000 0.085420
O O6 0.576761 0.846402 0.084974
O O7 0.464787 0.683337 0.716564
O O8 0.417757 0.708250 0.874735
O O9 0.656604 0.842656 0.027542
O O10 0.318855 0.205244 0.288725
O O11 0.473109 0.246437 0.461760
O O12 0.462662 0.000000 0.630044
O O13 0.177736 0.000000 0.983312
O O14 0.829679 0.500000 0.730608
O O15 0.885805 0.691051 0.054941
O O16 0.455666 0.500000 0.250277
#
# Coordination Sequence:
#
# PCOD9133255 Si02
#       7
#     4   4   2   4   4   4   4
#     4   9  20  40  66  98 137 181 225 285 346 406
#     4  12  26  46  69  98 141 186 234 288 352 418
#     4  12  24  44  68 100 134 182 230 286 352 414
#     4  11  22  42  68 103 139 185 232 289 348 411
#     4  10  22  41  68 104 142 177 229 292 345 408
#     4  11  22  46  68  94 139 186 231 284 349 421
#     4  11  22  38  68 102 136 181 233 288 348 408
#
# _framework density 24.785309000000002
#
# number of rings (size 3 to 8) (size 9 to 14) (size 15 to 20)
#    0.000    1.231    3.077    2.769    2.154    1.231 
#    5.538    0.000    0.000    0.000    0.000    0.000 
#    0.000    0.000    0.000    0.000    0.000    0.000 
#
# Total GULP energy -72543.711424 kJ/mol
# GULP energy per Si atom -5580.285494 kJ/mol
# Density = 2.472890 g / cm^3
# Si number density = 24.785309 Si / 1000 Ang^3
#
#
#
# Elastic Constant Matrix: (Units=GPa)
#
#
# Indices 1 2 3 4 5 6 
#
# 1 175.0217 58.7101 14.2832 0.0000 13.7270 0.0000
# 2 58.7101 168.7099 9.1422 0.0000 17.5077 0.0000
# 3 14.2832 9.1422 32.7071 0.0000 -9.1861 0.0000
# 4 0.0000 0.0000 0.0000 23.2018 0.0000 -4.6028
# 5 13.7270 17.5077 -9.1861 0.0000 20.6859 0.0000
# 6 0.0000 0.0000 0.0000 -4.6028 0.0000 24.8204
#
#
#
# Elastic Compliance Matrix: (Units=1/GPa)
#
#
# Indices 1 2 3 4 5 6 
#
# 1 0.006999 -0.001705 -0.003975 0.000000 -0.004967 0.000000
# 2 -0.001705 0.007365 -0.003138 0.000000 -0.006496 0.000000
# 3 -0.003975 -0.003138 0.039615 0.000000 0.022886 0.000000
# 4 0.000000 0.000000 0.000000 0.044746 0.000000 0.008298
# 5 -0.004967 -0.006496 0.022886 0.000000 0.067299 0.000000
# 6 0.000000 0.000000 0.000000 0.008298 0.000000 0.041828
#
#
# Mechanical properties :
#
#
# Convention : Reuss Voigt Hill
#
# Bulk Modulus (GPa) = 27.51586 60.07886 43.79736
# Shear Modulus (GPa) = 21.04340 33.36183 27.20261
#
# Velocity S-wave (km/s) = 2.91697 3.67281 3.31649
# Velocity P-wave (km/s) = 4.74033 6.50218 5.68986
#
# Compressibility (1/GPa) = 0.03634268
#
# Stress axis : x y z
#
# Youngs Moduli (GPa) = 142.86821 135.78150 25.24273
#
# Poissons Ratio (x) = 0.23149 0.10034
# Poissons Ratio (y) = 0.24358 0.07922
# Poissons Ratio (z) = 0.56793 0.42613
#
# Static dielectric constant tensor:
#      x y z
#    x 1.966230 0.000000 0.060300 
#    y 0.000000 1.994760 0.000000 
#    z 0.060300 0.000000 2.163510 
# 
# From -- ./inp_files/15967.got.cif
#   From: 2010.05.17/outbox.cif.g08.bks.cpg/sg8_8_cif.got.tgz:15967.got - 2010.06.03 19:46:02.
