data_PCOD9133229
_publ_section_title
;
Structure prediction by ZEFSAII (Michael W. Deem and Ramdas Pophale) SiO2 
 PCOD9133229
Probable space group: C M
;
_chemical_formula_sum "Si O2"
_cell_formula_units_Z 28
_cell_length_a 8.767969
_cell_length_b 25.944369
_cell_length_c 7.619724
_cell_angle_alpha 90.000000
_cell_angle_beta 51.309846
_cell_angle_gamma 90.000000
_cell_volume 1352.929983
_symmetry_space_group_name_H-M "C M"
_symmetry_group_IT_number 8
_symmetry_cell_setting 'monoclinic'
loop_
_space_group_symop_operation_xyz
x,y,z
x,-y,z
1/2+x,1/2+y,z
1/2+x,1/2-y,z
loop_
_atom_site_type_symbol
_atom_site_label
_atom_site_fract_x
_atom_site_fract_y
_atom_site_fract_z
Si Si1 0.716520 0.810597 0.066450
Si Si2 0.542369 0.757250 0.886617
Si Si3 0.387933 0.861606 0.846811
Si Si4 0.240578 0.441780 0.577855
Si Si5 0.063006 0.941662 0.058903
Si Si6 0.469865 0.402614 0.742338
Si Si7 0.788108 0.678452 0.530747
O O1 0.498791 0.814817 0.294346
O O2 0.702497 0.770410 0.916689
O O3 0.882719 0.784434 0.067328
O O4 0.801748 0.863981 0.934905
O O5 0.440701 0.811867 0.922875
O O6 0.658026 0.730195 0.643204
O O7 0.575450 0.898573 0.703140
O O8 0.331353 0.840349 0.696779
O O9 0.208976 0.898396 0.027286
O O10 0.160218 0.500000 0.641883
O O11 0.362262 0.436229 0.310550
O O12 0.384022 0.433919 0.641318
O O13 0.134700 0.000000 0.038088
O O14 0.034563 0.933535 0.870110
O O15 0.649035 0.365973 0.552204
#
# Coordination Sequence:
#
# PCOD9133229 Si02
#       7
#     4   4   4   4   4   4   4
#     4  11  23  39  59  88 121 157 197 241 296 354
#     4  11  23  38  57  88 119 154 198 242 288 355
#     4  11  22  41  59  85 121 154 198 248 293 354
#     4  11  23  39  65  92 116 156 203 249 302 352
#     4  10  23  42  62  87 121 159 198 248 306 354
#     4  10  22  41  62  91 122 154 201 247 295 359
#     4  10  24  40  59  87 121 162 195 239 302 354
#
# _framework density 20.695823000000001
#
# number of rings (size 3 to 8) (size 9 to 14) (size 15 to 20)
#    0.000    1.429    2.857    1.714    4.000    1.143 
#    0.000    0.000    0.000    6.857    0.000    0.000 
#    0.000    0.000    0.000    0.000    0.000    0.000 
#
# Total GULP energy -78159.238023 kJ/mol
# GULP energy per Si atom -5582.802716 kJ/mol
# Density = 2.064872 g / cm^3
# Si number density = 20.695823 Si / 1000 Ang^3
#
#
#
# Elastic Constant Matrix: (Units=GPa)
#
#
# Indices 1 2 3 4 5 6 
#
# 1 44.6005 3.9708 -8.9452 0.0000 -7.4309 0.0000
# 2 3.9708 97.7398 28.6743 0.0000 -11.1266 0.0000
# 3 -8.9452 28.6743 76.5224 0.0000 -26.4649 0.0000
# 4 0.0000 0.0000 0.0000 7.1102 0.0000 -5.4337
# 5 -7.4309 -11.1266 -26.4649 0.0000 29.2785 0.0000
# 6 0.0000 0.0000 0.0000 -5.4337 0.0000 12.8580
#
#
#
# Elastic Compliance Matrix: (Units=1/GPa)
#
#
# Indices 1 2 3 4 5 6 
#
# 1 0.026641 -0.002050 0.008658 0.000000 0.013808 0.000000
# 2 -0.002050 0.011662 -0.004738 0.000000 -0.000371 0.000000
# 3 0.008658 -0.004738 0.023266 0.000000 0.021427 0.000000
# 4 0.000000 0.000000 0.000000 0.207727 0.000000 0.087783
# 5 0.013808 -0.000371 0.021427 0.000000 0.056886 0.000000
# 6 0.000000 0.000000 0.000000 0.087783 0.000000 0.114869
#
#
# Mechanical properties :
#
#
# Convention : Reuss Voigt Hill
#
# Bulk Modulus (GPa) = 15.31196 29.58473 22.44835
# Shear Modulus (GPa) = 10.89131 22.86020 16.87575
#
# Velocity S-wave (km/s) = 2.29652 3.32713 2.85865
# Velocity P-wave (km/s) = 3.80087 5.39312 4.66543
#
# Compressibility (1/GPa) = 0.06530843
#
# Stress axis : x y z
#
# Youngs Moduli (GPa) = 37.53624 85.74609 42.98097
#
# Poissons Ratio (x) = 0.17582 -0.37213
# Poissons Ratio (y) = 0.07697 0.20365
# Poissons Ratio (z) = -0.32499 0.40628
#
# Static dielectric constant tensor:
#      x y z
#    x 1.746140 0.000000 0.003610 
#    y 0.000000 1.731620 0.000000 
#    z 0.003610 0.000000 1.725440 
# 
# From -- ./inp_files/2029.got.cif
#   From: 2010.05.17/outbox.cif.g08.bks.cpg/sg8_2_cif.got.tgz:2029.got - 2010.06.03 19:46:02.
