data_PCOD9133970
_publ_section_title
;
Structure prediction by ZEFSAII (Michael W. Deem and Ramdas Pophale) SiO2 
 PCOD9133970
Probable space group: C C
;
_chemical_formula_sum "Si O2"
_cell_formula_units_Z 32
_cell_length_a 9.083900
_cell_length_b 16.077391
_cell_length_c 10.935412
_cell_angle_alpha 90.000000
_cell_angle_beta 120.506874
_cell_angle_gamma 90.000000
_cell_volume 1375.982027
_symmetry_space_group_name_H-M "C C"
_symmetry_group_IT_number 9
_symmetry_cell_setting 'monoclinic'
loop_
_space_group_symop_operation_xyz
x,y,z
x,-y,1/2+z
1/2+x,1/2+y,z
1/2+x,1/2-y,1/2+z
loop_
_atom_site_type_symbol
_atom_site_label
_atom_site_fract_x
_atom_site_fract_y
_atom_site_fract_z
Si Si1 0.759040 0.620032 0.068950
Si Si2 0.449254 0.785203 0.454141
Si Si3 0.129747 0.839780 0.193757
Si Si4 0.097747 0.533879 0.602884
Si Si5 0.397566 0.989884 0.275828
Si Si6 0.090209 0.730889 0.618014
Si Si7 0.262756 0.689045 0.926602
Si Si8 0.941922 0.069080 0.822367
O O1 0.809799 0.579405 0.216997
O O2 0.654607 0.705238 0.043585
O O3 0.913157 0.651430 0.050350
O O4 0.634760 0.552493 0.950148
O O5 0.267400 0.776123 0.310396
O O6 0.531546 0.701178 0.540218
O O7 0.587807 0.825001 0.422628
O O8 0.988403 0.865392 0.234535
O O9 0.250379 0.919616 0.219868
O O10 0.097238 0.634504 0.586750
O O11 0.298132 0.508950 0.705581
O O12 0.008381 0.497203 0.445396
O O13 0.001265 0.520057 0.691619
O O14 0.209185 0.741784 0.785559
O O15 0.898114 0.760612 0.563499
O O16 0.348953 0.607981 0.902663
#
# Coordination Sequence:
#
# PCOD9133970 Si02
#       8
#     4   4   4   4   4   4   4   4
#     4  10  23  42  67  98 133 174 225 283 342 404
#     4  11  21  39  65  95 132 176 226 278 333 407
#     4  11  24  42  65  99 136 173 227 285 338 403
#     4  11  23  42  67  96 135 181 224 277 341 407
#     4  12  26  45  68 101 142 178 222 287 351 401
#     4  10  20  38  63  91 125 174 224 267 329 409
#     4  10  18  32  58  91 124 162 217 277 321 382
#     4   9  21  40  61  89 129 172 221 274 329 399
#
# _framework density 23.256115999999999
#
# number of rings (size 3 to 8) (size 9 to 14) (size 15 to 20)
#    0.000    1.500    0.000    6.750    0.000    4.000 
#    0.000    2.500    0.000    0.000    0.000    0.000 
#    0.000    0.000    0.000    0.000    0.000    0.000 
#
# Total GULP energy -89293.089648 kJ/mol
# GULP energy per Si atom -5580.818103 kJ/mol
# Density = 2.320318 g / cm^3
# Si number density = 23.256116 Si / 1000 Ang^3
#
#
#
# Elastic Constant Matrix: (Units=GPa)
#
#
# Indices 1 2 3 4 5 6 
#
# 1 129.9288 17.9929 19.7945 0.0000 -6.8704 0.0000
# 2 17.9929 67.3926 23.9491 0.0000 -2.3662 0.0000
# 3 19.7945 23.9491 72.7754 0.0000 -6.3577 0.0000
# 4 0.0000 0.0000 0.0000 32.7705 0.0000 2.4351
# 5 -6.8704 -2.3662 -6.3577 0.0000 32.4997 0.0000
# 6 0.0000 0.0000 0.0000 2.4351 0.0000 22.4956
#
#
#
# Elastic Compliance Matrix: (Units=1/GPa)
#
#
# Indices 1 2 3 4 5 6 
#
# 1 0.008229 -0.001581 -0.001603 0.000000 0.001311 0.000000
# 2 -0.001581 0.017108 -0.005209 0.000000 -0.000108 0.000000
# 3 -0.001603 -0.005209 0.016104 0.000000 0.002432 0.000000
# 4 0.000000 0.000000 0.000000 0.030763 0.000000 -0.003330
# 5 0.001311 -0.000108 0.002432 0.000000 0.031515 0.000000
# 6 0.000000 0.000000 0.000000 -0.003330 0.000000 0.044814
#
#
# Mechanical properties :
#
#
# Convention : Reuss Voigt Hill
#
# Bulk Modulus (GPa) = 40.56292 43.72999 42.14646
# Shear Modulus (GPa) = 28.81227 31.44384 30.12806
#
# Velocity S-wave (km/s) = 3.52364 3.68104 3.60320
# Velocity P-wave (km/s) = 5.83390 6.07546 5.95590
#
# Compressibility (1/GPa) = 0.02465306
#
# Stress axis : x y z
#
# Youngs Moduli (GPa) = 121.52015 58.45218 62.09730
#
# Poissons Ratio (x) = 0.09243 0.09957
# Poissons Ratio (y) = 0.19215 0.32348
# Poissons Ratio (z) = 0.19485 0.30449
#
# Static dielectric constant tensor:
#      x y z
#    x 1.919690 0.000000 0.040110 
#    y 0.000000 1.919010 0.000000 
#    z 0.040110 0.000000 1.906090 
# 
# From -- ./inp_files/15210.got.cif
#   From: 2010.05.17/outbox.cif.g08.bks.cpg/sg9_8_cif.got.tgz:15210.got - 2010.06.03 20:04:27.
