data_PCOD9133307
_publ_section_title
;
Structure prediction by ZEFSAII (Michael W. Deem and Ramdas Pophale) SiO2 
 PCOD9133307
Probable space group: C M
;
_chemical_formula_sum "Si O2"
_cell_formula_units_Z 20
_cell_length_a 7.605646
_cell_length_b 21.514181
_cell_length_c 5.259252
_cell_angle_alpha 90.000000
_cell_angle_beta 74.818536
_cell_angle_gamma 90.000000
_cell_volume 830.534718
_symmetry_space_group_name_H-M "C M"
_symmetry_group_IT_number 8
_symmetry_cell_setting 'monoclinic'
loop_
_space_group_symop_operation_xyz
x,y,z
x,-y,z
1/2+x,1/2+y,z
1/2+x,1/2-y,z
loop_
_atom_site_type_symbol
_atom_site_label
_atom_site_fract_x
_atom_site_fract_y
_atom_site_fract_z
Si Si1 0.231210 0.258286 0.801570
Si Si2 0.325865 0.122508 0.657729
Si Si3 0.964969 0.000000 0.567678
Si Si4 0.165529 0.317413 0.316059
Si Si5 0.453836 0.367159 0.515474
Si Si6 0.208599 0.000000 0.966694
O O1 0.293584 0.188054 0.814200
O O2 0.155844 0.266499 0.545594
O O3 0.376083 0.315421 0.735962
O O4 0.113657 0.281833 0.081314
O O5 0.517336 0.130870 0.442540
O O6 0.313867 0.063416 0.848913
O O7 0.162843 0.121147 0.510240
O O8 0.862987 0.065124 0.583407
O O9 0.048359 0.000000 0.817575
O O10 0.116725 0.000000 0.279978
O O11 0.370643 0.343978 0.278797
#
# Coordination Sequence:
#
# PCOD9133307 Si02
#       6
#     4   4   2   4   4   2
#     4  10  24  44  66 103 132 168 225 277 331 386
#     4  11  23  47  68  97 140 172 225 276 322 408
#     4  10  22  43  67  98 133 171 229 264 327 405
#     4  10  25  43  65 106 126 175 221 270 342 380
#     4   9  24  43  69  98 132 178 216 273 333 389
#     4  10  26  39  67 100 125 189 215 264 339 385
#
# _framework density 24.080871999999999
#
# number of rings (size 3 to 8) (size 9 to 14) (size 15 to 20)
#    1.200    0.800    0.000    1.200    5.600   12.000 
#    0.000    1.000    0.000    0.000    0.000    0.000 
#    0.000    0.000    0.000    0.000    0.000    0.000 
#
# Total GULP energy -55686.134625 kJ/mol
# GULP energy per Si atom -5568.613462 kJ/mol
# Density = 2.402606 g / cm^3
# Si number density = 24.080872 Si / 1000 Ang^3
#
#
#
# Elastic Constant Matrix: (Units=GPa)
#
#
# Indices 1 2 3 4 5 6 
#
# 1 78.1352 18.4490 21.5568 0.0000 -0.0412 0.0000
# 2 18.4490 185.9995 14.6608 0.0000 -4.0105 0.0000
# 3 21.5568 14.6608 71.7539 0.0000 20.0138 0.0000
# 4 0.0000 0.0000 0.0000 20.4134 0.0000 -3.7055
# 5 -0.0412 -4.0105 20.0138 0.0000 24.3909 0.0000
# 6 0.0000 0.0000 0.0000 -3.7055 0.0000 26.6603
#
#
#
# Elastic Compliance Matrix: (Units=1/GPa)
#
#
# Indices 1 2 3 4 5 6 
#
# 1 0.014497 -0.000924 -0.005357 0.000000 0.004268 0.000000
# 2 -0.000924 0.005629 -0.001466 0.000000 0.002127 0.000000
# 3 -0.005357 -0.001466 0.020639 0.000000 -0.017185 0.000000
# 4 0.000000 0.000000 0.000000 0.050255 0.000000 0.006985
# 5 0.004268 0.002127 -0.017185 0.000000 0.055457 0.000000
# 6 0.000000 0.000000 0.000000 0.006985 0.000000 0.038480
#
#
# Mechanical properties :
#
#
# Convention : Reuss Voigt Hill
#
# Bulk Modulus (GPa) = 39.57011 49.46909 44.51960
# Shear Modulus (GPa) = 23.93790 33.04106 28.48948
#
# Velocity S-wave (km/s) = 3.15630 3.70819 3.44332
# Velocity P-wave (km/s) = 5.45443 6.23873 5.85971
#
# Compressibility (1/GPa) = 0.02527160
#
# Stress axis : x y z
#
# Youngs Moduli (GPa) = 68.98174 177.63945 48.45259
#
# Poissons Ratio (x) = 0.16407 0.25956
# Poissons Ratio (y) = 0.06371 0.07103
# Poissons Ratio (z) = 0.36953 0.26041
#
# Static dielectric constant tensor:
#      x y z
#    x 2.052510 0.000000 -0.041790 
#    y 0.000000 1.971980 0.000000 
#    z -0.041790 0.000000 1.905560 
# 
# From -- ./inp_files/1522.got.cif
#   From: 2010.05.17/outbox.cif.g08.bks.cpg/sg8_1_cif.got.tgz:1522.got - 2010.06.03 19:46:02.
