data_PCOD9133311
_publ_section_title
;
Structure prediction by ZEFSAII (Michael W. Deem and Ramdas Pophale) SiO2 
 PCOD9133311
Probable space group: C M
;
_chemical_formula_sum "Si O2"
_cell_formula_units_Z 24
_cell_length_a 18.547292
_cell_length_b 11.768835
_cell_length_c 5.196096
_cell_angle_alpha 90.000000
_cell_angle_beta 69.516730
_cell_angle_gamma 90.000000
_cell_volume 1062.493219
_symmetry_space_group_name_H-M "C M"
_symmetry_group_IT_number 8
_symmetry_cell_setting 'monoclinic'
loop_
_space_group_symop_operation_xyz
x,y,z
x,-y,z
1/2+x,1/2+y,z
1/2+x,1/2-y,z
loop_
_atom_site_type_symbol
_atom_site_label
_atom_site_fract_x
_atom_site_fract_y
_atom_site_fract_z
Si Si1 0.454060 0.500000 0.704921
Si Si2 0.199722 0.121632 0.352104
Si Si3 0.248384 0.699525 0.670406
Si Si4 0.609344 0.774401 0.136675
Si Si5 0.348571 0.500000 0.333079
Si Si6 0.012215 0.747176 0.744128
Si Si7 0.352263 0.871341 0.850939
O O1 0.415039 0.500000 0.470765
O O2 0.499159 0.381289 0.693888
O O3 0.386583 0.500000 0.005603
O O4 0.195230 0.222546 0.557338
O O5 0.178624 0.000000 0.488005
O O6 0.147634 0.153715 0.173044
O O7 0.287944 0.120096 0.152542
O O8 0.186667 0.656150 0.959824
O O9 0.293811 0.606775 0.454286
O O10 0.312390 0.783065 0.707480
O O11 0.551188 0.766236 0.972747
O O12 0.561546 0.807934 0.449552
O O13 0.930571 0.683979 0.848172
O O14 0.362993 0.000000 0.735369
#
# Coordination Sequence:
#
# PCOD9133311 Si02
#       7
#     2   4   4   4   2   4   4
#     4  12  26  44  70 110 136 183 224 296 353 412
#     4  10  22  43  72 102 132 177 234 287 338 399
#     4  11  23  47  70 104 135 183 237 285 341 411
#     4  11  26  43  67  99 141 180 221 280 343 411
#     4  12  26  44  78  98 140 183 236 290 341 420
#     4  12  25  45  67 102 142 178 224 281 350 411
#     4  10  23  43  72  99 134 181 233 286 336 406
#
# _framework density 22.588380999999998
#
# number of rings (size 3 to 8) (size 9 to 14) (size 15 to 20)
#    0.000    1.000    3.333    2.500    7.000    0.667 
#    3.000    0.000    0.000    0.000    0.000    0.000 
#    0.000    0.000    0.000    0.000    0.000    0.000 
#
# Total GULP energy -67049.521838 kJ/mol
# GULP energy per Si atom -5587.460153 kJ/mol
# Density = 2.253697 g / cm^3
# Si number density = 22.588381 Si / 1000 Ang^3
#
#
#
# Elastic Constant Matrix: (Units=GPa)
#
#
# Indices 1 2 3 4 5 6 
#
# 1 156.8416 18.0910 39.9654 0.0000 9.8561 0.0000
# 2 18.0910 59.9516 9.2742 0.0000 -3.8680 0.0000
# 3 39.9654 9.2742 91.0578 0.0000 -6.3132 0.0000
# 4 0.0000 0.0000 0.0000 18.3411 0.0000 3.9647
# 5 9.8561 -3.8680 -6.3132 0.0000 41.6637 0.0000
# 6 0.0000 0.0000 0.0000 3.9647 0.0000 -9.4263
#
#
#
# Elastic Compliance Matrix: (Units=1/GPa)
#
#
# Indices 1 2 3 4 5 6 
#
# 1 0.007599 -0.001941 -0.003309 0.000000 -0.002479 0.000000
# 2 -0.001941 0.017516 -0.000796 0.000000 0.001965 0.000000
# 3 -0.003309 -0.000796 0.012698 0.000000 0.002633 0.000000
# 4 0.000000 0.000000 0.000000 0.049978 0.000000 0.021021
# 5 -0.002479 0.001965 0.002633 0.000000 0.025170 0.000000
# 6 0.000000 0.000000 0.000000 0.021021 0.000000 -0.097245
#
#
# Mechanical properties :
#
#
# Convention : Reuss Voigt Hill
#
# Bulk Modulus (GPa) = 38.87986 49.16803 44.02394
# Shear Modulus (GPa) = 137.43376 26.15040 81.79208
#
# Velocity S-wave (km/s) = 7.80863 3.40618 6.02399
# Velocity P-wave (km/s) = 9.92720 6.10603 8.24115
#
# Compressibility (1/GPa) = 0.02572026
#
# Stress axis : x y z
#
# Youngs Moduli (GPa) = 131.59948 57.09154 78.75177
#
# Poissons Ratio (x) = 0.11082 0.26062
# Poissons Ratio (y) = 0.25544 0.06267
# Poissons Ratio (z) = 0.43551 0.04544
#
# Static dielectric constant tensor:
#      x y z
#    x 1.835980 0.000000 -0.001610 
#    y 0.000000 1.846870 0.000000 
#    z -0.001610 0.000000 1.901390 
# 
# From -- ./inp_files/4704.got.cif
#   From: 2010.05.17/outbox.cif.g08.bks.cpg/sg8_3_cif.got.tgz:4704.got - 2010.06.03 19:46:02.
