data_PCOD9133074
_publ_section_title
;
Structure prediction by ZEFSAII (Michael W. Deem and Ramdas Pophale) SiO2 
 PCOD9133074
Probable space group: C M
;
_chemical_formula_sum "Si O2"
_cell_formula_units_Z 20
_cell_length_a 9.581281
_cell_length_b 16.397123
_cell_length_c 9.201656
_cell_angle_alpha 90.000000
_cell_angle_beta 137.440437
_cell_angle_gamma 90.000000
_cell_volume 977.761114
_symmetry_space_group_name_H-M "C M"
_symmetry_group_IT_number 8
_symmetry_cell_setting 'monoclinic'
loop_
_space_group_symop_operation_xyz
x,y,z
x,-y,z
1/2+x,1/2+y,z
1/2+x,1/2-y,z
loop_
_atom_site_type_symbol
_atom_site_label
_atom_site_fract_x
_atom_site_fract_y
_atom_site_fract_z
Si Si1 0.447670 0.595690 0.289310
Si Si2 0.337108 0.820006 0.548457
Si Si3 0.793002 0.196018 0.904424
Si Si4 0.592139 0.093881 0.519585
Si Si5 0.105451 0.328692 0.224027
O O1 0.483563 0.500000 0.316534
O O2 0.650079 0.644830 0.499764
O O3 0.244884 0.616944 0.226342
O O4 0.405822 0.632309 0.097206
O O5 0.558290 0.796875 0.783975
O O6 0.400167 0.890254 0.480366
O O7 0.254387 0.743310 0.395856
O O8 0.760344 0.155194 0.721347
O O9 0.914293 0.280542 0.006796
O O10 0.541694 0.121732 0.318612
O O11 0.656390 0.000000 0.573494
#
# Coordination Sequence:
#
# PCOD9133074 Si02
#       5
#     4   4   4   4   4
#     4  11  22  37  63  97 127 159 209 271 320 366
#     4   9  21  40  64  84 124 173 216 242 312 396
#     4   9  23  39  65  84 127 174 214 241 314 398
#     4  10  21  41  66  90 125 168 213 262 313 377
#     4  11  22  39  63  95 125 162 212 272 314 369
#
# _framework density 20.454893999999999
#
# number of rings (size 3 to 8) (size 9 to 14) (size 15 to 20)
#    1.200    0.800    0.000    4.200    2.800    0.000 
#    0.000    0.000    0.000    2.400    0.000    0.000 
#    0.000    0.000    0.000    0.000    0.000    0.000 
#
# Total GULP energy -55731.272706 kJ/mol
# GULP energy per Si atom -5573.127271 kJ/mol
# Density = 2.040834 g / cm^3
# Si number density = 20.454894 Si / 1000 Ang^3
#
#
#
# Elastic Constant Matrix: (Units=GPa)
#
#
# Indices 1 2 3 4 5 6 
#
# 1 81.5813 14.9432 23.9434 0.0000 6.7150 0.0000
# 2 14.9432 51.9299 17.0087 0.0000 5.6788 0.0000
# 3 23.9434 17.0087 72.1929 0.0000 19.0713 0.0000
# 4 0.0000 0.0000 0.0000 13.7431 0.0000 7.7737
# 5 6.7150 5.6788 19.0713 0.0000 40.2164 0.0000
# 6 0.0000 0.0000 0.0000 7.7737 0.0000 30.4066
#
#
#
# Elastic Compliance Matrix: (Units=1/GPa)
#
#
# Indices 1 2 3 4 5 6 
#
# 1 0.013921 -0.002701 -0.003964 0.000000 -0.000063 0.000000
# 2 -0.002701 0.021408 -0.003965 0.000000 -0.000692 0.000000
# 3 -0.003964 -0.003965 0.018038 0.000000 -0.007332 0.000000
# 4 0.000000 0.000000 0.000000 0.085066 0.000000 -0.021748
# 5 -0.000063 -0.000692 -0.007332 0.000000 0.028451 0.000000
# 6 0.000000 0.000000 0.000000 -0.021748 0.000000 0.038448
#
#
# Mechanical properties :
#
#
# Convention : Reuss Voigt Hill
#
# Bulk Modulus (GPa) = 31.14613 35.27720 33.21167
# Shear Modulus (GPa) = 21.07098 26.86046 23.96572
#
# Velocity S-wave (km/s) = 3.21303 3.62768 3.42663
# Velocity P-wave (km/s) = 5.38744 5.90174 5.65045
#
# Compressibility (1/GPa) = 0.03210672
#
# Stress axis : x y z
#
# Youngs Moduli (GPa) = 71.83395 46.71094 55.43972
#
# Poissons Ratio (x) = 0.12615 0.21977
# Poissons Ratio (y) = 0.19399 0.21984
# Poissons Ratio (z) = 0.28475 0.18523
#
# Static dielectric constant tensor:
#      x y z
#    x 1.759160 0.000000 0.004420 
#    y 0.000000 1.672460 0.000000 
#    z 0.004420 0.000000 1.751520 
# 
# From -- ./inp_files/8086.got.cif
#   From: 2010.05.17/outbox.cif.g08.bks.cpg/sg8_5_cif.got.tgz:8086.got - 2010.06.03 19:46:02.
