data_PCOD9133626
_publ_section_title
;
Structure prediction by ZEFSAII (Michael W. Deem and Ramdas Pophale) SiO2 
 PCOD9133626
Probable space group: C M
;
_chemical_formula_sum "Si O2"
_cell_formula_units_Z 20
_cell_length_a 16.005705
_cell_length_b 10.675848
_cell_length_c 4.544809
_cell_angle_alpha 90.000000
_cell_angle_beta 93.092640
_cell_angle_gamma 90.000000
_cell_volume 775.460825
_symmetry_space_group_name_H-M "C M"
_symmetry_group_IT_number 8
_symmetry_cell_setting 'monoclinic'
loop_
_space_group_symop_operation_xyz
x,y,z
x,-y,z
1/2+x,1/2+y,z
1/2+x,1/2-y,z
loop_
_atom_site_type_symbol
_atom_site_label
_atom_site_fract_x
_atom_site_fract_y
_atom_site_fract_z
Si Si1 0.892640 0.744349 0.671420
Si Si2 0.545359 0.143352 0.300974
Si Si3 0.793473 0.643955 0.141374
Si Si4 0.940837 0.000000 0.991976
Si Si5 0.559051 0.500000 0.534998
Si Si6 0.133509 0.241392 0.766880
O O1 0.972478 0.707453 0.485729
O O2 0.818477 0.729823 0.420862
O O3 0.067684 0.720645 0.012556
O O4 0.899090 0.875418 0.850388
O O5 0.370317 0.147123 0.923908
O O6 0.626047 0.146475 0.533612
O O7 0.524996 0.000000 0.229916
O O8 0.777971 0.500000 0.226510
O O9 0.716359 0.703138 0.952132
O O10 0.033370 0.000000 0.872568
O O11 0.971218 0.000000 0.337273
O O12 0.611625 0.625680 0.541335
#
# Coordination Sequence:
#
# PCOD9133626 Si02
#       6
#     4   4   4   2   2   4
#     4  12  27  48  77 109 151 201 249 313 378 445
#     4  12  26  48  74 111 151 200 254 306 376 452
#     4  12  26  50  74 110 153 198 254 312 378 449
#     4  12  26  48  74 116 146 196 255 315 370 449
#     4  12  24  46  80 112 146 182 263 321 368 447
#     4  12  26  47  78 110 149 196 253 316 375 443
#
# _framework density 25.791118000000001
#
# number of rings (size 3 to 8) (size 9 to 14) (size 15 to 20)
#    0.000    0.000    3.000    7.200    0.000    0.000 
#   10.800    0.000    0.000    0.000    0.000    0.000 
#    0.000    0.000    0.000    0.000    0.000    0.000 
#
# Total GULP energy -55899.324459 kJ/mol
# GULP energy per Si atom -5589.932446 kJ/mol
# Density = 2.573242 g / cm^3
# Si number density = 25.791118 Si / 1000 Ang^3
#
#
#
# Elastic Constant Matrix: (Units=GPa)
#
#
# Indices 1 2 3 4 5 6 
#
# 1 88.7601 42.8150 35.6679 0.0000 -11.8365 0.0000
# 2 42.8150 199.1800 91.2001 0.0000 17.5660 0.0000
# 3 35.6679 91.2001 225.0224 0.0000 19.9933 0.0000
# 4 0.0000 0.0000 0.0000 51.0285 0.0000 -2.5165
# 5 -11.8365 17.5660 19.9933 0.0000 53.6470 0.0000
# 6 0.0000 0.0000 0.0000 -2.5165 0.0000 27.6309
#
#
#
# Elastic Compliance Matrix: (Units=1/GPa)
#
#
# Indices 1 2 3 4 5 6 
#
# 1 0.013748 -0.002664 -0.001496 0.000000 0.004463 0.000000
# 2 -0.002664 0.006747 -0.002134 0.000000 -0.002001 0.000000
# 3 -0.001496 -0.002134 0.005702 0.000000 -0.001756 0.000000
# 4 0.000000 0.000000 0.000000 0.019685 0.000000 0.001793
# 5 0.004463 -0.002001 -0.001756 0.000000 0.020935 0.000000
# 6 0.000000 0.000000 0.000000 0.001793 0.000000 0.036355
#
#
# Mechanical properties :
#
#
# Convention : Reuss Voigt Hill
#
# Bulk Modulus (GPa) = 73.48420 94.70316 84.09368
# Shear Modulus (GPa) = 41.56402 49.34658 45.45530
#
# Velocity S-wave (km/s) = 4.01878 4.37889 4.20270
# Velocity P-wave (km/s) = 7.07729 7.89717 7.49844
#
# Compressibility (1/GPa) = 0.01360837
#
# Stress axis : x y z
#
# Youngs Moduli (GPa) = 72.74029 148.21397 175.36860
#
# Poissons Ratio (x) = 0.39480 0.26236
# Poissons Ratio (y) = 0.19376 0.37432
# Poissons Ratio (z) = 0.10882 0.31636
#
# Static dielectric constant tensor:
#      x y z
#    x 2.135600 0.000000 0.071510 
#    y 0.000000 2.037250 0.000000 
#    z 0.071510 0.000000 2.044070 
# 
# From -- ./inp_files/5615.got.cif
#   From: 2010.05.17/outbox.cif.g08.bks.cpg/sg8_3_cif.got.tgz:5615.got - 2010.06.03 19:46:02.
