data_PCOD9133396
_publ_section_title
;
Structure prediction by ZEFSAII (Michael W. Deem and Ramdas Pophale) SiO2 
 PCOD9133396
Probable space group: C M
;
_chemical_formula_sum "Si O2"
_cell_formula_units_Z 32
_cell_length_a 16.625615
_cell_length_b 21.537727
_cell_length_c 9.034392
_cell_angle_alpha 90.000000
_cell_angle_beta 26.623754
_cell_angle_gamma 90.000000
_cell_volume 1449.707203
_symmetry_space_group_name_H-M "C M"
_symmetry_group_IT_number 8
_symmetry_cell_setting 'monoclinic'
loop_
_space_group_symop_operation_xyz
x,y,z
x,-y,z
1/2+x,1/2+y,z
1/2+x,1/2-y,z
loop_
_atom_site_type_symbol
_atom_site_label
_atom_site_fract_x
_atom_site_fract_y
_atom_site_fract_z
Si Si1 0.644850 0.068276 0.709170
Si Si2 0.944766 0.070791 0.961816
Si Si3 0.143829 0.191457 0.157439
Si Si4 0.732413 0.843452 0.820863
Si Si5 0.414603 0.234118 0.194906
Si Si6 0.718767 0.169360 0.157245
Si Si7 0.631693 0.340762 0.846691
Si Si8 0.921269 0.339211 0.903022
O O1 0.780718 0.065595 0.348009
O O2 0.735981 0.100901 0.698859
O O3 0.480251 0.108339 0.920085
O O4 0.586638 0.000000 0.846110
O O5 0.884435 0.127752 0.951033
O O6 0.973000 0.000000 0.855990
O O7 0.106531 0.095301 0.801235
O O8 0.215116 0.259618 0.093665
O O9 0.929319 0.186801 0.513929
O O10 0.200809 0.166738 0.900771
O O11 0.235033 0.147992 0.129359
O O12 0.586171 0.795732 0.995561
O O13 0.669118 0.865670 0.086397
O O14 0.248282 0.203049 0.548546
O O15 0.435383 0.307485 0.177237
O O16 0.410782 0.219785 0.028292
O O17 0.569059 0.169905 0.531791
#
# Coordination Sequence:
#
# PCOD9133396 Si02
#       8
#     4   4   4   4   4   4   4   4
#     4   9  20  43  66  89 129 183 233 273 331 407
#     4  10  23  44  69  96 135 188 233 275 331 407
#     4  12  23  38  64 104 135 167 219 281 354 396
#     4  11  22  39  65 101 131 175 216 280 346 408
#     4  11  25  40  65  98 138 176 218 281 356 406
#     4  11  23  39  65  97 139 175 216 280 336 405
#     4  12  24  41  67  99 140 174 226 285 340 416
#     4  10  24  40  61  96 131 174 219 277 340 401
#
# _framework density 22.073422999999998
#
# number of rings (size 3 to 8) (size 9 to 14) (size 15 to 20)
#    0.000    1.250    2.500    3.000    7.000    0.500 
#    0.000    3.750    0.000    1.500    0.000    0.000 
#    0.000    0.000    0.000    0.000    0.000    0.000 
#
# Total GULP energy -89247.648182 kJ/mol
# GULP energy per Si atom -5577.978011 kJ/mol
# Density = 2.202318 g / cm^3
# Si number density = 22.073423 Si / 1000 Ang^3
#
#
#
# Elastic Constant Matrix: (Units=GPa)
#
#
# Indices 1 2 3 4 5 6 
#
# 1 185.1075 52.1855 36.8293 0.0047 3.4519 -0.0046
# 2 52.1855 96.9900 8.0480 0.0021 -14.4475 0.0033
# 3 36.8293 8.0480 64.4857 0.0066 4.5592 0.0031
# 4 0.0047 0.0021 0.0066 12.8104 -0.0035 2.1157
# 5 3.4519 -14.4475 4.5592 -0.0035 36.1991 0.0032
# 6 -0.0046 0.0033 0.0031 2.1157 0.0032 22.0250
#
#
#
# Elastic Compliance Matrix: (Units=1/GPa)
#
#
# Indices 1 2 3 4 5 6 
#
# 1 0.007224 -0.003861 -0.003518 -0.000001 -0.001787 0.000003
# 2 -0.003861 0.013212 0.000159 0.000001 0.005621 -0.000004
# 3 -0.003518 0.000159 0.017625 -0.000008 -0.001821 -0.000002
# 4 -0.000001 0.000001 -0.000008 0.079320 0.000010 -0.007620
# 5 -0.001787 0.005621 -0.001821 0.000010 0.030268 -0.000006
# 6 0.000003 -0.000004 -0.000002 -0.007620 -0.000006 0.046135
#
#
# Mechanical properties :
#
#
# Convention : Reuss Voigt Hill
#
# Bulk Modulus (GPa) = 42.33438 60.07876 51.20657
# Shear Modulus (GPa) = 23.13768 30.84159 26.98964
#
# Velocity S-wave (km/s) = 3.24113 3.74201 3.50054
# Velocity P-wave (km/s) = 5.76429 6.77842 6.29182
#
# Compressibility (1/GPa) = 0.02362146
#
# Stress axis : x y z
#
# Youngs Moduli (GPa) = 138.42771 75.68882 56.73697
#
# Poissons Ratio (x) = 0.29225 0.19958
# Poissons Ratio (y) = 0.53449 -0.00901
# Poissons Ratio (z) = 0.48693 -0.01203
#
# Static dielectric constant tensor:
#      x y z
#    x 1.865260 0.000000 0.016740 
#    y 0.000000 1.862620 0.000010 
#    z 0.016740 0.000010 1.860550 
# 
# From -- ./inp_files/13794.got.cif
#   From: 2010.05.17/outbox.cif.g08.bks.cpg/sg8_7_cif.got.tgz:13794.got - 2010.06.03 19:46:02.
