data_PCOD9133714
_publ_section_title
;
Structure prediction by ZEFSAII (Michael W. Deem and Ramdas Pophale) SiO2 
 PCOD9133714
Probable space group: C M
;
_chemical_formula_sum "Si O2"
_cell_formula_units_Z 16
_cell_length_a 24.000000
_cell_length_b 9.000000
_cell_length_c 24.000000
_cell_angle_alpha 90.000000
_cell_angle_beta 160.000000
_cell_angle_gamma 90.000000
_cell_volume 1773.032423
_symmetry_space_group_name_H-M "C M"
_symmetry_group_IT_number 8
_symmetry_cell_setting 'monoclinic'
loop_
_space_group_symop_operation_xyz
x,y,z
x,-y,z
1/2+x,1/2+y,z
1/2+x,1/2-y,z
loop_
_atom_site_type_symbol
_atom_site_label
_atom_site_fract_x
_atom_site_fract_y
_atom_site_fract_z
Si Si1 0.598790 0.820209 0.340270
Si Si2 0.745291 0.177519 0.979744
Si Si3 0.834363 0.179404 0.456317
Si Si4 0.145831 0.818278 0.506643
Si Si5 0.699912 0.824237 0.803896
Si Si6 0.788642 0.321629 0.208827
Si Si7 0.011869 0.180685 0.852832
Si Si8 0.081631 0.820345 0.129022
O O1 0.420012 0.757468 0.154837
O O2 0.743683 0.790606 0.431109
O O3 0.634321 0.739525 0.432166
O O4 0.588803 0.000000 0.337805
O O5 0.755913 0.000000 0.002890
O O6 0.715776 0.191635 0.885716
O O7 0.598571 0.250853 0.878521
O O8 0.700414 0.245495 0.286850
O O9 0.020731 0.245681 0.623105
O O10 0.845213 0.000000 0.460564
O O11 0.330477 0.752424 0.696509
O O12 0.970252 0.757671 0.370085
O O13 0.147869 0.000000 0.512851
O O14 0.681911 0.000000 0.773070
O O15 0.883757 0.779044 0.950775
O O16 0.821683 0.500000 0.239944
O O17 0.680280 0.287942 0.163282
O O18 0.655683 0.291863 0.034365
O O19 0.991508 0.000000 0.828739
O O20 0.082962 0.000000 0.137263
#
# Coordination Sequence:
#
# PCOD9133714 Si02
#       8
#     4   4   4   4   4   4   4   4
#     4  11  22  38  61  90 126 166 204 245 307 375
#     4  11  21  36  62  95 126 158 201 253 310 363
#     4  11  24  39  61  93 126 162 202 250 306 363
#     4  12  25  40  63  93 127 161 204 256 309 364
#     4  10  22  39  62  91 123 161 203 249 302 364
#     4  10  23  43  66  89 118 161 210 255 306 368
#     4  11  23  40  63  91 126 164 206 248 303 372
#     4  10  22  43  66  88 118 161 210 256 303 363
#
# _framework density 9.0240880000000008
#
# number of rings (size 3 to 8) (size 9 to 14) (size 15 to 20)
#    0.000    1.250    2.500    3.375    0.000    7.000 
#    0.000    2.500    0.000    0.000    0.000    0.000 
#    0.000    0.000    0.000    0.000    0.000    0.000 
#
# Total GULP energy -89097.978332 kJ/mol
# GULP energy per Si atom -5568.623646 kJ/mol
# Density = 0.900355 g / cm^3
# Si number density = 9.024088 Si / 1000 Ang^3
#
#
#
# Elastic Constant Matrix: (Units=GPa)
#
#
# Indices 1 2 3 4 5 6 
#
# 1 128.1274 39.1275 45.8414 0.0000 32.7432 0.0000
# 2 39.1275 112.5752 53.1630 -0.0002 17.8056 -0.0001
# 3 45.8414 53.1630 160.5569 0.0002 41.9794 0.0000
# 4 0.0000 -0.0002 0.0002 45.7495 0.0001 9.9368
# 5 32.7432 17.8056 41.9794 0.0001 45.4691 0.0000
# 6 0.0000 -0.0001 0.0000 9.9368 0.0000 31.6989
#
#
#
# Elastic Compliance Matrix: (Units=1/GPa)
#
#
# Indices 1 2 3 4 5 6 
#
# 1 0.010245 -0.002341 -0.000607 0.000000 -0.005900 0.000000
# 2 -0.002341 0.011113 -0.003051 0.000000 0.000150 0.000000
# 3 -0.000607 -0.003051 0.009208 0.000000 -0.006869 0.000000
# 4 0.000000 0.000000 0.000000 0.023455 0.000000 -0.007353
# 5 -0.005900 0.000150 -0.006869 0.000000 0.032525 0.000000
# 6 0.000000 0.000000 0.000000 -0.007353 0.000000 0.033852
#
#
# Mechanical properties :
#
#
# Convention : Reuss Voigt Hill
#
# Bulk Modulus (GPa) = 53.85529 75.28037 64.56783
# Shear Modulus (GPa) = 36.07904 42.12536 39.10220
#
# Velocity S-wave (km/s) = 4.47591 4.83644 4.65967
# Velocity P-wave (km/s) = 7.52438 8.54339 8.05003
#
# Compressibility (1/GPa) = 0.01856828
#
# Stress axis : x y z
#
# Youngs Moduli (GPa) = 97.61264 89.98082 108.60215
#
# Poissons Ratio (x) = 0.21062 0.06596
# Poissons Ratio (y) = 0.22848 0.33133
# Poissons Ratio (z) = 0.05928 0.27452
#
# Static dielectric constant tensor:
#      x y z
#    x 1.656780 0.000000 -0.009450 
#    y 0.000000 1.624970 0.000000 
#    z -0.009450 0.000000 1.649270 
# 
# From -- ./inp_files/32430.got.cif
#   From: 2010.05.17/outbox.ucp.g08.bks.cvg/sg8_17_cif.got.tgz:32430.got - 2010.06.11 13:00:03.
