data_PCOD9133788
_publ_section_title
;
Structure prediction by ZEFSAII (Michael W. Deem and Ramdas Pophale) SiO2 
 PCOD9133788
Probable space group: C C
;
_chemical_formula_sum "Si O2"
_cell_formula_units_Z 32
_cell_length_a 26.689068
_cell_length_b 7.771508
_cell_length_c 6.847828
_cell_angle_alpha 90.000000
_cell_angle_beta 55.007618
_cell_angle_gamma 90.000000
_cell_volume 1163.580665
_symmetry_space_group_name_H-M "C C"
_symmetry_group_IT_number 9
_symmetry_cell_setting 'monoclinic'
loop_
_space_group_symop_operation_xyz
x,y,z
x,-y,1/2+z
1/2+x,1/2+y,z
1/2+x,1/2-y,1/2+z
loop_
_atom_site_type_symbol
_atom_site_label
_atom_site_fract_x
_atom_site_fract_y
_atom_site_fract_z
Si Si1 0.481390 0.492946 0.872390
Si Si2 0.891335 0.067369 0.323674
Si Si3 0.147822 0.774223 0.764295
Si Si4 0.605233 0.336605 0.469545
Si Si5 0.274814 0.754683 0.684418
Si Si6 0.050164 0.647392 0.235711
Si Si7 0.422922 0.106915 0.532274
Si Si8 0.329032 0.878086 0.926258
O O1 0.402229 0.472329 0.053649
O O2 0.540202 0.367896 0.724828
O O3 0.506675 0.686927 0.809135
O O4 0.465568 0.495749 0.156872
O O5 0.819181 0.108870 0.496041
O O6 0.914219 0.267466 0.235390
O O7 0.152359 0.763717 0.521871
O O8 0.207494 0.731977 0.752736
O O9 0.094565 0.646522 0.954017
O O10 0.128028 0.974201 0.850411
O O11 0.591291 0.207682 0.325105
O O12 0.284283 0.761683 0.897485
O O13 0.292332 0.951902 0.577157
O O14 0.991298 0.524735 0.366635
O O15 0.376907 0.201087 0.475979
O O16 0.380537 0.944593 0.664542
#
# Coordination Sequence:
#
# PCOD9133788 Si02
#       8
#     4   4   4   4   4   4   4   4
#     4  10  16  33  51  81 109 133 169 226 285 319
#     4  10  20  31  54  78 114 140 176 223 274 334
#     4  11  20  32  51  79 113 145 178 215 277 327
#     4  11  18  31  54  83 111 141 167 232 283 326
#     4  10  21  36  50  79 111 145 186 215 267 334
#     4  10  20  34  55  84 114 135 177 227 281 341
#     4   9  18  36  51  83 105 138 184 219 283 322
#     4   9  19  35  56  73 109 145 177 231 262 321
#
# _framework density 27.501313
#
# number of rings (size 3 to 8) (size 9 to 14) (size 15 to 20)
#    0.000    2.000    5.000    1.500    0.000    3.000 
#    2.250    0.000    0.000    1.500    0.000    0.000 
#    0.000    0.000    0.000    0.000    0.000    0.000 
#
# Total GULP energy -89089.259029 kJ/mol
# GULP energy per Si atom -5568.078689 kJ/mol
# Density = 2.743872 g / cm^3
# Si number density = 27.501313 Si / 1000 Ang^3
#
#
#
# Elastic Constant Matrix: (Units=GPa)
#
#
# Indices 1 2 3 4 5 6 
#
# 1 217.5902 39.2883 42.1072 0.0000 8.3645 0.0000
# 2 39.2883 65.6658 8.3533 0.0000 19.3596 0.0000
# 3 42.1072 8.3533 76.1206 0.0000 2.0119 0.0000
# 4 0.0000 0.0000 0.0000 57.9770 0.0000 -25.9257
# 5 8.3645 19.3596 2.0119 0.0000 61.3643 0.0000
# 6 0.0000 0.0000 0.0000 -25.9257 0.0000 30.4432
#
#
#
# Elastic Compliance Matrix: (Units=1/GPa)
#
#
# Indices 1 2 3 4 5 6 
#
# 1 0.005696 -0.003140 -0.002814 0.000000 0.000307 0.000000
# 2 -0.003140 0.018745 -0.000175 0.000000 -0.005480 0.000000
# 3 -0.002814 -0.000175 0.014714 0.000000 -0.000044 0.000000
# 4 0.000000 0.000000 0.000000 0.027856 0.000000 0.023723
# 5 0.000307 -0.005480 -0.000044 0.000000 0.017985 0.000000
# 6 0.000000 0.000000 0.000000 0.023723 0.000000 0.053050
#
#
# Mechanical properties :
#
#
# Convention : Reuss Voigt Hill
#
# Bulk Modulus (GPa) = 37.18009 59.87491 48.52750
# Shear Modulus (GPa) = 31.39310 47.93208 39.66259
#
# Velocity S-wave (km/s) = 3.38229 4.17934 3.80176
# Velocity P-wave (km/s) = 5.36674 6.71625 6.07906
#
# Compressibility (1/GPa) = 0.02689612
#
# Stress axis : x y z
#
# Youngs Moduli (GPa) = 175.57534 53.34661 67.96204
#
# Poissons Ratio (x) = 0.16751 0.19125
# Poissons Ratio (y) = 0.55132 0.01191
# Poissons Ratio (z) = 0.49409 0.00935
#
# Static dielectric constant tensor:
#      x y z
#    x 2.124690 0.000000 0.533250 
#    y 0.000000 0.835610 0.000000 
#    z 0.533250 0.000000 1.921570 
# 
# From -- ./inp_files/12121.got.cif
#   From: 2010.05.17/outbox.cif.g08.bks.cpg/sg9_7_cif.got.tgz:12121.got - 2010.06.03 20:04:27.
