data_PCOD9133404
_publ_section_title
;
Structure prediction by ZEFSAII (Michael W. Deem and Ramdas Pophale) SiO2 
 PCOD9133404
Probable space group: C M
;
_chemical_formula_sum "Si O2"
_cell_formula_units_Z 20
_cell_length_a 15.157476
_cell_length_b 9.755531
_cell_length_c 14.693489
_cell_angle_alpha 90.000000
_cell_angle_beta 24.078421
_cell_angle_gamma 90.000000
_cell_volume 886.438626
_symmetry_space_group_name_H-M "C M"
_symmetry_group_IT_number 8
_symmetry_cell_setting 'monoclinic'
loop_
_space_group_symop_operation_xyz
x,y,z
x,-y,z
1/2+x,1/2+y,z
1/2+x,1/2-y,z
loop_
_atom_site_type_symbol
_atom_site_label
_atom_site_fract_x
_atom_site_fract_y
_atom_site_fract_z
Si Si1 0.840058 0.000000 0.785118
Si Si2 0.966353 0.000000 0.456099
Si Si3 0.711500 0.762146 0.271923
Si Si4 0.950968 0.500000 0.608909
Si Si5 0.997199 0.287928 0.175552
Si Si6 0.025239 0.000000 0.921716
Si Si7 0.337067 0.500000 0.384908
Si Si8 0.264125 0.000000 0.507051
O O1 0.862645 0.000000 0.654726
O O2 0.713011 0.864320 0.939283
O O3 0.068185 0.000000 0.620092
O O4 0.111696 0.863692 0.312179
O O5 0.805714 0.000000 0.522526
O O6 0.835884 0.698315 0.241444
O O7 0.527143 0.863584 0.483824
O O8 0.877174 0.864858 0.066187
O O9 0.104191 0.500000 0.553508
O O10 0.692851 0.500000 0.848347
O O11 0.975247 0.130941 0.223392
O O12 0.909947 0.370497 0.344764
O O13 0.166489 0.000000 0.698304
#
# Coordination Sequence:
#
# PCOD9133404 Si02
#       8
#     2   2   4   2   4   2   2   2
#     4  11  24  42  75  92 141 199 222 274 363 423
#     4  12  24  44  73 108 146 178 229 308 351 407
#     4  10  23  45  68 102 140 184 230 291 346 418
#     4   9  23  48  70  93 144 194 229 282 349 426
#     4  10  23  46  66  99 146 177 234 280 344 426
#     4  11  26  41  79  97 133 195 247 271 350 420
#     4  10  25  43  72 105 148 177 226 308 349 395
#     4  11  24  42  67 105 130 187 239 281 332 429
#
# _framework density 22.562193000000001
#
# number of rings (size 3 to 8) (size 9 to 14) (size 15 to 20)
#    0.000    1.600    2.000    1.200    8.400    1.600 
#    0.000    2.000   17.600    0.000    0.000    0.000 
#    0.000    0.000    0.000    0.000    0.000    0.000 
#
# Total GULP energy -55938.227926 kJ/mol
# GULP energy per Si atom -5593.822793 kJ/mol
# Density = 2.251084 g / cm^3
# Si number density = 22.562193 Si / 1000 Ang^3
#
#
#
# Elastic Constant Matrix: (Units=GPa)
#
#
# Indices 1 2 3 4 5 6 
#
# 1 128.2718 51.2910 46.7537 -0.0003 18.6946 0.0000
# 2 51.2910 161.9174 61.0866 -0.0012 -9.3165 0.0005
# 3 46.7537 61.0866 107.2508 -0.0024 18.2986 0.0007
# 4 -0.0003 -0.0012 -0.0024 4.9579 0.0007 -4.3765
# 5 18.6946 -9.3165 18.2986 0.0007 33.2711 -0.0001
# 6 0.0000 0.0005 0.0007 -4.3765 -0.0001 22.5081
#
#
#
# Elastic Compliance Matrix: (Units=1/GPa)
#
#
# Indices 1 2 3 4 5 6 
#
# 1 0.010494 -0.002911 -0.001955 0.000000 -0.005636 0.000000
# 2 -0.002911 0.009564 -0.005423 -0.000002 0.007296 0.000000
# 3 -0.001955 -0.005423 0.014718 0.000008 -0.008515 0.000001
# 4 0.000000 -0.000002 0.000008 0.243492 -0.000009 0.047345
# 5 -0.005636 0.007296 -0.008515 -0.000009 0.039949 -0.000001
# 6 0.000000 0.000000 0.000001 0.047345 -0.000001 0.053634
#
#
# Mechanical properties :
#
#
# Convention : Reuss Voigt Hill
#
# Bulk Modulus (GPa) = 70.43555 79.52250 74.97903
# Shear Modulus (GPa) = 12.58931 28.03467 20.31199
#
# Velocity S-wave (km/s) = 2.36473 3.52881 3.00370
# Velocity P-wave (km/s) = 6.22431 7.20595 6.73305
#
# Compressibility (1/GPa) = 0.01419738
#
# Stress axis : x y z
#
# Youngs Moduli (GPa) = 95.29304 104.55943 67.94485
#
# Poissons Ratio (x) = 0.30437 0.13283
# Poissons Ratio (y) = 0.27739 0.36848
# Poissons Ratio (z) = 0.18630 0.56705
#
# Static dielectric constant tensor:
#      x y z
#    x 1.834260 0.000000 0.006840 
#    y 0.000000 1.841470 0.000000 
#    z 0.006840 0.000000 1.822840 
# 
# From -- ./inp_files/27384.got.cif
#   From: 2010.05.17/outbox.cif.g08.bks.cpg/sg8_14_cif.got.tgz:27384.got - 2010.06.03 19:46:02.
