data_PCOD9133589
_publ_section_title
;
Structure prediction by ZEFSAII (Michael W. Deem and Ramdas Pophale) SiO2 
 PCOD9133589
Probable space group: C M
;
_chemical_formula_sum "Si O2"
_cell_formula_units_Z 16
_cell_length_a 6.260760
_cell_length_b 22.880087
_cell_length_c 5.409678
_cell_angle_alpha 90.000000
_cell_angle_beta 132.323194
_cell_angle_gamma 90.000000
_cell_volume 572.942800
_symmetry_space_group_name_H-M "C M"
_symmetry_group_IT_number 8
_symmetry_cell_setting 'monoclinic'
loop_
_space_group_symop_operation_xyz
x,y,z
x,-y,z
1/2+x,1/2+y,z
1/2+x,1/2-y,z
loop_
_atom_site_type_symbol
_atom_site_label
_atom_site_fract_x
_atom_site_fract_y
_atom_site_fract_z
Si Si1 0.603980 0.235825 0.477760
Si Si2 0.159396 0.000000 0.961481
Si Si3 0.711254 0.399451 0.634790
Si Si4 0.081098 0.500000 0.676012
Si Si5 0.226394 0.667480 0.964546
O O1 0.408328 0.256336 0.567575
O O2 0.643565 0.169067 0.609197
O O3 0.403152 0.271510 0.127710
O O4 0.104413 0.940354 0.771074
O O5 0.919132 0.000000 0.986384
O O6 0.484753 0.000000 0.314493
O O7 0.930883 0.443186 0.669010
O O8 0.923156 0.345352 0.868340
O O9 0.459671 0.376174 0.263679
#
# Coordination Sequence:
#
# PCOD9133589 Si02
#       5
#     4   2   4   2   4
#     4  12  28  52  76 112 160 212 264 326 382 466
#     4  11  24  47  74 110 152 194 251 325 390 474
#     4  11  26  46  74 114 148 200 260 315 394 474
#     4  11  24  47  74 110 152 194 251 325 390 474
#     4  12  26  49  76 112 156 211 262 320 396 464
#
# _framework density 27.925995
#
# number of rings (size 3 to 8) (size 9 to 14) (size 15 to 20)
#    0.000    0.500    2.500    4.500    0.000   10.000 
#    9.000    0.000    0.000    0.000    0.000    0.000 
#    0.000    0.000    0.000    0.000    0.000    0.000 
#
# Total GULP energy -44536.190412 kJ/mol
# GULP energy per Si atom -5567.023802 kJ/mol
# Density = 2.786243 g / cm^3
# Si number density = 27.925995 Si / 1000 Ang^3
#
#
#
# Elastic Constant Matrix: (Units=GPa)
#
#
# Indices 1 2 3 4 5 6 
#
# 1 168.7179 36.2304 34.8401 0.0000 27.9394 0.0000
# 2 36.2304 107.9120 25.6532 0.0000 0.8944 0.0000
# 3 34.8401 25.6532 100.4296 0.0000 39.4823 0.0000
# 4 0.0000 0.0000 0.0000 58.5766 0.0000 4.3426
# 5 27.9394 0.8944 39.4823 0.0000 51.8162 0.0000
# 6 0.0000 0.0000 0.0000 4.3426 0.0000 31.8459
#
#
#
# Elastic Compliance Matrix: (Units=1/GPa)
#
#
# Indices 1 2 3 4 5 6 
#
# 1 0.007073 -0.002210 -0.000578 0.000000 -0.003335 0.000000
# 2 -0.002210 0.010788 -0.003404 0.000000 0.003599 0.000000
# 3 -0.000578 -0.003404 0.015535 0.000000 -0.011467 0.000000
# 4 0.000000 0.000000 0.000000 0.017246 0.000000 -0.002352
# 5 -0.003335 0.003599 -0.011467 0.000000 0.029773 0.000000
# 6 0.000000 0.000000 0.000000 -0.002352 0.000000 0.031722
#
#
# Mechanical properties :
#
#
# Convention : Reuss Voigt Hill
#
# Bulk Modulus (GPa) = 47.58951 63.38964 55.48958
# Shear Modulus (GPa) = 38.01554 47.13680 42.57617
#
# Velocity S-wave (km/s) = 3.69358 4.11289 3.90886
# Velocity P-wave (km/s) = 5.93871 6.73074 6.34709
#
# Compressibility (1/GPa) = 0.02101303
#
# Stress axis : x y z
#
# Youngs Moduli (GPa) = 141.37751 92.69511 64.36941
#
# Poissons Ratio (x) = 0.20483 0.03722
# Poissons Ratio (y) = 0.31240 0.21911
# Poissons Ratio (z) = 0.08174 0.31553
#
# Static dielectric constant tensor:
#      x y z
#    x 2.145680 0.000000 -0.061800 
#    y 0.000000 2.480850 0.000000 
#    z -0.061800 0.000000 2.270620 
# 
# From -- ./inp_files/415.got.cif
#   From: 2010.05.17/outbox.cif.g08.bks.cpg/sg8_1_cif.got.tgz:415.got - 2010.06.03 19:46:02.
