data_PCOD9133127
_publ_section_title
;
Structure prediction by ZEFSAII (Michael W. Deem and Ramdas Pophale) SiO2 
 PCOD9133127
Probable space group: C M
;
_chemical_formula_sum "Si O2"
_cell_formula_units_Z 28
_cell_length_a 11.865683
_cell_length_b 13.408934
_cell_length_c 9.354372
_cell_angle_alpha 90.000000
_cell_angle_beta 70.257596
_cell_angle_gamma 90.000000
_cell_volume 1400.854890
_symmetry_space_group_name_H-M "C M"
_symmetry_group_IT_number 8
_symmetry_cell_setting 'monoclinic'
loop_
_space_group_symop_operation_xyz
x,y,z
x,-y,z
1/2+x,1/2+y,z
1/2+x,1/2-y,z
loop_
_atom_site_type_symbol
_atom_site_label
_atom_site_fract_x
_atom_site_fract_y
_atom_site_fract_z
Si Si1 0.718510 0.385820 0.719200
Si Si2 0.100172 0.381727 0.740851
Si Si3 0.970644 0.884524 0.006436
Si Si4 0.349873 0.121258 0.938452
Si Si5 0.349988 0.621251 0.783770
Si Si6 0.614397 0.622534 0.216021
Si Si7 0.083319 0.212880 0.537425
O O1 0.749454 0.500000 0.676092
O O2 0.811731 0.345918 0.794990
O O3 0.693381 0.333281 0.581468
O O4 0.592156 0.384003 0.859119
O O5 0.097924 0.500000 0.720415
O O6 0.223288 0.354748 0.766715
O O7 0.084424 0.325273 0.597172
O O8 0.989218 0.352172 0.891801
O O9 0.013885 0.846258 0.141640
O O10 0.938545 0.000000 0.046970
O O11 0.870189 0.844264 0.940243
O O12 0.345490 0.000000 0.937095
O O13 0.245352 0.146224 0.093875
O O14 0.359246 0.500000 0.781611
O O15 0.460815 0.661566 0.644293
O O16 0.607403 0.500000 0.238948
O O17 0.597459 0.683479 0.367930
#
# Coordination Sequence:
#
# PCOD9133127 Si02
#       7
#     4   4   4   4   4   4   4
#     4   8  14  27  51  83 111 141 188 239 279 329
#     4  10  22  37  56  84 123 162 195 233 285 355
#     4   7  12  26  51  82 113 143 179 231 289 335
#     4   8  16  33  57  82 115 155 191 235 295 345
#     4   9  18  35  58  86 118 152 195 240 287 348
#     4   9  16  30  58  96 122 139 185 257 304 332
#     4  11  20  30  59  89 116 148 197 243 295 338
#
# _framework density 19.987794999999998
#
# number of rings (size 3 to 8) (size 9 to 14) (size 15 to 20)
#    0.000    3.143    0.000    3.857    2.000    0.000 
#    0.000    0.000    9.429    1.714    0.000   18.000 
#    0.000    0.000    0.000    0.000    0.000    0.000 
#
# Total GULP energy -78015.280783 kJ/mol
# GULP energy per Si atom -5572.520056 kJ/mol
# Density = 1.994230 g / cm^3
# Si number density = 19.987795 Si / 1000 Ang^3
#
#
#
# Elastic Constant Matrix: (Units=GPa)
#
#
# Indices 1 2 3 4 5 6 
#
# 1 150.9223 36.8851 78.5203 0.0000 11.9677 0.0000
# 2 36.8851 78.1574 37.5222 0.0000 5.5215 0.0000
# 3 78.5203 37.5222 130.7185 0.0000 31.4509 0.0000
# 4 0.0000 0.0000 0.0000 27.2568 0.0000 8.3234
# 5 11.9677 5.5215 31.4509 0.0000 29.9084 0.0000
# 6 0.0000 0.0000 0.0000 8.3234 0.0000 25.8097
#
#
#
# Elastic Compliance Matrix: (Units=1/GPa)
#
#
# Indices 1 2 3 4 5 6 
#
# 1 0.010103 -0.002004 -0.006171 0.000000 0.002817 0.000000
# 2 -0.002004 0.015360 -0.003635 0.000000 0.001789 0.000000
# 3 -0.006171 -0.003635 0.015589 0.000000 -0.013252 0.000000
# 4 0.000000 0.000000 0.000000 0.040696 0.000000 -0.013124
# 5 0.002817 0.001789 -0.013252 0.000000 0.045914 0.000000
# 6 0.000000 0.000000 0.000000 -0.013124 0.000000 0.042978
#
#
# Mechanical properties :
#
#
# Convention : Reuss Voigt Hill
#
# Bulk Modulus (GPa) = 57.37287 73.96147 65.66717
# Shear Modulus (GPa) = 24.99121 30.38635 27.68878
#
# Velocity S-wave (km/s) = 3.53983 3.90326 3.72598
# Velocity P-wave (km/s) = 6.74340 7.57612 7.17186
#
# Compressibility (1/GPa) = 0.01742984
#
# Stress axis : x y z
#
# Youngs Moduli (GPa) = 98.97999 65.10624 64.14784
#
# Poissons Ratio (x) = 0.13049 0.39586
# Poissons Ratio (y) = 0.19839 0.23321
# Poissons Ratio (z) = 0.61082 0.23669
#
# Static dielectric constant tensor:
#      x y z
#    x 1.743110 0.000000 0.012080 
#    y 0.000000 1.793410 0.000000 
#    z 0.012080 0.000000 1.657150 
# 
# From -- ./inp_files/10709.got.cif
#   From: 2010.05.17/outbox.cif.g08.bks.cpg/sg8_6_cif.got.tgz:10709.got - 2010.06.03 19:46:02.
