data_PCOD9133635
_publ_section_title
;
Structure prediction by ZEFSAII (Michael W. Deem and Ramdas Pophale) SiO2 
 PCOD9133635
Probable space group: C M
;
_chemical_formula_sum "Si O2"
_cell_formula_units_Z 22
_cell_length_a 4.914135
_cell_length_b 31.233227
_cell_length_c 6.381181
_cell_angle_alpha 90.000000
_cell_angle_beta 79.444206
_cell_angle_gamma 90.000000
_cell_volume 962.836470
_symmetry_space_group_name_H-M "C M"
_symmetry_group_IT_number 8
_symmetry_cell_setting 'monoclinic'
loop_
_space_group_symop_operation_xyz
x,y,z
x,-y,z
1/2+x,1/2+y,z
1/2+x,1/2-y,z
loop_
_atom_site_type_symbol
_atom_site_label
_atom_site_fract_x
_atom_site_fract_y
_atom_site_fract_z
Si Si1 0.757600 0.433355 0.912400
Si Si2 0.296873 0.655185 0.403418
Si Si3 0.060762 0.500000 0.560972
Si Si4 0.094813 0.778146 0.064064
Si Si5 0.196237 0.566916 0.192537
Si Si6 0.723642 0.655940 0.698238
O O1 0.899408 0.462904 0.721153
O O2 0.788372 0.384017 0.839990
O O3 0.237717 0.384253 0.257247
O O4 0.436458 0.443835 0.992630
O O5 0.005307 0.669173 0.542568
O O6 0.907589 0.560410 0.114171
O O7 0.457197 0.692477 0.260079
O O8 0.204963 0.537093 0.392627
O O9 0.906054 0.736118 0.069465
O O10 0.100600 0.805355 0.850120
O O11 0.499376 0.640547 0.561068
#
# Coordination Sequence:
#
# PCOD9133635 Si02
#       6
#     4   4   2   4   4   4
#     4  12  27  47  74 107 144 191 239 291 355 422
#     4  12  26  47  77 105 143 191 236 291 361 423
#     4  12  28  46  76 108 146 184 250 286 354 414
#     4  12  28  46  74 107 144 183 240 298 350 426
#     4  12  27  47  74 107 144 191 239 291 355 422
#     4  12  26  47  77 105 143 191 236 291 361 423
#
# _framework density 22.849152
#
# number of rings (size 3 to 8) (size 9 to 14) (size 15 to 20)
#    0.000    0.000    3.636    5.455    2.545    5.818 
#    0.000    0.000    0.000    0.000    0.000    0.000 
#    0.000    0.000    0.000    0.000    0.000    0.000 
#
# Total GULP energy -61409.152150 kJ/mol
# GULP energy per Si atom -5582.650195 kJ/mol
# Density = 2.279715 g / cm^3
# Si number density = 22.849152 Si / 1000 Ang^3
#
#
#
# Elastic Constant Matrix: (Units=GPa)
#
#
# Indices 1 2 3 4 5 6 
#
# 1 64.8242 -17.7132 -3.6732 0.0000 -13.3369 0.0000
# 2 -17.7132 87.2603 32.1028 0.0000 -6.8252 0.0000
# 3 -3.6732 32.1028 127.6298 0.0000 -28.2341 0.0000
# 4 0.0000 0.0000 0.0000 48.0611 0.0000 -1.4305
# 5 -13.3369 -6.8252 -28.2341 0.0000 23.5338 0.0000
# 6 0.0000 0.0000 0.0000 -1.4305 0.0000 -78.8240
#
#
#
# Elastic Compliance Matrix: (Units=1/GPa)
#
#
# Indices 1 2 3 4 5 6 
#
# 1 0.020132 0.004211 0.003150 0.000000 0.016410 0.000000
# 2 0.004211 0.013510 -0.002562 0.000000 0.003230 0.000000
# 3 0.003150 -0.002562 0.011981 0.000000 0.015416 0.000000
# 4 0.000000 0.000000 0.000000 0.020796 0.000000 -0.000377
# 5 0.016410 0.003230 0.015416 0.000000 0.071223 0.000000
# 6 0.000000 0.000000 0.000000 -0.000377 0.000000 -0.012680
#
#
# Mechanical properties :
#
#
# Convention : Reuss Voigt Hill
#
# Bulk Modulus (GPa) = 18.10930 33.46081 25.78505
# Shear Modulus (GPa) = 37.37763 16.48738 26.93251
#
# Velocity S-wave (km/s) = 4.04894 2.68913 3.43696
# Velocity P-wave (km/s) = 5.45906 4.93132 5.20189
#
# Compressibility (1/GPa) = 0.05522023
#
# Stress axis : x y z
#
# Youngs Moduli (GPa) = 49.67312 74.01839 83.46865
#
# Poissons Ratio (x) = -0.31170 -0.26295
# Poissons Ratio (y) = -0.20918 0.21388
# Poissons Ratio (z) = -0.15648 0.18966
#
# Static dielectric constant tensor:
#      x y z
#    x 1.844460 0.000000 0.028420 
#    y 0.000000 1.768560 0.000000 
#    z 0.028420 0.000000 1.808320 
# 
# From -- ./inp_files/615.got.cif
#   From: 2010.05.17/outbox.cif.g08.bks.cpg/sg8_1_cif.got.tgz:615.got - 2010.06.03 19:46:02.
