data_PCOD9133523
_publ_section_title
;
Structure prediction by ZEFSAII (Michael W. Deem and Ramdas Pophale) SiO2 
 PCOD9133523
Probable space group: C M
;
_chemical_formula_sum "Si O2"
_cell_formula_units_Z 24
_cell_length_a 9.179729
_cell_length_b 14.134730
_cell_length_c 13.404209
_cell_angle_alpha 90.000000
_cell_angle_beta 30.430615
_cell_angle_gamma 90.000000
_cell_volume 880.913680
_symmetry_space_group_name_H-M "C M"
_symmetry_group_IT_number 8
_symmetry_cell_setting 'monoclinic'
loop_
_space_group_symop_operation_xyz
x,y,z
x,-y,z
1/2+x,1/2+y,z
1/2+x,1/2-y,z
loop_
_atom_site_type_symbol
_atom_site_label
_atom_site_fract_x
_atom_site_fract_y
_atom_site_fract_z
Si Si1 0.640080 0.000000 0.582670
Si Si2 0.139800 0.154752 0.305257
Si Si3 0.757127 0.000000 0.764042
Si Si4 0.208520 0.110638 0.046664
Si Si5 0.750895 0.317226 0.815507
Si Si6 0.242490 0.191402 0.605358
Si Si7 0.393273 0.000000 0.409233
Si Si8 0.596292 0.000000 0.085857
O O1 0.882615 0.080693 0.456928
O O2 0.401803 0.082465 0.709442
O O3 0.022020 0.241753 0.436508
O O4 0.169520 0.171278 0.168848
O O5 0.416800 0.097422 0.177307
O O6 0.081352 0.000000 0.537241
O O7 0.552464 0.915285 0.844261
O O8 0.771925 0.000000 0.876719
O O9 0.086230 0.000000 0.128071
O O10 0.107709 0.164621 0.007791
O O11 0.600146 0.305711 0.798834
O O12 0.990202 0.235126 0.686449
O O13 0.366822 0.092604 0.492619
O O14 0.644598 0.000000 0.177229
#
# Coordination Sequence:
#
# PCOD9133523 Si02
#       8
#     2   4   2   4   4   4   2   2
#     4   9  16  32  63  84 124 154 209 260 310 388
#     4   9  18  38  63  96 122 171 215 264 323 395
#     4   8  20  36  66  99 124 171 213 267 327 393
#     4   9  18  36  69  98 123 165 215 270 321 391
#     4  11  22  39  63  97 125 165 219 266 324 388
#     4  11  26  40  63  94 130 176 217 267 321 394
#     4  12  24  40  64  90 136 180 218 272 334 375
#     4   9  18  38  69  93 128 163 226 267 333 390
#
# _framework density 27.244439
#
# number of rings (size 3 to 8) (size 9 to 14) (size 15 to 20)
#    0.500    1.667    2.500    1.500    9.333    0.000 
#    3.000    3.333    3.667    0.000    0.000    0.000 
#    0.000    0.000    0.000    0.000    0.000    0.000 
#
# Total GULP energy -66837.167932 kJ/mol
# GULP energy per Si atom -5569.763994 kJ/mol
# Density = 2.718243 g / cm^3
# Si number density = 27.244439 Si / 1000 Ang^3
#
#
#
# Elastic Constant Matrix: (Units=GPa)
#
#
# Indices 1 2 3 4 5 6 
#
# 1 101.5223 21.6789 45.3921 -0.0177 53.7282 -0.0597
# 2 21.6789 131.6090 16.3567 -0.0345 14.3066 -0.0037
# 3 45.3921 16.3567 87.1023 -0.0301 37.3411 -0.0360
# 4 -0.0177 -0.0345 -0.0301 33.1749 0.0114 0.8101
# 5 53.7282 14.3066 37.3411 0.0114 62.8364 0.0375
# 6 -0.0597 -0.0037 -0.0360 0.8101 0.0375 4.7950
#
#
#
# Elastic Compliance Matrix: (Units=1/GPa)
#
#
# Indices 1 2 3 4 5 6 
#
# 1 0.019117 -0.001173 -0.003823 0.000003 -0.013808 0.000316
# 2 -0.001173 0.007921 -0.000715 0.000007 -0.000376 -0.000012
# 3 -0.003823 -0.000715 0.016285 0.000011 -0.006246 0.000121
# 4 0.000003 0.000007 0.000011 0.030268 -0.000013 -0.005114
# 5 -0.013808 -0.000376 -0.006246 -0.000013 0.031518 -0.000463
# 6 0.000316 -0.000012 0.000121 -0.005114 -0.000463 0.209422
#
#
# Mechanical properties :
#
#
# Convention : Reuss Voigt Hill
#
# Bulk Modulus (GPa) = 31.34677 54.12101 42.73389
# Shear Modulus (GPa) = 14.85497 35.94833 25.40165
#
# Velocity S-wave (km/s) = 2.33759 3.63640 3.05677
# Velocity P-wave (km/s) = 4.33780 6.12693 5.30828
#
# Compressibility (1/GPa) = 0.03190121
#
# Stress axis : x y z
#
# Youngs Moduli (GPa) = 52.30865 126.24359 61.40593
#
# Poissons Ratio (x) = 0.14808 0.23475
# Poissons Ratio (y) = 0.06136 0.04392
# Poissons Ratio (z) = 0.19997 0.09029
#
# Static dielectric constant tensor:
#      x y z
#    x 2.171290 0.000030 0.094190 
#    y 0.000030 2.080830 -0.000040 
#    z 0.094190 -0.000040 2.210580 
# 
# From -- ./inp_files/26078.got.cif
#   From: 2010.05.17/outbox.cif.g08.bks.cpg/sg8_14_cif.got.tgz:26078.got - 2010.06.03 19:46:02.
