data_PCOD9134435
_publ_section_title
;
Structure prediction by ZEFSAII (Michael W. Deem and Ramdas Pophale) SiO2 
 PCOD9134435
Probable space group: C C
;
_chemical_formula_sum "Si O2"
_cell_formula_units_Z 16
_cell_length_a 12.812609
_cell_length_b 9.277253
_cell_length_c 5.665878
_cell_angle_alpha 90.000000
_cell_angle_beta 53.932408
_cell_angle_gamma 90.000000
_cell_volume 544.388747
_symmetry_space_group_name_H-M "C C"
_symmetry_group_IT_number 9
_symmetry_cell_setting 'monoclinic'
loop_
_space_group_symop_operation_xyz
x,y,z
x,-y,1/2+z
1/2+x,1/2+y,z
1/2+x,1/2-y,1/2+z
loop_
_atom_site_type_symbol
_atom_site_label
_atom_site_fract_x
_atom_site_fract_y
_atom_site_fract_z
Si Si1 0.742160 0.170805 0.927020
Si Si2 0.500729 0.965733 0.212426
Si Si3 0.334201 0.256322 0.805562
Si Si4 0.120429 0.009391 0.595085
O O1 0.804746 0.160646 0.584846
O O2 0.820252 0.173565 0.068431
O O3 0.678856 0.329973 0.014798
O O4 0.633328 0.047170 0.079488
O O5 0.479101 0.805484 0.147655
O O6 0.444783 0.953877 0.553642
O O7 0.232770 0.117156 0.945032
O O8 0.049842 0.003170 0.438919
#
# Coordination Sequence:
#
# PCOD9134435 Si02
#       4
#     4   4   4   4
#     4  10  20  34  56  90 128 166 212 274 332 384
#     4  12  23  37  60  98 132 164 230 278 316 418
#     4  10  19  36  59  88 126 170 215 266 335 396
#     4   8  14  27  49  76 108 154 199 238 311 378
#
# _framework density 29.390764000000001
#
# number of rings (size 3 to 8) (size 9 to 14) (size 15 to 20)
#    0.000    2.000    0.000    7.500    0.000    0.000 
#    0.000    0.000    0.000    0.000    0.000  178.500 
#    0.000    0.000    0.000    0.000    0.000    0.000 
#
# Total GULP energy -44701.254621 kJ/mol
# GULP energy per Si atom -5587.656828 kJ/mol
# Density = 2.932387 g / cm^3
# Si number density = 29.390764 Si / 1000 Ang^3
#
#
#
# Elastic Constant Matrix: (Units=GPa)
#
#
# Indices 1 2 3 4 5 6 
#
# 1 205.8240 92.6071 139.6077 0.0000 69.1767 0.0000
# 2 92.6071 135.6493 48.6373 0.0000 2.0154 0.0000
# 3 139.6077 48.6373 210.0273 0.0000 91.5143 0.0000
# 4 0.0000 0.0000 0.0000 47.0720 0.0000 -16.7803
# 5 69.1767 2.0154 91.5143 0.0000 81.2897 0.0000
# 6 0.0000 0.0000 0.0000 -16.7803 0.0000 79.1782
#
#
#
# Elastic Compliance Matrix: (Units=1/GPa)
#
#
# Indices 1 2 3 4 5 6 
#
# 1 0.013206 -0.007333 -0.004441 0.000000 -0.006057 0.000000
# 2 -0.007333 0.012730 -0.001286 0.000000 0.007372 0.000000
# 3 -0.004441 -0.001286 0.012465 0.000000 -0.010222 0.000000
# 4 0.000000 0.000000 0.000000 0.022980 0.000000 0.004870
# 5 -0.006057 0.007372 -0.010222 0.000000 0.028781 0.000000
# 6 0.000000 0.000000 0.000000 0.004870 0.000000 0.013662
#
#
# Mechanical properties :
#
#
# Convention : Reuss Voigt Hill
#
# Bulk Modulus (GPa) = 81.42783 123.68940 102.55861
# Shear Modulus (GPa) = 37.30344 59.55122 48.42733
#
# Velocity S-wave (km/s) = 3.56648 4.50620 4.06360
# Velocity P-wave (km/s) = 6.68768 8.32168 7.54902
#
# Compressibility (1/GPa) = 0.01228081
#
# Stress axis : x y z
#
# Youngs Moduli (GPa) = 75.72428 78.55545 80.22741
#
# Poissons Ratio (x) = 0.57607 0.35626
# Poissons Ratio (y) = 0.55531 0.10315
# Poissons Ratio (z) = 0.33626 0.10100
#
# Static dielectric constant tensor:
#      x y z
#    x 2.206460 0.000000 -0.046500 
#    y 0.000000 2.274470 0.000000 
#    z -0.046500 0.000000 2.412840 
# 
# From -- ./inp_files/1462.got.cif
#   From: 2010.05.17/outbox.cif.g08.bks.cpg/sg9_1_cif.got.tgz:1462.got - 2010.06.03 20:04:27.
