data_PCOD9134193
_publ_section_title
;
Structure prediction by ZEFSAII (Michael W. Deem and Ramdas Pophale) SiO2 
 PCOD9134193
Probable space group: C C
;
_chemical_formula_sum "Si O2"
_cell_formula_units_Z 24
_cell_length_a 7.615654
_cell_length_b 11.993729
_cell_length_c 9.438394
_cell_angle_alpha 90.000000
_cell_angle_beta 72.513468
_cell_angle_gamma 90.000000
_cell_volume 822.263883
_symmetry_space_group_name_H-M "C C"
_symmetry_group_IT_number 9
_symmetry_cell_setting 'monoclinic'
loop_
_space_group_symop_operation_xyz
x,y,z
x,-y,1/2+z
1/2+x,1/2+y,z
1/2+x,1/2-y,1/2+z
loop_
_atom_site_type_symbol
_atom_site_label
_atom_site_fract_x
_atom_site_fract_y
_atom_site_fract_z
Si Si1 0.432710 0.293986 0.375000
Si Si2 0.650359 0.285357 0.768737
Si Si3 0.619103 0.467838 0.152613
Si Si4 0.306968 0.415183 0.052863
Si Si5 0.305116 0.140787 0.842221
Si Si6 0.076753 0.444435 0.824138
O O1 0.220850 0.259197 0.408189
O O2 0.455839 0.407577 0.282215
O O3 0.599525 0.323708 0.442442
O O4 0.506028 0.176619 0.295097
O O5 0.658675 0.410184 0.705607
O O6 0.762264 0.203882 0.635529
O O7 0.441547 0.243550 0.815324
O O8 0.524392 0.446134 0.022692
O O9 0.783109 0.391635 0.178866
O O10 0.199564 0.508339 0.169465
O O11 0.200813 0.426709 0.931227
O O12 0.407259 0.033444 0.887026
#
# Coordination Sequence:
#
# PCOD9134193 Si02
#       6
#     4   4   4   4   4   4
#     4   9  18  37  68  90 132 170 227 271 337 393
#     4  10  18  40  66  92 134 170 224 276 333 401
#     4   9  19  40  63 100 129 175 220 274 339 401
#     4  10  24  41  71  95 139 178 224 282 338 395
#     4   9  20  36  67  92 132 174 219 271 336 395
#     4  11  21  46  65 101 134 179 228 280 333 405
#
# _framework density 29.187709999999999
#
# number of rings (size 3 to 8) (size 9 to 14) (size 15 to 20)
#    1.000    1.333    1.667    1.000    0.000    0.000 
#   15.000    3.333    0.000    0.000    0.000    0.000 
#    0.000    0.000    0.000    0.000    0.000    0.000 
#
# Total GULP energy -66915.609483 kJ/mol
# GULP energy per Si atom -5576.300790 kJ/mol
# Density = 2.912128 g / cm^3
# Si number density = 29.187710 Si / 1000 Ang^3
#
#
#
# Elastic Constant Matrix: (Units=GPa)
#
#
# Indices 1 2 3 4 5 6 
#
# 1 165.7419 33.9832 38.7731 0.0000 53.5189 0.0000
# 2 33.9832 135.6445 1.5169 0.0000 14.3449 0.0000
# 3 38.7731 1.5169 118.0403 0.0000 38.1475 0.0000
# 4 0.0000 0.0000 0.0000 34.2641 0.0000 10.0050
# 5 53.5189 14.3449 38.1475 0.0000 57.3664 0.0000
# 6 0.0000 0.0000 0.0000 10.0050 0.0000 70.0795
#
#
#
# Elastic Compliance Matrix: (Units=1/GPa)
#
#
# Indices 1 2 3 4 5 6 
#
# 1 0.008898 -0.001414 -0.000428 0.000000 -0.007663 0.000000
# 2 -0.001414 0.007837 0.000727 0.000000 -0.001124 0.000000
# 3 -0.000428 0.000727 0.010868 0.000000 -0.007010 0.000000
# 4 0.000000 0.000000 0.000000 0.030455 0.000000 -0.004348
# 5 -0.007663 -0.001124 -0.007010 0.000000 0.029523 0.000000
# 6 0.000000 0.000000 0.000000 -0.004348 0.000000 0.014890
#
#
# Mechanical properties :
#
#
# Convention : Reuss Voigt Hill
#
# Bulk Modulus (GPa) = 39.41183 63.10813 51.25998
# Shear Modulus (GPa) = 44.18548 55.35224 49.76886
#
# Velocity S-wave (km/s) = 3.89503 4.35952 4.13380
# Velocity P-wave (km/s) = 5.81038 6.85631 6.35490
#
# Compressibility (1/GPa) = 0.02537309
#
# Stress axis : x y z
#
# Youngs Moduli (GPa) = 112.38545 127.59637 92.01098
#
# Poissons Ratio (x) = 0.18043 0.03939
# Poissons Ratio (y) = 0.15892 -0.06689
# Poissons Ratio (z) = 0.04812 -0.09276
#
# Static dielectric constant tensor:
#      x y z
#    x 2.425440 0.000000 -0.018600 
#    y 0.000000 2.196350 0.000000 
#    z -0.018600 0.000000 2.588800 
# 
# From -- ./inp_files/14248.got.cif
#   From: 2010.05.17/outbox.cif.g08.bks.cpg/sg9_8_cif.got.tgz:14248.got - 2010.06.03 20:04:27.
