data_PCOD9134133
_publ_section_title
;
Structure prediction by ZEFSAII (Michael W. Deem and Ramdas Pophale) SiO2 
 PCOD9134133
Probable space group: C C
;
_chemical_formula_sum "Si O2"
_cell_formula_units_Z 32
_cell_length_a 9.039051
_cell_length_b 10.341911
_cell_length_c 29.130378
_cell_angle_alpha 90.000000
_cell_angle_beta 147.578760
_cell_angle_gamma 90.000000
_cell_volume 1459.982890
_symmetry_space_group_name_H-M "C C"
_symmetry_group_IT_number 9
_symmetry_cell_setting 'monoclinic'
loop_
_space_group_symop_operation_xyz
x,y,z
x,-y,1/2+z
1/2+x,1/2+y,z
1/2+x,1/2-y,1/2+z
loop_
_atom_site_type_symbol
_atom_site_label
_atom_site_fract_x
_atom_site_fract_y
_atom_site_fract_z
Si Si1 0.392170 0.112742 0.142030
Si Si2 0.392151 0.204235 0.237781
Si Si3 0.822941 0.149609 0.429402
Si Si4 0.840352 0.674339 0.615431
Si Si5 0.713543 0.430789 0.284545
Si Si6 0.778829 0.337228 0.203324
Si Si7 0.320608 0.651176 0.948724
Si Si8 0.820827 0.697525 0.360129
O O1 0.415672 0.101663 0.203110
O O2 0.612654 0.213579 0.180149
O O3 0.437863 0.972554 0.132331
O O4 0.077896 0.160075 0.050475
O O5 0.634604 0.184107 0.337285
O O6 0.461907 0.339063 0.230578
O O7 0.092694 0.226385 0.181147
O O8 0.625543 0.195503 0.419289
O O9 0.119241 0.209020 0.518260
O O10 0.862614 0.994119 0.439013
O O11 0.697595 0.658632 0.628390
O O12 0.736191 0.438790 0.234614
O O13 0.699859 0.563358 0.308982
O O14 0.997354 0.361011 0.376235
O O15 0.106105 0.306896 0.287656
O O16 0.340747 0.770954 0.919045
#
# Coordination Sequence:
#
# PCOD9134133 Si02
#       8
#     4   4   4   4   4   4   4   4
#     4  10  23  39  60  91 123 163 210 253 303 369
#     4  11  23  39  63  91 125 159 208 258 306 362
#     4  10  22  37  59  94 121 156 211 253 298 374
#     4  11  23  39  64  89 125 167 205 253 311 363
#     4   9  21  36  61  90 119 155 205 253 305 367
#     4  10  20  37  59  87 121 163 200 249 308 361
#     4   9  20  38  61  87 121 164 201 252 313 360
#     4  10  18  37  63  85 119 159 202 251 306 368
#
# _framework density 21.918064000000001
#
# number of rings (size 3 to 8) (size 9 to 14) (size 15 to 20)
#    0.000    2.000    1.250    1.500    7.000    0.000 
#    0.000    0.000    8.250    0.000    0.000    0.000 
#    0.000    0.000    0.000    0.000    0.000    0.000 
#
# Total GULP energy -89149.537653 kJ/mol
# GULP energy per Si atom -5571.846103 kJ/mol
# Density = 2.186818 g / cm^3
# Si number density = 21.918064 Si / 1000 Ang^3
#
#
#
# Elastic Constant Matrix: (Units=GPa)
#
#
# Indices 1 2 3 4 5 6 
#
# 1 58.8593 27.3210 31.8737 0.0000 -0.8103 0.0000
# 2 27.3210 62.2716 20.6365 0.0000 4.4258 0.0000
# 3 31.8737 20.6365 130.0742 0.0000 -15.1854 0.0000
# 4 0.0000 0.0000 0.0000 22.3573 0.0000 -7.3073
# 5 -0.8103 4.4258 -15.1854 0.0000 21.1707 0.0000
# 6 0.0000 0.0000 0.0000 -7.3073 0.0000 28.2542
#
#
#
# Elastic Compliance Matrix: (Units=1/GPa)
#
#
# Indices 1 2 3 4 5 6 
#
# 1 0.023452 -0.008802 -0.004399 0.000000 -0.000418 0.000000
# 2 -0.008802 0.020975 -0.001879 0.000000 -0.006070 0.000000
# 3 -0.004399 -0.001879 0.009921 0.000000 0.007341 0.000000
# 4 0.000000 0.000000 0.000000 0.048858 0.000000 0.012636
# 5 -0.000418 -0.006070 0.007341 0.000000 0.053753 0.000000
# 6 0.000000 0.000000 0.000000 0.012636 0.000000 0.038661
#
#
# Mechanical properties :
#
#
# Convention : Reuss Voigt Hill
#
# Bulk Modulus (GPa) = 41.34466 45.65193 43.49830
# Shear Modulus (GPa) = 21.38196 25.78139 23.58167
#
# Velocity S-wave (km/s) = 3.12675 3.43339 3.28365
# Velocity P-wave (km/s) = 5.65152 6.04907 5.85367
#
# Compressibility (1/GPa) = 0.02418692
#
# Stress axis : x y z
#
# Youngs Moduli (GPa) = 42.64113 47.67686 100.79599
#
# Poissons Ratio (x) = 0.41963 0.44340
# Poissons Ratio (y) = 0.37531 0.18944
# Poissons Ratio (z) = 0.18758 0.08961
#
# Static dielectric constant tensor:
#      x y z
#    x 1.836910 0.000000 -0.033400 
#    y 0.000000 1.833360 0.000000 
#    z -0.033400 0.000000 1.809520 
# 
# From -- ./inp_files/22725.got.cif
#   From: 2010.05.17/outbox.cif.g08.bks.cpg/sg9_12_cif.got.tgz:22725.got - 2010.06.03 20:04:27.
