data_PCOD9134695
_publ_section_title
;
Structure prediction by ZEFSAII (Michael W. Deem and Ramdas Pophale) SiO2 
 PCOD9134695
Probable space group: C C
;
_chemical_formula_sum "Si O2"
_cell_formula_units_Z 28
_cell_length_a 13.821636
_cell_length_b 8.356084
_cell_length_c 19.718754
_cell_angle_alpha 90.000000
_cell_angle_beta 149.915497
_cell_angle_gamma 90.000000
_cell_volume 1141.613910
_symmetry_space_group_name_H-M "C C"
_symmetry_group_IT_number 9
_symmetry_cell_setting 'monoclinic'
loop_
_space_group_symop_operation_xyz
x,y,z
x,-y,1/2+z
1/2+x,1/2+y,z
1/2+x,1/2-y,1/2+z
loop_
_atom_site_type_symbol
_atom_site_label
_atom_site_fract_x
_atom_site_fract_y
_atom_site_fract_z
Si Si1 0.581130 0.652147 0.457240
Si Si2 0.114575 0.662660 0.183968
Si Si3 0.161167 0.612872 0.355316
Si Si4 0.057638 0.001665 0.076296
Si Si5 0.670332 0.845412 0.142583
Si Si6 0.566923 0.555317 0.828186
Si Si7 0.201927 0.509715 0.527562
O O1 0.350282 0.664969 0.325959
O O2 0.649647 0.534134 0.558597
O O3 0.635127 0.593218 0.414510
O O4 0.656505 0.828100 0.518533
O O5 0.032923 0.636723 0.210611
O O6 0.078182 0.838605 0.131533
O O7 0.074955 0.498263 0.120072
O O8 0.326478 0.492490 0.430448
O O9 0.212572 0.801069 0.401013
O O10 0.117126 0.545211 0.402498
O O11 0.126601 0.171676 0.144502
O O12 0.901056 0.871023 0.277445
O O13 0.614955 0.867339 0.029625
O O14 0.434872 0.517643 0.682109
#
# Coordination Sequence:
#
# PCOD9134695 Si02
#       7
#     4   4   4   4   4   4   4
#     4  10  19  39  68  93 125 173 224 258 328 401
#     4  10  22  42  60  95 129 168 220 272 326 393
#     4  11  23  40  61  93 136 168 213 272 346 372
#     4  11  21  41  65  93 126 174 213 278 324 392
#     4   9  21  42  66  86 129 166 226 262 320 388
#     4   9  21  41  62  93 132 170 223 270 322 391
#     4  10  21  41  64  97 127 175 223 274 322 395
#
# _framework density 24.526679999999999
#
# number of rings (size 3 to 8) (size 9 to 14) (size 15 to 20)
#    0.857    1.143    1.429    1.714    2.000    0.000 
#    7.714    0.000    0.000    0.000    0.000    0.000 
#    0.000    0.000    0.000    0.000    0.000    0.000 
#
# Total GULP energy -77983.835260 kJ/mol
# GULP energy per Si atom -5570.273947 kJ/mol
# Density = 2.447086 g / cm^3
# Si number density = 24.526680 Si / 1000 Ang^3
#
#
#
# Elastic Constant Matrix: (Units=GPa)
#
#
# Indices 1 2 3 4 5 6 
#
# 1 61.7110 32.2155 21.2137 0.0000 -26.5608 0.0000
# 2 32.2155 157.2853 28.2503 0.0000 -6.2072 0.0000
# 3 21.2137 28.2503 48.2875 0.0000 -28.9579 0.0000
# 4 0.0000 0.0000 0.0000 37.0343 0.0000 -0.8645
# 5 -26.5608 -6.2072 -28.9579 0.0000 46.0827 0.0000
# 6 0.0000 0.0000 0.0000 -0.8645 0.0000 35.6762
#
#
#
# Elastic Compliance Matrix: (Units=1/GPa)
#
#
# Indices 1 2 3 4 5 6 
#
# 1 0.024296 -0.004438 -0.000061 0.000000 0.013367 0.000000
# 2 -0.004438 0.008123 -0.005907 0.000000 -0.005175 0.000000
# 3 -0.000061 -0.005907 0.038022 0.000000 0.023062 0.000000
# 4 0.000000 0.000000 0.000000 0.027017 0.000000 0.000655
# 5 0.013367 -0.005175 0.023062 0.000000 0.043199 0.000000
# 6 0.000000 0.000000 0.000000 0.000655 0.000000 0.028046
#
#
# Mechanical properties :
#
#
# Convention : Reuss Voigt Hill
#
# Bulk Modulus (GPa) = 20.14896 47.84920 33.99908
# Shear Modulus (GPa) = 24.26511 36.13226 30.19869
#
# Velocity S-wave (km/s) = 3.14878 3.84237 3.51274
# Velocity P-wave (km/s) = 4.63171 6.26390 5.50859
#
# Compressibility (1/GPa) = 0.04963034
#
# Stress axis : x y z
#
# Youngs Moduli (GPa) = 41.15980 123.10003 26.30073
#
# Poissons Ratio (x) = 0.54629 0.00160
# Poissons Ratio (y) = 0.18266 0.15535
# Poissons Ratio (z) = 0.00251 0.72710
#
# Static dielectric constant tensor:
#      x y z
#    x 2.010660 0.000000 -0.003900 
#    y 0.000000 1.892150 0.000000 
#    z -0.003900 0.000000 2.065630 
# 
# From -- ./inp_files/30629.got.cif
#   From: 2010.05.17/outbox.cif.g08.bks.cpg/sg9_16_cif.got.tgz:30629.got - 2010.06.03 20:04:27.
