data_PCOD9134022
_publ_section_title
;
Structure prediction by ZEFSAII (Michael W. Deem and Ramdas Pophale) SiO2 
 PCOD9134022
Probable space group: C C
;
_chemical_formula_sum "Si O2"
_cell_formula_units_Z 20
_cell_length_a 9.163368
_cell_length_b 17.452586
_cell_length_c 9.972249
_cell_angle_alpha 90.000000
_cell_angle_beta 147.521301
_cell_angle_gamma 90.000000
_cell_volume 856.388860
_symmetry_space_group_name_H-M "C C"
_symmetry_group_IT_number 9
_symmetry_cell_setting 'monoclinic'
loop_
_space_group_symop_operation_xyz
x,y,z
x,-y,1/2+z
1/2+x,1/2+y,z
1/2+x,1/2-y,1/2+z
loop_
_atom_site_type_symbol
_atom_site_label
_atom_site_fract_x
_atom_site_fract_y
_atom_site_fract_z
Si Si1 0.199140 0.707440 0.175780
Si Si2 0.325221 0.921492 0.395113
Si Si3 0.790455 0.166456 0.538996
Si Si4 0.827719 0.438593 0.708257
Si Si5 0.120019 0.223451 0.145989
O O1 0.501587 0.740507 0.430409
O O2 0.132047 0.697996 0.284764
O O3 0.105489 0.620631 0.066572
O O4 0.321450 0.952644 0.544189
O O5 0.087856 0.857732 0.220426
O O6 0.256776 0.987645 0.238406
O O7 0.637679 0.089682 0.469858
O O8 0.749613 0.223210 0.629931
O O9 0.655192 0.364454 0.626190
O O10 0.314829 0.246145 0.419770
#
# Coordination Sequence:
#
# PCOD9134022 Si02
#       5
#     4   4   4   4   4
#     4  11  20  34  60  92 120 158 217 269 306 368
#     4  11  22  38  61  97 132 167 209 268 328 379
#     4  10  19  36  62  89 123 163 219 264 311 368
#     4  10  23  36  60  95 130 167 207 271 320 382
#     4  10  18  34  59  89 111 155 218 260 291 361
#
# _framework density 23.353877000000001
#
# number of rings (size 3 to 8) (size 9 to 14) (size 15 to 20)
#    0.000    1.600    4.000    3.600    0.000    3.200 
#    0.000    0.000    0.000    4.800    0.000    0.000 
#    0.000    0.000    0.000    0.000    0.000    0.000 
#
# Total GULP energy -55695.679614 kJ/mol
# GULP energy per Si atom -5569.567961 kJ/mol
# Density = 2.330072 g / cm^3
# Si number density = 23.353877 Si / 1000 Ang^3
#
#
#
# Elastic Constant Matrix: (Units=GPa)
#
#
# Indices 1 2 3 4 5 6 
#
# 1 78.0881 37.2361 25.9332 0.0005 -9.3773 0.0004
# 2 37.2361 131.4285 42.5433 0.0000 -28.7520 0.0001
# 3 25.9332 42.5433 140.8037 0.0008 1.3500 0.0006
# 4 0.0005 0.0000 0.0008 38.3715 0.0007 -12.3533
# 5 -9.3773 -28.7520 1.3500 0.0007 -6.4503 0.0005
# 6 0.0004 0.0001 0.0006 -12.3533 0.0005 16.0007
#
#
#
# Elastic Compliance Matrix: (Units=1/GPa)
#
#
# Indices 1 2 3 4 5 6 
#
# 1 0.015051 -0.004382 -0.001423 0.000000 -0.002645 0.000000
# 2 -0.004382 0.005274 -0.000621 0.000001 -0.017267 0.000001
# 3 -0.001423 -0.000621 0.007490 -0.000001 0.006403 -0.000001
# 4 0.000000 0.000001 -0.000001 0.034681 0.000003 0.026776
# 5 -0.002645 -0.017267 0.006403 0.000003 -0.072880 0.000004
# 6 0.000000 0.000001 -0.000001 0.026776 0.000004 0.083169
#
#
# Mechanical properties :
#
#
# Convention : Reuss Voigt Hill
#
# Bulk Modulus (GPa) = 66.82932 62.41616 64.62274
# Shear Modulus (GPa) = 55.17295 25.89155 40.53225
#
# Velocity S-wave (km/s) = 4.86580 3.33327 4.17053
# Velocity P-wave (km/s) = 7.76184 6.44969 7.13599
#
# Compressibility (1/GPa) = 0.01496349
#
# Stress axis : x y z
#
# Youngs Moduli (GPa) = 66.44283 189.61691 133.50623
#
# Poissons Ratio (x) = 0.83093 0.18993
# Poissons Ratio (y) = 0.29116 0.08288
# Poissons Ratio (z) = 0.09452 0.11771
#
# Static dielectric constant tensor:
#      x y z
#    x 1.868830 0.000000 0.049580 
#    y 0.000000 1.903880 0.000000 
#    z 0.049580 0.000000 2.057720 
# 
# From -- ./inp_files/491.got.cif
#   From: 2010.05.17/outbox.cif.g08.bks.cpg/sg9_1_cif.got.tgz:491.got - 2010.06.03 20:04:27.
