data_PCOD9134373
_publ_section_title
;
Structure prediction by ZEFSAII (Michael W. Deem and Ramdas Pophale) SiO2 
 PCOD9134373
Probable space group: C C
;
_chemical_formula_sum "Si O2"
_cell_formula_units_Z 24
_cell_length_a 23.032823
_cell_length_b 8.154628
_cell_length_c 9.641361
_cell_angle_alpha 90.000000
_cell_angle_beta 151.694383
_cell_angle_gamma 90.000000
_cell_volume 858.673156
_symmetry_space_group_name_H-M "C C"
_symmetry_group_IT_number 9
_symmetry_cell_setting 'monoclinic'
loop_
_space_group_symop_operation_xyz
x,y,z
x,-y,1/2+z
1/2+x,1/2+y,z
1/2+x,1/2-y,1/2+z
loop_
_atom_site_type_symbol
_atom_site_label
_atom_site_fract_x
_atom_site_fract_y
_atom_site_fract_z
Si Si1 0.531420 0.704842 0.391390
Si Si2 0.281393 0.704843 0.792016
Si Si3 0.733366 0.997913 0.438102
Si Si4 0.079448 0.997912 0.745307
Si Si5 0.535516 0.788934 0.936480
Si Si6 0.777298 0.288933 0.246931
O O1 0.544889 0.649929 0.577703
O O2 0.518815 0.542864 0.264455
O O3 0.664443 0.760483 0.613866
O O4 0.406406 0.798285 0.091703
O O5 0.267924 0.649930 0.605704
O O6 0.293999 0.542865 0.918953
O O7 0.148370 0.760484 0.569542
O O8 0.776964 0.842090 0.623377
O O9 0.588443 0.960199 0.112379
O O10 0.035850 0.842089 0.560032
O O11 0.224371 0.960198 0.071030
O O12 0.406407 0.806568 0.591705
#
# Coordination Sequence:
#
# PCOD9134373 Si02
#       6
#     4   4   4   4   4   4
#     4  10  19  35  58  82 103 142 181 215 262 320
#     4  10  19  35  58  82 103 142 181 215 262 320
#     4   9  20  37  57  77 109 143 177 215 268 316
#     4   9  20  37  57  77 109 143 177 215 268 316
#     4   9  20  37  56  75 114 140 173 221 271 305
#     4   9  20  37  56  75 114 140 173 221 271 305
#
# _framework density 27.950102000000001
#
# number of rings (size 3 to 8) (size 9 to 14) (size 15 to 20)
#    2.000    0.667    0.000    2.000    0.000    1.333 
#    0.000    8.333    0.000    0.000    0.000    0.000 
#    0.000    0.000    0.000    0.000    0.000    0.000 
#
# Total GULP energy -67067.193260 kJ/mol
# GULP energy per Si atom -5588.932772 kJ/mol
# Density = 2.788649 g / cm^3
# Si number density = 27.950102 Si / 1000 Ang^3
#
#
#
# Elastic Constant Matrix: (Units=GPa)
#
#
# Indices 1 2 3 4 5 6 
#
# 1 139.8555 -0.6173 50.6127 0.0000 -0.8886 0.0000
# 2 -0.6173 50.6876 41.4924 0.0000 8.9745 0.0000
# 3 50.6127 41.4924 327.2832 0.0000 2.0190 0.0000
# 4 0.0000 0.0000 0.0000 42.6472 0.0000 -13.7420
# 5 -0.8886 8.9745 2.0190 0.0000 53.9318 0.0000
# 6 0.0000 0.0000 0.0000 -13.7420 0.0000 23.0706
#
#
#
# Elastic Compliance Matrix: (Units=1/GPa)
#
#
# Indices 1 2 3 4 5 6 
#
# 1 0.007637 0.001187 -0.001331 0.000000 -0.000022 0.000000
# 2 0.001187 0.022903 -0.003064 0.000000 -0.003677 0.000000
# 3 -0.001331 -0.003064 0.003648 0.000000 0.000351 0.000000
# 4 0.000000 0.000000 0.000000 0.029018 0.000000 0.017284
# 5 -0.000022 -0.003677 0.000351 0.000000 0.019140 0.000000
# 6 0.000000 0.000000 0.000000 0.017284 0.000000 0.053641
#
#
# Mechanical properties :
#
#
# Convention : Reuss Voigt Hill
#
# Bulk Modulus (GPa) = 36.01090 77.86687 56.93888
# Shear Modulus (GPa) = 32.96837 52.35249 42.66043
#
# Velocity S-wave (km/s) = 3.43817 4.33259 3.91104
# Velocity P-wave (km/s) = 5.35475 7.27655 6.38833
#
# Compressibility (1/GPa) = 0.02776937
#
# Stress axis : x y z
#
# Youngs Moduli (GPa) = 130.93893 43.66311 274.14703
#
# Poissons Ratio (x) = -0.05182 0.36499
# Poissons Ratio (y) = -0.15539 0.84010
# Poissons Ratio (z) = 0.17433 0.13380
#
# Static dielectric constant tensor:
#      x y z
#    x 2.143390 0.000000 -0.022150 
#    y 0.000000 2.304670 0.000000 
#    z -0.022150 0.000000 2.307960 
# 
# From -- ./inp_files/5011.got.cif
#   From: 2010.05.17/outbox.cif.g08.bks.cpg/sg9_3_cif.got.tgz:5011.got - 2010.06.03 20:04:27.
