data_PCOD9134689
_publ_section_title
;
Structure prediction by ZEFSAII (Michael W. Deem and Ramdas Pophale) SiO2 
 PCOD9134689
Probable space group: C C
;
_chemical_formula_sum "Si O2"
_cell_formula_units_Z 28
_cell_length_a 11.513095
_cell_length_b 8.600248
_cell_length_c 13.020262
_cell_angle_alpha 90.000000
_cell_angle_beta 113.160438
_cell_angle_gamma 90.000000
_cell_volume 1185.306470
_symmetry_space_group_name_H-M "C C"
_symmetry_group_IT_number 9
_symmetry_cell_setting 'monoclinic'
loop_
_space_group_symop_operation_xyz
x,y,z
x,-y,1/2+z
1/2+x,1/2+y,z
1/2+x,1/2-y,1/2+z
loop_
_atom_site_type_symbol
_atom_site_label
_atom_site_fract_x
_atom_site_fract_y
_atom_site_fract_z
Si Si1 0.863700 0.959780 0.771780
Si Si2 0.080145 0.156012 0.500615
Si Si3 0.922876 0.935805 0.560056
Si Si4 0.423231 0.791135 0.871208
Si Si5 0.196419 0.656225 0.470824
Si Si6 0.100628 0.527871 0.120739
Si Si7 0.321283 0.005915 0.992248
O O1 0.715081 0.922174 0.734644
O O2 0.968781 0.884144 0.881628
O O3 0.901000 0.903237 0.670924
O O4 0.874963 0.148052 0.786097
O O5 0.084611 0.333818 0.532606
O O6 0.213491 0.100883 0.503980
O O7 0.038865 0.054337 0.584865
O O8 0.795606 0.023027 0.478623
O O9 0.942079 0.797699 0.487424
O O10 0.345679 0.940332 0.884623
O O11 0.557948 0.841414 0.873520
O O12 0.159526 0.615285 0.576563
O O13 0.265539 0.820181 0.478402
O O14 0.955238 0.500262 0.100032
#
# Coordination Sequence:
#
# PCOD9134689 Si02
#       7
#     4   4   4   4   4   4   4
#     4  10  22  44  69 102 139 187 235 279 356 406
#     4  11  22  44  71  99 139 191 225 289 349 411
#     4  10  20  41  68  93 142 175 221 295 336 408
#     4  10  22  42  67  93 137 182 224 290 341 413
#     4  10  19  39  67  91 132 176 225 284 341 391
#     4  10  23  42  69  99 142 177 232 291 338 415
#     4  11  20  40  69  95 133 180 226 282 349 400
#
# _framework density 23.622582999999999
#
# number of rings (size 3 to 8) (size 9 to 14) (size 15 to 20)
#    0.000    1.714    4.286    1.714    0.000    0.000 
#   18.000    0.000   18.857    0.000    0.000    0.000 
#    0.000    0.000    0.000    0.000    0.000    0.000 
#
# Total GULP energy -78127.431690 kJ/mol
# GULP energy per Si atom -5580.530835 kJ/mol
# Density = 2.356882 g / cm^3
# Si number density = 23.622583 Si / 1000 Ang^3
#
#
#
# Elastic Constant Matrix: (Units=GPa)
#
#
# Indices 1 2 3 4 5 6 
#
# 1 196.1547 29.0375 42.5527 0.0000 25.8244 0.0000
# 2 29.0375 96.9846 14.6893 0.0000 9.4820 0.0000
# 3 42.5527 14.6893 76.8309 0.0000 22.0076 0.0000
# 4 0.0000 0.0000 0.0000 22.7232 0.0000 -2.9954
# 5 25.8244 9.4820 22.0076 0.0000 41.5178 0.0000
# 6 0.0000 0.0000 0.0000 -2.9954 0.0000 57.3625
#
#
#
# Elastic Compliance Matrix: (Units=1/GPa)
#
#
# Indices 1 2 3 4 5 6 
#
# 1 0.006116 -0.001235 -0.002526 0.000000 -0.002183 0.000000
# 2 -0.001235 0.010958 -0.001078 0.000000 -0.001163 0.000000
# 3 -0.002526 -0.001078 0.016624 0.000000 -0.006995 0.000000
# 4 0.000000 0.000000 0.000000 0.044313 0.000000 0.002314
# 5 -0.002183 -0.001163 -0.006995 0.000000 0.029418 0.000000
# 6 0.000000 0.000000 0.000000 0.002314 0.000000 0.017554
#
#
# Mechanical properties :
#
#
# Convention : Reuss Voigt Hill
#
# Bulk Modulus (GPa) = 41.63125 60.28103 50.95614
# Shear Modulus (GPa) = 35.04663 43.23340 39.14002
#
# Velocity S-wave (km/s) = 3.85594 4.28269 4.07491
# Velocity P-wave (km/s) = 6.12259 7.07312 6.61495
#
# Compressibility (1/GPa) = 0.02402042
#
# Stress axis : x y z
#
# Youngs Moduli (GPa) = 163.49821 91.26027 60.15307
#
# Poissons Ratio (x) = 0.11272 0.15194
# Poissons Ratio (y) = 0.20195 0.06483
# Poissons Ratio (z) = 0.41299 0.09836
#
# Static dielectric constant tensor:
#      x y z
#    x 1.927850 0.000000 0.004010 
#    y 0.000000 1.939530 0.000000 
#    z 0.004010 0.000000 1.974130 
# 
# From -- ./inp_files/24027.got.cif
#   From: 2010.05.17/outbox.cif.g08.bks.cpg/sg9_13_cif.got.tgz:24027.got - 2010.06.03 20:04:27.
