data_PCOD9134746
_publ_section_title
;
Structure prediction by ZEFSAII (Michael W. Deem and Ramdas Pophale) SiO2 
 PCOD9134746
Probable space group: C C
;
_chemical_formula_sum "Si O2"
_cell_formula_units_Z 32
_cell_length_a 10.293371
_cell_length_b 11.387860
_cell_length_c 17.961345
_cell_angle_alpha 90.000000
_cell_angle_beta 135.634981
_cell_angle_gamma 90.000000
_cell_volume 1472.166024
_symmetry_space_group_name_H-M "C C"
_symmetry_group_IT_number 9
_symmetry_cell_setting 'monoclinic'
loop_
_space_group_symop_operation_xyz
x,y,z
x,-y,1/2+z
1/2+x,1/2+y,z
1/2+x,1/2-y,1/2+z
loop_
_atom_site_type_symbol
_atom_site_label
_atom_site_fract_x
_atom_site_fract_y
_atom_site_fract_z
Si Si1 0.236730 0.982411 0.558060
Si Si2 0.721056 0.948264 0.078183
Si Si3 0.366339 0.400299 0.751842
Si Si4 0.190001 0.241962 0.953494
Si Si5 0.057309 0.673378 0.025095
Si Si6 0.375286 0.439301 0.495959
Si Si7 0.110812 0.594391 0.291847
Si Si8 0.717669 0.298439 0.955124
O O1 0.152817 0.889569 0.464322
O O2 0.416744 0.932240 0.672852
O O3 0.064606 0.995214 0.543424
O O4 0.294655 0.100427 0.539945
O O5 0.824932 0.970822 0.198935
O O6 0.684182 0.825353 0.023892
O O7 0.538110 0.031282 0.011864
O O8 0.844354 0.017563 0.067321
O O9 0.250114 0.315877 0.648991
O O10 0.262748 0.388540 0.788594
O O11 0.579095 0.362219 0.841574
O O12 0.399008 0.234538 0.006965
O O13 0.084965 0.300267 0.840850
O O14 0.080852 0.723851 0.953139
O O15 0.201109 0.490575 0.378154
O O16 0.362564 0.298070 0.486277
#
# Coordination Sequence:
#
# PCOD9134746 Si02
#       8
#     4   4   4   4   4   4   4   4
#     4  12  25  41  66  98 137 181 217 282 341 401
#     4   8  20  38  63  92 126 168 227 274 326 397
#     4  10  19  40  68  93 118 178 231 272 340 402
#     4  11  21  41  62  95 138 169 220 281 328 402
#     4   9  19  38  67  88 119 173 222 273 326 393
#     4  10  23  44  65  95 139 168 225 286 328 410
#     4  11  23  44  68  93 132 180 226 275 345 396
#     4  11  22  42  65  94 129 175 228 277 338 397
#
# _framework density 21.736678999999999
#
# number of rings (size 3 to 8) (size 9 to 14) (size 15 to 20)
#    0.750    1.000    3.750    0.750    1.750    3.000 
#    4.500    0.000    0.000    0.000    0.000    0.000 
#    0.000    0.000    0.000    0.000    0.000    0.000 
#
# Total GULP energy -89162.696186 kJ/mol
# GULP energy per Si atom -5572.668512 kJ/mol
# Density = 2.168721 g / cm^3
# Si number density = 21.736679 Si / 1000 Ang^3
#
#
#
# Elastic Constant Matrix: (Units=GPa)
#
#
# Indices 1 2 3 4 5 6 
#
# 1 56.8391 9.7933 12.4534 0.0000 -5.9158 0.0000
# 2 9.7933 78.0061 -6.5352 0.0000 -3.3574 0.0000
# 3 12.4534 -6.5352 59.6781 0.0000 3.3817 0.0000
# 4 0.0000 0.0000 0.0000 25.4063 0.0000 -6.5394
# 5 -5.9158 -3.3574 3.3817 0.0000 25.8173 0.0000
# 6 0.0000 0.0000 0.0000 -6.5394 0.0000 12.9311
#
#
#
# Elastic Compliance Matrix: (Units=1/GPa)
#
#
# Indices 1 2 3 4 5 6 
#
# 1 0.019559 -0.002640 -0.004639 0.000000 0.004746 0.000000
# 2 -0.002640 0.013353 0.001964 0.000000 0.000874 0.000000
# 3 -0.004639 0.001964 0.018120 0.000000 -0.003181 0.000000
# 4 0.000000 0.000000 0.000000 0.045250 0.000000 0.022884
# 5 0.004746 0.000874 -0.003181 0.000000 0.040352 0.000000
# 6 0.000000 0.000000 0.000000 0.022884 0.000000 0.088906
#
#
# Mechanical properties :
#
#
# Convention : Reuss Voigt Hill
#
# Bulk Modulus (GPa) = 24.75229 25.10514 24.92871
# Shear Modulus (GPa) = 20.02899 24.75172 22.39035
#
# Velocity S-wave (km/s) = 3.03881 3.37814 3.21296
# Velocity P-wave (km/s) = 4.87079 5.17595 5.02569
#
# Compressibility (1/GPa) = 0.04040031
#
# Stress axis : x y z
#
# Youngs Moduli (GPa) = 51.12775 74.88900 55.18762
#
# Poissons Ratio (x) = 0.19770 0.25604
# Poissons Ratio (y) = 0.13497 -0.10837
# Poissons Ratio (z) = 0.23721 -0.14705
#
# Static dielectric constant tensor:
#      x y z
#    x 1.811660 0.000000 -0.028020 
#    y 0.000000 1.885850 0.000000 
#    z -0.028020 0.000000 1.789200 
# 
# From -- ./inp_files/33283.got.cif
#   From: 2010.05.17/outbox.cif.g08.bks.cpg/sg9_17_cif.got.tgz:33283.got - 2010.06.03 20:04:27.
