data_PCOD9134103
_publ_section_title
;
Structure prediction by ZEFSAII (Michael W. Deem and Ramdas Pophale) SiO2 
 PCOD9134103
Probable space group: C C
;
_chemical_formula_sum "Si O2"
_cell_formula_units_Z 32
_cell_length_a 9.736149
_cell_length_b 10.532724
_cell_length_c 12.963970
_cell_angle_alpha 90.000000
_cell_angle_beta 69.607862
_cell_angle_gamma 90.000000
_cell_volume 1246.115685
_symmetry_space_group_name_H-M "C C"
_symmetry_group_IT_number 9
_symmetry_cell_setting 'monoclinic'
loop_
_space_group_symop_operation_xyz
x,y,z
x,-y,1/2+z
1/2+x,1/2+y,z
1/2+x,1/2-y,1/2+z
loop_
_atom_site_type_symbol
_atom_site_label
_atom_site_fract_x
_atom_site_fract_y
_atom_site_fract_z
Si Si1 0.798120 0.433608 0.341230
Si Si2 0.042005 0.787693 0.408589
Si Si3 0.092900 0.622382 0.010707
Si Si4 0.778001 0.053872 0.325759
Si Si5 0.243054 0.366315 0.147799
Si Si6 0.937168 0.378489 0.105309
Si Si7 0.955983 0.201087 0.408088
Si Si8 0.421491 0.196580 0.244588
O O1 0.630723 0.412859 0.417870
O O2 0.892185 0.335443 0.383312
O O3 0.869886 0.570859 0.317802
O O4 0.805839 0.388971 0.219362
O O5 0.163986 0.673197 0.364610
O O6 0.935854 0.735358 0.525008
O O7 0.966146 0.796701 0.318827
O O8 0.963149 0.513446 0.041993
O O9 0.062101 0.668561 0.134742
O O10 0.223780 0.541675 0.929432
O O11 0.089605 0.746905 0.939604
O O12 0.936833 0.109609 0.315454
O O13 0.763484 0.984492 0.220109
O O14 0.081400 0.362715 0.141348
O O15 0.293180 0.246567 0.203728
O O16 0.351657 0.357756 0.022986
#
# Coordination Sequence:
#
# PCOD9134103 Si02
#       8
#     4   4   4   4   4   4   4   4
#     4  10  19  37  64  90 121 171 218 271 330 382
#     4  10  20  38  60  95 124 163 222 278 316 398
#     4   9  17  34  59  89 118 160 214 265 320 381
#     4  10  19  34  61  89 120 158 221 270 316 389
#     4  11  20  37  59  94 129 171 216 278 332 390
#     4  10  18  36  64  92 122 169 228 272 326 401
#     4  10  19  34  60  94 123 162 217 271 320 385
#     4  10  22  36  61  89 133 170 214 273 326 396
#
# _framework density 25.6798
#
# number of rings (size 3 to 8) (size 9 to 14) (size 15 to 20)
#    0.000    2.000    3.750    3.750    0.000    0.000 
#    2.250    3.750    0.000    4.500    0.000    0.000 
#    0.000    0.000    0.000    0.000    0.000    0.000 
#
# Total GULP energy -89365.897015 kJ/mol
# GULP energy per Si atom -5585.368563 kJ/mol
# Density = 2.562135 g / cm^3
# Si number density = 25.679800 Si / 1000 Ang^3
#
#
#
# Elastic Constant Matrix: (Units=GPa)
#
#
# Indices 1 2 3 4 5 6 
#
# 1 36.3131 35.4356 20.2998 0.0000 10.4006 0.0000
# 2 35.4356 82.7306 34.4958 0.0000 4.5613 0.0000
# 3 20.2998 34.4958 101.4037 0.0000 11.9889 0.0000
# 4 0.0000 0.0000 0.0000 48.6720 0.0000 11.4137
# 5 10.4006 4.5613 11.9889 0.0000 38.0792 0.0000
# 6 0.0000 0.0000 0.0000 11.4137 0.0000 40.9600
#
#
#
# Elastic Compliance Matrix: (Units=1/GPa)
#
#
# Indices 1 2 3 4 5 6 
#
# 1 0.052296 -0.020940 -0.002029 0.000000 -0.011137 0.000000
# 2 -0.020940 0.022471 -0.003958 0.000000 0.004274 0.000000
# 3 -0.002029 -0.003958 0.011937 0.000000 -0.002730 0.000000
# 4 0.000000 0.000000 0.000000 0.021982 0.000000 -0.006125
# 5 -0.011137 0.004274 -0.002730 0.000000 0.029650 0.000000
# 6 0.000000 0.000000 0.000000 -0.006125 0.000000 0.026121
#
#
# Mechanical properties :
#
#
# Convention : Reuss Voigt Hill
#
# Bulk Modulus (GPa) = 30.44039 44.54552 37.49295
# Shear Modulus (GPa) = 21.80930 34.22332 28.01631
#
# Velocity S-wave (km/s) = 2.91740 3.65457 3.30659
# Velocity P-wave (km/s) = 4.81953 5.93229 5.40462
#
# Compressibility (1/GPa) = 0.03285110
#
# Stress axis : x y z
#
# Youngs Moduli (GPa) = 19.12198 44.50188 83.77418
#
# Poissons Ratio (x) = 0.93185 0.16998
# Poissons Ratio (y) = 0.40041 0.33155
# Poissons Ratio (z) = 0.03880 0.17612
#
# Static dielectric constant tensor:
#      x y z
#    x 2.075600 0.000000 -0.009760 
#    y 0.000000 2.059070 0.000000 
#    z -0.009760 0.000000 2.009320 
# 
# From -- ./inp_files/16409.got.cif
#   From: 2010.05.17/outbox.cif.g08.bks.cpg/sg9_9_cif.got.tgz:16409.got - 2010.06.03 20:04:27.
