data_PCOD9134694
_publ_section_title
;
Structure prediction by ZEFSAII (Michael W. Deem and Ramdas Pophale) SiO2 
 PCOD9134694
Probable space group: C C
;
_chemical_formula_sum "Si O2"
_cell_formula_units_Z 24
_cell_length_a 20.470426
_cell_length_b 11.390544
_cell_length_c 14.711981
_cell_angle_alpha 90.000000
_cell_angle_beta 160.961391
_cell_angle_gamma 90.000000
_cell_volume 1119.008567
_symmetry_space_group_name_H-M "C C"
_symmetry_group_IT_number 9
_symmetry_cell_setting 'monoclinic'
loop_
_space_group_symop_operation_xyz
x,y,z
x,-y,1/2+z
1/2+x,1/2+y,z
1/2+x,1/2-y,1/2+z
loop_
_atom_site_type_symbol
_atom_site_label
_atom_site_fract_x
_atom_site_fract_y
_atom_site_fract_z
Si Si1 0.452220 0.930340 0.162810
Si Si2 0.274392 0.482242 0.351195
Si Si3 0.486199 0.375781 0.273018
Si Si4 0.432524 0.885011 0.782957
Si Si5 0.048065 0.939837 0.550345
Si Si6 0.205480 0.271351 0.363879
O O1 0.602074 0.855984 0.299315
O O2 0.511587 0.034951 0.304279
O O3 0.277355 0.976968 0.866182
O O4 0.339446 0.834047 0.077983
O O5 0.312519 0.583121 0.475266
O O6 0.407167 0.504103 0.436852
O O7 0.346480 0.360177 0.492594
O O8 0.056477 0.440099 0.030694
O O9 0.472102 0.245085 0.295789
O O10 0.484741 0.451220 0.363704
O O11 0.697815 0.392103 0.499282
O O12 0.061766 0.802533 0.604774
#
# Coordination Sequence:
#
# PCOD9134694 Si02
#       6
#     4   4   4   4   4   4
#     4  10  21  40  70  99 137 183 235 294 359 423
#     4  12  24  43  69 103 134 190 239 287 363 424
#     4  12  26  46  70 105 143 188 248 294 357 441
#     4  12  26  45  71 105 148 192 234 301 367 425
#     4  10  20  43  68  96 134 176 233 297 345 419
#     4  10  19  39  68 100 124 179 239 279 349 424
#
# _framework density 21.447555999999999
#
# number of rings (size 3 to 8) (size 9 to 14) (size 15 to 20)
#    1.000    0.000    5.000    2.000    4.667    0.000 
#    0.000    3.333    0.000    0.000    0.000    0.000 
#    0.000    0.000    0.000    0.000    0.000    0.000 
#
# Total GULP energy -66813.775585 kJ/mol
# GULP energy per Si atom -5567.814632 kJ/mol
# Density = 2.139874 g / cm^3
# Si number density = 21.447556 Si / 1000 Ang^3
#
#
#
# Elastic Constant Matrix: (Units=GPa)
#
#
# Indices 1 2 3 4 5 6 
#
# 1 98.5239 16.5381 21.9503 0.0000 -18.8939 0.0000
# 2 16.5381 50.7947 25.9638 0.0000 -25.3802 0.0000
# 3 21.9503 25.9638 70.1190 -0.0001 -17.0375 -0.0001
# 4 0.0000 0.0000 -0.0001 15.6726 0.0000 -4.2862
# 5 -18.8939 -25.3802 -17.0375 0.0000 33.3041 0.0000
# 6 0.0000 0.0000 -0.0001 -4.2862 0.0000 36.7185
#
#
#
# Elastic Compliance Matrix: (Units=1/GPa)
#
#
# Indices 1 2 3 4 5 6 
#
# 1 0.011718 0.000187 -0.002384 0.000000 0.005570 0.000000
# 2 0.000187 0.034835 -0.007401 0.000000 0.022866 0.000000
# 3 -0.002384 -0.007401 0.018327 0.000000 0.002383 0.000000
# 4 0.000000 0.000000 0.000000 0.065910 0.000000 0.007694
# 5 0.005570 0.022866 0.002383 0.000000 0.051832 0.000000
# 6 0.000000 0.000000 0.000000 0.007694 0.000000 0.028132
#
#
# Mechanical properties :
#
#
# Convention : Reuss Voigt Hill
#
# Bulk Modulus (GPa) = 21.88974 38.70467 30.29721
# Shear Modulus (GPa) = 20.39334 27.47141 23.93237
#
# Velocity S-wave (km/s) = 3.08693 3.58280 3.34407
# Velocity P-wave (km/s) = 4.78893 5.93301 5.39140
#
# Compressibility (1/GPa) = 0.04568350
#
# Stress axis : x y z
#
# Youngs Moduli (GPa) = 85.34014 28.70685 54.56346
#
# Poissons Ratio (x) = -0.00536 0.13007
# Poissons Ratio (y) = -0.01593 0.40383
# Poissons Ratio (z) = 0.20343 0.21246
#
# Static dielectric constant tensor:
#      x y z
#    x 1.792840 0.000000 0.011790 
#    y 0.000000 1.791820 0.000000 
#    z 0.011790 0.000000 1.851960 
# 
# From -- ./inp_files/12174.got.cif
#   From: 2010.05.17/outbox.cif.g08.bks.cpg/sg9_7_cif.got.tgz:12174.got - 2010.06.03 20:04:27.
