data_PCOD9134818
_publ_section_title
;
Structure prediction by ZEFSAII (Michael W. Deem and Ramdas Pophale) SiO2 
 PCOD9134818
Probable space group: C C
;
_chemical_formula_sum "Si O2"
_cell_formula_units_Z 24
_cell_length_a 6.223962
_cell_length_b 12.746316
_cell_length_c 14.887643
_cell_angle_alpha 90.000000
_cell_angle_beta 50.417905
_cell_angle_gamma 90.000000
_cell_volume 910.269322
_symmetry_space_group_name_H-M "C C"
_symmetry_group_IT_number 9
_symmetry_cell_setting 'monoclinic'
loop_
_space_group_symop_operation_xyz
x,y,z
x,-y,1/2+z
1/2+x,1/2+y,z
1/2+x,1/2-y,1/2+z
loop_
_atom_site_type_symbol
_atom_site_label
_atom_site_fract_x
_atom_site_fract_y
_atom_site_fract_z
Si Si1 0.022520 0.614809 0.457760
Si Si2 0.362330 0.639805 0.667763
Si Si3 0.090910 0.899057 0.289578
Si Si4 0.948255 0.809709 0.711657
Si Si5 0.528982 0.657685 0.007095
Si Si6 0.559411 0.975234 0.615030
O O1 0.203820 0.618746 0.319285
O O2 0.099004 0.521635 0.504452
O O3 0.687042 0.631248 0.546954
O O4 0.130454 0.724651 0.470193
O O5 0.353840 0.615879 0.777297
O O6 0.212178 0.553633 0.644472
O O7 0.188734 0.747363 0.700674
O O8 0.272380 0.792652 0.221874
O O9 0.239334 0.007064 0.222519
O O10 0.101136 0.899381 0.395301
O O11 0.100103 0.870582 0.589476
O O12 0.197408 0.636272 0.091861
#
# Coordination Sequence:
#
# PCOD9134818 Si02
#       6
#     4   4   4   4   4   4
#     4  10  22  43  62  97 135 171 233 282 331 425
#     4  10  19  43  66  89 132 177 216 291 340 395
#     4   9  21  42  60  94 135 168 230 284 329 430
#     4  10  21  41  66  93 129 177 230 274 346 419
#     4  11  21  42  66  93 135 179 216 284 352 399
#     4  10  22  41  62  96 136 170 225 289 334 414
#
# _framework density 26.365821
#
# number of rings (size 3 to 8) (size 9 to 14) (size 15 to 20)
#    0.000    2.000    5.000    0.000    0.000    5.333 
#   15.000    0.000    0.000    0.000    0.000    0.000 
#    0.000    0.000    0.000    0.000    0.000    0.000 
#
# Total GULP energy -66866.233245 kJ/mol
# GULP energy per Si atom -5572.186104 kJ/mol
# Density = 2.630581 g / cm^3
# Si number density = 26.365821 Si / 1000 Ang^3
#
#
#
# Elastic Constant Matrix: (Units=GPa)
#
#
# Indices 1 2 3 4 5 6 
#
# 1 98.2906 27.8857 29.3333 -0.0003 8.4405 0.0007
# 2 27.8857 81.6375 7.9539 0.0001 -0.6444 0.0001
# 3 29.3333 7.9539 155.5533 -0.0002 33.1965 0.0002
# 4 -0.0003 0.0001 -0.0002 18.4268 0.0002 -2.2113
# 5 8.4405 -0.6444 33.1965 0.0002 35.9875 -0.0003
# 6 0.0007 0.0001 0.0002 -2.2113 -0.0003 59.6763
#
#
#
# Elastic Compliance Matrix: (Units=1/GPa)
#
#
# Indices 1 2 3 4 5 6 
#
# 1 0.011921 -0.003907 -0.001789 0.000000 -0.001216 0.000000
# 2 -0.003907 0.013620 -0.000258 0.000000 0.001398 0.000000
# 3 -0.001789 -0.000258 0.008331 0.000000 -0.007270 0.000000
# 4 0.000000 0.000000 0.000000 0.054511 -0.000001 0.002020
# 5 -0.001216 0.001398 -0.007270 -0.000001 0.034803 0.000000
# 6 0.000000 0.000000 0.000000 0.002020 0.000000 0.016832
#
#
# Mechanical properties :
#
#
# Convention : Reuss Voigt Hill
#
# Bulk Modulus (GPa) = 45.53010 51.75856 48.64433
# Shear Modulus (GPa) = 31.39782 40.83867 36.11825
#
# Velocity S-wave (km/s) = 3.45462 3.93991 3.70522
# Velocity P-wave (km/s) = 5.76356 6.35380 6.06586
#
# Compressibility (1/GPa) = 0.02196349
#
# Stress axis : x y z
#
# Youngs Moduli (GPa) = 83.88828 73.42105 120.04008
#
# Poissons Ratio (x) = 0.28687 0.21471
# Poissons Ratio (y) = 0.32777 0.03098
# Poissons Ratio (z) = 0.15005 0.01895
#
# Static dielectric constant tensor:
#      x y z
#    x 2.074960 0.000000 -0.019560 
#    y 0.000000 2.066540 0.000000 
#    z -0.019560 0.000000 2.231750 
# 
# From -- ./inp_files/12920.got.cif
#   From: 2010.05.17/outbox.cif.g08.bks.cpg/sg9_7_cif.got.tgz:12920.got - 2010.06.03 20:04:27.
