data_PCOD9134981
_publ_section_title
;
Structure prediction by ZEFSAII (Michael W. Deem and Ramdas Pophale) SiO2 
 PCOD9134981
Probable space group: C C
;
_chemical_formula_sum "Si O2"
_cell_formula_units_Z 32
_cell_length_a 21.288254
_cell_length_b 10.105764
_cell_length_c 7.582701
_cell_angle_alpha 90.000000
_cell_angle_beta 75.890737
_cell_angle_gamma 90.000000
_cell_volume 1582.085364
_symmetry_space_group_name_H-M "C C"
_symmetry_group_IT_number 9
_symmetry_cell_setting 'monoclinic'
loop_
_space_group_symop_operation_xyz
x,y,z
x,-y,1/2+z
1/2+x,1/2+y,z
1/2+x,1/2-y,1/2+z
loop_
_atom_site_type_symbol
_atom_site_label
_atom_site_fract_x
_atom_site_fract_y
_atom_site_fract_z
Si Si1 0.986900 0.423940 0.252770
Si Si2 0.927523 0.839254 0.363131
Si Si3 0.395407 0.884430 0.615364
Si Si4 0.549785 0.184082 0.377699
Si Si5 0.741931 0.902415 0.357609
Si Si6 0.282431 0.777624 0.523151
Si Si7 0.197590 0.323225 0.772242
Si Si8 0.869676 0.081557 0.265697
O O1 0.952627 0.351075 0.437495
O O2 0.925685 0.485088 0.185859
O O3 0.029398 0.546290 0.296228
O O4 0.030643 0.338116 0.094681
O O5 0.893295 0.730664 0.262286
O O6 0.926615 0.986898 0.288463
O O7 0.889239 0.846746 0.573894
O O8 0.999976 0.790644 0.339195
O O9 0.324573 0.898529 0.573973
O O10 0.623906 0.219704 0.300445
O O11 0.741295 0.792222 0.206237
O O12 0.731097 0.843169 0.558730
O O13 0.694650 0.027686 0.358249
O O14 0.810402 0.977926 0.288640
O O15 0.342241 0.681922 0.427418
O O16 0.238297 0.229388 0.877593
#
# Coordination Sequence:
#
# PCOD9134981 Si02
#       8
#     4   4   4   4   4   4   4   4
#     4   9  20  37  55  80 112 153 194 242 277 345
#     4  11  20  33  57  85 120 153 187 241 296 355
#     4  10  20  36  55  85 112 149 196 237 303 338
#     4  10  21  36  55  79 119 156 192 228 284 357
#     4  11  19  32  54  85 121 149 176 244 299 339
#     4  11  21  33  57  87 117 146 184 241 300 351
#     4  11  21  34  51  85 120 154 187 225 291 349
#     4  11  18  33  54  90 121 140 186 244 302 344
#
# _framework density 20.226468000000001
#
# number of rings (size 3 to 8) (size 9 to 14) (size 15 to 20)
#    0.000    1.500    5.000    2.250    0.000    0.000 
#    0.000    0.000    0.000    1.500    0.000    0.000 
#    0.000    0.000    0.000    0.000    0.000    0.000 
#
# Total GULP energy -89256.935597 kJ/mol
# GULP energy per Si atom -5578.558475 kJ/mol
# Density = 2.018043 g / cm^3
# Si number density = 20.226468 Si / 1000 Ang^3
#
#
#
# Elastic Constant Matrix: (Units=GPa)
#
#
# Indices 1 2 3 4 5 6 
#
# 1 113.2577 18.0248 42.3635 0.0000 -10.3791 0.0000
# 2 18.0248 18.0505 12.5221 0.0000 -6.1239 0.0000
# 3 42.3635 12.5221 104.1967 0.0000 16.6030 0.0000
# 4 0.0000 0.0000 0.0000 17.8204 0.0000 1.1295
# 5 -10.3791 -6.1239 16.6030 0.0000 23.0764 0.0000
# 6 0.0000 0.0000 0.0000 1.1295 0.0000 25.3821
#
#
#
# Elastic Compliance Matrix: (Units=1/GPa)
#
#
# Indices 1 2 3 4 5 6 
#
# 1 0.012682 -0.005833 -0.005780 0.000000 0.008314 0.000000
# 2 -0.005833 0.077764 -0.011119 0.000000 0.026013 0.000000
# 3 -0.005780 -0.011119 0.016002 0.000000 -0.017064 0.000000
# 4 0.000000 0.000000 0.000000 0.056274 0.000000 -0.002504
# 5 0.008314 0.026013 -0.017064 0.000000 0.066254 0.000000
# 6 0.000000 0.000000 0.000000 -0.002504 0.000000 0.039509
#
#
# Mechanical properties :
#
#
# Convention : Reuss Voigt Hill
#
# Bulk Modulus (GPa) = 16.39767 42.36952 29.38359
# Shear Modulus (GPa) = 14.95764 24.09541 19.52653
#
# Velocity S-wave (km/s) = 2.72234 3.45524 3.11045
# Velocity P-wave (km/s) = 4.24337 6.07546 5.24011
#
# Compressibility (1/GPa) = 0.06098426
#
# Stress axis : x y z
#
# Youngs Moduli (GPa) = 78.85434 12.85943 62.49074
#
# Poissons Ratio (x) = 0.07501 0.36118
# Poissons Ratio (y) = 0.45997 0.69483
# Poissons Ratio (z) = 0.45576 0.14298
#
# Static dielectric constant tensor:
#      x y z
#    x 1.792740 0.000000 0.056960 
#    y 0.000000 1.769310 0.000000 
#    z 0.056960 0.000000 1.746590 
# 
# From -- ./inp_files/11651.got.cif
#   From: 2010.05.17/outbox.cif.g08.bks.cpg/sg9_6_cif.got.tgz:11651.got - 2010.06.03 20:04:27.
