data_PCOD9134808
_publ_section_title
;
Structure prediction by ZEFSAII (Michael W. Deem and Ramdas Pophale) SiO2 
 PCOD9134808
Probable space group: C C
;
_chemical_formula_sum "Si O2"
_cell_formula_units_Z 28
_cell_length_a 10.025405
_cell_length_b 11.069726
_cell_length_c 14.901258
_cell_angle_alpha 90.000000
_cell_angle_beta 134.902483
_cell_angle_gamma 90.000000
_cell_volume 1171.344501
_symmetry_space_group_name_H-M "C C"
_symmetry_group_IT_number 9
_symmetry_cell_setting 'monoclinic'
loop_
_space_group_symop_operation_xyz
x,y,z
x,-y,1/2+z
1/2+x,1/2+y,z
1/2+x,1/2-y,1/2+z
loop_
_atom_site_type_symbol
_atom_site_label
_atom_site_fract_x
_atom_site_fract_y
_atom_site_fract_z
Si Si1 0.847200 0.580621 0.658890
Si Si2 0.042909 0.770787 0.087221
Si Si3 0.670829 0.158894 0.449654
Si Si4 0.581210 0.087934 0.950575
Si Si5 0.439604 0.291498 0.571120
Si Si6 0.331808 0.693911 0.810607
Si Si7 0.165378 0.433814 0.754256
O O1 0.642930 0.605540 0.602787
O O2 0.860924 0.673623 0.584026
O O3 0.988105 0.610792 0.808803
O O4 0.941385 0.461876 0.662160
O O5 0.192320 0.682616 0.206693
O O6 0.994340 0.681108 0.980546
O O7 0.872633 0.793963 0.074704
O O8 0.525442 0.264422 0.358187
O O9 0.730584 0.096541 0.384669
O O10 0.566253 0.056432 0.458663
O O11 0.806941 0.107668 0.052926
O O12 0.386584 0.293269 0.441750
O O13 0.661805 0.282153 0.697822
O O14 0.262115 0.556160 0.764696
#
# Coordination Sequence:
#
# PCOD9134808 Si02
#       7
#     4   4   4   4   4   4   4
#     4   9  20  41  68  91 137 175 219 279 333 391
#     4  11  24  39  69  97 134 174 228 273 338 401
#     4  11  25  41  65  96 136 175 224 274 336 398
#     4  10  21  43  64  98 136 175 224 282 327 401
#     4  10  19  42  69  99 131 181 223 275 333 395
#     4  11  24  41  72  97 139 179 226 275 338 406
#     4  10  23  45  61  98 137 175 224 284 333 398
#
# _framework density 23.904153999999998
#
# number of rings (size 3 to 8) (size 9 to 14) (size 15 to 20)
#    0.000    1.714    4.286    0.857    6.000    3.429 
#    0.000    5.714    0.000    0.000    0.000    0.000 
#    0.000    0.000    0.000    0.000    0.000    0.000 
#
# Total GULP energy -78019.567200 kJ/mol
# GULP energy per Si atom -5572.826229 kJ/mol
# Density = 2.384975 g / cm^3
# Si number density = 23.904154 Si / 1000 Ang^3
#
#
#
# Elastic Constant Matrix: (Units=GPa)
#
#
# Indices 1 2 3 4 5 6 
#
# 1 57.1255 15.9940 23.5555 0.0000 32.6619 0.0000
# 2 15.9940 78.0195 8.8635 0.0000 11.9534 0.0000
# 3 23.5555 8.8635 78.3495 0.0000 4.9342 0.0000
# 4 0.0000 0.0000 0.0000 32.3860 0.0000 2.7869
# 5 32.6619 11.9534 4.9342 0.0000 51.9923 0.0000
# 6 0.0000 0.0000 0.0000 2.7869 0.0000 25.2643
#
#
#
# Elastic Compliance Matrix: (Units=1/GPa)
#
#
# Indices 1 2 3 4 5 6 
#
# 1 0.032600 -0.002824 -0.008282 0.000000 -0.019044 0.000000
# 2 -0.002824 0.013667 -0.000615 0.000000 -0.001310 0.000000
# 3 -0.008282 -0.000615 0.015076 0.000000 0.003913 0.000000
# 4 0.000000 0.000000 0.000000 0.031173 0.000000 -0.003439
# 5 -0.019044 -0.001310 0.003913 0.000000 0.031127 0.000000
# 6 0.000000 0.000000 0.000000 -0.003439 0.000000 0.039961
#
#
# Mechanical properties :
#
#
# Convention : Reuss Voigt Hill
#
# Bulk Modulus (GPa) = 26.38456 34.48006 30.43231
# Shear Modulus (GPa) = 25.04006 32.93393 28.98699
#
# Velocity S-wave (km/s) = 3.24005 3.71583 3.48607
# Velocity P-wave (km/s) = 5.00588 5.73284 5.38165
#
# Compressibility (1/GPa) = 0.03790096
#
# Stress axis : x y z
#
# Youngs Moduli (GPa) = 30.67499 73.17039 66.32881
#
# Poissons Ratio (x) = 0.20666 0.54935
# Poissons Ratio (y) = 0.08664 0.04076
# Poissons Ratio (z) = 0.25406 0.04496
#
# Static dielectric constant tensor:
#      x y z
#    x 2.011640 0.000000 0.028920 
#    y 0.000000 1.969800 0.000000 
#    z 0.028920 0.000000 2.000830 
# 
# From -- ./inp_files/16131.got.cif
#   From: 2010.05.17/outbox.cif.g08.bks.cpg/sg9_9_cif.got.tgz:16131.got - 2010.06.03 20:04:27.
