data_PCOD9134221
_publ_section_title
;
Structure prediction by ZEFSAII (Michael W. Deem and Ramdas Pophale) SiO2 
 PCOD9134221
Probable space group: C C
;
_chemical_formula_sum "Si O2"
_cell_formula_units_Z 28
_cell_length_a 12.137416
_cell_length_b 21.179629
_cell_length_c 5.437661
_cell_angle_alpha 90.000000
_cell_angle_beta 47.277415
_cell_angle_gamma 90.000000
_cell_volume 1026.917497
_symmetry_space_group_name_H-M "C C"
_symmetry_group_IT_number 9
_symmetry_cell_setting 'monoclinic'
loop_
_space_group_symop_operation_xyz
x,y,z
x,-y,1/2+z
1/2+x,1/2+y,z
1/2+x,1/2-y,1/2+z
loop_
_atom_site_type_symbol
_atom_site_label
_atom_site_fract_x
_atom_site_fract_y
_atom_site_fract_z
Si Si1 0.836780 0.166508 0.450240
Si Si2 0.729442 0.554853 0.793912
Si Si3 0.859878 0.208162 0.918733
Si Si4 0.525086 0.028215 0.896570
Si Si5 0.394639 0.156142 0.202999
Si Si6 0.121257 0.153978 0.301374
Si Si7 0.902915 0.968241 0.627955
O O1 0.767549 0.182801 0.821636
O O2 0.836182 0.094428 0.359996
O O3 0.013422 0.182091 0.250276
O O4 0.781228 0.204978 0.299652
O O5 0.856886 0.503137 0.654210
O O6 0.811922 0.613357 0.532919
O O7 0.662868 0.585346 0.142491
O O8 0.583735 0.538035 0.860732
O O9 0.929996 0.276922 0.768436
O O10 0.002601 0.160669 0.703045
O O11 0.509862 0.104051 0.922575
O O12 0.592422 0.999969 0.045180
O O13 0.279102 0.176979 0.163451
O O14 0.869160 0.979560 0.391757
#
# Coordination Sequence:
#
# PCOD9134221 Si02
#       7
#     4   4   4   4   4   4   4
#     4   9  21  36  47  71 110 141 180 220 253 317
#     4  10  20  28  49  75 114 135 176 207 272 317
#     4  10  22  36  50  71 108 151 185 219 256 317
#     4  10  19  30  45  76 106 133 168 206 260 330
#     4  11  21  33  54  76 106 154 177 218 269 319
#     4   9  19  34  50  71 103 147 179 211 259 312
#     4  11  20  29  51  76 105 143 173 207 269 330
#
# _framework density 27.266068000000001
#
# number of rings (size 3 to 8) (size 9 to 14) (size 15 to 20)
#    0.857    1.143    1.429    4.286    8.000    0.000 
#    0.000    0.000    0.000    0.000    0.000    0.000 
#    0.000   13.714    0.000    0.000    0.000    0.000 
#
# Total GULP energy -78186.076258 kJ/mol
# GULP energy per Si atom -5584.719733 kJ/mol
# Density = 2.720401 g / cm^3
# Si number density = 27.266068 Si / 1000 Ang^3
#
#
#
# Elastic Constant Matrix: (Units=GPa)
#
#
# Indices 1 2 3 4 5 6 
#
# 1 108.9311 20.5091 40.0727 0.0000 29.3893 0.0000
# 2 20.5091 135.4634 22.3970 0.0000 14.9353 0.0000
# 3 40.0727 22.3970 101.9549 0.0000 24.9904 0.0000
# 4 0.0000 0.0000 0.0000 31.8088 0.0000 17.7240
# 5 29.3893 14.9353 24.9904 0.0000 64.3737 0.0000
# 6 0.0000 0.0000 0.0000 17.7240 0.0000 29.0531
#
#
#
# Elastic Compliance Matrix: (Units=1/GPa)
#
#
# Indices 1 2 3 4 5 6 
#
# 1 0.011622 -0.000769 -0.003473 0.000000 -0.003779 0.000000
# 2 -0.000769 0.007802 -0.001165 0.000000 -0.001007 0.000000
# 3 -0.003473 -0.001165 0.012128 0.000000 -0.002853 0.000000
# 4 0.000000 0.000000 0.000000 0.047628 0.000000 -0.029056
# 5 -0.003779 -0.001007 -0.002853 0.000000 0.018601 0.000000
# 6 0.000000 0.000000 0.000000 -0.029056 0.000000 0.052145
#
#
# Mechanical properties :
#
#
# Convention : Reuss Voigt Hill
#
# Bulk Modulus (GPa) = 48.21681 56.92299 52.56990
# Shear Modulus (GPa) = 29.82364 42.60517 36.21441
#
# Velocity S-wave (km/s) = 3.31085 3.95723 3.64838
# Velocity P-wave (km/s) = 5.68664 6.46542 6.08850
#
# Compressibility (1/GPa) = 0.02073965
#
# Stress axis : x y z
#
# Youngs Moduli (GPa) = 86.04338 128.17095 82.45182
#
# Poissons Ratio (x) = 0.09853 0.28633
# Poissons Ratio (y) = 0.06614 0.09605
# Poissons Ratio (z) = 0.29880 0.14932
#
# Static dielectric constant tensor:
#      x y z
#    x 2.153710 0.000000 -0.008580 
#    y 0.000000 2.106990 0.000000 
#    z -0.008580 0.000000 2.260320 
# 
# From -- ./inp_files/2682.got.cif
#   From: 2010.05.17/outbox.cif.g08.bks.cpg/sg9_2_cif.got.tgz:2682.got - 2010.06.03 20:04:27.
