data_PCOD9134460
_publ_section_title
;
Structure prediction by ZEFSAII (Michael W. Deem and Ramdas Pophale) SiO2 
 PCOD9134460
Probable space group: C C
;
_chemical_formula_sum "Si O2"
_cell_formula_units_Z 32
_cell_length_a 14.495074
_cell_length_b 8.994153
_cell_length_c 11.927097
_cell_angle_alpha 90.000000
_cell_angle_beta 127.470006
_cell_angle_gamma 90.000000
_cell_volume 1234.117389
_symmetry_space_group_name_H-M "C C"
_symmetry_group_IT_number 9
_symmetry_cell_setting 'monoclinic'
loop_
_space_group_symop_operation_xyz
x,y,z
x,-y,1/2+z
1/2+x,1/2+y,z
1/2+x,1/2-y,1/2+z
loop_
_atom_site_type_symbol
_atom_site_label
_atom_site_fract_x
_atom_site_fract_y
_atom_site_fract_z
Si Si1 0.969890 0.826210 0.213670
Si Si2 0.801880 0.454272 0.156237
Si Si3 0.974835 0.732130 0.658986
Si Si4 0.829683 0.856666 0.895811
Si Si5 0.719295 0.541111 0.863009
Si Si6 0.869567 0.702480 0.362770
Si Si7 0.587968 0.065650 0.162406
Si Si8 0.066199 0.197929 0.457815
O O1 0.908263 0.806575 0.287112
O O2 0.082615 0.933086 0.284015
O O3 0.029866 0.675424 0.210420
O O4 0.872998 0.875485 0.054045
O O5 0.865571 0.309976 0.156247
O O6 0.885491 0.545616 0.300959
O O7 0.782287 0.551320 0.029751
O O8 0.667643 0.409982 0.078701
O O9 0.921407 0.799407 0.505752
O O10 0.021333 0.586861 0.626258
O O11 0.064715 0.773591 0.823791
O O12 0.776203 0.687266 0.845295
O O13 0.722696 0.959776 0.786441
O O14 0.942785 0.866547 0.903696
O O15 0.754562 0.381326 0.833527
O O16 0.579382 0.149997 0.038056
#
# Coordination Sequence:
#
# PCOD9134460 Si02
#       8
#     4   4   4   4   4   4   4   4
#     4  10  19  36  62 101 125 165 230 281 328 421
#     4  11  20  40  64  91 129 179 220 269 345 424
#     4  11  22  38  63  97 126 172 219 274 350 408
#     4  10  19  38  62  91 121 165 220 274 333 409
#     4  10  21  36  64  94 127 175 220 276 346 412
#     4  11  19  37  66  92 130 169 220 280 336 410
#     4  10  20  35  64  89 124 167 221 274 332 414
#     4  11  22  38  65  93 128 170 228 280 334 424
#
# _framework density 25.929463999999999
#
# number of rings (size 3 to 8) (size 9 to 14) (size 15 to 20)
#    0.000    1.500    2.500    6.750    0.000    0.000 
#    4.500    2.500    5.500    0.000    0.000    0.000 
#    0.000    0.000    0.000    0.000    0.000    0.000 
#
# Total GULP energy -89075.143015 kJ/mol
# GULP energy per Si atom -5567.196438 kJ/mol
# Density = 2.587045 g / cm^3
# Si number density = 25.929464 Si / 1000 Ang^3
#
#
#
# Elastic Constant Matrix: (Units=GPa)
#
#
# Indices 1 2 3 4 5 6 
#
# 1 147.7303 35.5476 52.9190 0.0000 -3.6718 0.0000
# 2 35.5476 56.2532 10.2903 0.0000 -6.1892 0.0000
# 3 52.9190 10.2903 146.0436 0.0000 -19.9691 0.0000
# 4 0.0000 0.0000 0.0000 13.3765 0.0000 -3.6710
# 5 -3.6718 -6.1892 -19.9691 0.0000 60.4516 0.0000
# 6 0.0000 0.0000 0.0000 -3.6710 0.0000 24.6703
#
#
#
# Elastic Compliance Matrix: (Units=1/GPa)
#
#
# Indices 1 2 3 4 5 6 
#
# 1 0.009122 -0.005313 -0.003068 0.000000 -0.001003 0.000000
# 2 -0.005313 0.021233 0.000715 0.000000 0.002087 0.000000
# 3 -0.003068 0.000715 0.008267 0.000000 0.002618 0.000000
# 4 0.000000 0.000000 0.000000 0.077941 0.000000 0.011598
# 5 -0.001003 0.002087 0.002618 0.000000 0.017560 0.000000
# 6 0.000000 0.000000 0.000000 0.011598 0.000000 0.042260
#
#
# Mechanical properties :
#
#
# Convention : Reuss Voigt Hill
#
# Bulk Modulus (GPa) = 42.94084 60.83787 51.88935
# Shear Modulus (GPa) = 25.06535 36.45104 30.75819
#
# Velocity S-wave (km/s) = 3.11251 3.75344 3.44790
# Velocity P-wave (km/s) = 5.43264 6.50370 5.99215
#
# Compressibility (1/GPa) = 0.02328786
#
# Stress axis : x y z
#
# Youngs Moduli (GPa) = 109.62864 47.09584 120.96964
#
# Poissons Ratio (x) = 0.25024 0.37114
# Poissons Ratio (y) = 0.58250 -0.08644
# Poissons Ratio (z) = 0.33635 -0.03365
#
# Static dielectric constant tensor:
#      x y z
#    x 2.116850 0.000000 -0.048930 
#    y 0.000000 2.184310 0.000000 
#    z -0.048930 0.000000 2.158630 
# 
# From -- ./inp_files/18286.got.cif
#   From: 2010.05.17/outbox.cif.g08.bks.cpg/sg9_10_cif.got.tgz:18286.got - 2010.06.03 20:04:27.
