data_PCOD9134712
_publ_section_title
;
Structure prediction by ZEFSAII (Michael W. Deem and Ramdas Pophale) SiO2 
 PCOD9134712
Probable space group: C C
;
_chemical_formula_sum "Si O2"
_cell_formula_units_Z 28
_cell_length_a 8.559031
_cell_length_b 10.969681
_cell_length_c 13.303843
_cell_angle_alpha 90.000000
_cell_angle_beta 67.156317
_cell_angle_gamma 90.000000
_cell_volume 1151.125911
_symmetry_space_group_name_H-M "C C"
_symmetry_group_IT_number 9
_symmetry_cell_setting 'monoclinic'
loop_
_space_group_symop_operation_xyz
x,y,z
x,-y,1/2+z
1/2+x,1/2+y,z
1/2+x,1/2-y,1/2+z
loop_
_atom_site_type_symbol
_atom_site_label
_atom_site_fract_x
_atom_site_fract_y
_atom_site_fract_z
Si Si1 0.692870 0.421240 0.088940
Si Si2 0.729746 0.814635 0.153040
Si Si3 0.087091 0.317066 0.743979
Si Si4 0.482185 0.086146 0.073091
Si Si5 0.948306 0.141591 0.177569
Si Si6 0.956443 0.997994 0.988418
Si Si7 0.315971 0.640128 0.861356
O O1 0.649991 0.297033 0.157420
O O2 0.882445 0.469048 0.056443
O O3 0.570735 0.526526 0.167330
O O4 0.621178 0.429256 0.992067
O O5 0.849975 0.698344 0.101736
O O6 0.541985 0.763647 0.186980
O O7 0.766416 0.860189 0.256534
O O8 0.798315 0.914464 0.059214
O O9 0.254094 0.358138 0.761667
O O10 0.026820 0.419267 0.680435
O O11 0.928942 0.262945 0.843843
O O12 0.144464 0.376039 0.467429
O O13 0.940809 0.122110 0.058204
O O14 0.936708 0.036884 0.880096
#
# Coordination Sequence:
#
# PCOD9134712 Si02
#       7
#     4   4   4   4   4   4   4
#     4   9  20  38  63  86 128 165 204 267 309 370
#     4  10  22  43  63  92 134 163 209 278 314 373
#     4  11  21  41  61  93 129 165 210 267 314 374
#     4  10  19  40  62  90 126 162 213 263 313 376
#     4   9  20  39  65  85 123 168 204 265 316 369
#     4  10  20  41  61  91 132 160 213 267 302 386
#     4  11  22  38  67  93 128 171 211 265 320 386
#
# _framework density 24.324012
#
# number of rings (size 3 to 8) (size 9 to 14) (size 15 to 20)
#    0.857    1.143    4.286    0.000    2.000    1.143 
#   10.286    2.857    0.000    0.000    0.000    0.000 
#    0.000    0.000    0.000    0.000    0.000    0.000 
#
# Total GULP energy -78131.375052 kJ/mol
# GULP energy per Si atom -5580.812504 kJ/mol
# Density = 2.426865 g / cm^3
# Si number density = 24.324012 Si / 1000 Ang^3
#
#
#
# Elastic Constant Matrix: (Units=GPa)
#
#
# Indices 1 2 3 4 5 6 
#
# 1 119.8404 33.5146 11.0028 0.0000 -20.5823 0.0000
# 2 33.5146 71.3662 4.5098 0.0000 16.8122 0.0000
# 3 11.0028 4.5098 69.4496 0.0000 -0.4473 0.0000
# 4 0.0000 0.0000 0.0000 27.6112 0.0000 3.6122
# 5 -20.5823 16.8122 -0.4473 0.0000 30.4468 0.0000
# 6 0.0000 0.0000 0.0000 3.6122 0.0000 40.0483
#
#
#
# Elastic Compliance Matrix: (Units=1/GPa)
#
#
# Indices 1 2 3 4 5 6 
#
# 1 0.013751 -0.009830 -0.001446 0.000000 0.014703 0.000000
# 2 -0.009830 0.023220 -0.000076 0.000000 -0.019468 0.000000
# 3 -0.001446 -0.000076 0.014628 0.000000 -0.000720 0.000000
# 4 0.000000 0.000000 0.000000 0.036650 0.000000 -0.003306
# 5 0.014703 -0.019468 -0.000720 0.000000 0.053523 0.000000
# 6 0.000000 0.000000 0.000000 -0.003306 0.000000 0.025268
#
#
# Mechanical properties :
#
#
# Convention : Reuss Voigt Hill
#
# Bulk Modulus (GPa) = 34.60671 39.85675 37.23173
# Shear Modulus (GPa) = 25.07836 33.72986 29.40411
#
# Velocity S-wave (km/s) = 3.21442 3.72787 3.48063
# Velocity P-wave (km/s) = 5.29480 5.91191 5.61185
#
# Compressibility (1/GPa) = 0.02889613
#
# Stress axis : x y z
#
# Youngs Moduli (GPa) = 72.71945 43.06702 68.36096
#
# Poissons Ratio (x) = 0.42336 0.09882
# Poissons Ratio (y) = 0.71485 0.00518
# Poissons Ratio (z) = 0.10512 0.00326
#
# Static dielectric constant tensor:
#      x y z
#    x 1.993150 0.000000 -0.010250 
#    y 0.000000 2.018870 0.000000 
#    z -0.010250 0.000000 1.882760 
# 
# From -- ./inp_files/22683.got.cif
#   From: 2010.05.17/outbox.cif.g08.bks.cpg/sg9_12_cif.got.tgz:22683.got - 2010.06.03 20:04:27.
