data_PCOD9134853
_publ_section_title
;
Structure prediction by ZEFSAII (Michael W. Deem and Ramdas Pophale) SiO2 
 PCOD9134853
Probable space group: C C
;
_chemical_formula_sum "Si O2"
_cell_formula_units_Z 32
_cell_length_a 10.494948
_cell_length_b 22.989238
_cell_length_c 5.681242
_cell_angle_alpha 90.000000
_cell_angle_beta 69.320972
_cell_angle_gamma 90.000000
_cell_volume 1282.407352
_symmetry_space_group_name_H-M "C C"
_symmetry_group_IT_number 9
_symmetry_cell_setting 'monoclinic'
loop_
_space_group_symop_operation_xyz
x,y,z
x,-y,1/2+z
1/2+x,1/2+y,z
1/2+x,1/2-y,1/2+z
loop_
_atom_site_type_symbol
_atom_site_label
_atom_site_fract_x
_atom_site_fract_y
_atom_site_fract_z
Si Si1 0.629670 0.146744 0.578490
Si Si2 0.666769 0.632087 0.050822
Si Si3 0.256634 0.270406 0.632129
Si Si4 0.386515 0.344399 0.182448
Si Si5 0.504842 0.250728 0.779924
Si Si6 0.621644 0.029461 0.370859
Si Si7 0.693751 0.354093 0.024915
Si Si8 0.951326 0.969604 0.657775
O O1 0.657222 0.200157 0.383409
O O2 0.771866 0.125291 0.600823
O O3 0.555531 0.186702 0.821718
O O4 0.568286 0.093210 0.480437
O O5 0.604354 0.697202 0.122603
O O6 0.749454 0.623218 0.239933
O O7 0.536967 0.589685 0.123590
O O8 0.741435 0.626891 0.751990
O O9 0.314976 0.327373 0.467527
O O10 0.388718 0.241885 0.661844
O O11 0.195158 0.216868 0.527476
O O12 0.533269 0.371878 0.119649
O O13 0.418159 0.282548 0.040386
O O14 0.787011 0.033176 0.254616
O O15 0.583602 0.009303 0.129156
O O16 0.988061 0.997265 0.378464
#
# Coordination Sequence:
#
# PCOD9134853 Si02
#       8
#     4   4   4   4   4   4   4   4
#     4  11  22  37  60  84 122 162 188 249 298 360
#     4  11  20  38  52  84 118 149 191 238 283 353
#     4  11  20  34  55  83 122 156 193 236 291 361
#     4  10  20  32  54  82 118 157 193 229 294 360
#     4  10  21  36  53  87 119 157 198 234 301 353
#     4  10  23  39  55  84 115 152 202 242 289 352
#     4  11  22  33  54  82 120 154 187 235 290 346
#     4  10  20  35  57  82 114 155 194 233 290 351
#
# _framework density 24.953067999999998
#
# number of rings (size 3 to 8) (size 9 to 14) (size 15 to 20)
#    0.000    1.500    2.500    4.500    3.500    1.000 
#    0.000    0.000    0.000    0.000    0.000    5.250 
#    0.000    0.000    0.000    0.000    0.000    0.000 
#
# Total GULP energy -89260.408221 kJ/mol
# GULP energy per Si atom -5578.775514 kJ/mol
# Density = 2.489627 g / cm^3
# Si number density = 24.953068 Si / 1000 Ang^3
#
#
#
# Elastic Constant Matrix: (Units=GPa)
#
#
# Indices 1 2 3 4 5 6 
#
# 1 46.3492 4.2832 16.3701 0.0000 10.3162 0.0000
# 2 4.2832 74.5395 23.5430 0.0000 -2.4347 0.0000
# 3 16.3701 23.5430 120.8927 0.0000 34.1818 0.0000
# 4 0.0000 0.0000 0.0000 37.4151 0.0000 3.9644
# 5 10.3162 -2.4347 34.1818 0.0000 27.1022 0.0000
# 6 0.0000 0.0000 0.0000 3.9644 0.0000 24.0781
#
#
#
# Elastic Compliance Matrix: (Units=1/GPa)
#
#
# Indices 1 2 3 4 5 6 
#
# 1 0.023796 -0.001482 -0.000521 0.000000 -0.008534 0.000000
# 2 -0.001482 0.015426 -0.005214 0.000000 0.008526 0.000000
# 3 -0.000521 -0.005214 0.014663 0.000000 -0.018763 0.000000
# 4 0.000000 0.000000 0.000000 0.027202 0.000000 -0.004479
# 5 -0.008534 0.008526 -0.018763 0.000000 0.064576 0.000000
# 6 0.000000 0.000000 0.000000 -0.004479 0.000000 0.042269
#
#
# Mechanical properties :
#
#
# Convention : Reuss Voigt Hill
#
# Bulk Modulus (GPa) = 25.34742 36.68601 31.01672
# Shear Modulus (GPa) = 23.20020 30.89144 27.04582
#
# Velocity S-wave (km/s) = 3.05249 3.52231 3.29579
# Velocity P-wave (km/s) = 4.75434 5.59251 5.19037
#
# Compressibility (1/GPa) = 0.03945174
#
# Stress axis : x y z
#
# Youngs Moduli (GPa) = 42.02453 64.82477 68.19887
#
# Poissons Ratio (x) = 0.09605 0.03551
# Poissons Ratio (y) = 0.06227 0.35560
# Poissons Ratio (z) = 0.02188 0.33801
#
# Static dielectric constant tensor:
#      x y z
#    x 1.985570 0.000000 0.048920 
#    y 0.000000 2.025130 0.000000 
#    z 0.048920 0.000000 2.161620 
# 
# From -- ./inp_files/1993.got.cif
#   From: 2010.05.17/outbox.cif.g08.bks.cpg/sg9_1_cif.got.tgz:1993.got - 2010.06.03 20:04:27.
