data_PCOD9134930
_publ_section_title
;
Structure prediction by ZEFSAII (Michael W. Deem and Ramdas Pophale) SiO2 
 PCOD9134930
Probable space group: C C
;
_chemical_formula_sum "Si O2"
_cell_formula_units_Z 32
_cell_length_a 10.546742
_cell_length_b 29.092572
_cell_length_c 5.310967
_cell_angle_alpha 90.000000
_cell_angle_beta 61.904212
_cell_angle_gamma 90.000000
_cell_volume 1437.547281
_symmetry_space_group_name_H-M "C C"
_symmetry_group_IT_number 9
_symmetry_cell_setting 'monoclinic'
loop_
_space_group_symop_operation_xyz
x,y,z
x,-y,1/2+z
1/2+x,1/2+y,z
1/2+x,1/2-y,1/2+z
loop_
_atom_site_type_symbol
_atom_site_label
_atom_site_fract_x
_atom_site_fract_y
_atom_site_fract_z
Si Si1 0.818520 0.970848 0.267130
Si Si2 0.406903 0.875932 0.803351
Si Si3 0.163685 0.360084 0.870336
Si Si4 0.991522 0.700888 0.837194
Si Si5 0.845393 0.128157 0.695637
Si Si6 0.473324 0.970961 0.570391
Si Si7 0.750089 0.291405 0.184987
Si Si8 0.966343 0.778290 0.220468
O O1 0.904723 0.923033 0.178638
O O2 0.645775 0.959664 0.423048
O O3 0.846604 0.998300 0.496773
O O4 0.517982 0.886457 0.929152
O O5 0.485015 0.843526 0.523692
O O6 0.381719 0.924702 0.699347
O O7 0.288419 0.841119 0.022655
O O8 0.257585 0.361692 0.534000
O O9 0.100739 0.310719 0.010635
O O10 0.254811 0.376018 0.022820
O O11 0.833892 0.708341 0.869875
O O12 0.037664 0.743416 0.957732
O O13 0.937647 0.174377 0.601548
O O14 0.446233 0.994665 0.328256
O O15 0.580120 0.287149 0.334751
O O16 0.831124 0.250558 0.954517
#
# Coordination Sequence:
#
# PCOD9134930 Si02
#       8
#     4   4   4   4   4   4   4   4
#     4  10  20  35  57  91 130 166 211 264 324 374
#     4  10  21  39  61  90 135 167 211 261 329 371
#     4  11  21  38  63  96 126 176 208 259 330 372
#     4  10  22  40  67  89 134 169 213 262 318 387
#     4  12  24  38  66  94 135 169 218 266 323 387
#     4  10  21  31  57  92 125 162 209 264 317 376
#     4  10  25  41  66  92 131 171 212 265 316 391
#     4  11  26  44  63 100 128 170 220 261 323 380
#
# _framework density 22.260138000000001
#
# number of rings (size 3 to 8) (size 9 to 14) (size 15 to 20)
#    0.000    1.500    2.500    1.500   12.250    2.000 
#    0.000    0.000    0.000    1.500    0.000    0.000 
#    0.000    0.000    0.000    0.000    0.000    0.000 
#
# Total GULP energy -89359.220760 kJ/mol
# GULP energy per Si atom -5584.951297 kJ/mol
# Density = 2.220947 g / cm^3
# Si number density = 22.260138 Si / 1000 Ang^3
#
#
#
# Elastic Constant Matrix: (Units=GPa)
#
#
# Indices 1 2 3 4 5 6 
#
# 1 50.9263 35.0628 30.3003 0.0000 19.1914 0.0000
# 2 35.0628 137.3281 17.4179 0.0000 10.6642 0.0000
# 3 30.3003 17.4179 83.7680 0.0000 33.0881 0.0000
# 4 0.0000 0.0000 0.0000 28.9560 0.0000 7.9690
# 5 19.1914 10.6642 33.0881 0.0000 27.4999 0.0000
# 6 0.0000 0.0000 0.0000 7.9690 0.0000 11.6269
#
#
#
# Elastic Compliance Matrix: (Units=1/GPa)
#
#
# Indices 1 2 3 4 5 6 
#
# 1 0.032351 -0.006549 -0.004622 0.000000 -0.014475 0.000000
# 2 -0.006549 0.008861 0.000150 0.000000 0.000955 0.000000
# 3 -0.004622 0.000150 0.023492 0.000000 -0.025098 0.000000
# 4 0.000000 0.000000 0.000000 0.042564 0.000000 -0.029173
# 5 -0.014475 0.000955 -0.025098 0.000000 0.076294 0.000000
# 6 0.000000 0.000000 0.000000 -0.029173 0.000000 0.106003
#
#
# Mechanical properties :
#
#
# Convention : Reuss Voigt Hill
#
# Bulk Modulus (GPa) = 23.44140 48.62050 36.03095
# Shear Modulus (GPa) = 15.34548 26.23264 20.78906
#
# Velocity S-wave (km/s) = 2.62843 3.43659 3.05932
# Velocity P-wave (km/s) = 4.44579 6.13484 5.35730
#
# Compressibility (1/GPa) = 0.04265956
#
# Stress axis : x y z
#
# Youngs Moduli (GPa) = 30.91125 112.85468 42.56705
#
# Poissons Ratio (x) = 0.73914 0.19676
# Poissons Ratio (y) = 0.20245 -0.00637
# Poissons Ratio (z) = 0.14288 -0.01688
#
# Static dielectric constant tensor:
#      x y z
#    x 1.853500 0.000000 -0.024370 
#    y 0.000000 1.859820 0.000000 
#    z -0.024370 0.000000 1.846910 
# 
# From -- ./inp_files/2149.got.cif
#   From: 2010.05.17/outbox.cif.g08.bks.cpg/sg9_2_cif.got.tgz:2149.got - 2010.06.03 20:04:27.
