data_PCOD9134719
_publ_section_title
;
Structure prediction by ZEFSAII (Michael W. Deem and Ramdas Pophale) SiO2 
 PCOD9134719
Probable space group: C C
;
_chemical_formula_sum "Si O2"
_cell_formula_units_Z 32
_cell_length_a 7.661003
_cell_length_b 17.328090
_cell_length_c 13.690814
_cell_angle_alpha 90.000000
_cell_angle_beta 130.935645
_cell_angle_gamma 90.000000
_cell_volume 1372.995204
_symmetry_space_group_name_H-M "C C"
_symmetry_group_IT_number 9
_symmetry_cell_setting 'monoclinic'
loop_
_space_group_symop_operation_xyz
x,y,z
x,-y,1/2+z
1/2+x,1/2+y,z
1/2+x,1/2-y,1/2+z
loop_
_atom_site_type_symbol
_atom_site_label
_atom_site_fract_x
_atom_site_fract_y
_atom_site_fract_z
Si Si1 0.429170 0.550010 0.233820
Si Si2 0.093628 0.581742 0.364269
Si Si3 0.247529 0.097789 0.851967
Si Si4 0.847784 0.377037 0.979393
Si Si5 0.920421 0.527526 0.117046
Si Si6 0.007345 0.260453 0.766275
Si Si7 0.254820 0.576325 0.961512
Si Si8 0.011388 0.777908 0.488824
O O1 0.565399 0.470171 0.266170
O O2 0.592129 0.609970 0.347296
O O3 0.195021 0.533462 0.204194
O O4 0.357008 0.585031 0.105633
O O5 0.884551 0.553762 0.215298
O O6 0.276144 0.512394 0.436284
O O7 0.008898 0.594573 0.445585
O O8 0.159778 0.662112 0.336556
O O9 0.480591 0.089395 0.874533
O O10 0.140084 0.181486 0.792273
O O11 0.313914 0.079735 0.990693
O O12 0.908685 0.288833 0.021623
O O13 0.870432 0.438514 0.074536
O O14 0.937852 0.249089 0.853856
O O15 0.785823 0.275068 0.615391
O O16 0.391261 0.639528 0.951847
#
# Coordination Sequence:
#
# PCOD9134719 Si02
#       8
#     4   4   4   4   4   4   4   4
#     4  10  19  40  64  90 133 175 215 279 335 391
#     4  11  22  41  64  96 130 170 222 272 334 399
#     4  10  22  41  68  93 134 178 217 280 338 392
#     4  10  21  43  63  93 134 174 216 279 339 393
#     4  10  21  39  65  95 130 173 228 271 333 405
#     4  11  25  44  69  99 136 176 225 279 342 406
#     4  11  23  41  66  96 134 171 227 274 337 397
#     4  11  25  41  69  98 133 177 226 276 338 407
#
# _framework density 23.306711
#
# number of rings (size 3 to 8) (size 9 to 14) (size 15 to 20)
#    0.000    1.500    3.750    3.000    5.250    1.000 
#    2.250    1.250    0.000    0.000    0.000    0.000 
#    0.000    0.000    0.000    0.000    0.000    0.000 
#
# Total GULP energy -89347.326029 kJ/mol
# GULP energy per Si atom -5584.207877 kJ/mol
# Density = 2.325366 g / cm^3
# Si number density = 23.306711 Si / 1000 Ang^3
#
#
#
# Elastic Constant Matrix: (Units=GPa)
#
#
# Indices 1 2 3 4 5 6 
#
# 1 46.2663 23.8936 -1.7329 0.0000 15.0989 0.0000
# 2 23.8936 120.9471 -0.3700 0.0000 35.2838 0.0000
# 3 -1.7329 -0.3700 25.6405 0.0000 8.6803 0.0000
# 4 0.0000 0.0000 0.0000 19.3080 0.0000 7.1445
# 5 15.0989 35.2838 8.6803 0.0000 33.3821 0.0000
# 6 0.0000 0.0000 0.0000 7.1445 0.0000 35.3705
#
#
#
# Elastic Compliance Matrix: (Units=1/GPa)
#
#
# Indices 1 2 3 4 5 6 
#
# 1 0.026546 -0.001872 0.005660 0.000000 -0.011500 0.000000
# 2 -0.001872 0.012670 0.004719 0.000000 -0.013772 0.000000
# 3 0.005660 0.004719 0.046061 0.000000 -0.019525 0.000000
# 4 0.000000 0.000000 0.000000 0.055976 0.000000 -0.011307
# 5 -0.011500 -0.013772 -0.019525 0.000000 0.054791 0.000000
# 6 0.000000 0.000000 0.000000 -0.011307 0.000000 0.030556
#
#
# Mechanical properties :
#
#
# Convention : Reuss Voigt Hill
#
# Bulk Modulus (GPa) = 9.77603 26.27058 18.02330
# Shear Modulus (GPa) = 20.51843 29.01634 24.76739
#
# Velocity S-wave (km/s) = 2.97031 3.53225 3.26340
# Velocity P-wave (km/s) = 3.99591 5.28506 4.68504
#
# Compressibility (1/GPa) = 0.10229104
#
# Stress axis : x y z
#
# Youngs Moduli (GPa) = 37.67076 78.92622 21.71017
#
# Poissons Ratio (x) = 0.14775 -0.12289
# Poissons Ratio (y) = 0.07052 -0.10244
# Poissons Ratio (z) = -0.21323 -0.37243
#
# Static dielectric constant tensor:
#      x y z
#    x 1.935220 0.000000 -0.038820 
#    y 0.000000 1.950250 0.000000 
#    z -0.038820 0.000000 1.892070 
# 
# From -- ./inp_files/23647.got.cif
#   From: 2010.05.17/outbox.cif.g08.bks.cpg/sg9_12_cif.got.tgz:23647.got - 2010.06.03 20:04:27.
