data_PCOD9134046
_publ_section_title
;
Structure prediction by ZEFSAII (Michael W. Deem and Ramdas Pophale) SiO2 
 PCOD9134046
Probable space group: C C
;
_chemical_formula_sum "Si O2"
_cell_formula_units_Z 28
_cell_length_a 9.531462
_cell_length_b 28.097546
_cell_length_c 5.229921
_cell_angle_alpha 90.000000
_cell_angle_beta 88.968876
_cell_angle_gamma 90.000000
_cell_volume 1400.401954
_symmetry_space_group_name_H-M "C C"
_symmetry_group_IT_number 9
_symmetry_cell_setting 'monoclinic'
loop_
_space_group_symop_operation_xyz
x,y,z
x,-y,1/2+z
1/2+x,1/2+y,z
1/2+x,1/2-y,1/2+z
loop_
_atom_site_type_symbol
_atom_site_label
_atom_site_fract_x
_atom_site_fract_y
_atom_site_fract_z
Si Si1 0.925050 0.112867 0.796010
Si Si2 0.587718 0.383126 0.791233
Si Si3 0.564803 0.046234 0.534123
Si Si4 0.667805 0.941826 0.529272
Si Si5 0.748539 0.472824 0.930281
Si Si6 0.889013 0.225115 0.831909
Si Si7 0.078414 0.229280 0.329233
O O1 0.809796 0.077065 0.906625
O O2 0.876586 0.167594 0.824560
O O3 0.965091 0.104265 0.500480
O O4 0.051283 0.108618 0.996124
O O5 0.707271 0.419048 0.872778
O O6 0.612359 0.327311 0.828996
O O7 0.555364 0.070118 0.811063
O O8 0.416554 0.027860 0.439613
O O9 0.658427 0.998745 0.573438
O O10 0.631384 0.078032 0.309352
O O11 0.697506 0.506041 0.700340
O O12 0.730413 0.245355 0.829967
O O13 0.982280 0.239589 0.581506
O O14 0.980791 0.238204 0.081698
#
# Coordination Sequence:
#
# PCOD9134046 Si02
#       7
#     4   4   4   4   4   4   4
#     4  10  21  40  58  84 119 152 193 243 296 357
#     4  10  23  40  58  84 119 157 190 244 298 354
#     4  10  19  35  53  74 109 145 178 248 281 320
#     4  10  18  35  54  74 107 145 184 225 297 323
#     4  12  21  40  57  78 114 152 198 241 295 337
#     4  10  21  40  66  91 128 160 205 253 313 371
#     4  10  21  42  64  93 128 163 202 256 312 372
#
# _framework density 19.994260000000001
#
# number of rings (size 3 to 8) (size 9 to 14) (size 15 to 20)
#    0.000    1.714    2.857    2.571    0.000    0.000 
#   20.571    0.000    0.000    0.000    0.000    0.000 
#    0.000    0.000    0.000    0.000    0.000    0.000 
#
# Total GULP energy -78006.347792 kJ/mol
# GULP energy per Si atom -5571.881985 kJ/mol
# Density = 1.994875 g / cm^3
# Si number density = 19.994260 Si / 1000 Ang^3
#
#
#
# Elastic Constant Matrix: (Units=GPa)
#
#
# Indices 1 2 3 4 5 6 
#
# 1 84.9236 36.5550 21.8953 0.0000 3.2559 0.0000
# 2 36.5550 27.1254 5.8295 0.0000 2.9527 0.0000
# 3 21.8953 5.8295 122.4486 0.0000 -4.3616 0.0000
# 4 0.0000 0.0000 0.0000 16.4895 0.0000 1.7592
# 5 3.2559 2.9527 -4.3616 0.0000 23.5102 0.0000
# 6 0.0000 0.0000 0.0000 1.7592 0.0000 33.3108
#
#
#
# Elastic Compliance Matrix: (Units=1/GPa)
#
#
# Indices 1 2 3 4 5 6 
#
# 1 0.029383 -0.038887 -0.003396 0.000000 0.000185 0.000000
# 2 -0.038887 0.089316 0.002510 0.000000 -0.005366 0.000000
# 3 -0.003396 0.002510 0.008718 0.000000 0.001772 0.000000
# 4 0.000000 0.000000 0.000000 0.060988 0.000000 -0.003221
# 5 0.000185 -0.005366 0.001772 0.000000 0.043512 0.000000
# 6 0.000000 0.000000 0.000000 -0.003221 0.000000 0.030190
#
#
# Mechanical properties :
#
#
# Convention : Reuss Voigt Hill
#
# Bulk Modulus (GPa) = 20.88986 40.33969 30.61477
# Shear Modulus (GPa) = 13.98176 26.00996 19.99586
#
# Velocity S-wave (km/s) = 2.64728 3.61067 3.16583
# Velocity P-wave (km/s) = 4.45137 6.13205 5.35802
#
# Compressibility (1/GPa) = 0.04787012
#
# Stress axis : x y z
#
# Youngs Moduli (GPa) = 34.03386 11.19623 114.71086
#
# Poissons Ratio (x) = 0.43539 0.38956
# Poissons Ratio (y) = 1.32347 -0.28794
# Poissons Ratio (z) = 0.11558 -0.02810
#
# Static dielectric constant tensor:
#      x y z
#    x 1.721770 0.000000 -0.004190 
#    y 0.000000 1.691850 0.000000 
#    z -0.004190 0.000000 1.816240 
# 
# From -- ./inp_files/873.got.cif
#   From: 2010.05.17/outbox.cif.g08.bks.cpg/sg9_1_cif.got.tgz:873.got - 2010.06.03 20:04:27.
