data_PCOD9134580
_publ_section_title
;
Structure prediction by ZEFSAII (Michael W. Deem and Ramdas Pophale) SiO2 
 PCOD9134580
Probable space group: C C
;
_chemical_formula_sum "Si O2"
_cell_formula_units_Z 32
_cell_length_a 11.528730
_cell_length_b 10.306802
_cell_length_c 11.816169
_cell_angle_alpha 90.000000
_cell_angle_beta 65.355653
_cell_angle_gamma 90.000000
_cell_volume 1276.158782
_symmetry_space_group_name_H-M "C C"
_symmetry_group_IT_number 9
_symmetry_cell_setting 'monoclinic'
loop_
_space_group_symop_operation_xyz
x,y,z
x,-y,1/2+z
1/2+x,1/2+y,z
1/2+x,1/2-y,1/2+z
loop_
_atom_site_type_symbol
_atom_site_label
_atom_site_fract_x
_atom_site_fract_y
_atom_site_fract_z
Si Si1 0.505620 0.708726 0.393540
Si Si2 0.532937 0.524374 0.716857
Si Si3 0.681391 0.574853 0.472683
Si Si4 0.323700 0.684203 0.905712
Si Si5 0.587793 0.972401 0.003976
Si Si6 0.336705 0.367479 0.656472
Si Si7 0.244566 0.217907 0.908525
Si Si8 0.077750 0.467260 0.262785
O O1 0.525776 0.572469 0.323584
O O2 0.560123 0.669546 0.492573
O O3 0.360764 0.756535 0.448597
O O4 0.581166 0.813753 0.287386
O O5 0.669334 0.560586 0.612886
O O6 0.446022 0.642596 0.786959
O O7 0.459954 0.444849 0.648295
O O8 0.787073 0.671864 0.384906
O O9 0.700199 0.429562 0.422107
O O10 0.209755 0.574254 0.943209
O O11 0.355424 0.685905 0.024961
O O12 0.527917 0.991846 0.154199
O O13 0.639989 0.825423 0.982039
O O14 0.518185 0.987802 0.909659
O O15 0.302575 0.261768 0.764625
O O16 0.216540 0.465933 0.703509
#
# Coordination Sequence:
#
# PCOD9134580 Si02
#       8
#     4   4   4   4   4   4   4   4
#     4  11  22  43  67  97 140 178 234 293 370 423
#     4  11  22  42  68  97 133 191 225 289 372 431
#     4  12  26  41  69 107 135 181 247 294 360 438
#     4  11  21  43  66  99 135 180 232 292 357 434
#     4  10  19  41  69  92 135 180 222 284 363 420
#     4   9  20  41  70  90 136 179 227 282 361 427
#     4  10  23  44  65 100 136 183 232 297 353 433
#     4  10  19  37  70  98 128 180 225 285 346 434
#
# _framework density 25.075248999999999
#
# number of rings (size 3 to 8) (size 9 to 14) (size 15 to 20)
#    0.000    1.500    5.000    1.500    3.500    0.000 
#    6.750    3.750    0.000    0.000    0.000    0.000 
#    0.000    0.000    0.000    0.000    0.000    0.000 
#
# Total GULP energy -89340.819459 kJ/mol
# GULP energy per Si atom -5583.801216 kJ/mol
# Density = 2.501818 g / cm^3
# Si number density = 25.075249 Si / 1000 Ang^3
#
#
#
# Elastic Constant Matrix: (Units=GPa)
#
#
# Indices 1 2 3 4 5 6 
#
# 1 27.2779 32.4016 16.2045 0.0000 10.1880 0.0000
# 2 32.4016 160.6723 39.9871 0.0000 -19.0251 0.0000
# 3 16.2045 39.9871 129.6147 0.0000 11.2690 0.0000
# 4 0.0000 0.0000 0.0000 11.1675 0.0000 -9.9273
# 5 10.1880 -19.0251 11.2690 0.0000 30.7595 0.0000
# 6 0.0000 0.0000 0.0000 -9.9273 0.0000 22.6940
#
#
#
# Elastic Compliance Matrix: (Units=1/GPa)
#
#
# Indices 1 2 3 4 5 6 
#
# 1 0.072237 -0.018721 -0.000174 0.000000 -0.035441 0.000000
# 2 -0.018721 0.012466 -0.002804 0.000000 0.014938 0.000000
# 3 -0.000174 -0.002804 0.009036 0.000000 -0.004987 0.000000
# 4 0.000000 0.000000 0.000000 0.146523 0.000000 0.064096
# 5 -0.035441 0.014938 -0.004987 0.000000 0.055315 0.000000
# 6 0.000000 0.000000 0.000000 0.064096 0.000000 0.072103
#
#
# Mechanical properties :
#
#
# Convention : Reuss Voigt Hill
#
# Bulk Modulus (GPa) = 19.86475 54.97238 37.41856
# Shear Modulus (GPa) = 11.68611 28.18897 19.93754
#
# Velocity S-wave (km/s) = 2.16114 3.35651 2.82283
# Velocity P-wave (km/s) = 3.76386 6.08211 5.05760
#
# Compressibility (1/GPa) = 0.05034042
#
# Stress axis : x y z
#
# Youngs Moduli (GPa) = 13.84327 80.21935 110.67309
#
# Poissons Ratio (x) = 1.50177 0.01929
# Poissons Ratio (y) = 0.25916 0.31034
# Poissons Ratio (z) = 0.00241 0.22494
#
# Static dielectric constant tensor:
#      x y z
#    x 2.102820 0.000000 0.030340 
#    y 0.000000 1.973800 0.000000 
#    z 0.030340 0.000000 2.016560 
# 
# From -- ./inp_files/17736.got.cif
#   From: 2010.05.17/outbox.cif.g08.bks.cpg/sg9_9_cif.got.tgz:17736.got - 2010.06.03 20:04:27.
