data_PCOD9134275
_publ_section_title
;
Structure prediction by ZEFSAII (Michael W. Deem and Ramdas Pophale) SiO2 
 PCOD9134275
Probable space group: C C
;
_chemical_formula_sum "Si O2"
_cell_formula_units_Z 32
_cell_length_a 20.557614
_cell_length_b 17.772636
_cell_length_c 9.425655
_cell_angle_alpha 90.000000
_cell_angle_beta 25.071017
_cell_angle_gamma 90.000000
_cell_volume 1459.274102
_symmetry_space_group_name_H-M "C C"
_symmetry_group_IT_number 9
_symmetry_cell_setting 'monoclinic'
loop_
_space_group_symop_operation_xyz
x,y,z
x,-y,1/2+z
1/2+x,1/2+y,z
1/2+x,1/2-y,1/2+z
loop_
_atom_site_type_symbol
_atom_site_label
_atom_site_fract_x
_atom_site_fract_y
_atom_site_fract_z
Si Si1 0.380060 0.785818 0.256410
Si Si2 0.839467 0.133469 0.822760
Si Si3 0.704310 0.680718 0.835913
Si Si4 0.532688 0.608554 0.693116
Si Si5 0.761693 0.126119 0.462756
Si Si6 0.938489 0.057850 0.361469
Si Si7 0.586510 0.148616 0.556611
Si Si8 0.213450 0.785083 0.015313
O O1 0.310773 0.831209 0.261040
O O2 0.275726 0.712250 0.493498
O O3 0.425294 0.839036 0.297633
O O4 0.544534 0.750657 0.883096
O O5 0.984407 0.145728 0.639690
O O6 0.701507 0.117913 0.206632
O O7 0.810351 0.210394 0.793037
O O8 0.864284 0.067363 0.662814
O O9 0.779726 0.681462 0.531223
O O10 0.563409 0.624088 0.104983
O O11 0.646083 0.766299 0.967546
O O12 0.396004 0.619303 0.078366
O O13 0.528890 0.520062 0.670046
O O14 0.676008 0.649226 0.480763
O O15 0.810211 0.072043 0.495060
O O16 0.611776 0.111542 0.660851
#
# Coordination Sequence:
#
# PCOD9134275 Si02
#       8
#     4   4   4   4   4   4   4   4
#     4   8  13  28  52  73  91 130 191 204 247 327
#     4   9  20  31  50  82 106 135 175 226 268 312
#     4   9  16  27  52  75 100 140 177 216 261 330
#     4  10  19  33  51  76 111 140 175 218 274 328
#     4   9  16  30  49  69 103 136 168 216 263 322
#     4  12  19  30  49  89 109 130 174 229 285 301
#     4   8  15  32  51  69  99 140 184 209 262 324
#     4   9  16  35  52  73 101 147 182 210 264 326
#
# _framework density 21.928711
#
# number of rings (size 3 to 8) (size 9 to 14) (size 15 to 20)
#    0.000    3.000    3.750    3.000    0.000    0.000 
#    4.500    0.000    0.000    0.000   42.250    0.000 
#    0.000    0.000    0.000    0.000    0.000    0.000 
#
# Total GULP energy -89148.749328 kJ/mol
# GULP energy per Si atom -5571.796833 kJ/mol
# Density = 2.187880 g / cm^3
# Si number density = 21.928711 Si / 1000 Ang^3
#
#
#
# Elastic Constant Matrix: (Units=GPa)
#
#
# Indices 1 2 3 4 5 6 
#
# 1 205.4446 39.9601 10.6873 0.0002 -3.7283 -0.0001
# 2 39.9601 81.6367 10.2948 -0.0001 0.2794 -0.0001
# 3 10.6873 10.2948 36.5454 -0.0003 11.4305 0.0000
# 4 0.0002 -0.0001 -0.0003 8.7730 0.0001 6.4362
# 5 -3.7283 0.2794 11.4305 0.0001 9.7145 0.0000
# 6 -0.0001 -0.0001 0.0000 6.4362 0.0000 25.1568
#
#
#
# Elastic Compliance Matrix: (Units=1/GPa)
#
#
# Indices 1 2 3 4 5 6 
#
# 1 0.005568 -0.002417 -0.002591 0.000000 0.005255 0.000000
# 2 -0.002417 0.013981 -0.004456 0.000000 0.003913 0.000000
# 3 -0.002591 -0.004456 0.046912 0.000003 -0.056065 -0.000001
# 4 0.000000 0.000000 0.000003 0.140324 -0.000004 -0.035901
# 5 0.005255 0.003913 -0.056065 -0.000004 0.170812 0.000001
# 6 0.000000 0.000000 -0.000001 -0.035901 0.000001 0.048936
#
#
# Mechanical properties :
#
#
# Convention : Reuss Voigt Hill
#
# Bulk Modulus (GPa) = 21.03779 49.50126 35.26952
# Shear Modulus (GPa) = 10.83888 26.24116 18.54002
#
# Velocity S-wave (km/s) = 2.22565 3.46303 2.91085
# Velocity P-wave (km/s) = 4.02731 6.21392 5.23603
#
# Compressibility (1/GPa) = 0.04753352
#
# Stress axis : x y z
#
# Youngs Moduli (GPa) = 179.60792 71.52697 21.31663
#
# Poissons Ratio (x) = 0.17285 0.05523
# Poissons Ratio (y) = 0.43403 0.09498
# Poissons Ratio (z) = 0.46539 0.31870
#
# Static dielectric constant tensor:
#      x y z
#    x 1.898530 0.000000 0.013390 
#    y 0.000000 1.824580 0.000000 
#    z 0.013390 0.000000 1.868140 
# 
# From -- ./inp_files/10950.got.cif
#   From: 2010.05.17/outbox.cif.g08.bks.cpg/sg9_6_cif.got.tgz:10950.got - 2010.06.03 20:04:27.
