data_PCOD9134395
_publ_section_title
;
Structure prediction by ZEFSAII (Michael W. Deem and Ramdas Pophale) SiO2 
 PCOD9134395
Probable space group: C C
;
_chemical_formula_sum "Si O2"
_cell_formula_units_Z 32
_cell_length_a 7.162558
_cell_length_b 32.284885
_cell_length_c 5.589675
_cell_angle_alpha 90.000000
_cell_angle_beta 101.921113
_cell_angle_gamma 90.000000
_cell_volume 1264.692712
_symmetry_space_group_name_H-M "C C"
_symmetry_group_IT_number 9
_symmetry_cell_setting 'monoclinic'
loop_
_space_group_symop_operation_xyz
x,y,z
x,-y,1/2+z
1/2+x,1/2+y,z
1/2+x,1/2-y,1/2+z
loop_
_atom_site_type_symbol
_atom_site_label
_atom_site_fract_x
_atom_site_fract_y
_atom_site_fract_z
Si Si1 0.084210 0.334701 0.073000
Si Si2 0.985709 0.402710 0.695638
Si Si3 0.441087 0.295226 0.067784
Si Si4 0.741539 0.977474 0.262129
Si Si5 0.186365 0.152457 0.959433
Si Si6 0.281355 0.775499 0.850245
Si Si7 0.823092 0.890531 0.473052
Si Si8 0.813972 0.493125 0.672029
O O1 0.241422 0.314862 0.930010
O O2 0.209712 0.352237 0.321909
O O3 0.982903 0.373713 0.925232
O O4 0.929028 0.299011 0.064700
O O5 0.863577 0.377461 0.466989
O O6 0.893267 0.446767 0.703419
O O7 0.202729 0.405525 0.667657
O O8 0.572804 0.332393 0.198883
O O9 0.375663 0.265431 0.267278
O O10 0.577465 0.270985 0.923519
O O11 0.817156 0.930580 0.299205
O O12 0.792937 0.001187 0.523451
O O13 0.506605 0.978436 0.211907
O O14 0.250451 0.192866 0.121606
O O15 0.034358 0.125868 0.073036
O O16 0.709146 0.498001 0.392056
#
# Coordination Sequence:
#
# PCOD9134395 Si02
#       8
#     4   4   4   4   4   4   4   4
#     4  10  23  38  62  92 122 172 214 264 342 394
#     4  11  21  38  65  86 130 170 214 274 329 391
#     4  11  24  43  66  94 130 167 218 273 333 410
#     4  10  19  35  62  95 128 176 231 272 330 404
#     4  10  25  42  60 100 126 164 222 266 332 396
#     4  11  24  43  66  94 130 167 218 273 333 410
#     4  11  21  38  65  86 130 170 214 274 329 391
#     4  10  19  35  62  95 128 176 231 272 330 404
#
# _framework density 25.302591
#
# number of rings (size 3 to 8) (size 9 to 14) (size 15 to 20)
#    0.000    1.500    2.500    3.750    0.000    8.000 
#    0.000    1.250    0.000    0.000    0.000    0.000 
#    0.000    0.000    0.000    0.000    0.000    0.000 
#
# Total GULP energy -89538.890284 kJ/mol
# GULP energy per Si atom -5596.180643 kJ/mol
# Density = 2.524500 g / cm^3
# Si number density = 25.302591 Si / 1000 Ang^3
#
#
#
# Elastic Constant Matrix: (Units=GPa)
#
#
# Indices 1 2 3 4 5 6 
#
# 1 104.5161 20.1927 18.0902 0.0000 -8.7828 0.0000
# 2 20.1927 110.6008 26.3908 0.0000 -1.0912 0.0000
# 3 18.0902 26.3908 99.4751 0.0000 -14.2773 0.0000
# 4 0.0000 0.0000 0.0000 22.4795 0.0000 -4.9602
# 5 -8.7828 -1.0912 -14.2773 0.0000 36.1911 0.0000
# 6 0.0000 0.0000 0.0000 -4.9602 0.0000 4.3489
#
#
#
# Elastic Compliance Matrix: (Units=1/GPa)
#
#
# Indices 1 2 3 4 5 6 
#
# 1 0.010239 -0.001573 -0.001161 0.000000 0.001979 0.000000
# 2 -0.001573 0.009914 -0.002497 0.000000 -0.001068 0.000000
# 3 -0.001161 -0.002497 0.011528 0.000000 0.004191 0.000000
# 4 0.000000 0.000000 0.000000 0.059446 0.000000 0.067802
# 5 0.001979 -0.001068 0.004191 0.000000 0.029733 0.000000
# 6 0.000000 0.000000 0.000000 0.067802 0.000000 0.307277
#
#
# Mechanical properties :
#
#
# Convention : Reuss Voigt Hill
#
# Bulk Modulus (GPa) = 47.12750 49.32658 48.22704
# Shear Modulus (GPa) = 11.21903 29.26512 20.24208
#
# Velocity S-wave (km/s) = 2.10798 3.40458 2.83150
# Velocity P-wave (km/s) = 4.95891 5.91539 5.45814
#
# Compressibility (1/GPa) = 0.02121903
#
# Stress axis : x y z
#
# Youngs Moduli (GPa) = 97.66561 100.86660 86.74614
#
# Poissons Ratio (x) = 0.15865 0.10068
# Poissons Ratio (y) = 0.15362 0.21664
# Poissons Ratio (z) = 0.11335 0.25191
#
# Static dielectric constant tensor:
#      x y z
#    x 2.026910 0.000000 -0.034420 
#    y 0.000000 1.967150 0.000000 
#    z -0.034420 0.000000 2.071340 
# 
# From -- ./inp_files/1318.got.cif
#   From: 2010.05.17/outbox.cif.g08.bks.cpg/sg9_1_cif.got.tgz:1318.got - 2010.06.03 20:04:27.
