data_PCOD9134824
_publ_section_title
;
Structure prediction by ZEFSAII (Michael W. Deem and Ramdas Pophale) SiO2 
 PCOD9134824
Probable space group: C C
;
_chemical_formula_sum "Si O2"
_cell_formula_units_Z 24
_cell_length_a 12.522130
_cell_length_b 7.372501
_cell_length_c 12.589361
_cell_angle_alpha 90.000000
_cell_angle_beta 70.206797
_cell_angle_gamma 90.000000
_cell_volume 1093.578271
_symmetry_space_group_name_H-M "C C"
_symmetry_group_IT_number 9
_symmetry_cell_setting 'monoclinic'
loop_
_space_group_symop_operation_xyz
x,y,z
x,-y,1/2+z
1/2+x,1/2+y,z
1/2+x,1/2-y,1/2+z
loop_
_atom_site_type_symbol
_atom_site_label
_atom_site_fract_x
_atom_site_fract_y
_atom_site_fract_z
Si Si1 0.242710 0.803259 0.284370
Si Si2 0.063655 0.100700 0.272605
Si Si3 0.206723 0.900247 0.533069
Si Si4 0.901143 0.416042 0.631664
Si Si5 0.125604 0.281514 0.470649
Si Si6 0.826066 0.942573 0.283057
O O1 0.259093 0.598417 0.240754
O O2 0.140175 0.920959 0.271030
O O3 0.222035 0.798202 0.417434
O O4 0.354944 0.920095 0.219182
O O5 0.074911 0.224632 0.372440
O O6 0.937511 0.038904 0.290750
O O7 0.124061 0.185869 0.149000
O O8 0.151070 0.094165 0.522469
O O9 0.327821 0.928782 0.548384
O O10 0.862757 0.229634 0.701595
O O11 0.033180 0.401142 0.561964
O O12 0.244502 0.373934 0.403840
#
# Coordination Sequence:
#
# PCOD9134824 Si02
#       6
#     4   4   4   4   4   4
#     4  10  24  44  67 104 132 176 228 273 335 404
#     4  10  22  44  68  98 137 170 226 280 322 412
#     4  10  19  43  69  93 140 169 217 286 321 392
#     4  11  23  45  67 100 140 172 227 285 326 404
#     4  11  23  44  70  97 137 183 217 282 342 388
#     4  12  23  44  69  96 130 182 225 268 350 390
#
# _framework density 21.946304000000001
#
# number of rings (size 3 to 8) (size 9 to 14) (size 15 to 20)
#    0.000    1.333    6.667    1.000    0.000    2.667 
#   15.000    0.000    0.000    0.000    0.000    0.000 
#    0.000    0.000    0.000    0.000    0.000    0.000 
#
# Total GULP energy -67089.011991 kJ/mol
# GULP energy per Si atom -5590.750999 kJ/mol
# Density = 2.189635 g / cm^3
# Si number density = 21.946304 Si / 1000 Ang^3
#
#
#
# Elastic Constant Matrix: (Units=GPa)
#
#
# Indices 1 2 3 4 5 6 
#
# 1 80.9435 -5.6793 32.7619 0.0000 -22.3194 0.0000
# 2 -5.6793 68.1334 25.3541 0.0000 -2.0513 0.0000
# 3 32.7619 25.3541 114.0538 0.0000 -8.7866 0.0000
# 4 0.0000 0.0000 0.0000 1.2186 0.0000 -5.4435
# 5 -22.3194 -2.0513 -8.7866 0.0000 33.0545 0.0000
# 6 0.0000 0.0000 0.0000 -5.4435 0.0000 21.0183
#
#
#
# Elastic Compliance Matrix: (Units=1/GPa)
#
#
# Indices 1 2 3 4 5 6 
#
# 1 0.017632 0.003674 -0.005050 0.000000 0.010791 0.000000
# 2 0.003674 0.016766 -0.004605 0.000000 0.002297 0.000000
# 3 -0.005050 -0.004605 0.011187 0.000000 -0.000722 0.000000
# 4 0.000000 0.000000 0.000000 -5.231066 0.000000 -1.354784
# 5 0.010791 0.002297 -0.000722 0.000000 0.037490 0.000000
# 6 0.000000 0.000000 0.000000 -1.354784 0.000000 -0.303296
#
#
# Mechanical properties :
#
#
# Convention : Reuss Voigt Hill
#
# Bulk Modulus (GPa) = 29.74324 40.88934 35.31629
# Shear Modulus (GPa) = -0.92113 25.10456 12.09172
#
# Velocity S-wave (km/s) = -0.64856 3.38584 2.34982
# Velocity P-wave (km/s) = 3.60851 5.82728 4.84657
#
# Compressibility (1/GPa) = 0.03362109
#
# Stress axis : x y z
#
# Youngs Moduli (GPa) = 56.71645 59.64341 89.39284
#
# Poissons Ratio (x) = -0.21912 0.45144
# Poissons Ratio (y) = -0.20837 0.41170
# Poissons Ratio (z) = 0.28642 0.27469
#
# Static dielectric constant tensor:
#      x y z
#    x 1.794090 0.000000 0.001940 
#    y 0.000000 1.789100 0.000000 
#    z 0.001940 0.000000 1.810250 
# 
# From -- ./inp_files/15858.got.cif
#   From: 2010.05.17/outbox.cif.g08.bks.cpg/sg9_8_cif.got.tgz:15858.got - 2010.06.03 20:04:27.
