data_PCOD9134673
_publ_section_title
;
Structure prediction by ZEFSAII (Michael W. Deem and Ramdas Pophale) SiO2 
 PCOD9134673
Probable space group: C C
;
_chemical_formula_sum "Si O2"
_cell_formula_units_Z 32
_cell_length_a 8.640696
_cell_length_b 12.928574
_cell_length_c 17.368702
_cell_angle_alpha 90.000000
_cell_angle_beta 46.035378
_cell_angle_gamma 90.000000
_cell_volume 1396.560020
_symmetry_space_group_name_H-M "C C"
_symmetry_group_IT_number 9
_symmetry_cell_setting 'monoclinic'
loop_
_space_group_symop_operation_xyz
x,y,z
x,-y,1/2+z
1/2+x,1/2+y,z
1/2+x,1/2-y,1/2+z
loop_
_atom_site_type_symbol
_atom_site_label
_atom_site_fract_x
_atom_site_fract_y
_atom_site_fract_z
Si Si1 0.160140 0.136569 0.098750
Si Si2 0.412511 0.159793 0.456862
Si Si3 0.773068 0.968711 0.083812
Si Si4 0.384743 0.152642 0.699436
Si Si5 0.763205 0.012734 0.265220
Si Si6 0.538858 0.663982 0.692369
Si Si7 0.518060 0.745192 0.545109
Si Si8 0.113644 0.131063 0.939039
O O1 0.392869 0.160799 0.051584
O O2 0.023912 0.243618 0.148684
O O3 0.995847 0.064372 0.201284
O O4 0.181395 0.106355 0.002351
O O5 0.577725 0.077790 0.368239
O O6 0.226958 0.109660 0.573819
O O7 0.528484 0.251088 0.463853
O O8 0.268375 0.221463 0.443552
O O9 0.731645 0.014532 0.183738
O O10 0.551810 0.937324 0.118692
O O11 0.900167 0.861244 0.058406
O O12 0.923130 0.049653 0.987532
O O13 0.169886 0.174738 0.725011
O O14 0.305227 0.125286 0.812418
O O15 0.815607 0.896774 0.273767
O O16 0.500635 0.756776 0.644725
#
# Coordination Sequence:
#
# PCOD9134673 Si02
#       8
#     4   4   4   4   4   4   4   4
#     4  10  19  39  64  88 125 158 208 267 307 377
#     4  10  20  38  62  86 124 160 202 256 319 368
#     4   9  22  37  59  89 124 160 209 253 308 378
#     4  11  21  39  62  90 127 164 204 259 316 372
#     4  10  20  37  63  90 121 168 205 260 311 371
#     4   9  21  39  58  88 126 162 206 262 308 371
#     4   8  19  39  60  84 124 161 201 262 313 363
#     4  11  22  38  64  91 121 167 207 253 322 370
#
# _framework density 22.913444999999999
#
# number of rings (size 3 to 8) (size 9 to 14) (size 15 to 20)
#    0.750    1.500    2.500    0.000    1.750    2.000 
#    0.000    3.750    0.000    0.000    0.000    0.000 
#    0.000    0.000    0.000    0.000    0.000    0.000 
#
# Total GULP energy -89185.199550 kJ/mol
# GULP energy per Si atom -5574.074972 kJ/mol
# Density = 2.286129 g / cm^3
# Si number density = 22.913445 Si / 1000 Ang^3
#
#
#
# Elastic Constant Matrix: (Units=GPa)
#
#
# Indices 1 2 3 4 5 6 
#
# 1 87.9297 1.7420 10.9611 -0.0001 -14.5504 0.0001
# 2 1.7420 36.3334 5.4880 -0.0001 -10.7556 0.0001
# 3 10.9611 5.4880 63.1281 0.0000 -13.4419 0.0000
# 4 -0.0001 -0.0001 0.0000 32.0439 0.0000 -14.8106
# 5 -14.5504 -10.7556 -13.4419 0.0000 21.2408 -0.0001
# 6 0.0001 0.0001 0.0000 -14.8106 -0.0001 30.1849
#
#
#
# Elastic Compliance Matrix: (Units=1/GPa)
#
#
# Indices 1 2 3 4 5 6 
#
# 1 0.013005 0.002353 -0.000361 0.000000 0.009872 0.000000
# 2 0.002353 0.032835 0.000717 0.000000 0.018692 0.000000
# 3 -0.000361 0.000717 0.018337 0.000000 0.011720 0.000000
# 4 0.000000 0.000000 0.000000 0.040360 0.000000 0.019803
# 5 0.009872 0.018692 0.011720 0.000000 0.070723 0.000000
# 6 0.000000 0.000000 0.000000 0.019803 0.000000 0.042846
#
#
# Mechanical properties :
#
#
# Convention : Reuss Voigt Hill
#
# Bulk Modulus (GPa) = 14.36870 24.86372 19.61621
# Shear Modulus (GPa) = 21.19678 27.97394 24.58536
#
# Velocity S-wave (km/s) = 3.04481 3.49786 3.27917
# Velocity P-wave (km/s) = 4.31806 5.21422 4.78716
#
# Compressibility (1/GPa) = 0.06959571
#
# Stress axis : x y z
#
# Youngs Moduli (GPa) = 76.89582 30.45521 54.53565
#
# Poissons Ratio (x) = -0.07167 0.01967
# Poissons Ratio (y) = -0.18095 -0.03910
# Poissons Ratio (z) = 0.02773 -0.02184
#
# Static dielectric constant tensor:
#      x y z
#    x 1.920780 0.000000 0.010020 
#    y 0.000000 1.922020 0.000000 
#    z 0.010020 0.000000 1.860440 
# 
# From -- ./inp_files/29386.got.cif
#   From: 2010.05.17/outbox.cif.g08.bks.cpg/sg9_15_cif.got.tgz:29386.got - 2010.06.03 20:04:27.
