data_PCOD9134279
_publ_section_title
;
Structure prediction by ZEFSAII (Michael W. Deem and Ramdas Pophale) SiO2 
 PCOD9134279
Probable space group: C C
;
_chemical_formula_sum "Si O2"
_cell_formula_units_Z 24
_cell_length_a 4.840646
_cell_length_b 25.491182
_cell_length_c 7.659230
_cell_angle_alpha 90.000000
_cell_angle_beta 71.553019
_cell_angle_gamma 90.000000
_cell_volume 896.539135
_symmetry_space_group_name_H-M "C C"
_symmetry_group_IT_number 9
_symmetry_cell_setting 'monoclinic'
loop_
_space_group_symop_operation_xyz
x,y,z
x,-y,1/2+z
1/2+x,1/2+y,z
1/2+x,1/2-y,1/2+z
loop_
_atom_site_type_symbol
_atom_site_label
_atom_site_fract_x
_atom_site_fract_y
_atom_site_fract_z
Si Si1 0.308590 0.445920 0.797590
Si Si2 0.421283 0.986070 0.578942
Si Si3 0.547382 0.356108 0.552702
Si Si4 0.657398 0.804071 0.101630
Si Si5 0.051177 0.763923 0.320309
Si Si6 0.150611 0.606108 0.846534
O O1 0.059542 0.451555 0.703068
O O2 0.437725 0.387907 0.743260
O O3 0.578608 0.485051 0.691623
O O4 0.127306 0.463980 0.002530
O O5 0.396731 0.857713 0.485817
O O6 0.495669 0.950373 0.392091
O O7 0.438140 0.299619 0.507159
O O8 0.432948 0.392296 0.413460
O O9 0.313694 0.798458 0.196249
O O10 0.681033 0.785984 0.896755
O O11 0.732056 0.862091 0.155965
O O12 0.821393 0.764942 0.207559
#
# Coordination Sequence:
#
# PCOD9134279 Si02
#       6
#     4   4   4   4   4   4
#     4  10  19  33  53  76 102 136 174 214 258 310
#     4  10  19  33  53  76 102 136 174 214 258 310
#     4   8  16  30  49  70  97 134 170 200 250 320
#     4  10  19  33  53  76 102 136 174 214 258 310
#     4  10  19  33  53  76 102 136 174 214 258 310
#     4   8  16  30  49  70  97 134 170 200 250 320
#
# _framework density 26.769604999999999
#
# number of rings (size 3 to 8) (size 9 to 14) (size 15 to 20)
#    0.000    2.667    0.000    2.000    0.000    0.000 
#    0.000    1.667    0.000    4.000    0.000    0.000 
#    0.000    0.000    0.000    0.000    0.000    0.000 
#
# Total GULP energy -66856.501986 kJ/mol
# GULP energy per Si atom -5571.375166 kJ/mol
# Density = 2.670868 g / cm^3
# Si number density = 26.769605 Si / 1000 Ang^3
#
#
#
# Elastic Constant Matrix: (Units=GPa)
#
#
# Indices 1 2 3 4 5 6 
#
# 1 160.0913 -1.2411 31.1741 0.0000 15.8676 0.0000
# 2 -1.2411 84.5308 -8.1510 0.0000 1.1932 0.0000
# 3 31.1741 -8.1510 106.6996 0.0000 -6.5122 0.0000
# 4 0.0000 0.0000 0.0000 38.0645 0.0000 -1.3786
# 5 15.8676 1.1932 -6.5122 0.0000 22.0567 0.0000
# 6 0.0000 0.0000 0.0000 -1.3786 0.0000 30.0584
#
#
#
# Elastic Compliance Matrix: (Units=1/GPa)
#
#
# Indices 1 2 3 4 5 6 
#
# 1 0.007331 -0.000050 -0.002513 0.000000 -0.006013 0.000000
# 2 -0.000050 0.011921 0.000904 0.000000 -0.000342 0.000000
# 3 -0.002513 0.000904 0.010471 0.000000 0.004850 0.000000
# 4 0.000000 0.000000 0.000000 0.026315 0.000000 0.001207
# 5 -0.006013 -0.000342 0.004850 0.000000 0.051114 0.000000
# 6 0.000000 0.000000 0.000000 0.001207 0.000000 0.033324
#
#
# Mechanical properties :
#
#
# Convention : Reuss Voigt Hill
#
# Bulk Modulus (GPa) = 37.86784 43.87619 40.87202
# Shear Modulus (GPa) = 32.76618 40.00521 36.38570
#
# Velocity S-wave (km/s) = 3.50238 3.86998 3.69076
# Velocity P-wave (km/s) = 5.52558 6.03281 5.78476
#
# Compressibility (1/GPa) = 0.02640763
#
# Stress axis : x y z
#
# Youngs Moduli (GPa) = 136.39986 83.88338 95.49834
#
# Poissons Ratio (x) = 0.00418 0.23997
# Poissons Ratio (y) = 0.00679 -0.08636
# Poissons Ratio (z) = 0.34275 -0.07586
#
# Static dielectric constant tensor:
#      x y z
#    x 1.947710 0.000000 -0.040630 
#    y 0.000000 2.300080 0.000000 
#    z -0.040630 0.000000 2.185810 
# 
# From -- ./inp_files/3939.got.cif
#   From: 2010.05.17/outbox.cif.g08.bks.cpg/sg9_2_cif.got.tgz:3939.got - 2010.06.03 20:04:27.
