data_PCOD9134683
_publ_section_title
;
Structure prediction by ZEFSAII (Michael W. Deem and Ramdas Pophale) SiO2 
 PCOD9134683
Probable space group: C C
;
_chemical_formula_sum "Si O2"
_cell_formula_units_Z 32
_cell_length_a 12.511134
_cell_length_b 7.823325
_cell_length_c 13.919070
_cell_angle_alpha 90.000000
_cell_angle_beta 107.925504
_cell_angle_gamma 90.000000
_cell_volume 1296.246686
_symmetry_space_group_name_H-M "C C"
_symmetry_group_IT_number 9
_symmetry_cell_setting 'monoclinic'
loop_
_space_group_symop_operation_xyz
x,y,z
x,-y,1/2+z
1/2+x,1/2+y,z
1/2+x,1/2-y,1/2+z
loop_
_atom_site_type_symbol
_atom_site_label
_atom_site_fract_x
_atom_site_fract_y
_atom_site_fract_z
Si Si1 0.089540 0.255279 0.500000
Si Si2 0.990811 0.369385 0.666251
Si Si3 0.209271 0.952753 0.761860
Si Si4 0.443612 0.505090 0.691527
Si Si5 0.729652 0.072207 0.545217
Si Si6 0.189906 0.578237 0.768696
Si Si7 0.255955 0.951908 0.549589
Si Si8 0.851657 0.784538 0.836327
O O1 0.072457 0.277594 0.610592
O O2 0.144769 0.432657 0.482772
O O3 0.966928 0.225712 0.424995
O O4 0.173564 0.102202 0.495994
O O5 0.062193 0.510869 0.741706
O O6 0.890782 0.456556 0.577268
O O7 0.944799 0.210642 0.717462
O O8 0.074635 0.967826 0.723161
O O9 0.225578 0.765653 0.810785
O O10 0.245268 0.953218 0.661508
O O11 0.281700 0.108894 0.823449
O O12 0.359863 0.511561 0.577034
O O13 0.391135 0.355674 0.742736
O O14 0.708138 0.079863 0.656380
O O15 0.716776 0.264618 0.505413
O O16 0.267691 0.437557 0.839590
#
# Coordination Sequence:
#
# PCOD9134683 Si02
#       8
#     4   4   4   4   4   4   4   4
#     4  11  22  40  60  91 135 166 202 267 329 377
#     4  10  20  40  69  93 120 170 229 270 302 383
#     4  11  21  38  65  90 122 167 221 262 313 383
#     4  10  19  39  66  87 123 164 218 269 305 371
#     4   8  19  36  58  90 115 155 219 260 292 379
#     4   9  19  37  60  90 115 164 219 259 308 374
#     4  10  20  37  64  90 115 167 215 257 315 368
#     4  11  24  39  58  95 137 167 203 270 330 387
#
# _framework density 24.686658000000001
#
# number of rings (size 3 to 8) (size 9 to 14) (size 15 to 20)
#    0.000    2.000    2.500    2.250    3.500    2.000 
#    0.000    2.500    0.000    0.000    0.000    0.000 
#    0.000    0.000    0.000    0.000    0.000    0.000 
#
# Total GULP energy -89363.930483 kJ/mol
# GULP energy per Si atom -5585.245655 kJ/mol
# Density = 2.463047 g / cm^3
# Si number density = 24.686658 Si / 1000 Ang^3
#
#
#
# Elastic Constant Matrix: (Units=GPa)
#
#
# Indices 1 2 3 4 5 6 
#
# 1 90.1857 63.6094 26.3571 0.0000 30.2355 0.0000
# 2 63.6094 217.7831 68.5090 0.0000 25.5309 0.0000
# 3 26.3571 68.5090 67.6741 0.0000 6.6634 0.0000
# 4 0.0000 0.0000 0.0000 37.7847 0.0000 0.3359
# 5 30.2355 25.5309 6.6634 0.0000 37.2879 0.0000
# 6 0.0000 0.0000 0.0000 0.3359 0.0000 96.8241
#
#
#
# Elastic Compliance Matrix: (Units=1/GPa)
#
#
# Indices 1 2 3 4 5 6 
#
# 1 0.018072 -0.002963 -0.002846 0.000000 -0.012117 0.000000
# 2 -0.002963 0.007690 -0.006463 0.000000 -0.001708 0.000000
# 3 -0.002846 -0.006463 0.022155 0.000000 0.002774 0.000000
# 4 0.000000 0.000000 0.000000 0.026467 0.000000 -0.000092
# 5 -0.012117 -0.001708 0.002774 0.000000 0.037318 0.000000
# 6 0.000000 0.000000 0.000000 -0.000092 0.000000 0.010328
#
#
# Mechanical properties :
#
#
# Convention : Reuss Voigt Hill
#
# Bulk Modulus (GPa) = 42.78414 76.95489 59.86952
# Shear Modulus (GPa) = 32.39067 48.85716 40.62392
#
# Velocity S-wave (km/s) = 3.62618 4.45352 4.06098
# Velocity P-wave (km/s) = 5.90769 7.59510 6.80391
#
# Compressibility (1/GPa) = 0.02337314
#
# Stress axis : x y z
#
# Youngs Moduli (GPa) = 55.33456 130.03069 45.13615
#
# Poissons Ratio (x) = 0.38522 0.12847
# Poissons Ratio (y) = 0.16393 0.29173
# Poissons Ratio (z) = 0.15750 0.84043
#
# Static dielectric constant tensor:
#      x y z
#    x 2.099030 0.000000 -0.053870 
#    y 0.000000 1.815320 0.000000 
#    z -0.053870 0.000000 1.999880 
# 
# From -- ./inp_files/33598.got.cif
#   From: 2010.05.17/outbox.cif.g08.bks.cpg/sg9_17_cif.got.tgz:33598.got - 2010.06.03 20:04:27.
