data_PCOD9134555
_publ_section_title
;
Structure prediction by ZEFSAII (Michael W. Deem and Ramdas Pophale) SiO2 
 PCOD9134555
Probable space group: C C
;
_chemical_formula_sum "Si O2"
_cell_formula_units_Z 32
_cell_length_a 21.856353
_cell_length_b 9.327215
_cell_length_c 28.366693
_cell_angle_alpha 90.000000
_cell_angle_beta 162.342487
_cell_angle_gamma 90.000000
_cell_volume 1754.077620
_symmetry_space_group_name_H-M "C C"
_symmetry_group_IT_number 9
_symmetry_cell_setting 'monoclinic'
loop_
_space_group_symop_operation_xyz
x,y,z
x,-y,1/2+z
1/2+x,1/2+y,z
1/2+x,1/2-y,1/2+z
loop_
_atom_site_type_symbol
_atom_site_label
_atom_site_fract_x
_atom_site_fract_y
_atom_site_fract_z
Si Si1 0.969020 0.641936 0.193920
Si Si2 0.695194 0.591033 0.533722
Si Si3 0.379531 0.617560 0.695295
Si Si4 0.948012 0.524318 0.387158
Si Si5 0.020546 0.552724 0.040472
Si Si6 0.840992 0.280941 0.237980
Si Si7 0.379784 0.342497 0.304814
Si Si8 0.794988 0.340484 0.466325
O O1 0.878256 0.488954 0.141454
O O2 0.834810 0.759769 0.123904
O O3 0.189321 0.688482 0.374694
O O4 0.943131 0.668646 0.119498
O O5 0.779050 0.675802 0.640062
O O6 0.551515 0.693705 0.397051
O O7 0.543581 0.463209 0.439051
O O8 0.401085 0.678792 0.763839
O O9 0.600801 0.567151 0.841830
O O10 0.192161 0.511932 0.560808
O O11 0.854791 0.424577 0.279139
O O12 0.901847 0.691355 0.346253
O O13 0.893705 0.475316 0.399879
O O14 0.172649 0.680637 0.138278
O O15 0.161675 0.414407 0.152546
O O16 0.895100 0.593461 0.994036
#
# Coordination Sequence:
#
# PCOD9134555 Si02
#       8
#     4   4   4   4   4   4   4   4
#     4  10  20  35  65  85 115 153 207 244 292 359
#     4  11  20  38  56  95 117 158 196 251 310 338
#     4   9  18  34  62  94 107 147 201 263 281 346
#     4  11  20  37  62  91 114 159 204 249 302 355
#     4  10  24  39  57  90 125 162 195 253 299 368
#     4  11  24  34  60  89 131 150 192 255 313 352
#     4  10  19  37  65  85 120 152 213 247 298 352
#     4  10  21  36  61  87 121 155 202 244 297 356
#
# _framework density 18.243205
#
# number of rings (size 3 to 8) (size 9 to 14) (size 15 to 20)
#    0.750    1.000    3.750    0.750    5.250    0.000 
#    0.000    0.000    5.500    0.000    0.000    0.000 
#    0.000    0.000    0.000    0.000    0.000    0.000 
#
# Total GULP energy -89142.214069 kJ/mol
# GULP energy per Si atom -5571.388379 kJ/mol
# Density = 1.820168 g / cm^3
# Si number density = 18.243205 Si / 1000 Ang^3
#
#
#
# Elastic Constant Matrix: (Units=GPa)
#
#
# Indices 1 2 3 4 5 6 
#
# 1 122.1201 26.9941 31.5109 -0.0165 -11.0671 0.0023
# 2 26.9941 83.7911 24.3734 -0.0074 -14.8366 -0.0061
# 3 31.5109 24.3734 47.9984 -0.0120 -20.7775 -0.0134
# 4 -0.0165 -0.0074 -0.0120 27.2350 -0.0097 -8.3032
# 5 -11.0671 -14.8366 -20.7775 -0.0097 28.2607 -0.0002
# 6 0.0023 -0.0061 -0.0134 -8.3032 -0.0002 22.6439
#
#
#
# Elastic Compliance Matrix: (Units=1/GPa)
#
#
# Indices 1 2 3 4 5 6 
#
# 1 0.010082 -0.001655 -0.006520 0.000001 -0.001715 -0.000005
# 2 -0.001655 0.014464 -0.004770 0.000003 0.003438 0.000002
# 3 -0.006520 -0.004770 0.037180 0.000029 0.022278 0.000032
# 4 0.000001 0.000003 0.000029 0.041339 0.000037 0.015158
# 5 -0.001715 0.003438 0.022278 0.000037 0.052897 0.000028
# 6 -0.000005 0.000002 0.000032 0.015158 0.000028 0.049720
#
#
# Mechanical properties :
#
#
# Convention : Reuss Voigt Hill
#
# Bulk Modulus (GPa) = 27.90520 46.62962 37.26741
# Shear Modulus (GPa) = 20.53235 27.02999 23.78117
#
# Velocity S-wave (km/s) = 3.35846 3.85339 3.61441
# Velocity P-wave (km/s) = 5.51075 6.73897 6.15557
#
# Compressibility (1/GPa) = 0.03583562
#
# Stress axis : x y z
#
# Youngs Moduli (GPa) = 99.19118 69.13781 26.89583
#
# Poissons Ratio (x) = 0.11441 0.17537
# Poissons Ratio (y) = 0.16414 0.12829
# Poissons Ratio (z) = 0.64677 0.32978
#
# Static dielectric constant tensor:
#      x y z
#    x 1.604770 0.000000 -0.007080 
#    y 0.000000 1.636050 -0.000010 
#    z -0.007080 -0.000010 1.680680 
# 
# From -- ./inp_files/36945.got.cif
#   From: 2010.05.17/outbox.cif.g08.bks.cpg/sg9_19_cif.got.tgz:36945.got - 2010.06.03 20:04:27.
