data_PCOD9134270
_publ_section_title
;
Structure prediction by ZEFSAII (Michael W. Deem and Ramdas Pophale) SiO2 
 PCOD9134270
Probable space group: C C
;
_chemical_formula_sum "Si O2"
_cell_formula_units_Z 32
_cell_length_a 17.484097
_cell_length_b 17.131760
_cell_length_c 10.706936
_cell_angle_alpha 90.000000
_cell_angle_beta 26.620567
_cell_angle_gamma 90.000000
_cell_volume 1437.030483
_symmetry_space_group_name_H-M "C C"
_symmetry_group_IT_number 9
_symmetry_cell_setting 'monoclinic'
loop_
_space_group_symop_operation_xyz
x,y,z
x,-y,1/2+z
1/2+x,1/2+y,z
1/2+x,1/2-y,1/2+z
loop_
_atom_site_type_symbol
_atom_site_label
_atom_site_fract_x
_atom_site_fract_y
_atom_site_fract_z
Si Si1 0.928480 0.433176 0.239340
Si Si2 0.111146 0.023612 0.365218
Si Si3 0.596617 0.184208 0.639344
Si Si4 0.225910 0.734849 0.699983
Si Si5 0.226687 0.065769 0.470510
Si Si6 0.221530 0.780407 0.090952
Si Si7 0.870015 0.702102 0.627085
Si Si8 0.383729 0.660770 0.703388
O O1 0.768075 0.430370 0.569687
O O2 0.908680 0.522505 0.224606
O O3 0.897514 0.374137 0.170273
O O4 0.087256 0.397570 0.080776
O O5 0.062598 0.208386 0.438156
O O6 0.153113 0.024751 0.452566
O O7 0.937070 0.071846 0.612695
O O8 0.681954 0.177984 0.649494
O O9 0.706692 0.250147 0.410909
O O10 0.404340 0.219241 0.920978
O O11 0.256773 0.686576 0.779839
O O12 0.236656 0.159293 0.452786
O O13 0.115667 0.048286 0.759717
O O14 0.332068 0.818084 0.039457
O O15 0.027853 0.761268 0.405962
O O16 0.298161 0.694708 0.952127
#
# Coordination Sequence:
#
# PCOD9134270 Si02
#       8
#     4   4   4   4   4   4   4   4
#     4  10  21  39  66  94 129 172 225 273 330 410
#     4  10  21  42  69  96 127 179 227 270 334 421
#     4  11  18  37  62  98 127 168 223 287 323 394
#     4  10  19  32  60  96 130 156 218 291 329 372
#     4  10  23  42  66  98 134 180 217 271 356 414
#     4  12  25  38  66  97 137 179 220 283 343 402
#     4  12  22  39  63  99 131 176 231 276 333 401
#     4  11  21  39  64  98 129 176 229 275 334 404
#
# _framework density 22.268142999999998
#
# number of rings (size 3 to 8) (size 9 to 14) (size 15 to 20)
#    0.750    0.500    3.750    3.750    1.750    0.000 
#    0.000    0.000    5.500    1.500    0.000    0.000 
#    0.000    0.000    0.000    0.000    0.000    0.000 
#
# Total GULP energy -89156.125918 kJ/mol
# GULP energy per Si atom -5572.257870 kJ/mol
# Density = 2.221746 g / cm^3
# Si number density = 22.268143 Si / 1000 Ang^3
#
#
#
# Elastic Constant Matrix: (Units=GPa)
#
#
# Indices 1 2 3 4 5 6 
#
# 1 132.1378 14.8268 9.7280 0.0002 -2.9966 -0.0005
# 2 14.8268 62.6716 2.3759 0.0018 -3.4470 -0.0009
# 3 9.7280 2.3759 49.8848 0.0045 -5.9438 -0.0027
# 4 0.0002 0.0018 0.0045 26.0936 -0.0009 8.5978
# 5 -2.9966 -3.4470 -5.9438 -0.0009 25.0514 0.0009
# 6 -0.0005 -0.0009 -0.0027 8.5978 0.0009 14.4151
#
#
#
# Elastic Compliance Matrix: (Units=1/GPa)
#
#
# Indices 1 2 3 4 5 6 
#
# 1 0.007881 -0.001791 -0.001408 0.000000 0.000362 0.000000
# 2 -0.001791 0.016498 -0.000197 -0.000002 0.002009 0.000002
# 3 -0.001408 -0.000197 0.020898 -0.000006 0.004763 0.000007
# 4 0.000000 -0.000002 -0.000006 0.047697 0.000001 -0.028449
# 5 0.000362 0.002009 0.004763 0.000001 0.041368 -0.000002
# 6 0.000000 0.000002 0.000007 -0.028449 -0.000002 0.086340
#
#
# Mechanical properties :
#
#
# Convention : Reuss Voigt Hill
#
# Bulk Modulus (GPa) = 25.98537 33.17284 29.57911
# Shear Modulus (GPa) = 20.80712 27.62957 24.21834
#
# Velocity S-wave (km/s) = 3.06009 3.52627 3.30142
# Velocity P-wave (km/s) = 4.91734 5.61327 5.27679
#
# Compressibility (1/GPa) = 0.03848319
#
# Stress axis : x y z
#
# Youngs Moduli (GPa) = 126.89182 60.61376 47.85215
#
# Poissons Ratio (x) = 0.10857 0.06739
# Poissons Ratio (y) = 0.22728 0.00943
# Poissons Ratio (z) = 0.17871 0.01195
#
# Static dielectric constant tensor:
#      x y z
#    x 1.914170 0.000000 0.062410 
#    y 0.000000 1.933470 0.000000 
#    z 0.062410 0.000000 1.830190 
# 
# From -- ./inp_files/19460.got.cif
#   From: 2010.05.17/outbox.cif.g08.bks.cpg/sg9_10_cif.got.tgz:19460.got - 2010.06.03 20:04:27.
