data_PCOD9134036
_publ_section_title
;
Structure prediction by ZEFSAII (Michael W. Deem and Ramdas Pophale) SiO2 
 PCOD9134036
Probable space group: C C
;
_chemical_formula_sum "Si O2"
_cell_formula_units_Z 32
_cell_length_a 10.101204
_cell_length_b 12.292616
_cell_length_c 9.312467
_cell_angle_alpha 90.000000
_cell_angle_beta 89.486866
_cell_angle_gamma 90.000000
_cell_volume 1156.284721
_symmetry_space_group_name_H-M "C C"
_symmetry_group_IT_number 9
_symmetry_cell_setting 'monoclinic'
loop_
_space_group_symop_operation_xyz
x,y,z
x,-y,1/2+z
1/2+x,1/2+y,z
1/2+x,1/2-y,1/2+z
loop_
_atom_site_type_symbol
_atom_site_label
_atom_site_fract_x
_atom_site_fract_y
_atom_site_fract_z
Si Si1 0.684580 0.137922 0.366510
Si Si2 0.899663 0.379943 0.768994
Si Si3 0.744441 0.000517 0.613995
Si Si4 0.600708 0.654507 0.036509
Si Si5 0.453546 0.092235 0.669919
Si Si6 0.861001 0.854326 0.320199
Si Si7 0.575754 0.763098 0.353717
Si Si8 0.198054 0.912201 0.009210
O O1 0.526790 0.111074 0.371516
O O2 0.762585 0.042416 0.451279
O O3 0.686661 0.256884 0.441311
O O4 0.717484 0.113153 0.197866
O O5 0.921571 0.465339 0.647074
O O6 0.890122 0.255930 0.730594
O O7 0.771788 0.418611 0.855102
O O8 0.612869 0.076768 0.643120
O O9 0.863129 0.050904 0.705100
O O10 0.465237 0.642278 0.947090
O O11 0.654211 0.532640 0.050394
O O12 0.573857 0.706236 0.193887
O O13 0.462812 0.147255 0.828123
O O14 0.318741 0.139316 0.601760
O O15 0.714299 0.825889 0.380149
O O16 0.578334 0.670878 0.475256
#
# Coordination Sequence:
#
# PCOD9134036 Si02
#       8
#     4   4   4   4   4   4   4   4
#     4  10  19  37  63  90 122 161 211 254 303 370
#     4   9  18  33  60  88 115 152 201 256 299 366
#     4  10  19  36  63  94 121 164 209 254 305 371
#     4  11  21  38  59  85 122 164 208 250 316 374
#     4  10  18  34  62  89 113 152 209 256 302 375
#     4   9  18  35  59  85 115 160 201 242 312 373
#     4  10  19  36  59  84 114 156 207 248 316 366
#     4  11  20  33  59  87 118 157 198 260 307 375
#
# _framework density 27.674845999999999
#
# number of rings (size 3 to 8) (size 9 to 14) (size 15 to 20)
#    0.000    2.000    3.750    3.000    0.000    0.000 
#    2.250    1.250   22.000    0.000    0.000    0.000 
#    0.000    0.000    0.000    0.000    0.000    0.000 
#
# Total GULP energy -89128.671978 kJ/mol
# GULP energy per Si atom -5570.541999 kJ/mol
# Density = 2.761186 g / cm^3
# Si number density = 27.674846 Si / 1000 Ang^3
#
#
#
# Elastic Constant Matrix: (Units=GPa)
#
#
# Indices 1 2 3 4 5 6 
#
# 1 62.6681 22.7115 51.5834 0.0000 20.0163 0.0000
# 2 22.7115 105.8293 32.0624 0.0000 9.5581 0.0000
# 3 51.5834 32.0624 118.3833 0.0000 32.4243 0.0000
# 4 0.0000 0.0000 0.0000 35.5140 0.0000 5.0639
# 5 20.0163 9.5581 32.4243 0.0000 49.2768 0.0000
# 6 0.0000 0.0000 0.0000 5.0639 0.0000 29.3624
#
#
#
# Elastic Compliance Matrix: (Units=1/GPa)
#
#
# Indices 1 2 3 4 5 6 
#
# 1 0.025929 -0.002303 -0.009651 0.000000 -0.003735 0.000000
# 2 -0.002303 0.010500 -0.001877 0.000000 0.000134 0.000000
# 3 -0.009651 -0.001877 0.014623 0.000000 -0.005337 0.000000
# 4 0.000000 0.000000 0.000000 0.028868 0.000000 -0.004979
# 5 -0.003735 0.000134 -0.005337 0.000000 0.025297 0.000000
# 6 0.000000 0.000000 0.000000 -0.004979 0.000000 0.034916
#
#
# Mechanical properties :
#
#
# Convention : Reuss Voigt Hill
#
# Bulk Modulus (GPa) = 42.75522 55.51061 49.13291
# Shear Modulus (GPa) = 28.47525 34.86551 31.67038
#
# Velocity S-wave (km/s) = 3.21116 3.55325 3.38653
# Velocity P-wave (km/s) = 5.40661 6.07749 5.75184
#
# Compressibility (1/GPa) = 0.02338896
#
# Stress axis : x y z
#
# Youngs Moduli (GPa) = 38.56694 95.23824 68.38677
#
# Poissons Ratio (x) = 0.21935 0.66002
# Poissons Ratio (y) = 0.08883 0.12835
# Poissons Ratio (z) = 0.37222 0.17875
#
# Static dielectric constant tensor:
#      x y z
#    x 2.260790 0.000000 -0.089970 
#    y 0.000000 2.254550 0.000000 
#    z -0.089970 0.000000 2.323440 
# 
# From -- ./inp_files/16596.got.cif
#   From: 2010.05.17/outbox.cif.g08.bks.cpg/sg9_9_cif.got.tgz:16596.got - 2010.06.03 20:04:27.
