data_PCOD9134063
_publ_section_title
;
Structure prediction by ZEFSAII (Michael W. Deem and Ramdas Pophale) SiO2 
 PCOD9134063
Probable space group: C C
;
_chemical_formula_sum "Si O2"
_cell_formula_units_Z 32
_cell_length_a 6.811109
_cell_length_b 18.669827
_cell_length_c 19.911680
_cell_angle_alpha 90.000000
_cell_angle_beta 146.034409
_cell_angle_gamma 90.000000
_cell_volume 1414.623127
_symmetry_space_group_name_H-M "C C"
_symmetry_group_IT_number 9
_symmetry_cell_setting 'monoclinic'
loop_
_space_group_symop_operation_xyz
x,y,z
x,-y,1/2+z
1/2+x,1/2+y,z
1/2+x,1/2-y,1/2+z
loop_
_atom_site_type_symbol
_atom_site_label
_atom_site_fract_x
_atom_site_fract_y
_atom_site_fract_z
Si Si1 0.865380 0.649384 0.710750
Si Si2 0.353067 0.531632 0.729969
Si Si3 0.386868 0.988972 0.760674
Si Si4 0.711145 0.101621 0.459175
Si Si5 0.712616 0.677549 0.811112
Si Si6 0.295702 0.223433 0.279422
Si Si7 0.880968 0.506158 0.482901
Si Si8 0.340655 0.379977 0.563479
O O1 0.973356 0.567572 0.758013
O O2 0.583713 0.639060 0.572517
O O3 0.662644 0.680468 0.717792
O O4 0.155660 0.707175 0.777142
O O5 0.616869 0.502601 0.746650
O O6 0.450224 0.614970 0.761757
O O7 0.977130 0.522325 0.587506
O O8 0.496042 0.493372 0.838288
O O9 0.687958 0.947888 0.886668
O O10 0.169547 0.935635 0.649481
O O11 0.426247 0.163180 0.367070
O O12 0.612646 0.057497 0.498775
O O13 0.609161 0.749339 0.820178
O O14 0.113874 0.651254 0.937714
O O15 0.995309 0.185460 0.149830
O O16 0.042700 0.426799 0.516785
#
# Coordination Sequence:
#
# PCOD9134063 Si02
#       8
#     4   4   4   4   4   4   4   4
#     4  11  21  37  63  84 117 161 202 244 303 369
#     4   8  14  26  52  78 103 139 191 233 281 343
#     4   8  16  31  61  85 104 153 204 237 287 356
#     4  10  18  35  59  87 115 154 202 246 301 362
#     4  10  20  36  55  81 121 156 190 243 303 364
#     4  11  24  35  56  91 124 152 195 256 313 360
#     4   9  14  29  57  84 100 150 204 235 286 365
#     4   9  17  35  59  84 112 157 198 240 300 357
#
# _framework density 22.620867000000001
#
# number of rings (size 3 to 8) (size 9 to 14) (size 15 to 20)
#    0.000    2.500    3.750    2.250    0.000    1.000 
#    0.000    0.000   11.000   18.000    0.000    0.000 
#    0.000    0.000    0.000    0.000    0.000    0.000 
#
# Total GULP energy -89204.966391 kJ/mol
# GULP energy per Si atom -5575.310399 kJ/mol
# Density = 2.256938 g / cm^3
# Si number density = 22.620867 Si / 1000 Ang^3
#
#
#
# Elastic Constant Matrix: (Units=GPa)
#
#
# Indices 1 2 3 4 5 6 
#
# 1 33.0101 32.1079 20.3904 -0.0008 0.6581 -0.0002
# 2 32.1079 94.3282 40.0363 -0.0014 -6.0143 -0.0005
# 3 20.3904 40.0363 160.1617 -0.0080 -19.4843 0.0008
# 4 -0.0008 -0.0014 -0.0080 30.5364 0.0008 -2.1740
# 5 0.6581 -6.0143 -19.4843 0.0008 17.7871 0.0004
# 6 -0.0002 -0.0005 0.0008 -2.1740 0.0004 27.6995
#
#
#
# Elastic Compliance Matrix: (Units=1/GPa)
#
#
# Indices 1 2 3 4 5 6 
#
# 1 0.047701 -0.015428 -0.003537 0.000000 -0.010856 0.000000
# 2 -0.015428 0.016861 -0.001716 0.000000 0.004392 0.000000
# 3 -0.003537 -0.001716 0.008155 0.000002 0.008484 0.000000
# 4 0.000000 0.000000 0.000002 0.032932 0.000000 0.002585
# 5 -0.010856 0.004392 0.008484 0.000000 0.067400 -0.000001
# 6 0.000000 0.000000 0.000000 0.002585 -0.000001 0.036305
#
#
# Mechanical properties :
#
#
# Convention : Reuss Voigt Hill
#
# Bulk Modulus (GPa) = 31.89278 52.50768 42.20023
# Shear Modulus (GPa) = 19.14477 28.20229 23.67353
#
# Velocity S-wave (km/s) = 2.91234 3.53475 3.23853
# Velocity P-wave (km/s) = 5.04365 6.31836 5.71665
#
# Compressibility (1/GPa) = 0.03135506
#
# Stress axis : x y z
#
# Youngs Moduli (GPa) = 20.96396 59.30798 122.62187
#
# Poissons Ratio (x) = 0.91498 0.43372
# Poissons Ratio (y) = 0.32342 0.21048
# Poissons Ratio (z) = 0.07415 0.10180
#
# Static dielectric constant tensor:
#      x y z
#    x 1.878070 0.000000 0.015680 
#    y 0.000000 1.817090 0.000000 
#    z 0.015680 0.000000 1.899710 
# 
# From -- ./inp_files/35088.got.cif
#   From: 2010.05.17/outbox.cif.g08.bks.cpg/sg9_18_cif.got.tgz:35088.got - 2010.06.03 20:04:27.
