data_PCOD9134142
_publ_section_title
;
Structure prediction by ZEFSAII (Michael W. Deem and Ramdas Pophale) SiO2 
 PCOD9134142
Probable space group: C C
;
_chemical_formula_sum "Si O2"
_cell_formula_units_Z 28
_cell_length_a 9.932128
_cell_length_b 15.162990
_cell_length_c 9.523566
_cell_angle_alpha 90.000000
_cell_angle_beta 65.414219
_cell_angle_gamma 90.000000
_cell_volume 1304.225705
_symmetry_space_group_name_H-M "C C"
_symmetry_group_IT_number 9
_symmetry_cell_setting 'monoclinic'
loop_
_space_group_symop_operation_xyz
x,y,z
x,-y,1/2+z
1/2+x,1/2+y,z
1/2+x,1/2-y,1/2+z
loop_
_atom_site_type_symbol
_atom_site_label
_atom_site_fract_x
_atom_site_fract_y
_atom_site_fract_z
Si Si1 0.050140 0.339315 0.232160
Si Si2 0.308787 0.234728 0.018951
Si Si3 0.331265 0.842362 0.821328
Si Si4 0.510911 0.592633 0.421520
Si Si5 0.400817 0.494321 0.715502
Si Si6 0.608565 0.042640 0.213875
Si Si7 0.767882 0.845657 0.404439
O O1 0.072260 0.442042 0.182107
O O2 0.146317 0.330930 0.334511
O O3 0.883421 0.314639 0.353132
O O4 0.138203 0.269741 0.094522
O O5 0.403226 0.324856 0.988885
O O6 0.340084 0.180801 0.149773
O O7 0.171483 0.885394 0.906840
O O8 0.457895 0.908152 0.815057
O O9 0.332814 0.750472 0.904507
O O10 0.449019 0.510668 0.536326
O O11 0.503534 0.567842 0.261524
O O12 0.230308 0.463001 0.784657
O O13 0.393276 0.590852 0.787612
O O14 0.686086 0.103551 0.063589
#
# Coordination Sequence:
#
# PCOD9134142 Si02
#       7
#     4   4   4   4   4   4   4
#     4  10  20  33  66  93 120 169 223 265 312 394
#     4  11  18  38  65  92 120 176 220 258 315 413
#     4  11  22  36  69  95 127 166 230 264 320 394
#     4  12  22  41  63 101 123 175 213 280 323 398
#     4  11  23  40  66  89 131 167 224 258 341 387
#     4  11  21  39  64  96 123 172 215 273 317 391
#     4  10  18  37  65  86 118 173 217 248 316 405
#
# _framework density 21.468678000000001
#
# number of rings (size 3 to 8) (size 9 to 14) (size 15 to 20)
#    0.000    1.143   10.000    0.000    0.000    1.143 
#    0.000    1.429    6.286    0.000    0.000    0.000 
#    0.000    0.000    0.000    0.000    0.000    0.000 
#
# Total GULP energy -78118.373970 kJ/mol
# GULP energy per Si atom -5579.883855 kJ/mol
# Density = 2.141981 g / cm^3
# Si number density = 21.468678 Si / 1000 Ang^3
#
#
#
# Elastic Constant Matrix: (Units=GPa)
#
#
# Indices 1 2 3 4 5 6 
#
# 1 35.9089 41.2140 11.4587 0.0000 -8.4657 0.0000
# 2 41.2140 97.0474 28.6368 0.0000 -17.4774 0.0000
# 3 11.4587 28.6368 66.3097 0.0000 -23.4430 0.0000
# 4 0.0000 0.0000 0.0000 45.3662 0.0000 -11.5818
# 5 -8.4657 -17.4774 -23.4430 0.0000 18.7876 0.0000
# 6 0.0000 0.0000 0.0000 -11.5818 0.0000 21.5172
#
#
#
# Elastic Compliance Matrix: (Units=1/GPa)
#
#
# Indices 1 2 3 4 5 6 
#
# 1 0.054839 -0.022874 0.002890 0.000000 0.007038 0.000000
# 2 -0.022874 0.022115 -0.003523 0.000000 0.005870 0.000000
# 3 0.002890 -0.003523 0.027564 0.000000 0.032420 0.000000
# 4 0.000000 0.000000 0.000000 0.025554 0.000000 0.013755
# 5 0.007038 0.005870 0.032420 0.000000 0.102312 0.000000
# 6 0.000000 0.000000 0.000000 0.013755 0.000000 0.053878
#
#
# Mechanical properties :
#
#
# Convention : Reuss Voigt Hill
#
# Bulk Modulus (GPa) = 17.38991 40.20946 28.79968
# Shear Modulus (GPa) = 14.18666 24.99796 19.59231
#
# Velocity S-wave (km/s) = 2.57341 3.41602 3.02420
# Velocity P-wave (km/s) = 4.11675 5.85909 5.06343
#
# Compressibility (1/GPa) = 0.05750462
#
# Stress axis : x y z
#
# Youngs Moduli (GPa) = 18.23525 45.21789 36.27909
#
# Poissons Ratio (x) = 1.03433 -0.10485
# Poissons Ratio (y) = 0.41712 0.12779
# Poissons Ratio (z) = -0.05270 0.15928
#
# Static dielectric constant tensor:
#      x y z
#    x 1.741620 0.000000 -0.014780 
#    y 0.000000 1.798150 0.000000 
#    z -0.014780 0.000000 1.865550 
# 
# From -- ./inp_files/16654.got.cif
#   From: 2010.05.17/outbox.cif.g08.bks.cpg/sg9_9_cif.got.tgz:16654.got - 2010.06.03 20:04:27.
