data_PCOD9134406
_publ_section_title
;
Structure prediction by ZEFSAII (Michael W. Deem and Ramdas Pophale) SiO2 
 PCOD9134406
Probable space group: C C
;
_chemical_formula_sum "Si O2"
_cell_formula_units_Z 32
_cell_length_a 12.254624
_cell_length_b 8.578510
_cell_length_c 13.401967
_cell_angle_alpha 90.000000
_cell_angle_beta 70.555630
_cell_angle_gamma 90.000000
_cell_volume 1328.544294
_symmetry_space_group_name_H-M "C C"
_symmetry_group_IT_number 9
_symmetry_cell_setting 'monoclinic'
loop_
_space_group_symop_operation_xyz
x,y,z
x,-y,1/2+z
1/2+x,1/2+y,z
1/2+x,1/2-y,1/2+z
loop_
_atom_site_type_symbol
_atom_site_label
_atom_site_fract_x
_atom_site_fract_y
_atom_site_fract_z
Si Si1 0.685500 0.105941 0.482180
Si Si2 0.992128 0.720189 0.403734
Si Si3 0.407321 0.005155 0.773453
Si Si4 0.585388 0.544809 0.658194
Si Si5 0.123135 0.690218 0.716352
Si Si6 0.816974 0.286616 0.134739
Si Si7 0.663315 0.555276 0.928691
Si Si8 0.820571 0.977526 0.272919
O O1 0.575733 0.101309 0.440676
O O2 0.649861 0.087834 0.607306
O O3 0.716834 0.288828 0.463528
O O4 0.784743 0.009061 0.398305
O O5 0.967511 0.643638 0.305428
O O6 0.883984 0.744122 0.511096
O O7 0.068925 0.877158 0.380989
O O8 0.494371 0.139424 0.788781
O O9 0.384458 0.070331 0.669071
O O10 0.275821 0.980624 0.849461
O O11 0.616884 0.371947 0.690779
O O12 0.686302 0.662437 0.656912
O O13 0.597779 0.535581 0.534022
O O14 0.451822 0.572484 0.720638
O O15 0.226693 0.642095 0.757292
O O16 0.814712 0.140036 0.211141
#
# Coordination Sequence:
#
# PCOD9134406 Si02
#       8
#     4   4   4   4   4   4   4   4
#     4   9  18  37  60  91 120 167 216 256 315 392
#     4  10  19  35  65  97 120 169 225 256 328 401
#     4  12  19  36  69  94 125 172 217 269 332 386
#     4  11  23  42  63  95 133 165 224 272 325 393
#     4  11  22  40  67  94 128 176 220 267 328 398
#     4  12  22  41  68  96 131 175 218 279 331 390
#     4   9  17  35  63  88 122 168 205 267 323 384
#     4  12  22  44  65  89 135 178 213 274 336 384
#
# _framework density 24.086514000000001
#
# number of rings (size 3 to 8) (size 9 to 14) (size 15 to 20)
#    0.750    0.500    7.500    0.000    0.000    0.000 
#    4.500    1.250    0.000    0.000    0.000    0.000 
#    0.000    0.000    0.000    0.000    0.000    0.000 
#
# Total GULP energy -89296.322483 kJ/mol
# GULP energy per Si atom -5581.020155 kJ/mol
# Density = 2.403169 g / cm^3
# Si number density = 24.086514 Si / 1000 Ang^3
#
#
#
# Elastic Constant Matrix: (Units=GPa)
#
#
# Indices 1 2 3 4 5 6 
#
# 1 157.4358 43.2044 23.5068 0.0000 -19.8647 0.0000
# 2 43.2044 68.6521 30.8357 0.0000 6.2906 0.0000
# 3 23.5068 30.8357 41.0148 0.0000 -16.8192 0.0000
# 4 0.0000 0.0000 0.0000 10.9765 0.0000 14.5585
# 5 -19.8647 6.2906 -16.8192 0.0000 47.2592 0.0000
# 6 0.0000 0.0000 0.0000 14.5585 0.0000 39.8801
#
#
#
# Elastic Compliance Matrix: (Units=1/GPa)
#
#
# Indices 1 2 3 4 5 6 
#
# 1 0.008604 -0.007132 0.002697 0.000000 0.005526 0.000000
# 2 -0.007132 0.033245 -0.028044 0.000000 -0.017404 0.000000
# 3 0.002697 -0.028044 0.053761 0.000000 0.024000 0.000000
# 4 0.000000 0.000000 0.000000 0.176622 0.000000 -0.064477
# 5 0.005526 -0.017404 0.024000 0.000000 0.034340 0.000000
# 6 0.000000 0.000000 0.000000 -0.064477 0.000000 0.048613
#
#
# Mechanical properties :
#
#
# Convention : Reuss Voigt Hill
#
# Bulk Modulus (GPa) = 32.62370 51.35516 41.98943
# Shear Modulus (GPa) = 11.61818 30.92689 21.27253
#
# Velocity S-wave (km/s) = 2.19863 3.58717 2.97504
# Velocity P-wave (km/s) = 4.47427 6.20681 5.41034
#
# Compressibility (1/GPa) = 0.03065256
#
# Stress axis : x y z
#
# Youngs Moduli (GPa) = 116.23148 30.07943 18.60075
#
# Poissons Ratio (x) = 0.21453 -0.05017
# Poissons Ratio (y) = 0.82897 0.52163
# Poissons Ratio (z) = -0.31347 0.84354
#
# Static dielectric constant tensor:
#      x y z
#    x 1.906840 0.000000 0.027370 
#    y 0.000000 1.937470 0.000000 
#    z 0.027370 0.000000 1.984860 
# 
# From -- ./inp_files/24649.got.cif
#   From: 2010.05.17/outbox.cif.g08.bks.cpg/sg9_13_cif.got.tgz:24649.got - 2010.06.03 20:04:27.
