data_PCOD9134718
_publ_section_title
;
Structure prediction by ZEFSAII (Michael W. Deem and Ramdas Pophale) SiO2 
 PCOD9134718
Probable space group: C C
;
_chemical_formula_sum "Si O2"
_cell_formula_units_Z 32
_cell_length_a 23.835945
_cell_length_b 7.757550
_cell_length_c 11.032710
_cell_angle_alpha 90.000000
_cell_angle_beta 46.067859
_cell_angle_gamma 90.000000
_cell_volume 1469.160951
_symmetry_space_group_name_H-M "C C"
_symmetry_group_IT_number 9
_symmetry_cell_setting 'monoclinic'
loop_
_space_group_symop_operation_xyz
x,y,z
x,-y,1/2+z
1/2+x,1/2+y,z
1/2+x,1/2-y,1/2+z
loop_
_atom_site_type_symbol
_atom_site_label
_atom_site_fract_x
_atom_site_fract_y
_atom_site_fract_z
Si Si1 0.058310 0.274182 0.002150
Si Si2 0.357539 0.333507 0.319209
Si Si3 0.711611 0.855809 0.677703
Si Si4 0.919118 0.160405 0.359383
Si Si5 0.133287 0.204640 0.554542
Si Si6 0.537550 0.462785 0.850331
Si Si7 0.269675 0.709881 0.701213
Si Si8 0.518050 0.852008 0.538477
O O1 0.996490 0.261181 0.203841
O O2 0.152163 0.288451 0.870244
O O3 0.042487 0.106654 0.945861
O O4 0.032142 0.453049 0.979391
O O5 0.297144 0.281005 0.517089
O O6 0.391960 0.519530 0.303031
O O7 0.308590 0.350704 0.269277
O O8 0.428542 0.202055 0.193275
O O9 0.665495 0.811843 0.621769
O O10 0.730088 0.052755 0.686952
O O11 0.843931 0.270001 0.511399
O O12 0.951809 0.047118 0.421743
O O13 0.096879 0.028570 0.659413
O O14 0.200576 0.171059 0.354430
O O15 0.065968 0.312319 0.589009
O O16 0.552259 0.279514 0.888412
#
# Coordination Sequence:
#
# PCOD9134718 Si02
#       8
#     4   4   4   4   4   4   4   4
#     4  11  23  40  66 103 127 177 236 274 339 405
#     4  10  20  39  66  93 135 183 213 278 340 401
#     4   9  21  38  66  95 133 178 221 275 343 404
#     4  11  20  39  67  95 136 179 224 274 344 402
#     4  10  21  39  64  96 136 173 229 276 333 407
#     4  11  22  42  65  96 139 182 217 285 339 405
#     4  10  19  40  63  97 133 179 224 274 337 408
#     4  12  22  41  67 101 135 173 230 290 333 406
#
# _framework density 21.781140000000001
#
# number of rings (size 3 to 8) (size 9 to 14) (size 15 to 20)
#    0.000    1.500    5.000    0.000    0.000    2.000 
#    0.000    5.000    0.000   18.000    0.000    0.000 
#    0.000    0.000    0.000    0.000    0.000    0.000 
#
# Total GULP energy -89164.781867 kJ/mol
# GULP energy per Si atom -5572.798867 kJ/mol
# Density = 2.173156 g / cm^3
# Si number density = 21.781140 Si / 1000 Ang^3
#
#
#
# Elastic Constant Matrix: (Units=GPa)
#
#
# Indices 1 2 3 4 5 6 
#
# 1 68.3323 0.5272 -2.4658 0.0000 -11.3062 0.0000
# 2 0.5272 58.5523 22.8490 0.0000 -5.4911 0.0000
# 3 -2.4658 22.8490 176.3917 0.0000 -45.7717 0.0000
# 4 0.0000 0.0000 0.0000 27.3403 0.0000 -4.0241
# 5 -11.3062 -5.4911 -45.7717 0.0000 30.5730 0.0000
# 6 0.0000 0.0000 0.0000 -4.0241 0.0000 15.9847
#
#
#
# Elastic Compliance Matrix: (Units=1/GPa)
#
#
# Indices 1 2 3 4 5 6 
#
# 1 0.016490 -0.000334 0.003010 0.000000 0.010545 0.000000
# 2 -0.000334 0.017998 -0.002501 0.000000 -0.000635 0.000000
# 3 0.003010 -0.002501 0.010151 0.000000 0.015861 0.000000
# 4 0.000000 0.000000 0.000000 0.037983 0.000000 0.009562
# 5 0.010545 -0.000635 0.015861 0.000000 0.060241 0.000000
# 6 0.000000 0.000000 0.000000 0.009562 0.000000 0.064967
#
#
# Mechanical properties :
#
#
# Convention : Reuss Voigt Hill
#
# Bulk Modulus (GPa) = 22.22750 38.34415 30.28582
# Shear Modulus (GPa) = 22.47421 33.60399 28.03910
#
# Velocity S-wave (km/s) = 3.21568 3.93211 3.59180
# Velocity P-wave (km/s) = 4.90046 6.18529 5.57998
#
# Compressibility (1/GPa) = 0.04498932
#
# Stress axis : x y z
#
# Youngs Moduli (GPa) = 60.64188 55.56131 98.51136
#
# Poissons Ratio (x) = 0.01857 -0.29652
# Poissons Ratio (y) = 0.02027 0.24637
# Poissons Ratio (z) = -0.18253 0.13895
#
# Static dielectric constant tensor:
#      x y z
#    x 1.803270 0.000000 0.018730 
#    y 0.000000 1.760590 0.000000 
#    z 0.018730 0.000000 1.936410 
# 
# From -- ./inp_files/21154.got.cif
#   From: 2010.05.17/outbox.cif.g08.bks.cpg/sg9_11_cif.got.tgz:21154.got - 2010.06.03 20:04:27.
