data_PCOD9134053
_publ_section_title
;
Structure prediction by ZEFSAII (Michael W. Deem and Ramdas Pophale) SiO2 
 PCOD9134053
Probable space group: C C
;
_chemical_formula_sum "Si O2"
_cell_formula_units_Z 24
_cell_length_a 26.640701
_cell_length_b 7.555130
_cell_length_c 5.393208
_cell_angle_alpha 90.000000
_cell_angle_beta 97.868418
_cell_angle_gamma 90.000000
_cell_volume 1075.292309
_symmetry_space_group_name_H-M "C C"
_symmetry_group_IT_number 9
_symmetry_cell_setting 'monoclinic'
loop_
_space_group_symop_operation_xyz
x,y,z
x,-y,1/2+z
1/2+x,1/2+y,z
1/2+x,1/2-y,1/2+z
loop_
_atom_site_type_symbol
_atom_site_label
_atom_site_fract_x
_atom_site_fract_y
_atom_site_fract_z
Si Si1 0.106150 0.286125 0.161020
Si Si2 0.387336 0.616658 0.995513
Si Si3 0.252061 0.548242 0.766601
Si Si4 0.647173 0.170664 0.189384
Si Si5 0.294795 0.889918 0.908921
Si Si6 0.499765 0.611355 0.007155
O O1 0.110566 0.499295 0.179288
O O2 0.130688 0.223659 0.436295
O O3 0.048837 0.229462 0.086724
O O4 0.139102 0.232191 0.942881
O O5 0.384141 0.524018 0.264761
O O6 0.444285 0.695211 0.007894
O O7 0.344867 0.766712 0.932867
O O8 0.279034 0.536215 0.521272
O O9 0.201504 0.428797 0.707244
O O10 0.248654 0.753144 0.830413
O O11 0.293265 0.024818 0.679248
O O12 0.502445 0.464113 0.228805
#
# Coordination Sequence:
#
# PCOD9134053 Si02
#       6
#     4   4   4   4   4   4
#     4  10  18  35  55  87 114 150 196 259 279 344
#     4  10  21  43  68  92 121 172 214 246 303 401
#     4  12  21  41  70  87 118 172 217 253 299 387
#     4  10  19  35  59  80 116 148 215 242 278 358
#     4  12  26  43  62  98 133 153 203 276 331 361
#     4  10  21  37  60  88 124 159 201 244 308 369
#
# _framework density 22.319514000000002
#
# number of rings (size 3 to 8) (size 9 to 14) (size 15 to 20)
#    0.000    1.333    3.333    4.000    0.000    0.000 
#    6.000    1.667    0.000    0.000    0.000    0.000 
#    0.000    0.000    0.000    0.000    0.000    0.000 
#
# Total GULP energy -66947.956949 kJ/mol
# GULP energy per Si atom -5578.996412 kJ/mol
# Density = 2.226871 g / cm^3
# Si number density = 22.319514 Si / 1000 Ang^3
#
#
#
# Elastic Constant Matrix: (Units=GPa)
#
#
# Indices 1 2 3 4 5 6 
#
# 1 121.5315 16.5063 13.8963 0.0000 12.9004 0.0000
# 2 16.5063 41.5658 11.5174 0.0000 -1.7031 0.0000
# 3 13.8963 11.5174 184.0348 0.0000 1.9543 0.0000
# 4 0.0000 0.0000 0.0000 35.3569 0.0000 9.2535
# 5 12.9004 -1.7031 1.9543 0.0000 28.8895 0.0000
# 6 0.0000 0.0000 0.0000 9.2535 0.0000 46.9087
#
#
#
# Elastic Compliance Matrix: (Units=1/GPa)
#
#
# Indices 1 2 3 4 5 6 
#
# 1 0.009241 -0.003731 -0.000418 0.000000 -0.004318 0.000000
# 2 -0.003731 0.026058 -0.001384 0.000000 0.003296 0.000000
# 3 -0.000418 -0.001384 0.005555 0.000000 -0.000270 0.000000
# 4 0.000000 0.000000 0.000000 0.029823 0.000000 -0.005883
# 5 -0.004318 0.003296 -0.000270 0.000000 0.036756 0.000000
# 6 0.000000 0.000000 0.000000 -0.005883 0.000000 0.022479
#
#
# Mechanical properties :
#
#
# Convention : Reuss Voigt Hill
#
# Bulk Modulus (GPa) = 33.57087 47.88579 40.72833
# Shear Modulus (GPa) = 33.13293 42.57847 37.85570
#
# Velocity S-wave (km/s) = 3.85708 4.37244 4.12282
# Velocity P-wave (km/s) = 5.90845 6.85509 6.39930
#
# Compressibility (1/GPa) = 0.02978773
#
# Stress axis : x y z
#
# Youngs Moduli (GPa) = 108.21040 38.37546 180.02306
#
# Poissons Ratio (x) = 0.14317 0.07533
# Poissons Ratio (y) = 0.40371 0.24917
# Poissons Ratio (z) = 0.04528 0.05312
#
# Static dielectric constant tensor:
#      x y z
#    x 1.887850 0.000000 -0.017720 
#    y 0.000000 1.805220 0.000000 
#    z -0.017720 0.000000 1.974570 
# 
# From -- ./inp_files/3357.got.cif
#   From: 2010.05.17/outbox.cif.g08.bks.cpg/sg9_2_cif.got.tgz:3357.got - 2010.06.03 20:04:27.
