data_PCOD9134932
_publ_section_title
;
Structure prediction by ZEFSAII (Michael W. Deem and Ramdas Pophale) SiO2 
 PCOD9134932
Probable space group: C C
;
_chemical_formula_sum "Si O2"
_cell_formula_units_Z 32
_cell_length_a 14.457649
_cell_length_b 13.611479
_cell_length_c 14.070501
_cell_angle_alpha 90.000000
_cell_angle_beta 33.498040
_cell_angle_gamma 90.000000
_cell_volume 1528.197927
_symmetry_space_group_name_H-M "C C"
_symmetry_group_IT_number 9
_symmetry_cell_setting 'monoclinic'
loop_
_space_group_symop_operation_xyz
x,y,z
x,-y,1/2+z
1/2+x,1/2+y,z
1/2+x,1/2-y,1/2+z
loop_
_atom_site_type_symbol
_atom_site_label
_atom_site_fract_x
_atom_site_fract_y
_atom_site_fract_z
Si Si1 0.702340 0.574607 0.144430
Si Si2 0.493520 0.382873 0.296164
Si Si3 0.474413 0.956415 0.792597
Si Si4 0.763403 0.336413 0.298162
Si Si5 0.473688 0.323956 0.693254
Si Si6 0.234091 0.497903 0.415015
Si Si7 0.697509 0.789118 0.667634
Si Si8 0.891535 0.554922 0.159978
O O1 0.583478 0.479198 0.260399
O O2 0.587577 0.651929 0.186905
O O3 0.785574 0.609220 0.171014
O O4 0.851979 0.530574 0.950620
O O5 0.384264 0.421291 0.301877
O O6 0.628081 0.298641 0.160545
O O7 0.363626 0.336648 0.482225
O O8 0.553488 0.872641 0.791618
O O9 0.633181 0.005243 0.601986
O O10 0.380501 0.911456 0.779536
O O11 0.593029 0.345254 0.502127
O O12 0.901351 0.284626 0.246653
O O13 0.734423 0.264046 0.234733
O O14 0.827453 0.442546 0.213836
O O15 0.317174 0.398551 0.821982
O O16 0.090702 0.455624 0.469284
#
# Coordination Sequence:
#
# PCOD9134932 Si02
#       8
#     4   4   4   4   4   4   4   4
#     4  11  21  39  65  88 132 172 209 253 328 389
#     4  10  20  35  57  92 123 165 201 268 315 364
#     4   9  21  38  59  92 130 165 205 268 317 377
#     4  12  23  35  63  98 126 162 215 269 319 362
#     4  11  23  38  59  92 133 163 208 268 315 379
#     4   8  20  39  57  85 130 162 209 258 318 379
#     4  11  21  34  58  94 128 155 211 269 316 362
#     4  10  21  42  62  93 124 170 214 253 320 388
#
# _framework density 20.939696999999999
#
# number of rings (size 3 to 8) (size 9 to 14) (size 15 to 20)
#    0.750    1.000    2.500    2.250    3.500    0.000 
#    0.000    0.000    2.750    0.000    0.000    0.000 
#    0.000    0.000    0.000    0.000    0.000    0.000 
#
# Total GULP energy -89279.526054 kJ/mol
# GULP energy per Si atom -5579.970378 kJ/mol
# Density = 2.089204 g / cm^3
# Si number density = 20.939697 Si / 1000 Ang^3
#
#
#
# Elastic Constant Matrix: (Units=GPa)
#
#
# Indices 1 2 3 4 5 6 
#
# 1 69.9381 24.3014 21.7699 0.0003 -16.9230 -0.0001
# 2 24.3014 37.8315 10.1313 0.0000 -6.2759 0.0000
# 3 21.7699 10.1313 71.5398 0.0000 -12.2953 -0.0001
# 4 0.0003 0.0000 0.0000 29.1175 -0.0002 -6.4473
# 5 -16.9230 -6.2759 -12.2953 -0.0002 27.4326 0.0001
# 6 -0.0001 0.0000 -0.0001 -6.4473 0.0001 33.9131
#
#
#
# Elastic Compliance Matrix: (Units=1/GPa)
#
#
# Indices 1 2 3 4 5 6 
#
# 1 0.021525 -0.011407 -0.003360 0.000000 0.009163 0.000000
# 2 -0.011407 0.034147 -0.001334 0.000000 0.000177 0.000000
# 3 -0.003360 -0.001334 0.016015 0.000000 0.004800 0.000000
# 4 0.000000 0.000000 0.000000 0.035853 0.000000 0.006816
# 5 0.009163 0.000177 0.004800 0.000000 0.044298 0.000000
# 6 0.000000 0.000000 0.000000 0.006816 0.000000 0.030783
#
#
# Mechanical properties :
#
#
# Convention : Reuss Voigt Hill
#
# Bulk Modulus (GPa) = 25.32638 32.41274 28.86956
# Shear Modulus (GPa) = 21.93142 26.29976 24.11559
#
# Velocity S-wave (km/s) = 3.23981 3.54782 3.39731
# Velocity P-wave (km/s) = 5.11041 5.68290 5.40424
#
# Compressibility (1/GPa) = 0.03948452
#
# Stress axis : x y z
#
# Youngs Moduli (GPa) = 46.45762 29.28516 62.44331
#
# Poissons Ratio (x) = 0.33405 0.20980
# Poissons Ratio (y) = 0.52994 0.08331
# Poissons Ratio (z) = 0.15609 0.03907
#
# Static dielectric constant tensor:
#      x y z
#    x 1.810990 0.000000 -0.032860 
#    y 0.000000 1.743670 0.000000 
#    z -0.032860 0.000000 1.773830 
# 
# From -- ./inp_files/30749.got.cif
#   From: 2010.05.17/outbox.cif.g08.bks.cpg/sg9_16_cif.got.tgz:30749.got - 2010.06.03 20:04:27.
