data_PCOD9134262
_publ_section_title
;
Structure prediction by ZEFSAII (Michael W. Deem and Ramdas Pophale) SiO2 
 PCOD9134262
Probable space group: C C
;
_chemical_formula_sum "Si O2"
_cell_formula_units_Z 24
_cell_length_a 12.939985
_cell_length_b 13.339864
_cell_length_c 7.246336
_cell_angle_alpha 90.000000
_cell_angle_beta 63.357408
_cell_angle_gamma 90.000000
_cell_volume 1118.032077
_symmetry_space_group_name_H-M "C C"
_symmetry_group_IT_number 9
_symmetry_cell_setting 'monoclinic'
loop_
_space_group_symop_operation_xyz
x,y,z
x,-y,1/2+z
1/2+x,1/2+y,z
1/2+x,1/2-y,1/2+z
loop_
_atom_site_type_symbol
_atom_site_label
_atom_site_fract_x
_atom_site_fract_y
_atom_site_fract_z
Si Si1 0.006370 0.179360 0.030000
Si Si2 0.247380 0.092059 0.961970
Si Si3 0.831883 0.391244 0.001771
Si Si4 0.059247 0.346800 0.680241
Si Si5 0.905406 0.752216 0.000875
Si Si6 0.813926 0.156689 0.914165
O O1 0.120950 0.124442 0.002938
O O2 0.551183 0.231168 0.358752
O O3 0.943080 0.213426 0.268350
O O4 0.242759 0.976066 0.016937
O O5 0.331450 0.104418 0.720481
O O6 0.306886 0.165543 0.063022
O O7 0.955520 0.421160 0.816766
O O8 0.803544 0.277405 0.967584
O O9 0.013656 0.291676 0.531296
O O10 0.913582 0.121894 0.974905
O O11 0.187521 0.386856 0.550458
O O12 0.855220 0.841227 0.169702
#
# Coordination Sequence:
#
# PCOD9134262 Si02
#       6
#     4   4   4   4   4   4
#     4  10  19  35  59  83 118 158 193 243 290 350
#     4  12  20  37  57  91 122 151 197 246 297 346
#     4  10  21  33  57  88 117 151 191 246 292 337
#     4  10  19  36  57  86 117 154 197 243 284 357
#     4  10  19  32  56  90 114 154 201 236 290 346
#     4  10  20  37  58  88 116 156 193 242 291 352
#
# _framework density 21.466290999999998
#
# number of rings (size 3 to 8) (size 9 to 14) (size 15 to 20)
#    0.000    2.000    5.000    3.000    0.000    0.000 
#    0.000    0.000    0.000    4.000    0.000    0.000 
#    0.000    0.000    0.000    0.000    0.000    0.000 
#
# Total GULP energy -66911.738864 kJ/mol
# GULP energy per Si atom -5575.978239 kJ/mol
# Density = 2.141743 g / cm^3
# Si number density = 21.466291 Si / 1000 Ang^3
#
#
#
# Elastic Constant Matrix: (Units=GPa)
#
#
# Indices 1 2 3 4 5 6 
#
# 1 118.2604 23.4752 39.0838 0.0000 -14.5892 0.0000
# 2 23.4752 32.0638 -8.7744 0.0000 -6.2044 0.0000
# 3 39.0838 -8.7744 86.8272 0.0000 -0.6085 0.0000
# 4 0.0000 0.0000 0.0000 8.1435 0.0000 -8.0302
# 5 -14.5892 -6.2044 -0.6085 0.0000 49.3764 0.0000
# 6 0.0000 0.0000 0.0000 -8.0302 0.0000 25.5086
#
#
#
# Elastic Compliance Matrix: (Units=1/GPa)
#
#
# Indices 1 2 3 4 5 6 
#
# 1 0.013345 -0.011248 -0.007127 0.000000 0.002442 0.000000
# 2 -0.011248 0.042395 0.009362 0.000000 0.002119 0.000000
# 3 -0.007127 0.009362 0.015666 0.000000 -0.000736 0.000000
# 4 0.000000 0.000000 0.000000 0.178078 0.000000 0.056059
# 5 0.002442 0.002119 -0.000736 0.000000 0.021231 0.000000
# 6 0.000000 0.000000 0.000000 0.056059 0.000000 0.056850
#
#
# Mechanical properties :
#
#
# Convention : Reuss Voigt Hill
#
# Bulk Modulus (GPa) = 18.73319 38.30229 28.51774
# Shear Modulus (GPa) = 13.75950 28.83014 21.29482
#
# Velocity S-wave (km/s) = 2.53451 3.66873 3.15304
# Velocity P-wave (km/s) = 4.16062 5.98564 5.15454
#
# Compressibility (1/GPa) = 0.05338119
#
# Stress axis : x y z
#
# Youngs Moduli (GPa) = 74.93243 23.58750 63.83211
#
# Poissons Ratio (x) = 0.26532 0.45492
# Poissons Ratio (y) = 0.84287 -0.59762
# Poissons Ratio (z) = 0.53403 -0.22084
#
# Static dielectric constant tensor:
#      x y z
#    x 1.809720 0.000000 0.003130 
#    y 0.000000 1.835330 0.000000 
#    z 0.003130 0.000000 1.807840 
# 
# From -- ./inp_files/8223.got.cif
#   From: 2010.05.17/outbox.cif.g08.bks.cpg/sg9_5_cif.got.tgz:8223.got - 2010.06.03 20:04:27.
