data_PCOD9134848
_publ_section_title
;
Structure prediction by ZEFSAII (Michael W. Deem and Ramdas Pophale) SiO2 
 PCOD9134848
Probable space group: C C
;
_chemical_formula_sum "Si O2"
_cell_formula_units_Z 32
_cell_length_a 11.093107
_cell_length_b 8.974348
_cell_length_c 11.442035
_cell_angle_alpha 90.000000
_cell_angle_beta 72.379819
_cell_angle_gamma 90.000000
_cell_volume 1085.651927
_symmetry_space_group_name_H-M "C C"
_symmetry_group_IT_number 9
_symmetry_cell_setting 'monoclinic'
loop_
_space_group_symop_operation_xyz
x,y,z
x,-y,1/2+z
1/2+x,1/2+y,z
1/2+x,1/2-y,1/2+z
loop_
_atom_site_type_symbol
_atom_site_label
_atom_site_fract_x
_atom_site_fract_y
_atom_site_fract_z
Si Si1 0.683630 0.451749 0.351130
Si Si2 0.378976 0.244064 0.467355
Si Si3 0.950271 0.165764 0.444247
Si Si4 0.595054 0.014526 0.904746
Si Si5 0.437300 0.315405 0.198502
Si Si6 0.188102 0.001619 0.603408
Si Si7 0.082583 0.501461 0.659740
Si Si8 0.368939 0.268030 0.720807
O O1 0.553642 0.533759 0.413254
O O2 0.714938 0.405794 0.478640
O O3 0.732133 0.551332 0.220909
O O4 0.728305 0.301353 0.275596
O O5 0.367775 0.315461 0.343696
O O6 0.256322 0.147119 0.530283
O O7 0.390793 0.331824 0.585654
O O8 0.490035 0.118862 0.431023
O O9 0.025147 0.324728 0.424778
O O10 0.876852 0.169821 0.588265
O O11 0.886827 0.152316 0.337413
O O12 0.658302 0.010505 0.758925
O O13 0.654134 0.993934 0.015338
O O14 0.546052 0.443111 0.168438
O O15 0.508548 0.155353 0.179191
O O16 0.973393 0.630995 0.693994
#
# Coordination Sequence:
#
# PCOD9134848 Si02
#       8
#     4   4   4   4   4   4   4   4
#     4  10  20  32  48  77 111 141 184 234 282 342
#     4   9  17  30  50  75 103 140 184 230 286 344
#     4   9  17  29  47  73 105 140 176 224 284 340
#     4   8  13  23  41  65  91 124 164 210 264 321
#     4   9  17  29  47  73 103 139 183 229 284 344
#     4  10  20  32  48  77 110 142 187 240 287 342
#     4   8  13  23  41  65  90 121 163 206 258 322
#     4   9  17  30  50  75 103 137 175 225 285 337
#
# _framework density 29.475376000000001
#
# number of rings (size 3 to 8) (size 9 to 14) (size 15 to 20)
#    0.000    3.000    0.000    2.250    0.000    4.000 
#    0.000    0.000    0.000    0.000    0.000  105.000 
#    0.000    0.000    0.000    0.000    0.000    0.000 
#
# Total GULP energy -89226.946719 kJ/mol
# GULP energy per Si atom -5576.684170 kJ/mol
# Density = 2.940829 g / cm^3
# Si number density = 29.475376 Si / 1000 Ang^3
#
#
#
# Elastic Constant Matrix: (Units=GPa)
#
#
# Indices 1 2 3 4 5 6 
#
# 1 60.3947 27.5967 86.0535 0.0000 11.8357 0.0000
# 2 27.5967 94.3462 69.5385 0.0000 -10.1560 0.0000
# 3 86.0535 69.5385 433.0442 0.0000 33.9452 0.0000
# 4 0.0000 0.0000 0.0000 43.4162 0.0000 -11.1264
# 5 11.8357 -10.1560 33.9452 0.0000 59.2254 0.0000
# 6 0.0000 0.0000 0.0000 -11.1264 0.0000 39.2488
#
#
#
# Elastic Compliance Matrix: (Units=1/GPa)
#
#
# Indices 1 2 3 4 5 6 
#
# 1 0.025054 -0.004823 -0.003923 0.000000 -0.003585 0.000000
# 2 -0.004823 0.013607 -0.001555 0.000000 0.004188 0.000000
# 3 -0.003923 -0.001555 0.003453 0.000000 -0.001462 0.000000
# 4 0.000000 0.000000 0.000000 0.024837 0.000000 0.007041
# 5 -0.003585 0.004188 -0.001462 0.000000 0.019157 0.000000
# 6 0.000000 0.000000 0.000000 0.007041 0.000000 0.027475
#
#
# Mechanical properties :
#
#
# Convention : Reuss Voigt Hill
#
# Bulk Modulus (GPa) = 46.48514 106.01807 76.25161
# Shear Modulus (GPa) = 35.37182 55.35118 45.36150
#
# Velocity S-wave (km/s) = 3.46793 4.33815 3.92722
# Velocity P-wave (km/s) = 5.64273 7.81915 6.81834
#
# Compressibility (1/GPa) = 0.02151225
#
# Stress axis : x y z
#
# Youngs Moduli (GPa) = 39.91378 73.49226 289.59296
#
# Poissons Ratio (x) = 0.35443 1.13613
# Poissons Ratio (y) = 0.19249 0.45030
# Poissons Ratio (z) = 0.15659 0.11428
#
# Static dielectric constant tensor:
#      x y z
#    x 2.448960 0.000000 0.174600 
#    y 0.000000 2.376580 0.000000 
#    z 0.174600 0.000000 2.311600 
# 
# From -- ./inp_files/18070.got.cif
#   From: 2010.05.17/outbox.cif.g08.bks.cpg/sg9_10_cif.got.tgz:18070.got - 2010.06.03 20:04:27.
