data_PCOD9134154
_publ_section_title
;
Structure prediction by ZEFSAII (Michael W. Deem and Ramdas Pophale) SiO2 
 PCOD9134154
Probable space group: C C
;
_chemical_formula_sum "Si O2"
_cell_formula_units_Z 32
_cell_length_a 12.368194
_cell_length_b 8.197442
_cell_length_c 12.776490
_cell_angle_alpha 90.000000
_cell_angle_beta 91.252247
_cell_angle_gamma 90.000000
_cell_volume 1295.067683
_symmetry_space_group_name_H-M "C C"
_symmetry_group_IT_number 9
_symmetry_cell_setting 'monoclinic'
loop_
_space_group_symop_operation_xyz
x,y,z
x,-y,1/2+z
1/2+x,1/2+y,z
1/2+x,1/2-y,1/2+z
loop_
_atom_site_type_symbol
_atom_site_label
_atom_site_fract_x
_atom_site_fract_y
_atom_site_fract_z
Si Si1 0.418860 0.777687 0.539840
Si Si2 0.662675 0.725717 0.511704
Si Si3 0.916059 0.060865 0.355684
Si Si4 0.951289 0.428825 0.334536
Si Si5 0.681093 0.038376 0.813897
Si Si6 0.111079 0.129390 0.908797
Si Si7 0.687020 0.725379 0.125736
Si Si8 0.241493 0.901610 0.213046
O O1 0.398836 0.609188 0.476306
O O2 0.407833 0.922433 0.452814
O O3 0.316424 0.783137 0.611017
O O4 0.547089 0.773481 0.563613
O O5 0.691298 0.849595 0.419453
O O6 0.647137 0.550729 0.453889
O O7 0.663491 0.449045 0.678703
O O8 0.744852 0.708394 0.609692
O O9 0.800165 0.035034 0.303392
O O10 0.993457 0.905917 0.358521
O O11 0.970268 0.231325 0.317395
O O12 0.857127 0.466726 0.252882
O O13 0.059906 0.532258 0.328789
O O14 0.661926 0.135002 0.705935
O O15 0.190060 0.175128 0.816054
O O16 0.129026 0.238354 0.012148
#
# Coordination Sequence:
#
# PCOD9134154 Si02
#       8
#     4   4   4   4   4   4   4   4
#     4   8  18  40  55  84 123 157 194 251 308 365
#     4   9  20  36  58  83 122 159 196 251 310 372
#     4   9  20  39  65  84 123 166 203 260 314 373
#     4   9  20  42  58  82 131 158 197 260 311 364
#     4  11  21  40  59  94 122 158 208 259 306 371
#     4  10  18  38  59  91 112 162 205 243 323 365
#     4  11  21  35  65  89 121 155 209 258 299 385
#     4  11  20  36  65  85 120 165 200 252 317 371
#
# _framework density 24.709132
#
# number of rings (size 3 to 8) (size 9 to 14) (size 15 to 20)
#    0.750    1.500    3.750    0.000    1.750    1.000 
#    6.750    2.500    0.000    0.000    0.000    0.000 
#    0.000    0.000    0.000    0.000    0.000    0.000 
#
# Total GULP energy -89227.936653 kJ/mol
# GULP energy per Si atom -5576.746041 kJ/mol
# Density = 2.465289 g / cm^3
# Si number density = 24.709132 Si / 1000 Ang^3
#
#
#
# Elastic Constant Matrix: (Units=GPa)
#
#
# Indices 1 2 3 4 5 6 
#
# 1 107.2328 18.8662 28.1716 0.0000 6.1727 0.0000
# 2 18.8662 32.6630 8.6117 0.0000 2.6902 0.0000
# 3 28.1716 8.6117 89.4751 0.0000 5.9925 0.0000
# 4 0.0000 0.0000 0.0000 26.6447 0.0000 4.1465
# 5 6.1727 2.6902 5.9925 0.0000 35.0196 0.0000
# 6 0.0000 0.0000 0.0000 4.1465 0.0000 36.9831
#
#
#
# Elastic Compliance Matrix: (Units=1/GPa)
#
#
# Indices 1 2 3 4 5 6 
#
# 1 0.011128 -0.005578 -0.002897 0.000000 -0.001037 0.000000
# 2 -0.005578 0.034337 -0.001454 0.000000 -0.001406 0.000000
# 3 -0.002897 -0.001454 0.012328 0.000000 -0.001487 0.000000
# 4 0.000000 0.000000 0.000000 0.038197 0.000000 -0.004283
# 5 -0.001037 -0.001406 -0.001487 0.000000 0.029101 0.000000
# 6 0.000000 0.000000 0.000000 -0.004283 0.000000 0.027520
#
#
# Mechanical properties :
#
#
# Convention : Reuss Voigt Hill
#
# Bulk Modulus (GPa) = 26.36219 37.85222 32.10721
# Shear Modulus (GPa) = 27.01035 31.31092 29.16064
#
# Velocity S-wave (km/s) = 3.30984 3.56361 3.43907
# Velocity P-wave (km/s) = 5.02980 5.68197 5.36580
#
# Compressibility (1/GPa) = 0.03793311
#
# Stress axis : x y z
#
# Youngs Moduli (GPa) = 89.86531 29.12327 81.11554
#
# Poissons Ratio (x) = 0.16245 0.23501
# Poissons Ratio (y) = 0.50128 0.11797
# Poissons Ratio (z) = 0.26037 0.04236
#
# Static dielectric constant tensor:
#      x y z
#    x 1.971090 0.000000 -0.008610 
#    y 0.000000 2.134760 0.000000 
#    z -0.008610 0.000000 1.949500 
# 
# From -- ./inp_files/16470.got.cif
#   From: 2010.05.17/outbox.cif.g08.bks.cpg/sg9_9_cif.got.tgz:16470.got - 2010.06.03 20:04:27.
