data_PCOD9134885
_publ_section_title
;
Structure prediction by ZEFSAII (Michael W. Deem and Ramdas Pophale) SiO2 
 PCOD9134885
Probable space group: C C
;
_chemical_formula_sum "Si O2"
_cell_formula_units_Z 32
_cell_length_a 7.677729
_cell_length_b 14.121577
_cell_length_c 15.205080
_cell_angle_alpha 90.000000
_cell_angle_beta 68.600622
_cell_angle_gamma 90.000000
_cell_volume 1534.907654
_symmetry_space_group_name_H-M "C C"
_symmetry_group_IT_number 9
_symmetry_cell_setting 'monoclinic'
loop_
_space_group_symop_operation_xyz
x,y,z
x,-y,1/2+z
1/2+x,1/2+y,z
1/2+x,1/2-y,1/2+z
loop_
_atom_site_type_symbol
_atom_site_label
_atom_site_fract_x
_atom_site_fract_y
_atom_site_fract_z
Si Si1 0.767970 0.708954 0.779360
Si Si2 0.676323 0.948737 0.316512
Si Si3 0.060864 0.442341 0.150197
Si Si4 0.277900 0.875629 0.453414
Si Si5 0.893747 0.821005 0.015943
Si Si6 0.490900 0.675426 0.691264
Si Si7 0.958750 0.106847 0.325764
Si Si8 0.210106 0.022726 0.135638
O O1 0.690414 0.642684 0.873258
O O2 0.611154 0.734610 0.737630
O O3 0.855211 0.801385 0.806121
O O4 0.930435 0.646279 0.704617
O O5 0.626559 0.990723 0.228984
O O6 0.482582 0.921086 0.398054
O O7 0.791437 0.853301 0.269544
O O8 0.811515 0.019702 0.344200
O O9 0.237174 0.398453 0.068803
O O10 0.928575 0.505699 0.113980
O O11 0.303790 0.773102 0.492424
O O12 0.174247 0.937073 0.545469
O O13 0.980717 0.790780 0.093149
O O14 0.013981 0.868452 0.915706
O O15 0.601069 0.575748 0.664304
O O16 0.129663 0.085655 0.229453
#
# Coordination Sequence:
#
# PCOD9134885 Si02
#       8
#     4   4   4   4   4   4   4   4
#     4   9  19  36  55  77 107 143 179 223 272 321
#     4   9  19  35  53  77 109 142 179 221 269 322
#     4   9  18  35  55  77 108 142 178 221 268 321
#     4  10  20  35  55  78 106 143 178 219 273 325
#     4  10  20  35  55  79 108 141 177 223 271 320
#     4   9  20  37  55  77 107 141 180 225 270 321
#     4  10  20  35  54  80 110 142 180 225 271 323
#     4  10  20  34  56  81 107 144 181 221 270 323
#
# _framework density 20.848161000000001
#
# number of rings (size 3 to 8) (size 9 to 14) (size 15 to 20)
#    0.000    2.500    0.000    1.500    0.000    6.000 
#    0.000   10.000    0.000    0.000    0.000    0.000 
#    0.000    0.000    0.000    0.000    0.000    0.000 
#
# Total GULP energy -89256.665873 kJ/mol
# GULP energy per Si atom -5578.541617 kJ/mol
# Density = 2.080071 g / cm^3
# Si number density = 20.848161 Si / 1000 Ang^3
#
#
#
# Elastic Constant Matrix: (Units=GPa)
#
#
# Indices 1 2 3 4 5 6 
#
# 1 59.8895 -7.0045 20.4527 0.0000 19.5253 0.0000
# 2 -7.0045 28.5416 14.0328 0.0000 4.0960 0.0000
# 3 20.4527 14.0328 117.4469 0.0000 10.1461 0.0000
# 4 0.0000 0.0000 0.0000 44.4095 0.0000 10.9044
# 5 19.5253 4.0960 10.1461 0.0000 28.9851 0.0000
# 6 0.0000 0.0000 0.0000 10.9044 0.0000 8.1203
#
#
#
# Elastic Compliance Matrix: (Units=1/GPa)
#
#
# Indices 1 2 3 4 5 6 
#
# 1 0.024797 0.010518 -0.004128 0.000000 -0.016745 0.000000
# 2 0.010518 0.042100 -0.005915 0.000000 -0.010964 0.000000
# 3 -0.004128 -0.005915 0.009928 0.000000 0.000142 0.000000
# 4 0.000000 0.000000 0.000000 0.033595 0.000000 -0.045113
# 5 -0.016745 -0.010964 0.000142 0.000000 0.047280 0.000000
# 6 0.000000 0.000000 0.000000 -0.045113 0.000000 0.183728
#
#
# Mechanical properties :
#
#
# Convention : Reuss Voigt Hill
#
# Bulk Modulus (GPa) = 12.85763 28.98223 20.91993
# Shear Modulus (GPa) = 13.64623 28.19611 20.92117
#
# Velocity S-wave (km/s) = 2.56120 3.68156 3.17125
# Velocity P-wave (km/s) = 3.86355 5.65717 4.84410
#
# Compressibility (1/GPa) = 0.07777482
#
# Stress axis : x y z
#
# Youngs Moduli (GPa) = 40.32776 23.75324 100.72641
#
# Poissons Ratio (x) = -0.24985 0.41584
# Poissons Ratio (y) = -0.42418 0.59576
# Poissons Ratio (z) = 0.16649 0.14049
#
# Static dielectric constant tensor:
#      x y z
#    x 1.785710 0.000000 0.024760 
#    y 0.000000 1.729110 0.000000 
#    z 0.024760 0.000000 1.778470 
# 
# From -- ./inp_files/14632.got.cif
#   From: 2010.05.17/outbox.cif.g08.bks.cpg/sg9_8_cif.got.tgz:14632.got - 2010.06.03 20:04:27.
