data_PCOD9134779
_publ_section_title
;
Structure prediction by ZEFSAII (Michael W. Deem and Ramdas Pophale) SiO2 
 PCOD9134779
Probable space group: C C
;
_chemical_formula_sum "Si O2"
_cell_formula_units_Z 28
_cell_length_a 8.812084
_cell_length_b 9.748891
_cell_length_c 24.210199
_cell_angle_alpha 90.000000
_cell_angle_beta 138.185788
_cell_angle_gamma 90.000000
_cell_volume 1386.672705
_symmetry_space_group_name_H-M "C C"
_symmetry_group_IT_number 9
_symmetry_cell_setting 'monoclinic'
loop_
_space_group_symop_operation_xyz
x,y,z
x,-y,1/2+z
1/2+x,1/2+y,z
1/2+x,1/2-y,1/2+z
loop_
_atom_site_type_symbol
_atom_site_label
_atom_site_fract_x
_atom_site_fract_y
_atom_site_fract_z
Si Si1 0.063410 0.274542 0.978710
Si Si2 0.656023 0.535047 0.361958
Si Si3 0.554512 0.627936 0.573743
Si Si4 0.740131 0.336164 0.631955
Si Si5 0.215706 0.314927 0.710818
Si Si6 0.489272 0.455226 0.937610
Si Si7 0.126969 0.251887 0.804621
O O1 0.989682 0.117718 0.948013
O O2 0.872316 0.375879 0.904545
O O3 0.299639 0.318997 0.015150
O O4 0.112363 0.272425 0.058262
O O5 0.425662 0.582474 0.268917
O O6 0.623946 0.565197 0.417825
O O7 0.681272 0.374668 0.357960
O O8 0.593197 0.470663 0.603289
O O9 0.706410 0.725687 0.653246
O O10 0.593060 0.621487 0.518683
O O11 0.964948 0.379577 0.655541
O O12 0.861354 0.274141 0.718672
O O13 0.235596 0.225462 0.772876
O O14 0.242052 0.389490 0.858877
#
# Coordination Sequence:
#
# PCOD9134779 Si02
#       7
#     4   4   4   4   4   4   4
#     4  10  22  40  63  94 124 160 210 259 309 371
#     4  11  22  40  64  96 124 162 211 261 306 372
#     4  10  19  41  66  90 123 168 206 255 315 371
#     4   8  19  41  59  87 129 162 201 259 307 368
#     4   8  20  38  60  88 128 161 210 258 303 368
#     4  10  22  41  63  90 129 163 204 259 309 368
#     4   9  20  41  59  91 127 162 204 257 305 368
#
# _framework density 20.192219000000001
#
# number of rings (size 3 to 8) (size 9 to 14) (size 15 to 20)
#    0.857    1.714    0.000    0.857    2.000    4.571 
#   12.857    2.857    0.000    0.000    0.000    0.000 
#    0.000    0.000    0.000    0.000    0.000    0.000 
#
# Total GULP energy -77941.429866 kJ/mol
# GULP energy per Si atom -5567.244990 kJ/mol
# Density = 2.014626 g / cm^3
# Si number density = 20.192219 Si / 1000 Ang^3
#
#
#
# Elastic Constant Matrix: (Units=GPa)
#
#
# Indices 1 2 3 4 5 6 
#
# 1 34.4292 36.1150 26.3475 0.0000 -7.8359 0.0000
# 2 36.1150 90.1812 47.4427 0.0000 6.2802 0.0000
# 3 26.3475 47.4427 90.1946 0.0000 -3.7896 0.0000
# 4 0.0000 0.0000 0.0000 18.2274 0.0000 -2.9464
# 5 -7.8359 6.2802 -3.7896 0.0000 32.7658 0.0000
# 6 0.0000 0.0000 0.0000 -2.9464 0.0000 26.0072
#
#
#
# Elastic Compliance Matrix: (Units=1/GPa)
#
#
# Indices 1 2 3 4 5 6 
#
# 1 0.061549 -0.023364 -0.004907 0.000000 0.018630 0.000000
# 2 -0.023364 0.024710 -0.006639 0.000000 -0.011092 0.000000
# 3 -0.004907 -0.006639 0.016095 0.000000 0.001960 0.000000
# 4 0.000000 0.000000 0.000000 0.055886 0.000000 0.006331
# 5 0.018630 -0.011092 0.001960 0.000000 0.037328 0.000000
# 6 0.000000 0.000000 0.000000 0.006331 0.000000 0.039168
#
#
# Mechanical properties :
#
#
# Convention : Reuss Voigt Hill
#
# Bulk Modulus (GPa) = 30.73710 48.29061 39.51386
# Shear Modulus (GPa) = 15.85285 22.39338 19.12312
#
# Velocity S-wave (km/s) = 2.80500 3.33379 3.08076
# Velocity P-wave (km/s) = 5.07405 6.22786 5.68033
#
# Compressibility (1/GPa) = 0.03253397
#
# Stress axis : x y z
#
# Youngs Moduli (GPa) = 16.24728 40.46877 62.13152
#
# Poissons Ratio (x) = 0.94553 0.30488
# Poissons Ratio (y) = 0.37961 0.41247
# Poissons Ratio (z) = 0.07973 0.26866
#
# Static dielectric constant tensor:
#      x y z
#    x 1.738810 0.000000 -0.024560 
#    y 0.000000 1.677180 0.000000 
#    z -0.024560 0.000000 1.757770 
# 
# From -- ./inp_files/34990.got.cif
#   From: 2010.05.17/outbox.cif.g08.bks.cpg/sg9_18_cif.got.tgz:34990.got - 2010.06.03 20:04:27.
