data_PCOD9134665
_publ_section_title
;
Structure prediction by ZEFSAII (Michael W. Deem and Ramdas Pophale) SiO2 
 PCOD9134665
Probable space group: C C
;
_chemical_formula_sum "Si O2"
_cell_formula_units_Z 32
_cell_length_a 17.645862
_cell_length_b 9.201288
_cell_length_c 13.432148
_cell_angle_alpha 90.000000
_cell_angle_beta 127.666707
_cell_angle_gamma 90.000000
_cell_volume 1726.358920
_symmetry_space_group_name_H-M "C C"
_symmetry_group_IT_number 9
_symmetry_cell_setting 'monoclinic'
loop_
_space_group_symop_operation_xyz
x,y,z
x,-y,1/2+z
1/2+x,1/2+y,z
1/2+x,1/2-y,1/2+z
loop_
_atom_site_type_symbol
_atom_site_label
_atom_site_fract_x
_atom_site_fract_y
_atom_site_fract_z
Si Si1 0.865010 0.271632 0.574590
Si Si2 0.520315 0.012929 0.754054
Si Si3 0.150371 0.717960 0.475945
Si Si4 0.992339 0.192134 0.334378
Si Si5 0.141042 0.461918 0.169419
Si Si6 0.115214 0.209161 0.621197
Si Si7 0.032227 0.926120 0.257186
Si Si8 0.809831 0.170220 0.313040
O O1 0.758338 0.259674 0.532431
O O2 0.856092 0.233485 0.450422
O O3 0.928129 0.416648 0.646791
O O4 0.927787 0.144469 0.673055
O O5 0.491632 0.138458 0.807122
O O6 0.600004 0.905001 0.865750
O O7 0.577102 0.089619 0.709463
O O8 0.145224 0.650273 0.582056
O O9 0.088404 0.857750 0.395893
O O10 0.066007 0.156949 0.482212
O O11 0.889243 0.147462 0.293992
O O12 0.022306 0.096286 0.264282
O O13 0.090821 0.617911 0.104930
O O14 0.247479 0.523244 0.281813
O O15 0.080744 0.129063 0.693577
O O16 0.230001 0.785669 0.212668
#
# Coordination Sequence:
#
# PCOD9134665 Si02
#       8
#     4   4   4   4   4   4   4   4
#     4  11  19  39  67  83 123 161 207 247 305 378
#     4  11  22  38  62  95 117 163 206 252 307 364
#     4  11  20  39  66  88 117 165 211 246 303 372
#     4  12  24  38  63  92 128 154 208 263 303 366
#     4  10  19  39  65  88 118 160 210 250 299 366
#     4  10  20  40  63  83 120 169 197 250 316 360
#     4  11  23  38  61  92 123 166 201 254 315 362
#     4  10  19  39  63  87 116 166 200 242 310 368
#
# _framework density 18.536124000000001
#
# number of rings (size 3 to 8) (size 9 to 14) (size 15 to 20)
#    0.750    0.500    7.500    0.750    0.000    2.000 
#    0.000    0.000    0.000    0.000    0.000    0.000 
#    0.000    0.000    0.000    0.000    0.000    0.000 
#
# Total GULP energy -89071.058114 kJ/mol
# GULP energy per Si atom -5566.941132 kJ/mol
# Density = 1.849393 g / cm^3
# Si number density = 18.536124 Si / 1000 Ang^3
#
#
#
# Elastic Constant Matrix: (Units=GPa)
#
#
# Indices 1 2 3 4 5 6 
#
# 1 73.9407 29.5524 45.0975 0.0000 6.6751 0.0000
# 2 29.5524 79.7527 38.4719 0.0000 -1.2793 0.0000
# 3 45.0975 38.4719 96.5761 0.0000 14.7504 0.0000
# 4 0.0000 0.0000 0.0000 19.1818 0.0000 -12.3514
# 5 6.6751 -1.2793 14.7504 0.0000 34.4937 0.0000
# 6 0.0000 0.0000 0.0000 -12.3514 0.0000 9.7271
#
#
#
# Elastic Compliance Matrix: (Units=1/GPa)
#
#
# Indices 1 2 3 4 5 6 
#
# 1 0.019700 -0.003618 -0.007655 0.000000 -0.000673 0.000000
# 2 -0.003618 0.016578 -0.005473 0.000000 0.003655 0.000000
# 3 -0.007655 -0.005473 0.017026 0.000000 -0.006002 0.000000
# 4 0.000000 0.000000 0.000000 0.285888 0.000000 0.363022
# 5 -0.000673 0.003655 -0.006002 0.000000 0.031823 0.000000
# 6 0.000000 0.000000 0.000000 0.363022 0.000000 0.563772
#
#
# Mechanical properties :
#
#
# Convention : Reuss Voigt Hill
#
# Bulk Modulus (GPa) = 50.47357 52.94592 51.70975
# Shear Modulus (GPa) = 5.12881 21.82368 13.47625
#
# Velocity S-wave (km/s) = 1.66521 3.43499 2.69927
# Velocity P-wave (km/s) = 5.56652 6.66017 6.13775
#
# Compressibility (1/GPa) = 0.01981235
#
# Stress axis : x y z
#
# Youngs Moduli (GPa) = 50.76113 60.32072 58.73307
#
# Poissons Ratio (x) = 0.21823 0.44962
# Poissons Ratio (y) = 0.18365 0.32144
# Poissons Ratio (z) = 0.38859 0.33013
#
# Static dielectric constant tensor:
#      x y z
#    x 1.659600 0.000000 -0.008420 
#    y 0.000000 1.624690 0.000000 
#    z -0.008420 0.000000 1.659890 
# 
# From -- ./inp_files/25704.got.cif
#   From: 2010.05.17/outbox.cif.g08.bks.cpg/sg9_13_cif.got.tgz:25704.got - 2010.06.03 20:04:27.
