data_PCOD9134284
_publ_section_title
;
Structure prediction by ZEFSAII (Michael W. Deem and Ramdas Pophale) SiO2 
 PCOD9134284
Probable space group: C C
;
_chemical_formula_sum "Si O2"
_cell_formula_units_Z 24
_cell_length_a 32.897252
_cell_length_b 7.044241
_cell_length_c 4.942878
_cell_angle_alpha 90.000000
_cell_angle_beta 80.729750
_cell_angle_gamma 90.000000
_cell_volume 1130.483550
_symmetry_space_group_name_H-M "C C"
_symmetry_group_IT_number 9
_symmetry_cell_setting 'monoclinic'
loop_
_space_group_symop_operation_xyz
x,y,z
x,-y,1/2+z
1/2+x,1/2+y,z
1/2+x,1/2-y,1/2+z
loop_
_atom_site_type_symbol
_atom_site_label
_atom_site_fract_x
_atom_site_fract_y
_atom_site_fract_z
Si Si1 0.611730 0.632298 0.848940
Si Si2 0.699549 0.366991 0.380945
Si Si3 0.033044 0.379502 0.085649
Si Si4 0.286855 0.129422 0.655723
Si Si5 0.865316 0.126679 0.230032
Si Si6 0.454949 0.369473 0.512668
O O1 0.610163 0.551158 0.548392
O O2 0.656060 0.729140 0.860273
O O3 0.573330 0.761658 0.962175
O O4 0.699492 0.446687 0.684663
O O5 0.743052 0.270291 0.267309
O O6 0.033328 0.567398 0.899762
O O7 0.992259 0.265111 0.049744
O O8 0.326444 0.249752 0.689891
O O9 0.287466 0.056008 0.349038
O O10 0.909807 0.217538 0.117763
O O11 0.864063 0.060540 0.541044
O O12 0.457410 0.446200 0.205635
#
# Coordination Sequence:
#
# PCOD9134284 Si02
#       6
#     4   4   4   4   4   4
#     4  10  19  36  58  75 100 142 181 206 246 311
#     4   8  16  30  51  76  99 132 177 212 239 296
#     4  12  24  36  53  82 111 130 165 222 271 302
#     4  10  19  33  54  79 106 136 173 214 256 301
#     4  10  21  36  54  78 106 136 173 214 256 306
#     4  10  21  39  58  74 100 142 181 206 246 316
#
# _framework density 21.229849999999999
#
# number of rings (size 3 to 8) (size 9 to 14) (size 15 to 20)
#    0.000    2.000    0.000    4.000    0.000    1.333 
#    0.000    1.667    0.000    0.000    0.000    0.000 
#    0.000    0.000    0.000    0.000    0.000    0.000 
#
# Total GULP energy -67012.187029 kJ/mol
# GULP energy per Si atom -5584.348919 kJ/mol
# Density = 2.118153 g / cm^3
# Si number density = 21.229850 Si / 1000 Ang^3
#
#
#
# Elastic Constant Matrix: (Units=GPa)
#
#
# Indices 1 2 3 4 5 6 
#
# 1 209.6366 39.1412 -4.0641 0.0000 -24.5095 0.0000
# 2 39.1412 12.5172 -3.1930 0.0000 -10.2381 0.0000
# 3 -4.0641 -3.1930 67.2828 0.0000 6.4528 0.0000
# 4 0.0000 0.0000 0.0000 17.0460 0.0000 2.1951
# 5 -24.5095 -10.2381 6.4528 0.0000 35.3784 0.0000
# 6 0.0000 0.0000 0.0000 2.1951 0.0000 31.4088
#
#
#
# Elastic Compliance Matrix: (Units=1/GPa)
#
#
# Indices 1 2 3 4 5 6 
#
# 1 0.011793 -0.039676 -0.000868 0.000000 -0.003154 0.000000
# 2 -0.039676 0.238447 0.005026 0.000000 0.040600 0.000000
# 3 -0.000868 0.005026 0.015233 0.000000 -0.001926 0.000000
# 4 0.000000 0.000000 0.000000 0.059198 0.000000 -0.004137
# 5 -0.003154 0.040600 -0.001926 0.000000 0.038181 0.000000
# 6 0.000000 0.000000 0.000000 -0.004137 0.000000 0.032127
#
#
# Mechanical properties :
#
#
# Convention : Reuss Voigt Hill
#
# Bulk Modulus (GPa) = 5.14309 39.24497 22.19403
# Shear Modulus (GPa) = 9.41923 33.93680 21.67801
#
# Velocity S-wave (km/s) = 2.10865 4.00251 3.19895
# Velocity P-wave (km/s) = 2.89074 6.31554 4.91134
#
# Compressibility (1/GPa) = 0.19443548
#
# Stress axis : x y z
#
# Youngs Moduli (GPa) = 84.79954 4.19380 65.64537
#
# Poissons Ratio (x) = 0.16639 0.05699
# Poissons Ratio (y) = 3.36452 -0.32990
# Poissons Ratio (z) = 0.07362 -0.02108
#
# Static dielectric constant tensor:
#      x y z
#    x 1.806440 0.000000 -0.023710 
#    y 0.000000 1.742040 0.000000 
#    z -0.023710 0.000000 1.732690 
# 
# From -- ./inp_files/3370.got.cif
#   From: 2010.05.17/outbox.cif.g08.bks.cpg/sg9_2_cif.got.tgz:3370.got - 2010.06.03 20:04:27.
