data_PCOD9134812
_publ_section_title
;
Structure prediction by ZEFSAII (Michael W. Deem and Ramdas Pophale) SiO2 
 PCOD9134812
Probable space group: C C
;
_chemical_formula_sum "Si O2"
_cell_formula_units_Z 28
_cell_length_a 5.489237
_cell_length_b 13.662741
_cell_length_c 17.253108
_cell_angle_alpha 90.000000
_cell_angle_beta 113.287091
_cell_angle_gamma 90.000000
_cell_volume 1188.538059
_symmetry_space_group_name_H-M "C C"
_symmetry_group_IT_number 9
_symmetry_cell_setting 'monoclinic'
loop_
_space_group_symop_operation_xyz
x,y,z
x,-y,1/2+z
1/2+x,1/2+y,z
1/2+x,1/2-y,1/2+z
loop_
_atom_site_type_symbol
_atom_site_label
_atom_site_fract_x
_atom_site_fract_y
_atom_site_fract_z
Si Si1 0.524370 0.370082 0.427820
Si Si2 0.407742 0.837772 0.331106
Si Si3 0.679915 0.438491 0.025845
Si Si4 0.969443 0.747956 0.062037
Si Si5 0.164667 0.992403 0.703853
Si Si6 0.208922 0.616778 0.645148
Si Si7 0.464916 0.293517 0.704557
O O1 0.680873 0.344714 0.368182
O O2 0.561321 0.484439 0.451961
O O3 0.706376 0.311249 0.511822
O O4 0.216326 0.342426 0.395333
O O5 0.380083 0.736505 0.279912
O O6 0.360668 0.936052 0.273759
O O7 0.542476 0.331916 0.009033
O O8 0.669385 0.485979 0.111920
O O9 0.993101 0.418729 0.055730
O O10 0.921468 0.813785 0.131332
O O11 0.221361 0.682256 0.115776
O O12 0.179762 0.878420 0.724365
O O13 0.872012 0.025943 0.697096
O O14 0.070168 0.689479 0.686508
#
# Coordination Sequence:
#
# PCOD9134812 Si02
#       7
#     4   4   4   4   4   4   4
#     4  12  29  46  70 106 157 188 237 314 378 418
#     4  12  28  48  66 112 156 184 243 317 364 434
#     4  10  23  42  75 103 138 194 252 298 355 450
#     4  10  23  42  75 103 138 194 252 298 355 450
#     4  11  23  44  75 103 141 199 246 298 363 438
#     4  10  19  42  74 106 137 172 266 303 330 442
#     4  11  23  44  75 103 141 199 246 298 363 438
#
# _framework density 23.558354999999999
#
# number of rings (size 3 to 8) (size 9 to 14) (size 15 to 20)
#    0.000    1.143    4.286    2.571   10.000    2.286 
#    0.000    0.000    0.000    0.000    0.000    0.000 
#    0.000    0.000    0.000    0.000    0.000    0.000 
#
# Total GULP energy -78187.232683 kJ/mol
# GULP energy per Si atom -5584.802334 kJ/mol
# Density = 2.350474 g / cm^3
# Si number density = 23.558355 Si / 1000 Ang^3
#
#
#
# Elastic Constant Matrix: (Units=GPa)
#
#
# Indices 1 2 3 4 5 6 
#
# 1 65.7042 0.9403 7.4493 0.0000 15.4616 0.0000
# 2 0.9403 90.2308 15.3233 0.0000 11.5046 0.0000
# 3 7.4493 15.3233 37.3357 0.0000 9.8502 0.0000
# 4 0.0000 0.0000 0.0000 32.4465 0.0000 8.4123
# 5 15.4616 11.5046 9.8502 0.0000 49.0052 0.0000
# 6 0.0000 0.0000 0.0000 8.4123 0.0000 32.2430
#
#
#
# Elastic Compliance Matrix: (Units=1/GPa)
#
#
# Indices 1 2 3 4 5 6 
#
# 1 0.016647 0.000863 -0.002362 0.000000 -0.004980 0.000000
# 2 0.000863 0.012130 -0.004570 0.000000 -0.002201 0.000000
# 3 -0.002362 -0.004570 0.030256 0.000000 -0.004264 0.000000
# 4 0.000000 0.000000 0.000000 0.033056 0.000000 -0.008624
# 5 -0.004980 -0.002201 -0.004264 0.000000 0.023351 0.000000
# 6 0.000000 0.000000 0.000000 -0.008624 0.000000 0.033265
#
#
# Mechanical properties :
#
#
# Convention : Reuss Voigt Hill
#
# Bulk Modulus (GPa) = 21.32408 26.74406 24.03407
# Shear Modulus (GPa) = 28.33275 34.04281 31.18778
#
# Velocity S-wave (km/s) = 3.47170 3.80549 3.64243
# Velocity P-wave (km/s) = 5.01414 5.53949 5.28335
#
# Compressibility (1/GPa) = 0.04689533
#
# Stress axis : x y z
#
# Youngs Moduli (GPa) = 60.07067 82.43721 33.05173
#
# Poissons Ratio (x) = -0.07110 0.07805
# Poissons Ratio (y) = -0.05181 0.15104
# Poissons Ratio (z) = 0.14186 0.37673
#
# Static dielectric constant tensor:
#      x y z
#    x 1.945770 0.000000 -0.045380 
#    y 0.000000 1.857610 0.000000 
#    z -0.045380 0.000000 1.978050 
# 
# From -- ./inp_files/21720.got.cif
#   From: 2010.05.17/outbox.cif.g08.bks.cpg/sg9_11_cif.got.tgz:21720.got - 2010.06.03 20:04:27.
