data_PCOD9134722
_publ_section_title
;
Structure prediction by ZEFSAII (Michael W. Deem and Ramdas Pophale) SiO2 
 PCOD9134722
Probable space group: C C
;
_chemical_formula_sum "Si O2"
_cell_formula_units_Z 32
_cell_length_a 12.044635
_cell_length_b 8.427491
_cell_length_c 22.187326
_cell_angle_alpha 90.000000
_cell_angle_beta 34.070037
_cell_angle_gamma 90.000000
_cell_volume 1261.666494
_symmetry_space_group_name_H-M "C C"
_symmetry_group_IT_number 9
_symmetry_cell_setting 'monoclinic'
loop_
_space_group_symop_operation_xyz
x,y,z
x,-y,1/2+z
1/2+x,1/2+y,z
1/2+x,1/2-y,1/2+z
loop_
_atom_site_type_symbol
_atom_site_label
_atom_site_fract_x
_atom_site_fract_y
_atom_site_fract_z
Si Si1 0.296360 0.748490 0.390570
Si Si2 0.400689 0.717743 0.126987
Si Si3 0.372020 0.232683 0.452912
Si Si4 0.443039 0.910424 0.213352
Si Si5 0.394100 0.413901 0.969474
Si Si6 0.599152 0.005354 0.793078
Si Si7 0.777058 0.727406 0.352671
Si Si8 0.974150 0.919415 0.172609
O O1 0.378397 0.766885 0.286747
O O2 0.370049 0.632037 0.409874
O O3 0.059787 0.750895 0.504402
O O4 0.396573 0.911543 0.369263
O O5 0.358203 0.873517 0.184956
O O6 0.502984 0.591622 0.128363
O O7 0.201075 0.622743 0.202444
O O8 0.447565 0.400859 0.442231
O O9 0.543890 0.100280 0.375714
O O10 0.304578 0.236355 0.412286
O O11 0.175545 0.175490 0.575109
O O12 0.370397 0.076741 0.273636
O O13 0.678932 0.905765 0.097339
O O14 0.547545 0.302123 0.936444
O O15 0.776116 0.130580 0.723109
O O16 0.884665 0.884528 0.278352
#
# Coordination Sequence:
#
# PCOD9134722 Si02
#       8
#     4   4   4   4   4   4   4   4
#     4  11  21  41  62  89 127 173 215 272 340 396
#     4   9  21  38  64  85 124 164 215 268 325 406
#     4  12  24  43  68  96 135 173 227 282 337 409
#     4  11  23  40  64  94 124 172 221 271 339 403
#     4  11  26  41  65  97 137 171 228 283 333 410
#     4  10  19  40  65  85 123 171 207 270 330 393
#     4  12  24  40  66  97 128 176 216 276 347 394
#     4  10  22  41  64  93 130 166 221 276 333 407
#
# _framework density 25.363282000000002
#
# number of rings (size 3 to 8) (size 9 to 14) (size 15 to 20)
#    0.750    0.500    5.000    0.750    3.500    0.000 
#    0.000    0.000    2.750    0.000    0.000    0.000 
#    0.000    0.000    0.000    0.000    0.000    0.000 
#
# Total GULP energy -89206.422357 kJ/mol
# GULP energy per Si atom -5575.401397 kJ/mol
# Density = 2.530555 g / cm^3
# Si number density = 25.363282 Si / 1000 Ang^3
#
#
#
# Elastic Constant Matrix: (Units=GPa)
#
#
# Indices 1 2 3 4 5 6 
#
# 1 63.7335 10.9348 21.1706 0.0000 7.4662 0.0000
# 2 10.9348 63.8179 0.5723 0.0000 4.7972 0.0000
# 3 21.1706 0.5723 118.5066 0.0000 -9.6971 0.0000
# 4 0.0000 0.0000 0.0000 33.1343 0.0000 -2.0380
# 5 7.4662 4.7972 -9.6971 0.0000 35.4832 0.0000
# 6 0.0000 0.0000 0.0000 -2.0380 0.0000 28.8480
#
#
#
# Elastic Compliance Matrix: (Units=1/GPa)
#
#
# Indices 1 2 3 4 5 6 
#
# 1 0.017835 -0.002697 -0.003529 0.000000 -0.004353 0.000000
# 2 -0.002697 0.016246 0.000276 0.000000 -0.001553 0.000000
# 3 -0.003529 0.000276 0.009334 0.000000 0.003256 0.000000
# 4 0.000000 0.000000 0.000000 0.030312 0.000000 0.002141
# 5 -0.004353 -0.001553 0.003256 0.000000 0.030198 0.000000
# 6 0.000000 0.000000 0.000000 0.002141 0.000000 0.034816
#
#
# Mechanical properties :
#
#
# Convention : Reuss Voigt Hill
#
# Bulk Modulus (GPa) = 31.73102 34.60148 33.16625
# Shear Modulus (GPa) = 31.02769 33.71846 32.37307
#
# Velocity S-wave (km/s) = 3.50141 3.65008 3.57652
# Velocity P-wave (km/s) = 5.37441 5.60679 5.49183
#
# Compressibility (1/GPa) = 0.03151490
#
# Stress axis : x y z
#
# Youngs Moduli (GPa) = 56.06843 61.55363 107.13572
#
# Poissons Ratio (x) = 0.16602 0.37812
# Poissons Ratio (y) = 0.15122 -0.02960
# Poissons Ratio (z) = 0.19788 -0.01700
#
# Static dielectric constant tensor:
#      x y z
#    x 2.127710 0.000000 0.038180 
#    y 0.000000 2.086200 0.000000 
#    z 0.038180 0.000000 1.989590 
# 
# From -- ./inp_files/35572.got.cif
#   From: 2010.05.17/outbox.cif.g08.bks.cpg/sg9_18_cif.got.tgz:35572.got - 2010.06.03 20:04:27.
