data_PCOD9134498
_publ_section_title
;
Structure prediction by ZEFSAII (Michael W. Deem and Ramdas Pophale) SiO2 
 PCOD9134498
Probable space group: C C
;
_chemical_formula_sum "Si O2"
_cell_formula_units_Z 28
_cell_length_a 12.144741
_cell_length_b 18.707736
_cell_length_c 5.546825
_cell_angle_alpha 90.000000
_cell_angle_beta 123.327147
_cell_angle_gamma 90.000000
_cell_volume 1052.991609
_symmetry_space_group_name_H-M "C C"
_symmetry_group_IT_number 9
_symmetry_cell_setting 'monoclinic'
loop_
_space_group_symop_operation_xyz
x,y,z
x,-y,1/2+z
1/2+x,1/2+y,z
1/2+x,1/2-y,1/2+z
loop_
_atom_site_type_symbol
_atom_site_label
_atom_site_fract_x
_atom_site_fract_y
_atom_site_fract_z
Si Si1 0.879750 0.654292 0.853350
Si Si2 0.614676 0.569482 0.682115
Si Si3 0.150368 0.672107 0.346572
Si Si4 0.279737 0.482007 0.999096
Si Si5 0.985719 0.535272 0.661164
Si Si6 0.709783 0.249175 0.916028
Si Si7 0.082970 0.904181 0.654615
O O1 0.749407 0.615566 0.807348
O O2 0.931161 0.609222 0.687722
O O3 0.850159 0.730891 0.701588
O O4 0.994706 0.656915 0.187418
O O5 0.651572 0.484633 0.738113
O O6 0.522505 0.589719 0.345716
O O7 0.538422 0.595227 0.827053
O O8 0.227361 0.598123 0.409373
O O9 0.203554 0.706351 0.658628
O O10 0.151037 0.713766 0.089882
O O11 0.348045 0.491330 0.338851
O O12 0.144961 0.529897 0.849042
O O13 0.944547 0.512571 0.344805
O O14 0.654550 0.327408 0.770507
#
# Coordination Sequence:
#
# PCOD9134498 Si02
#       7
#     4   4   4   4   4   4   4
#     4  11  24  40  64  88 137 161 203 257 308 367
#     4   9  19  30  57  84 108 156 193 248 309 339
#     4  12  25  40  59  87 135 166 206 240 312 385
#     4  10  19  37  58  91 120 149 193 259 313 372
#     4  10  21  31  57  95 115 153 185 245 329 372
#     4  11  26  39  54  89 130 177 203 233 302 404
#     4   9  18  35  51  82 127 148 195 234 291 375
#
# _framework density 26.590907000000001
#
# number of rings (size 3 to 8) (size 9 to 14) (size 15 to 20)
#    0.000    1.714    2.857    2.571    8.000    4.571 
#    0.000    0.000    0.000    0.000    0.000    0.000 
#  128.571    0.000    0.000    0.000    0.000    0.000 
#
# Total GULP energy -78117.715462 kJ/mol
# GULP energy per Si atom -5579.836819 kJ/mol
# Density = 2.653039 g / cm^3
# Si number density = 26.590907 Si / 1000 Ang^3
#
#
#
# Elastic Constant Matrix: (Units=GPa)
#
#
# Indices 1 2 3 4 5 6 
#
# 1 114.5149 33.6772 56.6463 0.0000 -21.5131 0.0000
# 2 33.6772 109.8774 63.7339 0.0000 -13.2285 0.0000
# 3 56.6463 63.7339 208.0574 0.0000 -48.8942 0.0000
# 4 0.0000 0.0000 0.0000 55.7081 0.0000 -5.6754
# 5 -21.5131 -13.2285 -48.8942 0.0000 54.1159 0.0000
# 6 0.0000 0.0000 0.0000 -5.6754 0.0000 41.2050
#
#
#
# Elastic Compliance Matrix: (Units=1/GPa)
#
#
# Indices 1 2 3 4 5 6 
#
# 1 0.010589 -0.001954 -0.001787 0.000000 0.002117 0.000000
# 2 -0.001954 0.011437 -0.003170 0.000000 -0.000845 0.000000
# 3 -0.001787 -0.003170 0.007509 0.000000 0.005300 0.000000
# 4 0.000000 0.000000 0.000000 0.018206 0.000000 0.002508
# 5 0.002117 -0.000845 0.005300 0.000000 0.023902 0.000000
# 6 0.000000 0.000000 0.000000 0.002508 0.000000 0.024614
#
#
# Mechanical properties :
#
#
# Convention : Reuss Voigt Hill
#
# Bulk Modulus (GPa) = 63.64065 82.28495 72.96280
# Shear Modulus (GPa) = 43.35858 48.76528 46.06193
#
# Velocity S-wave (km/s) = 4.04242 4.28706 4.16654
# Velocity P-wave (km/s) = 6.76561 7.45098 7.11655
#
# Compressibility (1/GPa) = 0.01571323
#
# Stress axis : x y z
#
# Youngs Moduli (GPa) = 94.43953 87.43527 133.16787
#
# Poissons Ratio (x) = 0.17086 0.23793
# Poissons Ratio (y) = 0.18455 0.42216
# Poissons Ratio (z) = 0.16874 0.27718
#
# Static dielectric constant tensor:
#      x y z
#    x 2.160920 0.000000 0.034740 
#    y 0.000000 2.119770 0.000000 
#    z 0.034740 0.000000 2.168210 
# 
# From -- ./inp_files/2560.got.cif
#   From: 2010.05.17/outbox.cif.g08.bks.cpg/sg9_2_cif.got.tgz:2560.got - 2010.06.03 20:04:27.
