data_PCOD9134347
_publ_section_title
;
Structure prediction by ZEFSAII (Michael W. Deem and Ramdas Pophale) SiO2 
 PCOD9134347
Probable space group: C C
;
_chemical_formula_sum "Si O2"
_cell_formula_units_Z 32
_cell_length_a 11.740964
_cell_length_b 22.978553
_cell_length_c 5.444918
_cell_angle_alpha 90.000000
_cell_angle_beta 54.367425
_cell_angle_gamma 90.000000
_cell_volume 1193.947595
_symmetry_space_group_name_H-M "C C"
_symmetry_group_IT_number 9
_symmetry_cell_setting 'monoclinic'
loop_
_space_group_symop_operation_xyz
x,y,z
x,-y,1/2+z
1/2+x,1/2+y,z
1/2+x,1/2-y,1/2+z
loop_
_atom_site_type_symbol
_atom_site_label
_atom_site_fract_x
_atom_site_fract_y
_atom_site_fract_z
Si Si1 0.983860 0.443440 0.167930
Si Si2 0.771907 0.077717 0.245237
Si Si3 0.057209 0.785918 0.000233
Si Si4 0.690905 0.482337 0.038172
Si Si5 0.400223 0.889156 0.783760
Si Si6 0.886796 0.886805 0.088965
Si Si7 0.676339 0.807223 0.089057
Si Si8 0.815323 0.733135 0.539213
O O1 0.840211 0.481380 0.353696
O O2 0.960756 0.400780 0.434619
O O3 0.983746 0.424226 0.884074
O O4 0.144123 0.465396 0.977753
O O5 0.875002 0.077820 0.350168
O O6 0.689880 0.141410 0.372244
O O7 0.850768 0.079647 0.885966
O O8 0.028523 0.847798 0.910875
O O9 0.929157 0.782655 0.349822
O O10 0.195555 0.775020 0.984248
O O11 0.040754 0.727799 0.852033
O O12 0.618150 0.497263 0.875986
O O13 0.743247 0.416219 0.980131
O O14 0.394172 0.827276 0.920151
O O15 0.760766 0.839217 0.200178
O O16 0.751301 0.750666 0.878084
#
# Coordination Sequence:
#
# PCOD9134347 Si02
#       8
#     4   4   4   4   4   4   4   4
#     4  10  19  34  61  82 119 150 192 238 313 362
#     4  10  19  36  52  83 104 153 195 246 288 356
#     4  12  23  41  51  82 111 169 205 253 288 343
#     4   8  16  33  52  81 117 146 177 241 311 367
#     4  10  22  34  53  87 118 154 189 245 304 363
#     4  10  22  38  52  75 113 149 206 247 288 339
#     4  10  23  36  57  77 115 161 205 256 283 351
#     4  12  26  36  60  79 123 162 217 244 299 351
#
# _framework density 26.801845
#
# number of rings (size 3 to 8) (size 9 to 14) (size 15 to 20)
#    0.750    1.000    2.500    1.500    8.750    0.000 
#    0.000    0.000    0.000    0.000    0.000    0.000 
#    0.000   66.000    0.000    0.000    0.000    0.000 
#
# Total GULP energy -89199.342346 kJ/mol
# GULP energy per Si atom -5574.958897 kJ/mol
# Density = 2.674084 g / cm^3
# Si number density = 26.801845 Si / 1000 Ang^3
#
#
#
# Elastic Constant Matrix: (Units=GPa)
#
#
# Indices 1 2 3 4 5 6 
#
# 1 95.3854 6.5501 19.2818 0.0000 20.8411 0.0000
# 2 6.5501 53.7403 30.1123 0.0000 3.5934 0.0000
# 3 19.2818 30.1123 131.7938 0.0000 38.6053 0.0000
# 4 0.0000 0.0000 0.0000 33.4165 0.0000 -6.3993
# 5 20.8411 3.5934 38.6053 0.0000 49.9145 0.0000
# 6 0.0000 0.0000 0.0000 -6.3993 0.0000 33.2924
#
#
#
# Elastic Compliance Matrix: (Units=1/GPa)
#
#
# Indices 1 2 3 4 5 6 
#
# 1 0.011601 -0.001056 -0.000077 0.000000 -0.004708 0.000000
# 2 -0.001056 0.021763 -0.005803 0.000000 0.003362 0.000000
# 3 -0.000077 -0.005803 0.011369 0.000000 -0.008343 0.000000
# 4 0.000000 0.000000 0.000000 0.031069 0.000000 0.005972
# 5 -0.004708 0.003362 -0.008343 0.000000 0.028211 0.000000
# 6 0.000000 0.000000 0.000000 0.005972 0.000000 0.031185
#
#
# Mechanical properties :
#
#
# Convention : Reuss Voigt Hill
#
# Bulk Modulus (GPa) = 32.40335 43.64531 38.02433
# Shear Modulus (GPa) = 31.37638 38.32304 34.84971
#
# Velocity S-wave (km/s) = 3.42523 3.78546 3.60984
# Velocity P-wave (km/s) = 5.26870 5.95198 5.62073
#
# Compressibility (1/GPa) = 0.03086101
#
# Stress axis : x y z
#
# Youngs Moduli (GPa) = 86.20288 45.94858 87.96213
#
# Poissons Ratio (x) = 0.04853 0.00675
# Poissons Ratio (y) = 0.09104 0.51044
# Poissons Ratio (z) = 0.00662 0.26664
#
# Static dielectric constant tensor:
#      x y z
#    x 2.128650 0.000000 0.028120 
#    y 0.000000 2.294630 0.000000 
#    z 0.028120 0.000000 2.070610 
# 
# From -- ./inp_files/2803.got.cif
#   From: 2010.05.17/outbox.cif.g08.bks.cpg/sg9_2_cif.got.tgz:2803.got - 2010.06.03 20:04:27.
