data_PCOD9134127
_publ_section_title
;
Structure prediction by ZEFSAII (Michael W. Deem and Ramdas Pophale) SiO2 
 PCOD9134127
Probable space group: C C
;
_chemical_formula_sum "Si O2"
_cell_formula_units_Z 32
_cell_length_a 21.699381
_cell_length_b 11.271874
_cell_length_c 11.666019
_cell_angle_alpha 90.000000
_cell_angle_beta 23.974815
_cell_angle_gamma 90.000000
_cell_volume 1159.445742
_symmetry_space_group_name_H-M "C C"
_symmetry_group_IT_number 9
_symmetry_cell_setting 'monoclinic'
loop_
_space_group_symop_operation_xyz
x,y,z
x,-y,1/2+z
1/2+x,1/2+y,z
1/2+x,1/2-y,1/2+z
loop_
_atom_site_type_symbol
_atom_site_label
_atom_site_fract_x
_atom_site_fract_y
_atom_site_fract_z
Si Si1 0.265290 0.163050 0.335610
Si Si2 0.427644 0.834943 0.770622
Si Si3 0.448780 0.666219 0.185062
Si Si4 0.994643 0.328398 0.890963
Si Si5 0.516218 0.327088 0.813531
Si Si6 0.229017 0.498574 0.275277
Si Si7 0.585628 0.592757 0.424505
Si Si8 0.677861 0.033944 0.626499
O O1 0.304597 0.112439 0.393439
O O2 0.146379 0.268877 0.573562
O O3 0.197379 0.092345 0.343901
O O4 0.423397 0.215933 0.020873
O O5 0.376634 0.821706 0.987879
O O6 0.573716 0.921754 0.522669
O O7 0.479890 0.705808 0.637412
O O8 0.544061 0.704154 0.134429
O O9 0.267965 0.649803 0.518809
O O10 0.463481 0.753028 0.054809
O O11 0.502375 0.533225 0.063461
O O12 0.020117 0.465293 0.878018
O O13 0.628648 0.376259 0.719316
O O14 0.387809 0.429259 0.019468
O O15 0.214822 0.551200 0.427082
O O16 0.235620 0.553583 0.135523
#
# Coordination Sequence:
#
# PCOD9134127 Si02
#       8
#     4   4   4   4   4   4   4   4
#     4  10  19  38  62  84 126 173 205 262 339 390
#     4   9  19  37  63  83 127 176 214 267 336 408
#     4  11  23  35  66  99 128 166 221 276 333 398
#     4  10  21  40  60 100 129 165 224 284 330 399
#     4  10  19  37  58  94 120 163 219 265 322 403
#     4  10  18  37  61  92 122 173 225 265 338 400
#     4  10  19  34  60  91 123 163 214 270 321 402
#     4  10  20  38  64  93 131 165 222 279 327 400
#
# _framework density 27.599395999999999
#
# number of rings (size 3 to 8) (size 9 to 14) (size 15 to 20)
#    0.000    2.000    5.000    0.750    3.500    1.000 
#    4.500    3.750    0.000    0.000    0.000    0.000 
#    0.000    0.000    0.000    0.000    0.000    0.000 
#
# Total GULP energy -89127.952027 kJ/mol
# GULP energy per Si atom -5570.497002 kJ/mol
# Density = 2.753658 g / cm^3
# Si number density = 27.599396 Si / 1000 Ang^3
#
#
#
# Elastic Constant Matrix: (Units=GPa)
#
#
# Indices 1 2 3 4 5 6 
#
# 1 326.0497 56.9646 41.9890 0.0000 28.2305 0.0000
# 2 56.9646 63.3641 32.9081 0.0000 -3.7747 0.0000
# 3 41.9890 32.9081 72.9489 0.0000 5.4257 0.0000
# 4 0.0000 0.0000 0.0000 38.4455 0.0000 2.3730
# 5 28.2305 -3.7747 5.4257 0.0000 45.8157 0.0000
# 6 0.0000 0.0000 0.0000 2.3730 0.0000 31.8729
#
#
#
# Elastic Compliance Matrix: (Units=1/GPa)
#
#
# Indices 1 2 3 4 5 6 
#
# 1 0.003969 -0.003453 -0.000529 0.000000 -0.002668 0.000000
# 2 -0.003453 0.023983 -0.009218 0.000000 0.005195 0.000000
# 3 -0.000529 -0.009218 0.018365 0.000000 -0.002609 0.000000
# 4 0.000000 0.000000 0.000000 0.026131 0.000000 -0.001946
# 5 -0.002668 0.005195 -0.002609 0.000000 0.024207 0.000000
# 6 0.000000 0.000000 0.000000 -0.001946 0.000000 0.031519
#
#
# Mechanical properties :
#
#
# Convention : Reuss Voigt Hill
#
# Bulk Modulus (GPa) = 50.20554 80.67623 65.44088
# Shear Modulus (GPa) = 31.01500 45.26023 38.13762
#
# Velocity S-wave (km/s) = 3.35588 4.05396 3.72133
# Velocity P-wave (km/s) = 5.76596 7.15594 6.49822
#
# Compressibility (1/GPa) = 0.01991812
#
# Stress axis : x y z
#
# Youngs Moduli (GPa) = 251.93268 41.69694 54.45191
#
# Poissons Ratio (x) = 0.14397 0.02879
# Poissons Ratio (y) = 0.86986 0.50193
# Poissons Ratio (z) = 0.13320 0.38435
#
# Static dielectric constant tensor:
#      x y z
#    x 2.272450 0.000000 0.028650 
#    y 0.000000 2.280730 0.000000 
#    z 0.028650 0.000000 2.316490 
# 
# From -- ./inp_files/20272.got.cif
#   From: 2010.05.17/outbox.cif.g08.bks.cpg/sg9_11_cif.got.tgz:20272.got - 2010.06.03 20:04:27.
