data_PCOD9134800
_publ_section_title
;
Structure prediction by ZEFSAII (Michael W. Deem and Ramdas Pophale) SiO2 
 PCOD9134800
Probable space group: C C
;
_chemical_formula_sum "Si O2"
_cell_formula_units_Z 32
_cell_length_a 8.975936
_cell_length_b 11.584467
_cell_length_c 18.156846
_cell_angle_alpha 90.000000
_cell_angle_beta 46.053599
_cell_angle_gamma 90.000000
_cell_volume 1359.321765
_symmetry_space_group_name_H-M "C C"
_symmetry_group_IT_number 9
_symmetry_cell_setting 'monoclinic'
loop_
_space_group_symop_operation_xyz
x,y,z
x,-y,1/2+z
1/2+x,1/2+y,z
1/2+x,1/2-y,1/2+z
loop_
_atom_site_type_symbol
_atom_site_label
_atom_site_fract_x
_atom_site_fract_y
_atom_site_fract_z
Si Si1 0.465160 0.036144 0.354190
Si Si2 0.077040 0.951451 0.587842
Si Si3 0.341435 0.902042 0.259069
Si Si4 0.566342 0.299029 0.119858
Si Si5 0.923207 0.791678 0.387001
Si Si6 0.172938 0.488501 0.929362
Si Si7 0.459374 0.787665 0.079359
Si Si8 0.301570 0.903827 0.656253
O O1 0.276357 0.991127 0.470850
O O2 0.462193 0.953718 0.285916
O O3 0.645405 0.027817 0.351877
O O4 0.447954 0.170276 0.334767
O O5 0.972703 0.850090 0.577445
O O6 0.129143 0.902468 0.651640
O O7 0.975904 0.076009 0.631789
O O8 0.482782 0.831653 0.154559
O O9 0.142645 0.825253 0.346938
O O10 0.262395 0.009032 0.236380
O O11 0.380686 0.210520 0.170328
O O12 0.721659 0.317421 0.136486
O O13 0.747159 0.249265 0.004300
O O14 0.844014 0.911304 0.379183
O O15 0.137386 0.357733 0.973636
O O16 0.989493 0.546926 0.041216
#
# Coordination Sequence:
#
# PCOD9134800 Si02
#       8
#     4   4   4   4   4   4   4   4
#     4  10  21  40  63  88 122 157 202 252 304 361
#     4  10  20  42  63  87 117 162 208 242 296 372
#     4  11  23  40  59  93 128 154 200 261 311 348
#     4  10  19  42  66  83 120 166 207 242 296 370
#     4  10  21  41  63  89 122 161 200 251 309 353
#     4   9  19  43  62  85 115 161 204 241 292 367
#     4  11  21  42  65  87 125 160 205 254 295 364
#     4   9  20  40  61  84 121 157 200 249 295 359
#
# _framework density 23.541150999999999
#
# number of rings (size 3 to 8) (size 9 to 14) (size 15 to 20)
#    0.000    2.000    5.000    0.750    1.750    0.000 
#   20.250    0.000    0.000    0.000    0.000    0.000 
#    0.000    0.000    0.000    0.000    0.000    0.000 
#
# Total GULP energy -89089.190470 kJ/mol
# GULP energy per Si atom -5568.074404 kJ/mol
# Density = 2.348757 g / cm^3
# Si number density = 23.541151 Si / 1000 Ang^3
#
#
#
# Elastic Constant Matrix: (Units=GPa)
#
#
# Indices 1 2 3 4 5 6 
#
# 1 66.9287 66.0556 38.1981 0.0000 14.4776 0.0000
# 2 66.0556 205.3365 38.7097 0.0000 11.0917 0.0000
# 3 38.1981 38.7097 68.6437 0.0000 16.2045 0.0000
# 4 0.0000 0.0000 0.0000 25.5817 0.0000 8.6970
# 5 14.4776 11.0917 16.2045 0.0000 29.5595 0.0000
# 6 0.0000 0.0000 0.0000 8.6970 0.0000 36.3364
#
#
#
# Elastic Compliance Matrix: (Units=1/GPa)
#
#
# Indices 1 2 3 4 5 6 
#
# 1 0.029492 -0.007093 -0.011061 0.000000 -0.005719 0.000000
# 2 -0.007093 0.007160 -0.000317 0.000000 0.000962 0.000000
# 3 -0.011061 -0.000317 0.022508 0.000000 -0.006802 0.000000
# 4 0.000000 0.000000 0.000000 0.042553 0.000000 -0.010185
# 5 -0.005719 0.000962 -0.006802 0.000000 0.039999 0.000000
# 6 0.000000 0.000000 0.000000 -0.010185 0.000000 0.029958
#
#
# Mechanical properties :
#
#
# Convention : Reuss Voigt Hill
#
# Bulk Modulus (GPa) = 45.01244 69.64840 57.33042
# Shear Modulus (GPa) = 23.14604 31.49191 27.31898
#
# Velocity S-wave (km/s) = 3.13903 3.66148 3.41027
# Velocity P-wave (km/s) = 5.68333 6.89386 6.31766
#
# Compressibility (1/GPa) = 0.02221608
#
# Stress axis : x y z
#
# Youngs Moduli (GPa) = 33.90737 139.66851 44.42870
#
# Poissons Ratio (x) = 0.99070 0.49144
# Poissons Ratio (y) = 0.24051 0.01410
# Poissons Ratio (z) = 0.37506 0.04433
#
# Static dielectric constant tensor:
#      x y z
#    x 1.969750 0.000000 -0.013720 
#    y 0.000000 1.907160 0.000000 
#    z -0.013720 0.000000 1.946950 
# 
# From -- ./inp_files/29251.got.cif
#   From: 2010.05.17/outbox.cif.g08.bks.cpg/sg9_15_cif.got.tgz:29251.got - 2010.06.03 20:04:27.
