data_PCOD9134599
_publ_section_title
;
Structure prediction by ZEFSAII (Michael W. Deem and Ramdas Pophale) SiO2 
 PCOD9134599
Probable space group: C C
;
_chemical_formula_sum "Si O2"
_cell_formula_units_Z 28
_cell_length_a 7.629340
_cell_length_b 11.849575
_cell_length_c 11.737529
_cell_angle_alpha 90.000000
_cell_angle_beta 95.952649
_cell_angle_gamma 90.000000
_cell_volume 1055.403049
_symmetry_space_group_name_H-M "C C"
_symmetry_group_IT_number 9
_symmetry_cell_setting 'monoclinic'
loop_
_space_group_symop_operation_xyz
x,y,z
x,-y,1/2+z
1/2+x,1/2+y,z
1/2+x,1/2-y,1/2+z
loop_
_atom_site_type_symbol
_atom_site_label
_atom_site_fract_x
_atom_site_fract_y
_atom_site_fract_z
Si Si1 0.897020 0.909886 0.259170
Si Si2 0.706819 0.277451 0.396939
Si Si3 0.909005 0.683180 0.506989
Si Si4 0.377026 0.552862 0.058407
Si Si5 0.398406 0.799358 0.620577
Si Si6 0.534008 0.348820 0.937749
Si Si7 0.058026 0.515524 0.684324
O O1 0.813925 0.802755 0.183467
O O2 0.704149 0.952471 0.289108
O O3 0.071577 0.852014 0.318731
O O4 0.966467 0.010708 0.182593
O O5 0.587787 0.180084 0.445590
O O6 0.778090 0.347092 0.511101
O O7 0.882981 0.219187 0.357757
O O8 0.893828 0.817178 0.531081
O O9 0.737991 0.646862 0.422641
O O10 0.931774 0.610327 0.623360
O O11 0.455663 0.470701 0.966418
O O12 0.178277 0.523625 0.083166
O O13 0.537878 0.726309 0.555299
O O14 0.459908 0.899696 0.702930
#
# Coordination Sequence:
#
# PCOD9134599 Si02
#       7
#     4   4   4   4   4   4   4
#     4   9  19  41  62  87 130 160 203 264 303 356
#     4  10  20  40  64  91 124 162 206 255 310 366
#     4  12  20  36  69  86 119 167 204 244 317 366
#     4   9  19  38  60  86 121 156 200 257 298 357
#     4   9  18  40  61  84 126 158 192 264 300 351
#     4   9  19  35  60  90 115 159 198 249 306 361
#     4  10  19  38  62  90 119 162 203 251 302 367
#
# _framework density 26.530148000000001
#
# number of rings (size 3 to 8) (size 9 to 14) (size 15 to 20)
#    1.714    0.571    4.286    0.000    2.000    0.000 
#    2.571    4.286    0.000    0.000    0.000    0.000 
#    0.000    0.000    0.000    0.000    0.000    0.000 
#
# Total GULP energy -77963.117965 kJ/mol
# GULP energy per Si atom -5568.794140 kJ/mol
# Density = 2.646976 g / cm^3
# Si number density = 26.530148 Si / 1000 Ang^3
#
#
#
# Elastic Constant Matrix: (Units=GPa)
#
#
# Indices 1 2 3 4 5 6 
#
# 1 94.4308 28.5148 19.1739 0.0000 27.1835 0.0000
# 2 28.5148 152.4637 29.6499 0.0000 21.1088 0.0000
# 3 19.1739 29.6499 63.8203 0.0000 31.9018 0.0000
# 4 0.0000 0.0000 0.0000 31.5150 0.0000 12.5796
# 5 27.1835 21.1088 31.9018 0.0000 41.3224 0.0000
# 6 0.0000 0.0000 0.0000 12.5796 0.0000 36.1347
#
#
#
# Elastic Compliance Matrix: (Units=1/GPa)
#
#
# Indices 1 2 3 4 5 6 
#
# 1 0.013374 -0.001487 0.001125 0.000000 -0.008907 0.000000
# 2 -0.001487 0.007458 -0.002610 0.000000 -0.000817 0.000000
# 3 0.001125 -0.002610 0.026457 0.000000 -0.019832 0.000000
# 4 0.000000 0.000000 0.000000 0.036852 0.000000 -0.012829
# 5 -0.008907 -0.000817 -0.019832 0.000000 0.045788 0.000000
# 6 0.000000 0.000000 0.000000 -0.012829 0.000000 0.032141
#
#
# Mechanical properties :
#
#
# Convention : Reuss Voigt Hill
#
# Bulk Modulus (GPa) = 24.18619 51.71022 37.94821
# Shear Modulus (GPa) = 27.50362 37.35282 32.42822
#
# Velocity S-wave (km/s) = 3.22326 3.75632 3.49996
# Velocity P-wave (km/s) = 4.79467 6.19247 5.53785
#
# Compressibility (1/GPa) = 0.04134591
#
# Stress axis : x y z
#
# Youngs Moduli (GPa) = 74.76959 134.09085 37.79711
#
# Poissons Ratio (x) = 0.19939 -0.04253
# Poissons Ratio (y) = 0.11118 0.09864
# Poissons Ratio (z) = -0.08413 0.34995
#
# Static dielectric constant tensor:
#      x y z
#    x 2.139710 0.000000 -0.010250 
#    y 0.000000 2.052350 0.000000 
#    z -0.010250 0.000000 2.277660 
# 
# From -- ./inp_files/29111.got.cif
#   From: 2010.05.17/outbox.cif.g08.bks.cpg/sg9_15_cif.got.tgz:29111.got - 2010.06.03 20:04:27.
