data_PCOD9134129
_publ_section_title
;
Structure prediction by ZEFSAII (Michael W. Deem and Ramdas Pophale) SiO2 
 PCOD9134129
Probable space group: C C
;
_chemical_formula_sum "Si O2"
_cell_formula_units_Z 32
_cell_length_a 20.726703
_cell_length_b 9.787013
_cell_length_c 10.851391
_cell_angle_alpha 90.000000
_cell_angle_beta 34.532617
_cell_angle_gamma 90.000000
_cell_volume 1247.824002
_symmetry_space_group_name_H-M "C C"
_symmetry_group_IT_number 9
_symmetry_cell_setting 'monoclinic'
loop_
_space_group_symop_operation_xyz
x,y,z
x,-y,1/2+z
1/2+x,1/2+y,z
1/2+x,1/2-y,1/2+z
loop_
_atom_site_type_symbol
_atom_site_label
_atom_site_fract_x
_atom_site_fract_y
_atom_site_fract_z
Si Si1 0.264660 0.773186 0.174820
Si Si2 0.066516 0.021433 0.188145
Si Si3 0.651516 0.231008 0.716746
Si Si4 0.110409 0.433782 0.069178
Si Si5 0.517045 0.618174 0.001709
Si Si6 0.968976 0.314399 0.672886
Si Si7 0.383365 0.815030 0.345477
Si Si8 0.302379 0.973338 0.797195
O O1 0.212953 0.639796 0.330025
O O2 0.146672 0.825042 0.295690
O O3 0.302807 0.908923 0.193267
O O4 0.372603 0.752415 0.913969
O O5 0.131778 0.156468 0.139397
O O6 0.006857 0.050267 0.153220
O O7 0.994879 0.966155 0.414185
O O8 0.174092 0.921587 0.996738
O O9 0.641589 0.083978 0.664159
O O10 0.778502 0.239188 0.569588
O O11 0.563834 0.275725 0.957675
O O12 0.054241 0.573564 0.105220
O O13 0.997581 0.339792 0.236627
O O14 0.425733 0.738510 0.156003
O O15 0.901491 0.363917 0.653652
O O16 0.332174 0.958242 0.382979
#
# Coordination Sequence:
#
# PCOD9134129 Si02
#       8
#     4   4   4   4   4   4   4   4
#     4  10  18  37  62  89 119 160 215 266 322 383
#     4  10  19  38  62  89 117 160 204 262 315 382
#     4  11  21  41  58  87 127 163 204 266 332 392
#     4  10  20  40  66  84 122 167 211 269 325 395
#     4  10  19  37  62  93 117 159 217 254 322 392
#     4  11  22  34  62  92 122 160 221 263 323 392
#     4   9  18  37  61  79 116 167 200 246 325 386
#     4   9  17  34  61  81 112 162 206 254 312 380
#
# _framework density 25.644642000000001
#
# number of rings (size 3 to 8) (size 9 to 14) (size 15 to 20)
#    0.000    2.000    6.250    0.750    0.000    0.000 
#    6.750    0.000    5.500    0.000    0.000    0.000 
#    0.000    0.000    0.000    0.000    0.000    0.000 
#
# Total GULP energy -89088.816136 kJ/mol
# GULP energy per Si atom -5568.051008 kJ/mol
# Density = 2.558627 g / cm^3
# Si number density = 25.644642 Si / 1000 Ang^3
#
#
#
# Elastic Constant Matrix: (Units=GPa)
#
#
# Indices 1 2 3 4 5 6 
#
# 1 77.0911 26.2469 46.5613 0.0000 -0.9893 0.0000
# 2 26.2469 35.1241 21.3388 0.0000 4.1453 0.0000
# 3 46.5613 21.3388 185.9478 0.0000 10.3083 0.0000
# 4 0.0000 0.0000 0.0000 19.2905 0.0000 -2.3325
# 5 -0.9893 4.1453 10.3083 0.0000 39.4490 0.0000
# 6 0.0000 0.0000 0.0000 -2.3325 0.0000 29.2339
#
#
#
# Elastic Compliance Matrix: (Units=1/GPa)
#
#
# Indices 1 2 3 4 5 6 
#
# 1 0.019499 -0.012724 -0.003575 0.000000 0.002760 0.000000
# 2 -0.012724 0.039121 -0.001073 0.000000 -0.004150 0.000000
# 3 -0.003575 -0.001073 0.006489 0.000000 -0.001673 0.000000
# 4 0.000000 0.000000 0.000000 0.052344 0.000000 0.004176
# 5 0.002760 -0.004150 -0.001673 0.000000 0.026292 0.000000
# 6 0.000000 0.000000 0.000000 0.004176 0.000000 0.034540
#
#
# Mechanical properties :
#
#
# Convention : Reuss Voigt Hill
#
# Bulk Modulus (GPa) = 32.93513 54.05075 43.49294
# Shear Modulus (GPa) = 22.40643 31.19574 26.80109
#
# Velocity S-wave (km/s) = 2.95910 3.49157 3.23630
# Velocity P-wave (km/s) = 4.95437 6.11370 5.56431
#
# Compressibility (1/GPa) = 0.03036272
#
# Stress axis : x y z
#
# Youngs Moduli (GPa) = 51.28554 25.56202 154.10759
#
# Poissons Ratio (x) = 0.32526 0.55098
# Poissons Ratio (y) = 0.65257 0.16538
# Poissons Ratio (z) = 0.18336 0.02743
#
# Static dielectric constant tensor:
#      x y z
#    x 2.044550 0.000000 0.018120 
#    y 0.000000 2.312740 0.000000 
#    z 0.018120 0.000000 2.096720 
# 
# From -- ./inp_files/16258.got.cif
#   From: 2010.05.17/outbox.cif.g08.bks.cpg/sg9_9_cif.got.tgz:16258.got - 2010.06.03 20:04:27.
