data_PCOD9134760
_publ_section_title
;
Structure prediction by ZEFSAII (Michael W. Deem and Ramdas Pophale) SiO2 
 PCOD9134760
Probable space group: C C
;
_chemical_formula_sum "Si O2"
_cell_formula_units_Z 32
_cell_length_a 8.137208
_cell_length_b 14.386935
_cell_length_c 13.781293
_cell_angle_alpha 90.000000
_cell_angle_beta 127.798227
_cell_angle_gamma 90.000000
_cell_volume 1274.842075
_symmetry_space_group_name_H-M "C C"
_symmetry_group_IT_number 9
_symmetry_cell_setting 'monoclinic'
loop_
_space_group_symop_operation_xyz
x,y,z
x,-y,1/2+z
1/2+x,1/2+y,z
1/2+x,1/2-y,1/2+z
loop_
_atom_site_type_symbol
_atom_site_label
_atom_site_fract_x
_atom_site_fract_y
_atom_site_fract_z
Si Si1 0.801450 0.664900 0.472950
Si Si2 0.246458 0.048471 0.952459
Si Si3 0.785387 0.025619 0.694172
Si Si4 0.338711 0.353416 0.814026
Si Si5 0.588011 0.206295 0.722303
Si Si6 0.348094 0.147150 0.804670
Si Si7 0.925754 0.890797 0.064858
Si Si8 0.184573 0.781041 0.567667
O O1 0.835712 0.554695 0.498427
O O2 0.566782 0.665652 0.347460
O O3 0.845289 0.711514 0.594085
O O4 0.960032 0.727995 0.467326
O O5 0.379695 0.098336 0.917734
O O6 0.209484 0.118740 0.028138
O O7 0.019661 0.032985 0.821957
O O8 0.684126 0.117449 0.700819
O O9 0.801412 0.035147 0.584673
O O10 0.708642 0.926841 0.706082
O O11 0.257422 0.249950 0.795608
O O12 0.384839 0.394831 0.936413
O O13 0.554215 0.161920 0.816221
O O14 0.693092 0.284327 0.689130
O O15 0.167112 0.096219 0.679048
O O16 0.843709 0.791162 0.075284
#
# Coordination Sequence:
#
# PCOD9134760 Si02
#       8
#     4   4   4   4   4   4   4   4
#     4   9  21  39  60  84 124 163 210 264 320 381
#     4  10  20  38  62  89 116 167 213 249 325 392
#     4   9  22  38  59  85 123 161 210 253 316 392
#     4  11  21  40  60  91 126 161 207 264 325 376
#     4   9  20  39  56  86 124 159 205 265 314 378
#     4  11  22  37  63  91 123 160 208 267 319 388
#     4  10  19  41  59  85 126 159 206 269 310 384
#     4   9  19  38  63  83 122 170 199 261 321 381
#
# _framework density 25.101148999999999
#
# number of rings (size 3 to 8) (size 9 to 14) (size 15 to 20)
#    0.750    1.500    2.500    0.000    1.750    2.000 
#    4.500    0.000    0.000    0.000    0.000    0.000 
#    0.000    0.000    0.000    0.000    0.000    0.000 
#
# Total GULP energy -89105.271237 kJ/mol
# GULP energy per Si atom -5569.079452 kJ/mol
# Density = 2.504402 g / cm^3
# Si number density = 25.101149 Si / 1000 Ang^3
#
#
#
# Elastic Constant Matrix: (Units=GPa)
#
#
# Indices 1 2 3 4 5 6 
#
# 1 93.6400 4.8140 12.9465 0.0000 -20.7491 0.0000
# 2 4.8140 77.0537 -9.3252 0.0000 2.1995 0.0000
# 3 12.9465 -9.3252 44.4621 0.0000 -11.5833 0.0000
# 4 0.0000 0.0000 0.0000 2.6868 0.0000 14.7027
# 5 -20.7491 2.1995 -11.5833 0.0000 41.3092 0.0000
# 6 0.0000 0.0000 0.0000 14.7027 0.0000 15.8707
#
#
#
# Elastic Compliance Matrix: (Units=1/GPa)
#
#
# Indices 1 2 3 4 5 6 
#
# 1 0.012308 -0.001217 -0.002386 0.000000 0.005578 0.000000
# 2 -0.001217 0.013437 0.003050 0.000000 -0.000472 0.000000
# 3 -0.002386 0.003050 0.025321 0.000000 0.005739 0.000000
# 4 0.000000 0.000000 0.000000 -0.091458 0.000000 0.084728
# 5 0.005578 -0.000472 0.005739 0.000000 0.028644 0.000000
# 6 0.000000 0.000000 0.000000 0.084728 0.000000 -0.015483
#
#
# Mechanical properties :
#
#
# Convention : Reuss Voigt Hill
#
# Bulk Modulus (GPa) = 20.01666 25.78071 22.89869
# Shear Modulus (GPa) = -527.75177 25.75470 -250.99853
#
# Velocity S-wave (km/s) = -14.51573 3.20666 -10.01059
# Velocity P-wave (km/s) = 16.52121 4.89931 11.15677
#
# Compressibility (1/GPa) = 0.04995837
#
# Stress axis : x y z
#
# Youngs Moduli (GPa) = 81.25100 74.42409 39.49360
#
# Poissons Ratio (x) = 0.09056 0.09422
# Poissons Ratio (y) = 0.09887 -0.12044
# Poissons Ratio (z) = 0.19385 -0.22696
#
# Static dielectric constant tensor:
#      x y z
#    x 2.063800 0.000000 0.036290 
#    y 0.000000 2.377530 0.000000 
#    z 0.036290 0.000000 2.120000 
# 
# From -- ./inp_files/23117.got.cif
#   From: 2010.05.17/outbox.cif.g08.bks.cpg/sg9_12_cif.got.tgz:23117.got - 2010.06.03 20:04:27.
