data_PCOD9134945
_publ_section_title
;
Structure prediction by ZEFSAII (Michael W. Deem and Ramdas Pophale) SiO2 
 PCOD9134945
Probable space group: C C
;
_chemical_formula_sum "Si O2"
_cell_formula_units_Z 28
_cell_length_a 10.952156
_cell_length_b 24.564990
_cell_length_c 5.099708
_cell_angle_alpha 90.000000
_cell_angle_beta 61.182226
_cell_angle_gamma 90.000000
_cell_volume 1202.108180
_symmetry_space_group_name_H-M "C C"
_symmetry_group_IT_number 9
_symmetry_cell_setting 'monoclinic'
loop_
_space_group_symop_operation_xyz
x,y,z
x,-y,1/2+z
1/2+x,1/2+y,z
1/2+x,1/2-y,1/2+z
loop_
_atom_site_type_symbol
_atom_site_label
_atom_site_fract_x
_atom_site_fract_y
_atom_site_fract_z
Si Si1 0.164350 0.254678 0.354880
Si Si2 0.479019 0.966443 0.497622
Si Si3 0.572082 0.647021 0.762593
Si Si4 0.917701 0.773328 0.744591
Si Si5 0.143767 0.963210 0.908628
Si Si6 0.503444 0.142292 0.137642
Si Si7 0.335796 0.841644 0.284982
O O1 0.135514 0.198087 0.533234
O O2 0.068748 0.245157 0.194146
O O3 0.099642 0.305784 0.571114
O O4 0.314604 0.275001 0.100298
O O5 0.568117 0.912815 0.462503
O O6 0.506325 0.987848 0.182512
O O7 0.312589 0.953821 0.713536
O O8 0.572537 0.593222 0.581513
O O9 0.683130 0.636553 0.883006
O O10 0.438001 0.673418 0.046489
O O11 0.853931 0.720742 0.667039
O O12 0.110843 0.008763 0.164647
O O13 0.434833 0.126950 0.483799
O O14 0.391589 0.156784 0.022367
#
# Coordination Sequence:
#
# PCOD9134945 Si02
#       7
#     4   4   4   4   4   4   4
#     4  11  25  41  63  97 135 169 218 264 333 397
#     4  10  20  35  59  91 123 168 215 266 324 377
#     4  12  23  40  66  89 137 172 214 272 340 383
#     4  11  24  39  63  94 133 173 214 255 333 399
#     4  10  24  37  59  91 127 168 224 273 319 379
#     4  11  22  40  61  90 133 166 208 270 320 383
#     4  11  22  38  59  92 128 168 201 262 325 378
#
# _framework density 23.292411000000001
#
# number of rings (size 3 to 8) (size 9 to 14) (size 15 to 20)
#    0.000    1.143    4.286    2.571    6.000    0.000 
#    0.000    0.000    0.000    1.714    0.000    0.000 
#    0.000    0.000    0.000    0.000    0.000    0.000 
#
# Total GULP energy -78149.391448 kJ/mol
# GULP energy per Si atom -5582.099389 kJ/mol
# Density = 2.323940 g / cm^3
# Si number density = 23.292411 Si / 1000 Ang^3
#
#
#
# Elastic Constant Matrix: (Units=GPa)
#
#
# Indices 1 2 3 4 5 6 
#
# 1 34.0712 4.4938 21.6831 0.0000 3.7337 0.0000
# 2 4.4938 138.8737 28.8001 0.0000 -2.6397 0.0000
# 3 21.6831 28.8001 99.6959 0.0000 -0.5007 0.0000
# 4 0.0000 0.0000 0.0000 40.1935 0.0000 7.7733
# 5 3.7337 -2.6397 -0.5007 0.0000 25.3358 0.0000
# 6 0.0000 0.0000 0.0000 7.7733 0.0000 21.6426
#
#
#
# Elastic Compliance Matrix: (Units=1/GPa)
#
#
# Indices 1 2 3 4 5 6 
#
# 1 0.034773 0.000371 -0.007697 0.000000 -0.005238 0.000000
# 2 0.000371 0.007678 -0.002295 0.000000 0.000700 0.000000
# 3 -0.007697 -0.002295 0.012373 0.000000 0.001140 0.000000
# 4 0.000000 0.000000 0.000000 0.026737 0.000000 -0.009603
# 5 -0.005238 0.000700 0.001140 0.000000 0.040337 0.000000
# 6 0.000000 0.000000 0.000000 -0.009603 0.000000 0.049654
#
#
# Mechanical properties :
#
#
# Convention : Reuss Voigt Hill
#
# Bulk Modulus (GPa) = 28.10270 42.51053 35.30661
# Shear Modulus (GPa) = 24.67245 31.94530 28.30888
#
# Velocity S-wave (km/s) = 3.25814 3.70738 3.49000
# Velocity P-wave (km/s) = 5.12302 6.05117 5.60634
#
# Compressibility (1/GPa) = 0.03558377
#
# Stress axis : x y z
#
# Youngs Moduli (GPa) = 28.75761 130.24086 80.81968
#
# Poissons Ratio (x) = -0.04836 0.62203
# Poissons Ratio (y) = -0.01068 0.18550
# Poissons Ratio (z) = 0.22133 0.29894
#
# Static dielectric constant tensor:
#      x y z
#    x 1.907400 0.000000 0.006540 
#    y 0.000000 1.942880 0.000000 
#    z 0.006540 0.000000 1.929650 
# 
# From -- ./inp_files/1924.got.cif
#   From: 2010.05.17/outbox.cif.g08.bks.cpg/sg9_1_cif.got.tgz:1924.got - 2010.06.03 20:04:27.
