data_PCOD9134082
_publ_section_title
;
Structure prediction by ZEFSAII (Michael W. Deem and Ramdas Pophale) SiO2 
 PCOD9134082
Probable space group: C C
;
_chemical_formula_sum "Si O2"
_cell_formula_units_Z 32
_cell_length_a 11.176179
_cell_length_b 17.033941
_cell_length_c 16.837410
_cell_angle_alpha 90.000000
_cell_angle_beta 33.634064
_cell_angle_gamma 90.000000
_cell_volume 1775.434564
_symmetry_space_group_name_H-M "C C"
_symmetry_group_IT_number 9
_symmetry_cell_setting 'monoclinic'
loop_
_space_group_symop_operation_xyz
x,y,z
x,-y,1/2+z
1/2+x,1/2+y,z
1/2+x,1/2-y,1/2+z
loop_
_atom_site_type_symbol
_atom_site_label
_atom_site_fract_x
_atom_site_fract_y
_atom_site_fract_z
Si Si1 0.448110 0.987945 0.810030
Si Si2 0.216229 0.440857 0.929649
Si Si3 0.103217 0.112280 0.300095
Si Si4 0.291364 0.417945 0.514389
Si Si5 0.038845 0.688568 0.037715
Si Si6 0.559862 0.370786 0.006860
Si Si7 0.280869 0.944035 0.238747
Si Si8 0.663771 0.932593 0.329542
O O1 0.674765 0.946842 0.659045
O O2 0.269352 0.920402 0.916255
O O3 0.368462 0.038537 0.778468
O O4 0.480078 0.041365 0.869078
O O5 0.414074 0.383844 0.840167
O O6 0.224957 0.487659 0.842817
O O7 0.254220 0.509669 0.974129
O O8 0.977449 0.407551 0.079843
O O9 0.282795 0.178711 0.192279
O O10 0.013073 0.112770 0.439643
O O11 0.231907 0.029061 0.224855
O O12 0.160067 0.347097 0.547348
O O13 0.547512 0.403642 0.374726
O O14 0.097743 0.778401 0.993537
O O15 0.097895 0.633236 0.930160
O O16 0.362345 0.399210 0.169467
#
# Coordination Sequence:
#
# PCOD9134082 Si02
#       8
#     4   4   4   4   4   4   4   4
#     4  10  19  34  54  86 114 146 194 251 282 339
#     4   9  18  31  54  82 109 143 190 243 282 331
#     4  10  18  36  54  75 116 151 186 234 289 354
#     4   9  17  33  55  78 113 152 188 231 298 354
#     4  11  21  37  55  85 116 156 188 238 301 352
#     4  11  22  35  59  83 118 149 195 240 296 349
#     4   9  15  32  55  80 106 147 186 230 292 346
#     4  11  22  32  56  93 112 144 199 247 288 335
#
# _framework density 18.023755999999999
#
# number of rings (size 3 to 8) (size 9 to 14) (size 15 to 20)
#    0.000    2.000    5.000    3.750    1.750    1.000 
#    0.000    0.000    0.000    4.500    0.000    0.000 
#    0.000    0.000    0.000    0.000    0.000    0.000 
#
# Total GULP energy -89185.971715 kJ/mol
# GULP energy per Si atom -5574.123232 kJ/mol
# Density = 1.798273 g / cm^3
# Si number density = 18.023756 Si / 1000 Ang^3
#
#
#
# Elastic Constant Matrix: (Units=GPa)
#
#
# Indices 1 2 3 4 5 6 
#
# 1 60.0138 17.9879 35.0500 0.0016 -8.3982 0.0008
# 2 17.9879 51.7899 16.1145 0.0147 -2.4169 -0.0038
# 3 35.0500 16.1145 95.3059 0.0189 -2.5692 -0.0056
# 4 0.0016 0.0147 0.0189 9.9450 -0.0041 2.3587
# 5 -8.3982 -2.4169 -2.5692 -0.0041 27.2252 -0.0001
# 6 0.0008 -0.0038 -0.0056 2.3587 -0.0001 11.2129
#
#
#
# Elastic Compliance Matrix: (Units=1/GPa)
#
#
# Indices 1 2 3 4 5 6 
#
# 1 0.023604 -0.005557 -0.007577 0.000024 0.006073 -0.000012
# 2 -0.005557 0.021750 -0.001632 -0.000031 0.000063 0.000013
# 3 -0.007577 -0.001632 0.013523 -0.000025 -0.001206 0.000012
# 4 0.000024 -0.000031 -0.000025 0.105833 0.000018 -0.022262
# 5 0.006073 0.000063 -0.001206 0.000018 0.038496 -0.000004
# 6 -0.000012 0.000013 0.000012 -0.022262 -0.000004 0.093866
#
#
# Mechanical properties :
#
#
# Convention : Reuss Voigt Hill
#
# Bulk Modulus (GPa) = 34.07959 38.37937 36.22948
# Shear Modulus (GPa) = 14.86397 18.87378 16.86888
#
# Velocity S-wave (km/s) = 2.87485 3.23950 3.06261
# Velocity P-wave (km/s) = 5.47439 5.94411 5.71408
#
# Compressibility (1/GPa) = 0.02934307
#
# Stress axis : x y z
#
# Youngs Moduli (GPa) = 42.36644 45.97773 73.95030
#
# Poissons Ratio (x) = 0.25550 0.56034
# Poissons Ratio (y) = 0.23543 0.12069
# Poissons Ratio (z) = 0.32102 0.07504
#
# Static dielectric constant tensor:
#      x y z
#    x 1.634960 0.000000 -0.012480 
#    y 0.000000 1.601150 0.000000 
#    z -0.012480 0.000000 1.671640 
# 
# From -- ./inp_files/7905.got.cif
#   From: 2010.05.17/outbox.cif.g08.bks.cpg/sg9_4_cif.got.tgz:7905.got - 2010.06.03 20:04:27.
