data_PCOD9134411
_publ_section_title
;
Structure prediction by ZEFSAII (Michael W. Deem and Ramdas Pophale) SiO2 
 PCOD9134411
Probable space group: C C
;
_chemical_formula_sum "Si O2"
_cell_formula_units_Z 24
_cell_length_a 5.344732
_cell_length_b 22.660317
_cell_length_c 10.157146
_cell_angle_alpha 90.000000
_cell_angle_beta 42.868933
_cell_angle_gamma 90.000000
_cell_volume 836.910711
_symmetry_space_group_name_H-M "C C"
_symmetry_group_IT_number 9
_symmetry_cell_setting 'monoclinic'
loop_
_space_group_symop_operation_xyz
x,y,z
x,-y,1/2+z
1/2+x,1/2+y,z
1/2+x,1/2-y,1/2+z
loop_
_atom_site_type_symbol
_atom_site_label
_atom_site_fract_x
_atom_site_fract_y
_atom_site_fract_z
Si Si1 0.714030 0.949588 0.668880
Si Si2 0.749960 0.330589 0.841014
Si Si3 0.405007 0.011215 0.021731
Si Si4 0.018644 0.337134 0.307583
Si Si5 0.646004 0.383177 0.221108
Si Si6 0.204068 0.287870 0.876556
O O1 0.457564 0.892241 0.772174
O O2 0.691697 0.971069 0.525275
O O3 0.523086 0.002631 0.825032
O O4 0.060333 0.945339 0.635442
O O5 0.597095 0.318229 0.754653
O O6 0.032933 0.283591 0.795973
O O7 0.375168 0.329390 0.072413
O O8 0.268159 0.945446 0.115047
O O9 0.230415 0.365634 0.347514
O O10 0.732571 0.378797 0.341788
O O11 0.800351 0.275793 0.399874
O O12 0.904821 0.331711 0.057941
#
# Coordination Sequence:
#
# PCOD9134411 Si02
#       6
#     4   4   4   4   4   4
#     4  12  25  44  76 103 142 192 240 291 363 421
#     4  10  21  39  64  95 134 176 222 289 355 407
#     4  12  25  44  76 103 142 192 240 291 363 421
#     4  10  19  35  67  92 125 174 227 270 353 413
#     4  10  21  39  64  95 134 176 222 289 355 407
#     4  10  19  35  67  92 125 174 227 270 353 413
#
# _framework density 28.676894000000001
#
# number of rings (size 3 to 8) (size 9 to 14) (size 15 to 20)
#    0.000    1.333    3.333    4.000    4.667    0.000 
#    0.000    0.000   73.333    0.000    0.000    0.000 
#    0.000    0.000    0.000    0.000    0.000    0.000 
#
# Total GULP energy -67136.464833 kJ/mol
# GULP energy per Si atom -5594.705403 kJ/mol
# Density = 2.861162 g / cm^3
# Si number density = 28.676894 Si / 1000 Ang^3
#
#
#
# Elastic Constant Matrix: (Units=GPa)
#
#
# Indices 1 2 3 4 5 6 
#
# 1 309.2862 86.6440 20.6186 0.0000 -41.1138 0.0000
# 2 86.6440 152.8560 23.0997 0.0000 -6.5138 0.0000
# 3 20.6186 23.0997 75.4479 0.0000 -5.1338 0.0000
# 4 0.0000 0.0000 0.0000 39.8129 0.0000 -6.9071
# 5 -41.1138 -6.5138 -5.1338 0.0000 47.4125 0.0000
# 6 0.0000 0.0000 0.0000 -6.9071 0.0000 72.0332
#
#
#
# Elastic Compliance Matrix: (Units=1/GPa)
#
#
# Indices 1 2 3 4 5 6 
#
# 1 0.004344 -0.002277 -0.000257 0.000000 0.003426 0.000000
# 2 -0.002277 0.008078 -0.001924 0.000000 -0.001073 0.000000
# 3 -0.000257 -0.001924 0.013983 0.000000 0.001027 0.000000
# 4 0.000000 0.000000 0.000000 0.025542 0.000000 0.002449
# 5 0.003426 -0.001073 0.001027 0.000000 0.024026 0.000000
# 6 0.000000 0.000000 0.000000 0.002449 0.000000 0.014117
#
#
# Mechanical properties :
#
#
# Convention : Reuss Voigt Hill
#
# Bulk Modulus (GPa) = 57.17853 88.70163 72.94008
# Shear Modulus (GPa) = 47.69324 59.00023 53.34673
#
# Velocity S-wave (km/s) = 4.08257 4.54079 4.31776
# Velocity P-wave (km/s) = 6.49656 7.64789 7.09562
#
# Compressibility (1/GPa) = 0.01748908
#
# Stress axis : x y z
#
# Youngs Moduli (GPa) = 230.21351 123.79270 71.51408
#
# Poissons Ratio (x) = 0.28193 0.01836
# Poissons Ratio (y) = 0.52429 0.13758
# Poissons Ratio (z) = 0.05909 0.23816
#
# Static dielectric constant tensor:
#      x y z
#    x 2.312090 0.000000 0.175340 
#    y 0.000000 2.239080 0.000000 
#    z 0.175340 0.000000 2.557150 
# 
# From -- ./inp_files/3894.got.cif
#   From: 2010.05.17/outbox.cif.g08.bks.cpg/sg9_2_cif.got.tgz:3894.got - 2010.06.03 20:04:27.
