data_PCOD9134579
_publ_section_title
;
Structure prediction by ZEFSAII (Michael W. Deem and Ramdas Pophale) SiO2 
 PCOD9134579
Probable space group: C C
;
_chemical_formula_sum "Si O2"
_cell_formula_units_Z 28
_cell_length_a 15.986931
_cell_length_b 15.873334
_cell_length_c 9.135396
_cell_angle_alpha 90.000000
_cell_angle_beta 30.673056
_cell_angle_gamma 90.000000
_cell_volume 1182.629584
_symmetry_space_group_name_H-M "C C"
_symmetry_group_IT_number 9
_symmetry_cell_setting 'monoclinic'
loop_
_space_group_symop_operation_xyz
x,y,z
x,-y,1/2+z
1/2+x,1/2+y,z
1/2+x,1/2-y,1/2+z
loop_
_atom_site_type_symbol
_atom_site_label
_atom_site_fract_x
_atom_site_fract_y
_atom_site_fract_z
Si Si1 0.514410 0.511815 0.896520
Si Si2 0.592099 0.988888 0.855278
Si Si3 0.704300 0.286515 0.310481
Si Si4 0.715521 0.534235 0.849870
Si Si5 0.701781 0.105141 0.460822
Si Si6 0.558969 0.256568 0.207173
Si Si7 0.340259 0.362258 0.308923
O O1 0.684086 0.518101 0.727675
O O2 0.573065 0.518710 0.643353
O O3 0.389579 0.582022 0.141997
O O4 0.426314 0.424675 0.066985
O O5 0.608322 0.963787 0.000461
O O6 0.713245 0.918944 0.598045
O O7 0.656737 0.077907 0.693254
O O8 0.400850 0.984008 0.108594
O O9 0.665014 0.369671 0.459660
O O10 0.670616 0.199469 0.448463
O O11 0.622514 0.286606 0.272634
O O12 0.898722 0.297229 0.989874
O O13 0.718882 0.794714 0.415100
O O14 0.474763 0.315991 0.210611
#
# Coordination Sequence:
#
# PCOD9134579 Si02
#       7
#     4   4   4   4   4   4   4
#     4  11  26  43  68  98 143 176 233 285 344 406
#     4  11  22  41  65  96 138 176 227 279 334 411
#     4  11  21  38  72  97 130 182 228 274 341 414
#     4  12  25  42  67 101 133 183 226 284 345 403
#     4  11  22  43  68  97 137 182 231 276 339 408
#     4  10  19  37  70  95 132 173 227 279 336 411
#     4  10  21  42  64 100 131 180 230 279 341 407
#
# _framework density 23.676051999999999
#
# number of rings (size 3 to 8) (size 9 to 14) (size 15 to 20)
#    0.000    1.143    4.286    3.429    2.000    0.000 
#    0.000    8.571    0.000    0.000    0.000    0.000 
#    0.000    0.000    0.000    0.000    0.000    0.000 
#
# Total GULP energy -78135.637492 kJ/mol
# GULP energy per Si atom -5581.116964 kJ/mol
# Density = 2.362216 g / cm^3
# Si number density = 23.676052 Si / 1000 Ang^3
#
#
#
# Elastic Constant Matrix: (Units=GPa)
#
#
# Indices 1 2 3 4 5 6 
#
# 1 68.9241 21.6734 45.6889 -0.0005 -36.1447 0.0002
# 2 21.6734 105.3389 51.0129 -0.0007 -7.4318 0.0003
# 3 45.6889 51.0129 89.6201 -0.0015 -27.1481 0.0006
# 4 -0.0005 -0.0007 -0.0015 19.8796 0.0005 -10.5257
# 5 -36.1447 -7.4318 -27.1481 0.0005 51.6407 -0.0001
# 6 0.0002 0.0003 0.0006 -10.5257 -0.0001 29.9047
#
#
#
# Elastic Compliance Matrix: (Units=1/GPa)
#
#
# Indices 1 2 3 4 5 6 
#
# 1 0.029263 0.000083 -0.010417 0.000000 0.015018 0.000000
# 2 0.000083 0.013366 -0.008385 0.000000 -0.002427 0.000000
# 3 -0.010417 -0.008385 0.022203 0.000001 0.003175 0.000000
# 4 0.000000 0.000000 0.000001 0.061825 0.000000 0.021761
# 5 0.015018 -0.002427 0.003175 0.000000 0.031196 0.000000
# 6 0.000000 0.000000 0.000000 0.021761 0.000000 0.041099
#
#
# Mechanical properties :
#
#
# Convention : Reuss Voigt Hill
#
# Bulk Modulus (GPa) = 36.50337 55.62593 46.06465
# Shear Modulus (GPa) = 20.36487 29.98554 25.17520
#
# Velocity S-wave (km/s) = 2.93601 3.56264 3.26440
# Velocity P-wave (km/s) = 5.19084 6.36151 5.80576
#
# Compressibility (1/GPa) = 0.02739473
#
# Stress axis : x y z
#
# Youngs Moduli (GPa) = 34.17264 74.81851 45.03797
#
# Poissons Ratio (x) = -0.00622 0.46914
# Poissons Ratio (y) = -0.00284 0.37766
# Poissons Ratio (z) = 0.35596 0.62738
#
# Static dielectric constant tensor:
#      x y z
#    x 1.937560 0.000000 -0.010120 
#    y 0.000000 1.958740 0.000000 
#    z -0.010120 0.000000 1.847290 
# 
# From -- ./inp_files/19432.got.cif
#   From: 2010.05.17/outbox.cif.g08.bks.cpg/sg9_10_cif.got.tgz:19432.got - 2010.06.03 20:04:27.
