data_PCOD9134969
_publ_section_title
;
Structure prediction by ZEFSAII (Michael W. Deem and Ramdas Pophale) SiO2 
 PCOD9134969
Probable space group: C C
;
_chemical_formula_sum "Si O2"
_cell_formula_units_Z 32
_cell_length_a 13.175320
_cell_length_b 7.356266
_cell_length_c 14.912088
_cell_angle_alpha 90.000000
_cell_angle_beta 117.839516
_cell_angle_gamma 90.000000
_cell_volume 1278.016895
_symmetry_space_group_name_H-M "C C"
_symmetry_group_IT_number 9
_symmetry_cell_setting 'monoclinic'
loop_
_space_group_symop_operation_xyz
x,y,z
x,-y,1/2+z
1/2+x,1/2+y,z
1/2+x,1/2-y,1/2+z
loop_
_atom_site_type_symbol
_atom_site_label
_atom_site_fract_x
_atom_site_fract_y
_atom_site_fract_z
Si Si1 0.375000 0.254774 0.841920
Si Si2 0.458356 0.902489 0.560112
Si Si3 0.022069 0.009958 0.272700
Si Si4 0.180274 0.223651 0.644985
Si Si5 0.066384 0.793079 0.605322
Si Si6 0.829346 0.072526 0.949270
Si Si7 0.720700 0.447995 0.974101
Si Si8 0.784530 0.892489 0.121978
O O1 0.468153 0.323632 0.809113
O O2 0.274876 0.144171 0.750857
O O3 0.314282 0.434030 0.860994
O O4 0.435969 0.142777 0.946054
O O5 0.554034 0.760389 0.630844
O O6 0.514784 0.095045 0.602685
O O7 0.330548 0.928591 0.542938
O O8 0.065176 0.097294 0.197562
O O9 0.129286 0.945859 0.375962
O O10 0.912992 0.876416 0.215316
O O11 0.170639 0.121941 0.546943
O O12 0.234286 0.418327 0.641562
O O13 0.188749 0.752454 0.611275
O O14 0.965277 0.882164 0.504291
O O15 0.764336 0.265948 0.936972
O O16 0.800763 0.951977 0.025137
#
# Coordination Sequence:
#
# PCOD9134969 Si02
#       8
#     4   4   4   4   4   4   4   4
#     4  11  21  38  63  93 131 166 211 271 330 379
#     4  10  20  38  61  91 125 163 213 264 316 381
#     4  10  20  35  65  96 126 172 218 259 328 386
#     4   9  19  38  61  90 126 167 212 264 319 384
#     4   9  19  40  67  90 126 172 220 261 321 396
#     4   9  20  36  60  91 124 169 213 264 326 379
#     4  10  20  39  63  90 126 172 222 258 312 396
#     4   8  17  36  60  89 122 163 215 261 310 385
#
# _framework density 25.038792000000001
#
# number of rings (size 3 to 8) (size 9 to 14) (size 15 to 20)
#    0.000    2.500    1.250    2.250    5.250    0.000 
#    6.750    0.000    2.750    0.000    0.000    0.000 
#    0.000    0.000    0.000    0.000    0.000    0.000 
#
# Total GULP energy -89458.352953 kJ/mol
# GULP energy per Si atom -5591.147060 kJ/mol
# Density = 2.498180 g / cm^3
# Si number density = 25.038792 Si / 1000 Ang^3
#
#
#
# Elastic Constant Matrix: (Units=GPa)
#
#
# Indices 1 2 3 4 5 6 
#
# 1 186.6618 37.7637 40.3464 0.0000 18.4414 0.0000
# 2 37.7637 87.4966 6.7024 0.0000 -4.0467 0.0000
# 3 40.3464 6.7024 80.2394 0.0000 18.1730 0.0000
# 4 0.0000 0.0000 0.0000 22.0834 0.0000 3.2886
# 5 18.4414 -4.0467 18.1730 0.0000 40.8548 0.0000
# 6 0.0000 0.0000 0.0000 3.2886 0.0000 45.5973
#
#
#
# Elastic Compliance Matrix: (Units=1/GPa)
#
#
# Indices 1 2 3 4 5 6 
#
# 1 0.006706 -0.002789 -0.002659 0.000000 -0.002120 0.000000
# 2 -0.002789 0.012775 -0.000263 0.000000 0.002641 0.000000
# 3 -0.002659 -0.000263 0.015074 0.000000 -0.005531 0.000000
# 4 0.000000 0.000000 0.000000 0.045775 0.000000 -0.003301
# 5 -0.002120 0.002641 -0.005531 0.000000 0.028156 0.000000
# 6 0.000000 0.000000 0.000000 -0.003301 0.000000 0.022169
#
#
# Mechanical properties :
#
#
# Convention : Reuss Voigt Hill
#
# Bulk Modulus (GPa) = 43.22596 58.22476 50.72536
# Shear Modulus (GPa) = 33.38087 39.67944 36.53016
#
# Velocity S-wave (km/s) = 3.65522 3.98517 3.82375
# Velocity P-wave (km/s) = 5.92581 6.66931 6.30852
#
# Compressibility (1/GPa) = 0.02313425
#
# Stress axis : x y z
#
# Youngs Moduli (GPa) = 149.12990 78.27870 66.33841
#
# Poissons Ratio (x) = 0.21828 0.17636
# Poissons Ratio (y) = 0.41586 0.01745
# Poissons Ratio (z) = 0.39647 0.02060
#
# Static dielectric constant tensor:
#      x y z
#    x 1.994550 0.000000 0.015450 
#    y 0.000000 1.979630 0.000000 
#    z 0.015450 0.000000 1.980740 
# 
# From -- ./inp_files/24288.got.cif
#   From: 2010.05.17/outbox.cif.g08.bks.cpg/sg9_13_cif.got.tgz:24288.got - 2010.06.03 20:04:27.
