data_PCOD9134578
_publ_section_title
;
Structure prediction by ZEFSAII (Michael W. Deem and Ramdas Pophale) SiO2 
 PCOD9134578
Probable space group: C C
;
_chemical_formula_sum "Si O2"
_cell_formula_units_Z 32
_cell_length_a 21.087401
_cell_length_b 13.687296
_cell_length_c 14.072039
_cell_angle_alpha 90.000000
_cell_angle_beta 159.804814
_cell_angle_gamma 90.000000
_cell_volume 1402.144817
_symmetry_space_group_name_H-M "C C"
_symmetry_group_IT_number 9
_symmetry_cell_setting 'monoclinic'
loop_
_space_group_symop_operation_xyz
x,y,z
x,-y,1/2+z
1/2+x,1/2+y,z
1/2+x,1/2-y,1/2+z
loop_
_atom_site_type_symbol
_atom_site_label
_atom_site_fract_x
_atom_site_fract_y
_atom_site_fract_z
Si Si1 0.852370 0.360536 0.207400
Si Si2 0.703596 0.136207 0.695608
Si Si3 0.495829 0.253571 0.248899
Si Si4 0.598729 0.707137 0.181347
Si Si5 0.884664 0.957668 0.885400
Si Si6 0.188194 0.055727 0.962336
Si Si7 0.231272 0.747569 0.209721
Si Si8 0.973850 0.921051 0.337996
O O1 0.731006 0.327171 0.127024
O O2 0.042091 0.300503 0.479206
O O3 0.751285 0.322451 0.970676
O O4 0.855628 0.479373 0.203075
O O5 0.573841 0.169438 0.425716
O O6 0.622559 0.183476 0.676222
O O7 0.753828 0.023030 0.767808
O O8 0.900328 0.187108 0.948555
O O9 0.661126 0.326755 0.443531
O O10 0.378827 0.332021 0.147923
O O11 0.362472 0.217536 0.979559
O O12 0.605782 0.639023 0.096386
O O13 0.830908 0.846891 0.805836
O O14 0.871485 0.007631 0.764523
O O15 0.082430 0.963055 0.214932
O O16 0.069611 0.022490 0.887491
#
# Coordination Sequence:
#
# PCOD9134578 Si02
#       8
#     4   4   4   4   4   4   4   4
#     4  12  24  41  62  94 133 170 215 267 325 392
#     4  10  19  37  70  90 122 160 219 268 314 380
#     4   8  20  41  63  93 125 170 206 265 326 384
#     4  10  20  37  61  98 120 163 213 267 317 376
#     4  10  20  40  64  95 123 164 214 268 322 382
#     4   9  19  39  66  87 126 166 205 263 327 383
#     4  11  27  41  60  93 135 170 216 260 336 389
#     4   8  17  36  68  84 122 159 206 258 321 370
#
# _framework density 22.822178999999998
#
# number of rings (size 3 to 8) (size 9 to 14) (size 15 to 20)
#    0.750    1.500    2.500    0.750    1.750    4.000 
#    0.000    3.750    0.000    0.000    0.000    0.000 
#    0.000    0.000    0.000    0.000    0.000    0.000 
#
# Total GULP energy -89128.783416 kJ/mol
# GULP energy per Si atom -5570.548964 kJ/mol
# Density = 2.277023 g / cm^3
# Si number density = 22.822179 Si / 1000 Ang^3
#
#
#
# Elastic Constant Matrix: (Units=GPa)
#
#
# Indices 1 2 3 4 5 6 
#
# 1 52.0887 5.7178 8.5641 0.0000 -7.1981 0.0000
# 2 5.7178 77.4217 13.3084 0.0000 -2.5084 0.0000
# 3 8.5641 13.3084 53.4696 0.0000 0.0412 0.0000
# 4 0.0000 0.0000 0.0000 20.7884 0.0000 9.3754
# 5 -7.1981 -2.5084 0.0412 0.0000 36.2197 0.0000
# 6 0.0000 0.0000 0.0000 9.3754 0.0000 29.8715
#
#
#
# Elastic Compliance Matrix: (Units=1/GPa)
#
#
# Indices 1 2 3 4 5 6 
#
# 1 0.020344 -0.000849 -0.003050 0.000000 0.003988 0.000000
# 2 -0.000849 0.013561 -0.003240 0.000000 0.000774 0.000000
# 3 -0.003050 -0.003240 0.019998 0.000000 -0.000853 0.000000
# 4 0.000000 0.000000 0.000000 0.056035 0.000000 -0.017587
# 5 0.003988 0.000774 -0.000853 0.000000 0.028456 0.000000
# 6 0.000000 0.000000 0.000000 -0.017587 0.000000 0.038997
#
#
# Mechanical properties :
#
#
# Convention : Reuss Voigt Hill
#
# Bulk Modulus (GPa) = 25.23690 26.46227 25.84958
# Shear Modulus (GPa) = 24.40487 27.73523 26.07005
#
# Velocity S-wave (km/s) = 3.27364 3.48986 3.38348
# Velocity P-wave (km/s) = 5.03696 5.27816 5.15897
#
# Compressibility (1/GPa) = 0.03962452
#
# Stress axis : x y z
#
# Youngs Moduli (GPa) = 49.15508 73.74101 50.00550
#
# Poissons Ratio (x) = 0.06260 0.15253
# Poissons Ratio (y) = 0.04173 0.16201
# Poissons Ratio (z) = 0.14993 0.23891
#
# Static dielectric constant tensor:
#      x y z
#    x 1.907390 0.000000 0.072520 
#    y 0.000000 1.885670 0.000000 
#    z 0.072520 0.000000 1.858340 
# 
# From -- ./inp_files/27821.got.cif
#   From: 2010.05.17/outbox.cif.g08.bks.cpg/sg9_14_cif.got.tgz:27821.got - 2010.06.03 20:04:27.
