data_PCOD9134181
_publ_section_title
;
Structure prediction by ZEFSAII (Michael W. Deem and Ramdas Pophale) SiO2 
 PCOD9134181
Probable space group: C C
;
_chemical_formula_sum "Si O2"
_cell_formula_units_Z 32
_cell_length_a 12.465429
_cell_length_b 15.363598
_cell_length_c 7.944830
_cell_angle_alpha 90.000000
_cell_angle_beta 73.970216
_cell_angle_gamma 90.000000
_cell_volume 1462.384622
_symmetry_space_group_name_H-M "C C"
_symmetry_group_IT_number 9
_symmetry_cell_setting 'monoclinic'
loop_
_space_group_symop_operation_xyz
x,y,z
x,-y,1/2+z
1/2+x,1/2+y,z
1/2+x,1/2-y,1/2+z
loop_
_atom_site_type_symbol
_atom_site_label
_atom_site_fract_x
_atom_site_fract_y
_atom_site_fract_z
Si Si1 0.549840 0.965565 0.581000
Si Si2 0.872032 0.089810 0.497968
Si Si3 0.383401 0.842124 0.540667
Si Si4 0.200043 0.259186 0.991784
Si Si5 0.795464 0.291028 0.951467
Si Si6 0.518163 0.134717 0.445283
Si Si7 0.293689 0.593938 0.907690
Si Si8 0.073557 0.202862 0.385893
O O1 0.438444 0.936308 0.529623
O O2 0.541526 0.920235 0.765997
O O3 0.662966 0.930223 0.447113
O O4 0.552472 0.069586 0.580338
O O5 0.781180 0.156109 0.457047
O O6 0.854208 0.103885 0.703558
O O7 0.995036 0.119513 0.388620
O O8 0.845984 0.989441 0.475239
O O9 0.287182 0.821038 0.447397
O O10 0.336835 0.814811 0.744017
O O11 0.486304 0.777211 0.471754
O O12 0.136096 0.239670 0.194645
O O13 0.100112 0.282192 0.909256
O O14 0.801994 0.188332 0.988290
O O15 0.664912 0.313761 0.992059
O O16 0.889577 0.338798 0.018398
#
# Coordination Sequence:
#
# PCOD9134181 Si02
#       8
#     4   4   4   4   4   4   4   4
#     4  11  22  39  63  90 132 166 212 272 317 376
#     4  11  23  36  65  98 124 165 215 263 325 366
#     4   9  18  36  65  83 117 169 209 250 325 371
#     4  10  20  38  61  93 123 159 219 256 312 387
#     4  10  21  40  61  87 125 169 211 255 321 390
#     4  11  25  39  61  99 125 164 219 268 325 380
#     4  12  21  39  62  96 125 163 215 264 317 380
#     4  10  18  39  64  84 125 173 202 258 324 382
#
# _framework density 21.882068
#
# number of rings (size 3 to 8) (size 9 to 14) (size 15 to 20)
#    0.000    1.500    6.250    0.750    1.750    1.000 
#    2.250    5.000    0.000    0.000    0.000    0.000 
#    0.000    0.000    0.000    0.000    0.000    0.000 
#
# Total GULP energy -89268.621444 kJ/mol
# GULP energy per Si atom -5579.288840 kJ/mol
# Density = 2.183226 g / cm^3
# Si number density = 21.882068 Si / 1000 Ang^3
#
#
#
# Elastic Constant Matrix: (Units=GPa)
#
#
# Indices 1 2 3 4 5 6 
#
# 1 101.6444 22.8981 -4.5466 0.0000 -3.6578 0.0000
# 2 22.8981 75.4466 -13.4924 0.0000 1.1138 0.0000
# 3 -4.5466 -13.4924 30.0156 0.0000 1.1178 0.0000
# 4 0.0000 0.0000 0.0000 22.5908 0.0000 0.0856
# 5 -3.6578 1.1138 1.1178 0.0000 19.5701 0.0000
# 6 0.0000 0.0000 0.0000 0.0856 0.0000 46.5511
#
#
#
# Elastic Compliance Matrix: (Units=1/GPa)
#
#
# Indices 1 2 3 4 5 6 
#
# 1 0.010652 -0.003252 0.000071 0.000000 0.002172 0.000000
# 2 -0.003252 0.015434 0.006514 0.000000 -0.001858 0.000000
# 3 0.000071 0.006514 0.036346 0.000000 -0.002433 0.000000
# 4 0.000000 0.000000 0.000000 0.044266 0.000000 -0.000081
# 5 0.002172 -0.001858 -0.002433 0.000000 0.051749 0.000000
# 6 0.000000 0.000000 0.000000 -0.000081 0.000000 0.021482
#
#
# Mechanical properties :
#
#
# Convention : Reuss Voigt Hill
#
# Bulk Modulus (GPa) = 14.47244 24.09162 19.28203
# Shear Modulus (GPa) = 25.47173 31.22555 28.34864
#
# Velocity S-wave (km/s) = 3.41551 3.78165 3.60324
# Velocity P-wave (km/s) = 4.70983 5.48649 5.11293
#
# Compressibility (1/GPa) = 0.06909686
#
# Stress axis : x y z
#
# Youngs Moduli (GPa) = 93.87704 64.79235 27.51369
#
# Poissons Ratio (x) = 0.21073 -0.00194
# Poissons Ratio (y) = 0.30532 -0.17923
# Poissons Ratio (z) = -0.00664 -0.42208
#
# Static dielectric constant tensor:
#      x y z
#    x 1.859210 0.000000 0.041770 
#    y 0.000000 1.804330 0.000000 
#    z 0.041770 0.000000 1.842710 
# 
# From -- ./inp_files/7877.got.cif
#   From: 2010.05.17/outbox.cif.g08.bks.cpg/sg9_4_cif.got.tgz:7877.got - 2010.06.03 20:04:27.
