data_PCOD9134430
_publ_section_title
;
Structure prediction by ZEFSAII (Michael W. Deem and Ramdas Pophale) SiO2 
 PCOD9134430
Probable space group: C C
;
_chemical_formula_sum "Si O2"
_cell_formula_units_Z 28
_cell_length_a 24.568843
_cell_length_b 11.904334
_cell_length_c 9.386054
_cell_angle_alpha 90.000000
_cell_angle_beta 147.398696
_cell_angle_gamma 90.000000
_cell_volume 1479.082334
_symmetry_space_group_name_H-M "C C"
_symmetry_group_IT_number 9
_symmetry_cell_setting 'monoclinic'
loop_
_space_group_symop_operation_xyz
x,y,z
x,-y,1/2+z
1/2+x,1/2+y,z
1/2+x,1/2-y,1/2+z
loop_
_atom_site_type_symbol
_atom_site_label
_atom_site_fract_x
_atom_site_fract_y
_atom_site_fract_z
Si Si1 0.079130 0.750057 0.458140
Si Si2 0.303972 0.742617 0.975610
Si Si3 0.933147 0.918480 0.259015
Si Si4 0.986305 0.363632 0.305627
Si Si5 0.303789 0.456368 0.247407
Si Si6 0.074059 0.480412 0.775314
Si Si7 0.504814 0.650405 0.508170
O O1 0.190081 0.763202 0.770436
O O2 0.066712 0.622921 0.373287
O O3 0.068622 0.822176 0.288349
O O4 0.993155 0.803464 0.368022
O O5 0.297380 0.652232 0.834569
O O6 0.365709 0.848075 0.050450
O O7 0.385771 0.688280 0.264823
O O8 0.849238 0.919096 0.197419
O O9 0.006643 0.022061 0.464588
O O10 0.878623 0.960175 0.995173
O O11 0.020291 0.439386 0.513711
O O12 0.024771 0.414344 0.244491
O O13 0.031267 0.239417 0.441035
O O14 0.190469 0.502368 0.991417
#
# Coordination Sequence:
#
# PCOD9134430 Si02
#       7
#     4   4   4   4   4   4   4
#     4  10  19  36  59  80 113 150 182 230 290 325
#     4   8  19  37  56  77 116 150 179 230 281 331
#     4  11  19  35  60  86 110 146 186 235 276 342
#     4   9  19  37  57  77 115 148 185 228 280 328
#     4  10  20  34  60  85 108 145 192 230 281 326
#     4  10  20  37  59  82 111 150 184 238 279 331
#     4   8  18  36  55  77 115 145 180 237 271 329
#
# _framework density 18.930655999999999
#
# number of rings (size 3 to 8) (size 9 to 14) (size 15 to 20)
#    0.857    1.714    1.429    0.857    0.000    1.143 
#    2.571    0.000    6.286    0.000    0.000    0.000 
#    0.000    0.000    0.000    0.000    0.000    0.000 
#
# Total GULP energy -77941.377096 kJ/mol
# GULP energy per Si atom -5567.241221 kJ/mol
# Density = 1.888757 g / cm^3
# Si number density = 18.930656 Si / 1000 Ang^3
#
#
#
# Elastic Constant Matrix: (Units=GPa)
#
#
# Indices 1 2 3 4 5 6 
#
# 1 73.1853 19.9537 7.7296 0.0000 14.0507 0.0000
# 2 19.9537 40.2169 0.5876 0.0000 3.7117 0.0000
# 3 7.7296 0.5876 65.8060 0.0000 10.9457 0.0000
# 4 0.0000 0.0000 0.0000 15.2170 0.0000 -0.7346
# 5 14.0507 3.7117 10.9457 0.0000 18.1973 0.0000
# 6 0.0000 0.0000 0.0000 -0.7346 0.0000 30.2081
#
#
#
# Elastic Compliance Matrix: (Units=1/GPa)
#
#
# Indices 1 2 3 4 5 6 
#
# 1 0.018203 -0.007882 0.000003 0.000000 -0.012449 0.000000
# 2 -0.007882 0.028785 0.000703 0.000000 -0.000208 0.000000
# 3 0.000003 0.000703 0.016905 0.000000 -0.010314 0.000000
# 4 0.000000 0.000000 0.000000 0.065793 0.000000 0.001600
# 5 -0.012449 -0.000208 -0.010314 0.000000 0.070812 0.000000
# 6 0.000000 0.000000 0.000000 0.001600 0.000000 0.033143
#
#
# Mechanical properties :
#
#
# Convention : Reuss Voigt Hill
#
# Bulk Modulus (GPa) = 20.18533 26.19443 23.18988
# Shear Modulus (GPa) = 18.90313 22.78697 20.84505
#
# Velocity S-wave (km/s) = 3.16341 3.47321 3.32192
# Velocity P-wave (km/s) = 4.90192 5.47278 5.19520
#
# Compressibility (1/GPa) = 0.04954092
#
# Stress axis : x y z
#
# Youngs Moduli (GPa) = 54.93661 34.74030 59.15352
#
# Poissons Ratio (x) = 0.27384 -0.00017
# Poissons Ratio (y) = 0.43304 -0.04161
# Poissons Ratio (z) = -0.00016 -0.02444
#
# Static dielectric constant tensor:
#      x y z
#    x 1.677960 0.000000 0.014240 
#    y 0.000000 1.687750 0.000000 
#    z 0.014240 0.000000 1.673190 
# 
# From -- ./inp_files/8971.got.cif
#   From: 2010.05.17/outbox.cif.g08.bks.cpg/sg9_5_cif.got.tgz:8971.got - 2010.06.03 20:04:27.
