data_PCOD9134601
_publ_section_title
;
Structure prediction by ZEFSAII (Michael W. Deem and Ramdas Pophale) SiO2 
 PCOD9134601
Probable space group: C C
;
_chemical_formula_sum "Si O2"
_cell_formula_units_Z 32
_cell_length_a 16.749065
_cell_length_b 10.254770
_cell_length_c 14.158260
_cell_angle_alpha 90.000000
_cell_angle_beta 32.209973
_cell_angle_gamma 90.000000
_cell_volume 1296.202275
_symmetry_space_group_name_H-M "C C"
_symmetry_group_IT_number 9
_symmetry_cell_setting 'monoclinic'
loop_
_space_group_symop_operation_xyz
x,y,z
x,-y,1/2+z
1/2+x,1/2+y,z
1/2+x,1/2-y,1/2+z
loop_
_atom_site_type_symbol
_atom_site_label
_atom_site_fract_x
_atom_site_fract_y
_atom_site_fract_z
Si Si1 0.104150 0.719773 0.235230
Si Si2 0.328501 0.074543 0.588373
Si Si3 0.807963 0.423642 0.424197
Si Si4 0.577375 0.220961 0.560455
Si Si5 0.467695 0.675926 0.552278
Si Si6 0.808775 0.620632 0.261138
Si Si7 0.357555 0.419485 0.712074
Si Si8 0.367392 0.369222 0.349399
O O1 0.994797 0.619399 0.394612
O O2 0.995617 0.820830 0.289476
O O3 0.220339 0.800709 0.181261
O O4 0.207134 0.645712 0.055743
O O5 0.277672 0.967753 0.561555
O O6 0.313973 0.026388 0.708291
O O7 0.683457 0.322307 0.510819
O O8 0.811196 0.562599 0.366739
O O9 0.967289 0.354907 0.242173
O O10 0.471425 0.301303 0.594690
O O11 0.688088 0.124058 0.393686
O O12 0.638311 0.664851 0.406469
O O13 0.419380 0.814120 0.564286
O O14 0.396503 0.536489 0.599679
O O15 0.376234 0.717850 0.743102
O O16 0.394399 0.491331 0.775626
#
# Coordination Sequence:
#
# PCOD9134601 Si02
#       8
#     4   4   4   4   4   4   4   4
#     4  10  19  38  62  92 130 163 216 271 319 376
#     4  11  25  41  64  97 130 174 217 275 320 388
#     4  11  23  41  66  94 132 173 213 269 323 381
#     4  10  20  37  61  95 128 172 212 255 322 390
#     4  10  22  39  64  94 125 163 216 272 320 390
#     4  12  25  43  65  97 129 167 222 271 329 391
#     4   9  19  32  58  95 121 163 214 257 314 379
#     4   9  17  33  66  94 117 165 214 260 319 377
#
# _framework density 24.687505000000002
#
# number of rings (size 3 to 8) (size 9 to 14) (size 15 to 20)
#    0.750    1.000    1.250    4.500    1.750    2.000 
#    0.000    2.500    0.000    0.000    0.000    0.000 
#    0.000    0.000    0.000    0.000    0.000    0.000 
#
# Total GULP energy -89338.414962 kJ/mol
# GULP energy per Si atom -5583.650935 kJ/mol
# Density = 2.463132 g / cm^3
# Si number density = 24.687505 Si / 1000 Ang^3
#
#
#
# Elastic Constant Matrix: (Units=GPa)
#
#
# Indices 1 2 3 4 5 6 
#
# 1 43.1253 2.9020 21.7073 0.0000 2.1637 0.0000
# 2 2.9020 75.1097 14.0616 0.0000 -13.2511 0.0000
# 3 21.7073 14.0616 117.7403 0.0000 -33.2818 0.0000
# 4 0.0000 0.0000 0.0000 50.0189 0.0000 -4.9726
# 5 2.1637 -13.2511 -33.2818 0.0000 37.3090 0.0000
# 6 0.0000 0.0000 0.0000 -4.9726 0.0000 32.6276
#
#
#
# Elastic Compliance Matrix: (Units=1/GPa)
#
#
# Indices 1 2 3 4 5 6 
#
# 1 0.027382 -0.001195 -0.007320 0.000000 -0.008542 0.000000
# 2 -0.001195 0.014268 -0.000042 0.000000 0.005099 0.000000
# 3 -0.007320 -0.000042 0.013323 0.000000 0.012295 0.000000
# 4 0.000000 0.000000 0.000000 0.020300 0.000000 0.003094
# 5 -0.008542 0.005099 0.012295 0.000000 0.040077 0.000000
# 6 0.000000 0.000000 0.000000 0.003094 0.000000 0.031120
#
#
# Mechanical properties :
#
#
# Convention : Reuss Voigt Hill
#
# Bulk Modulus (GPa) = 26.41443 34.81303 30.61373
# Shear Modulus (GPa) = 28.37617 37.14473 32.76045
#
# Velocity S-wave (km/s) = 3.39398 3.88312 3.64676
# Velocity P-wave (km/s) = 5.10701 5.85123 5.49174
#
# Compressibility (1/GPa) = 0.03785809
#
# Stress axis : x y z
#
# Youngs Moduli (GPa) = 36.52047 70.08933 75.05650
#
# Poissons Ratio (x) = 0.08373 0.54944
# Poissons Ratio (y) = 0.04363 0.00318
# Poissons Ratio (z) = 0.26734 0.00297
#
# Static dielectric constant tensor:
#      x y z
#    x 1.974770 0.000000 0.029040 
#    y 0.000000 2.053600 0.000000 
#    z 0.029040 0.000000 1.946040 
# 
# From -- ./inp_files/26829.got.cif
#   From: 2010.05.17/outbox.cif.g08.bks.cpg/sg9_14_cif.got.tgz:26829.got - 2010.06.03 20:04:27.
