data_PCOD9134750
_publ_section_title
;
Structure prediction by ZEFSAII (Michael W. Deem and Ramdas Pophale) SiO2 
 PCOD9134750
Probable space group: C C
;
_chemical_formula_sum "Si O2"
_cell_formula_units_Z 32
_cell_length_a 10.738624
_cell_length_b 8.457112
_cell_length_c 16.461569
_cell_angle_alpha 90.000000
_cell_angle_beta 71.162292
_cell_angle_gamma 90.000000
_cell_volume 1414.925711
_symmetry_space_group_name_H-M "C C"
_symmetry_group_IT_number 9
_symmetry_cell_setting 'monoclinic'
loop_
_space_group_symop_operation_xyz
x,y,z
x,-y,1/2+z
1/2+x,1/2+y,z
1/2+x,1/2-y,1/2+z
loop_
_atom_site_type_symbol
_atom_site_label
_atom_site_fract_x
_atom_site_fract_y
_atom_site_fract_z
Si Si1 0.850050 0.776152 0.190930
Si Si2 0.124598 0.415916 0.876387
Si Si3 0.388467 0.218773 0.525567
Si Si4 0.559092 0.756844 0.319845
Si Si5 0.390658 0.492739 0.409696
Si Si6 0.219923 0.953989 0.601657
Si Si7 0.945167 0.141380 0.171063
Si Si8 0.577362 0.697307 0.748851
O O1 0.716657 0.742526 0.270613
O O2 0.816789 0.681260 0.115406
O O3 0.986641 0.714443 0.201376
O O4 0.876087 0.967151 0.183189
O O5 0.049057 0.566281 0.854768
O O6 0.256519 0.456927 0.895556
O O7 0.158791 0.307533 0.791392
O O8 0.026658 0.331933 0.959120
O O9 0.356669 0.388800 0.494734
O O10 0.287684 0.077536 0.527594
O O11 0.379275 0.236367 0.624173
O O12 0.491844 0.637671 0.397850
O O13 0.482918 0.714907 0.251150
O O14 0.468017 0.379071 0.330984
O O15 0.156370 0.057496 0.689224
O O16 0.086931 0.879893 0.596171
#
# Coordination Sequence:
#
# PCOD9134750 Si02
#       8
#     4   4   4   4   4   4   4   4
#     4  10  19  40  69  98 127 165 229 278 334 385
#     4  11  26  41  67 100 134 183 224 271 350 405
#     4  11  28  43  63  99 142 177 216 280 351 405
#     4  11  21  41  73  96 129 178 231 273 331 403
#     4  11  23  46  63  96 142 174 220 283 336 402
#     4  10  23  41  67  98 134 173 222 275 343 405
#     4  10  23  44  64 102 134 174 223 287 333 401
#     4  10  21  40  66 101 128 170 225 281 322 400
#
# _framework density 22.616029000000001
#
# number of rings (size 3 to 8) (size 9 to 14) (size 15 to 20)
#    0.000    1.500    5.000    0.000    5.250    7.000 
#    0.000    0.000    0.000    0.000    0.000    0.000 
#    0.000    0.000    0.000    0.000    0.000    0.000 
#
# Total GULP energy -89250.834019 kJ/mol
# GULP energy per Si atom -5578.177126 kJ/mol
# Density = 2.256455 g / cm^3
# Si number density = 22.616029 Si / 1000 Ang^3
#
#
#
# Elastic Constant Matrix: (Units=GPa)
#
#
# Indices 1 2 3 4 5 6 
#
# 1 100.7041 45.2420 19.4158 0.0000 3.6171 0.0000
# 2 45.2420 84.5659 22.6326 0.0000 6.4990 0.0000
# 3 19.4158 22.6326 53.5271 0.0000 -8.0905 0.0000
# 4 0.0000 0.0000 0.0000 31.5900 0.0000 -2.3777
# 5 3.6171 6.4990 -8.0905 0.0000 12.5202 0.0000
# 6 0.0000 0.0000 0.0000 -2.3777 0.0000 46.3552
#
#
#
# Elastic Compliance Matrix: (Units=1/GPa)
#
#
# Indices 1 2 3 4 5 6 
#
# 1 0.013315 -0.006283 -0.002506 0.000000 -0.002205 0.000000
# 2 -0.006283 0.018051 -0.007198 0.000000 -0.012206 0.000000
# 3 -0.002506 -0.007198 0.025832 0.000000 0.021153 0.000000
# 4 0.000000 0.000000 0.000000 0.031778 0.000000 0.001630
# 5 -0.002205 -0.012206 0.021153 0.000000 0.100513 0.000000
# 6 0.000000 0.000000 0.000000 0.001630 0.000000 0.021656
#
#
# Mechanical properties :
#
#
# Convention : Reuss Voigt Hill
#
# Bulk Modulus (GPa) = 39.64684 45.93086 42.78885
# Shear Modulus (GPa) = 19.87832 28.19352 24.03592
#
# Velocity S-wave (km/s) = 2.96792 3.53458 3.26357
# Velocity P-wave (km/s) = 5.41417 6.08364 5.75864
#
# Compressibility (1/GPa) = 0.02522269
#
# Stress axis : x y z
#
# Youngs Moduli (GPa) = 75.10127 55.39788 38.71142
#
# Poissons Ratio (x) = 0.34809 0.09702
# Poissons Ratio (y) = 0.47189 0.27866
# Poissons Ratio (z) = 0.18823 0.39877
#
# Static dielectric constant tensor:
#      x y z
#    x 1.858030 0.000000 -0.000050 
#    y 0.000000 1.859930 0.000000 
#    z -0.000050 0.000000 1.880600 
# 
# From -- ./inp_files/29807.got.cif
#   From: 2010.05.17/outbox.cif.g08.bks.cpg/sg9_15_cif.got.tgz:29807.got - 2010.06.03 20:04:27.
