data_PCOD9134376
_publ_section_title
;
Structure prediction by ZEFSAII (Michael W. Deem and Ramdas Pophale) SiO2 
 PCOD9134376
Probable space group: C C
;
_chemical_formula_sum "Si O2"
_cell_formula_units_Z 24
_cell_length_a 25.883524
_cell_length_b 8.189798
_cell_length_c 5.294773
_cell_angle_alpha 90.000000
_cell_angle_beta 89.754372
_cell_angle_gamma 90.000000
_cell_volume 1122.380078
_symmetry_space_group_name_H-M "C C"
_symmetry_group_IT_number 9
_symmetry_cell_setting 'monoclinic'
loop_
_space_group_symop_operation_xyz
x,y,z
x,-y,1/2+z
1/2+x,1/2+y,z
1/2+x,1/2-y,1/2+z
loop_
_atom_site_type_symbol
_atom_site_label
_atom_site_fract_x
_atom_site_fract_y
_atom_site_fract_z
Si Si1 0.833350 0.605105 0.761910
Si Si2 0.950524 0.599951 0.691736
Si Si3 0.649521 0.609935 0.257609
Si Si4 0.719842 0.095133 0.750462
Si Si5 0.062476 0.612644 0.782457
Si Si6 0.830919 0.043179 0.247164
O O1 0.824614 0.492140 0.519667
O O2 0.893423 0.666293 0.747043
O O3 0.805590 0.777882 0.750038
O O4 0.951736 0.549738 0.396591
O O5 0.004242 0.685763 0.757712
O O6 0.647157 0.498155 0.505759
O O7 0.701058 0.720316 0.256417
O O8 0.604112 0.744720 0.263916
O O9 0.701000 0.002517 0.498645
O O10 0.781816 0.078887 0.748776
O O11 0.067395 0.486649 0.545962
O O12 0.861293 0.999377 0.496387
#
# Coordination Sequence:
#
# PCOD9134376 Si02
#       6
#     4   4   4   4   4   4
#     4  10  19  35  58  85 112 142 184 234 272 314
#     4   8  16  30  53  82 110 142 182 218 264 327
#     4  12  24  38  57  85 114 142 182 238 283 317
#     4  10  21  41  60  77 106 146 187 224 272 341
#     4  10  19  36  60  82 110 152 186 216 267 339
#     4  10  21  38  56  79 110 146 185 224 274 336
#
# _framework density 21.383132
#
# number of rings (size 3 to 8) (size 9 to 14) (size 15 to 20)
#    0.000    2.000    0.000    4.000    0.000    0.000 
#    0.000   21.667    0.000    0.000    0.000    0.000 
#    0.000    0.000    0.000    0.000    0.000    0.000 
#
# Total GULP energy -66946.086180 kJ/mol
# GULP energy per Si atom -5578.840515 kJ/mol
# Density = 2.133446 g / cm^3
# Si number density = 21.383132 Si / 1000 Ang^3
#
#
#
# Elastic Constant Matrix: (Units=GPa)
#
#
# Indices 1 2 3 4 5 6 
#
# 1 47.1665 3.6371 -5.9652 0.0000 -1.1121 0.0000
# 2 3.6371 95.0718 65.2510 0.0000 2.2287 0.0000
# 3 -5.9652 65.2510 212.6599 0.0000 1.2728 0.0000
# 4 0.0000 0.0000 0.0000 43.0781 0.0000 -0.6755
# 5 -1.1121 2.2287 1.2728 0.0000 10.1546 0.0000
# 6 0.0000 0.0000 0.0000 -0.6755 0.0000 8.5772
#
#
#
# Elastic Compliance Matrix: (Units=1/GPa)
#
#
# Indices 1 2 3 4 5 6 
#
# 1 0.021526 -0.001631 0.001089 0.000000 0.002579 0.000000
# 2 -0.001631 0.013507 -0.004175 0.000000 -0.002620 0.000000
# 3 0.001089 -0.004175 0.006012 0.000000 0.000282 0.000000
# 4 0.000000 0.000000 0.000000 0.023242 0.000000 0.001830
# 5 0.002579 -0.002620 0.000282 0.000000 0.099300 0.000000
# 6 0.000000 0.000000 0.000000 0.001830 0.000000 0.116732
#
#
# Mechanical properties :
#
#
# Convention : Reuss Voigt Hill
#
# Bulk Modulus (GPa) = 31.63427 53.41599 42.52513
# Shear Modulus (GPa) = 16.65055 31.82701 24.23878
#
# Velocity S-wave (km/s) = 2.79351 3.86219 3.37047
# Velocity P-wave (km/s) = 5.02305 6.70248 5.92260
#
# Compressibility (1/GPa) = 0.03161129
#
# Stress axis : x y z
#
# Youngs Moduli (GPa) = 46.45590 74.03375 166.33134
#
# Poissons Ratio (x) = 0.12077 -0.18112
# Poissons Ratio (y) = 0.07578 0.69436
# Poissons Ratio (z) = -0.05059 0.30906
#
# Static dielectric constant tensor:
#      x y z
#    x 1.859030 0.000000 -0.004150 
#    y 0.000000 1.743520 0.000000 
#    z -0.004150 0.000000 1.875190 
# 
# From -- ./inp_files/3414.got.cif
#   From: 2010.05.17/outbox.cif.g08.bks.cpg/sg9_2_cif.got.tgz:3414.got - 2010.06.03 20:04:27.
