data_PCOD9134029
_publ_section_title
;
Structure prediction by ZEFSAII (Michael W. Deem and Ramdas Pophale) SiO2 
 PCOD9134029
Probable space group: C C
;
_chemical_formula_sum "Si O2"
_cell_formula_units_Z 32
_cell_length_a 22.236431
_cell_length_b 6.896298
_cell_length_c 9.287922
_cell_angle_alpha 90.000000
_cell_angle_beta 126.043126
_cell_angle_gamma 90.000000
_cell_volume 1151.647635
_symmetry_space_group_name_H-M "C C"
_symmetry_group_IT_number 9
_symmetry_cell_setting 'monoclinic'
loop_
_space_group_symop_operation_xyz
x,y,z
x,-y,1/2+z
1/2+x,1/2+y,z
1/2+x,1/2-y,1/2+z
loop_
_atom_site_type_symbol
_atom_site_label
_atom_site_fract_x
_atom_site_fract_y
_atom_site_fract_z
Si Si1 0.501520 0.178639 0.676690
Si Si2 0.193511 0.649496 0.438186
Si Si3 0.747753 0.413623 0.024802
Si Si4 0.843389 0.585004 0.382371
Si Si5 0.120305 0.786408 0.050691
Si Si6 0.932039 0.055989 0.653370
Si Si7 0.837103 0.017591 0.266946
Si Si8 0.070581 0.231263 0.992635
O O1 0.425900 0.055851 0.561778
O O2 0.479943 0.406099 0.628250
O O3 0.554824 0.151368 0.615791
O O4 0.546521 0.183063 0.887931
O O5 0.160921 0.661646 0.230799
O O6 0.255457 0.492581 0.577457
O O7 0.128478 0.670930 0.464537
O O8 0.231383 0.859134 0.494032
O O9 0.812663 0.415060 0.236891
O O10 0.673903 0.323161 0.988789
O O11 0.781908 0.366568 0.918019
O O12 0.851485 0.786068 0.308229
O O13 0.100390 0.009986 0.068504
O O14 0.897204 0.927432 0.732208
O O15 0.991460 0.204329 0.799895
O O16 0.860893 0.105712 0.454552
#
# Coordination Sequence:
#
# PCOD9134029 Si02
#       8
#     4   4   4   4   4   4   4   4
#     4  10  21  34  58  91 120 151 195 247 303 351
#     4  10  21  35  56  93 120 152 195 245 303 354
#     4  10  19  35  61  85 120 150 197 248 294 345
#     4  10  20  38  55  92 118 155 191 250 295 355
#     4  10  19  33  57  91 117 149 198 254 297 338
#     4  10  18  38  58  86 116 154 195 255 288 350
#     4  10  22  37  58  88 124 152 201 247 302 350
#     4  10  18  34  61  88 119 147 196 258 300 339
#
# _framework density 27.786276000000001
#
# number of rings (size 3 to 8) (size 9 to 14) (size 15 to 20)
#    0.000    2.000    3.750    2.250    5.250    0.000 
#    4.500    1.250    0.000    4.500    0.000    0.000 
#    0.000    0.000    0.000    0.000    0.000    0.000 
#
# Total GULP energy -89513.923122 kJ/mol
# GULP energy per Si atom -5594.620195 kJ/mol
# Density = 2.772303 g / cm^3
# Si number density = 27.786276 Si / 1000 Ang^3
#
#
#
# Elastic Constant Matrix: (Units=GPa)
#
#
# Indices 1 2 3 4 5 6 
#
# 1 161.0202 -6.7519 32.3091 0.0000 -7.7406 0.0000
# 2 -6.7519 12.7552 -7.1403 0.0000 15.1726 0.0000
# 3 32.3091 -7.1403 191.8376 0.0000 27.0791 0.0000
# 4 0.0000 0.0000 0.0000 41.5742 0.0000 14.4040
# 5 -7.7406 15.1726 27.0791 0.0000 48.7001 0.0000
# 6 0.0000 0.0000 0.0000 14.4040 0.0000 33.3298
#
#
#
# Elastic Compliance Matrix: (Units=1/GPa)
#
#
# Indices 1 2 3 4 5 6 
#
# 1 0.006578 0.001101 -0.001265 0.000000 0.001406 0.000000
# 2 0.001101 0.150434 0.013027 0.000000 -0.053937 0.000000
# 3 -0.001265 0.013027 0.007067 0.000000 -0.008189 0.000000
# 4 0.000000 0.000000 0.000000 0.028289 0.000000 -0.012226
# 5 0.001406 -0.053937 -0.008189 0.000000 0.042115 0.000000
# 6 0.000000 0.000000 0.000000 -0.012226 0.000000 0.035287
#
#
# Mechanical properties :
#
#
# Convention : Reuss Voigt Hill
#
# Bulk Modulus (GPa) = 5.26857 44.71631 24.99244
# Shear Modulus (GPa) = 16.27013 47.86723 32.06868
#
# Velocity S-wave (km/s) = 2.42243 4.15504 3.40092
# Velocity P-wave (km/s) = 3.11840 6.25676 4.94325
#
# Compressibility (1/GPa) = 0.18980499
#
# Stress axis : x y z
#
# Youngs Moduli (GPa) = 152.02037 6.64743 141.50897
#
# Poissons Ratio (x) = -0.00732 0.17906
# Poissons Ratio (y) = -0.16740 -1.84348
# Poissons Ratio (z) = 0.19236 -0.08660
#
# Static dielectric constant tensor:
#      x y z
#    x 2.065210 0.000000 0.078420 
#    y 0.000000 2.184640 0.000000 
#    z 0.078420 0.000000 2.293850 
# 
# From -- ./inp_files/10737.got.cif
#   From: 2010.05.17/outbox.cif.g08.bks.cpg/sg9_6_cif.got.tgz:10737.got - 2010.06.03 20:04:27.
