data_PCOD9134895
_publ_section_title
;
Structure prediction by ZEFSAII (Michael W. Deem and Ramdas Pophale) SiO2 
 PCOD9134895
Probable space group: C C
;
_chemical_formula_sum "Si O2"
_cell_formula_units_Z 32
_cell_length_a 7.402805
_cell_length_b 17.911716
_cell_length_c 11.327454
_cell_angle_alpha 90.000000
_cell_angle_beta 122.751793
_cell_angle_gamma 90.000000
_cell_volume 1263.203182
_symmetry_space_group_name_H-M "C C"
_symmetry_group_IT_number 9
_symmetry_cell_setting 'monoclinic'
loop_
_space_group_symop_operation_xyz
x,y,z
x,-y,1/2+z
1/2+x,1/2+y,z
1/2+x,1/2-y,1/2+z
loop_
_atom_site_type_symbol
_atom_site_label
_atom_site_fract_x
_atom_site_fract_y
_atom_site_fract_z
Si Si1 0.049490 0.746161 0.076540
Si Si2 0.013179 0.460250 0.492189
Si Si3 0.751011 0.389840 0.828776
Si Si4 0.858360 0.056112 0.734916
Si Si5 0.664905 0.549488 0.049433
Si Si6 0.266045 0.098452 0.715754
Si Si7 0.167286 0.326336 0.014638
Si Si8 0.862493 0.161950 0.335190
O O1 0.195021 0.821114 0.145212
O O2 0.191527 0.679922 0.174084
O O3 0.829916 0.756873 0.074897
O O4 0.961438 0.758364 0.914351
O O5 0.898425 0.538033 0.409279
O O6 0.853370 0.423396 0.530214
O O7 0.988018 0.410493 0.365907
O O8 0.230363 0.486851 0.632051
O O9 0.661903 0.401727 0.666194
O O10 0.554843 0.383966 0.848604
O O11 0.914847 0.320704 0.903921
O O12 0.710045 0.126608 0.648048
O O13 0.071994 0.074044 0.735334
O O14 0.943696 0.047274 0.897564
O O15 0.748339 0.466849 0.113723
O O16 0.254305 0.365176 0.920760
#
# Coordination Sequence:
#
# PCOD9134895 Si02
#       8
#     4   4   4   4   4   4   4   4
#     4   9  20  41  63  87 124 165 223 266 321 369
#     4   9  19  34  58  92 128 160 196 248 328 385
#     4  10  20  41  65  92 130 164 209 267 323 387
#     4   9  18  36  59  93 126 160 203 251 320 387
#     4  10  20  34  59 100 122 160 208 248 328 390
#     4   9  18  36  56  84 127 162 197 257 308 392
#     4   8  20  41  64  87 123 166 207 268 325 373
#     4  10  21  43  64  91 118 171 217 275 315 371
#
# _framework density 25.332426999999999
#
# number of rings (size 3 to 8) (size 9 to 14) (size 15 to 20)
#    0.750    2.000    0.000    0.750    0.000    4.000 
#   13.500    3.750    0.000    0.000    0.000    0.000 
#    0.000    0.000    0.000    0.000    0.000    0.000 
#
# Total GULP energy -89284.697666 kJ/mol
# GULP energy per Si atom -5580.293604 kJ/mol
# Density = 2.527477 g / cm^3
# Si number density = 25.332427 Si / 1000 Ang^3
#
#
#
# Elastic Constant Matrix: (Units=GPa)
#
#
# Indices 1 2 3 4 5 6 
#
# 1 63.9937 8.8352 30.7830 0.0000 6.9950 0.0000
# 2 8.8352 60.4760 23.1225 0.0000 10.2269 0.0000
# 3 30.7830 23.1225 190.2849 0.0000 10.1233 0.0000
# 4 0.0000 0.0000 0.0000 33.8940 0.0000 12.1554
# 5 6.9950 10.2269 10.1233 0.0000 34.8928 0.0000
# 6 0.0000 0.0000 0.0000 12.1554 0.0000 16.8173
#
#
#
# Elastic Compliance Matrix: (Units=1/GPa)
#
#
# Indices 1 2 3 4 5 6 
#
# 1 0.017262 -0.001152 -0.002525 0.000000 -0.002390 0.000000
# 2 -0.001152 0.018157 -0.001777 0.000000 -0.004575 0.000000
# 3 -0.002525 -0.001777 0.005916 0.000000 -0.000690 0.000000
# 4 0.000000 0.000000 0.000000 0.039828 0.000000 -0.028787
# 5 -0.002390 -0.004575 -0.000690 0.000000 0.030679 0.000000
# 6 0.000000 0.000000 0.000000 -0.028787 0.000000 0.080269
#
#
# Mechanical properties :
#
#
# Convention : Reuss Voigt Hill
#
# Bulk Modulus (GPa) = 32.86569 48.91512 40.89041
# Shear Modulus (GPa) = 23.45640 33.92173 28.68907
#
# Velocity S-wave (km/s) = 3.04623 3.66329 3.36892
# Velocity P-wave (km/s) = 5.03733 6.10280 5.59548
#
# Compressibility (1/GPa) = 0.03042686
#
# Stress axis : x y z
#
# Youngs Moduli (GPa) = 57.93203 55.07587 169.02262
#
# Poissons Ratio (x) = 0.06345 0.42684
# Poissons Ratio (y) = 0.06674 0.30028
# Poissons Ratio (z) = 0.14630 0.09784
#
# Static dielectric constant tensor:
#      x y z
#    x 2.035110 0.000000 0.031320 
#    y 0.000000 2.138590 0.000000 
#    z 0.031320 0.000000 2.047010 
# 
# From -- ./inp_files/15489.got.cif
#   From: 2010.05.17/outbox.cif.g08.bks.cpg/sg9_8_cif.got.tgz:15489.got - 2010.06.03 20:04:27.
