data_PCOD9134972
_publ_section_title
;
Structure prediction by ZEFSAII (Michael W. Deem and Ramdas Pophale) SiO2 
 PCOD9134972
Probable space group: C C
;
_chemical_formula_sum "Si O2"
_cell_formula_units_Z 32
_cell_length_a 13.433622
_cell_length_b 11.905141
_cell_length_c 17.089331
_cell_angle_alpha 90.000000
_cell_angle_beta 148.994285
_cell_angle_gamma 90.000000
_cell_volume 1407.875177
_symmetry_space_group_name_H-M "C C"
_symmetry_group_IT_number 9
_symmetry_cell_setting 'monoclinic'
loop_
_space_group_symop_operation_xyz
x,y,z
x,-y,1/2+z
1/2+x,1/2+y,z
1/2+x,1/2-y,1/2+z
loop_
_atom_site_type_symbol
_atom_site_label
_atom_site_fract_x
_atom_site_fract_y
_atom_site_fract_z
Si Si1 0.119220 0.247140 0.768230
Si Si2 0.466964 0.298028 0.898030
Si Si3 0.542930 0.500634 0.735438
Si Si4 0.346093 0.056528 0.077921
Si Si5 0.876223 0.608982 0.725859
Si Si6 0.864108 0.572874 0.353132
Si Si7 0.023572 0.208108 0.882477
Si Si8 0.756637 0.000435 0.169078
O O1 0.331116 0.247420 0.874126
O O2 0.029651 0.124949 0.688941
O O3 0.099997 0.253507 0.849700
O O4 0.004645 0.354040 0.658533
O O5 0.494995 0.207763 0.847462
O O6 0.352291 0.404845 0.786583
O O7 0.669402 0.336151 0.068294
O O8 0.654794 0.419912 0.752137
O O9 0.338453 0.472436 0.636502
O O10 0.696711 0.514041 0.911236
O O11 0.437279 0.954056 0.187383
O O12 0.202297 0.133924 0.034808
O O13 0.851058 0.510316 0.771409
O O14 0.953300 0.690691 0.387572
O O15 0.027924 0.513581 0.517425
O O16 0.851814 0.119978 0.752459
#
# Coordination Sequence:
#
# PCOD9134972 Si02
#       8
#     4   4   4   4   4   4   4   4
#     4  10  20  35  66  98 123 169 225 283 328 398
#     4  12  24  41  67  98 138 174 228 283 347 403
#     4  10  22  41  65  99 135 175 229 281 329 411
#     4  10  20  43  64  95 132 177 229 281 339 395
#     4  12  25  42  68  99 134 179 224 286 342 408
#     4  12  23  40  72 102 134 179 228 284 349 398
#     4  10  21  39  70  94 134 173 222 285 333 401
#     4  10  23  43  66  95 136 184 221 281 345 404
#
# _framework density 22.729286999999999
#
# number of rings (size 3 to 8) (size 9 to 14) (size 15 to 20)
#    0.000    1.500    5.000    3.000    3.500    1.000 
#    0.000    2.500    0.000    0.000    0.000    0.000 
#    0.000    0.000    0.000    0.000    0.000    0.000 
#
# Total GULP energy -89408.588117 kJ/mol
# GULP energy per Si atom -5588.036757 kJ/mol
# Density = 2.267755 g / cm^3
# Si number density = 22.729287 Si / 1000 Ang^3
#
#
#
# Elastic Constant Matrix: (Units=GPa)
#
#
# Indices 1 2 3 4 5 6 
#
# 1 43.6988 17.1912 -4.9259 0.0003 16.0786 0.0000
# 2 17.1912 90.0054 31.3587 0.0008 -6.6803 0.0002
# 3 -4.9259 31.3587 67.0074 0.0009 0.1046 0.0002
# 4 0.0003 0.0008 0.0009 39.3679 0.0003 0.4445
# 5 16.0786 -6.6803 0.1046 0.0003 29.6031 0.0000
# 6 0.0000 0.0002 0.0002 0.4445 0.0000 35.7324
#
#
#
# Elastic Compliance Matrix: (Units=1/GPa)
#
#
# Indices 1 2 3 4 5 6 
#
# 1 0.036588 -0.011479 0.008097 0.000000 -0.022491 0.000000
# 2 -0.011479 0.017151 -0.008886 0.000000 0.010136 0.000000
# 3 0.008097 -0.008886 0.019688 0.000000 -0.006472 0.000000
# 4 0.000000 0.000000 0.000000 0.025405 0.000000 -0.000316
# 5 -0.022491 0.010136 -0.006472 0.000000 0.048306 0.000000
# 6 0.000000 0.000000 0.000000 -0.000316 0.000000 0.027990
#
#
# Mechanical properties :
#
#
# Convention : Reuss Voigt Hill
#
# Bulk Modulus (GPa) = 20.45395 31.99550 26.22473
# Shear Modulus (GPa) = 23.15237 31.41322 27.28280
#
# Velocity S-wave (km/s) = 3.19504 3.72164 3.46835
# Velocity P-wave (km/s) = 4.75705 5.70743 5.25377
#
# Compressibility (1/GPa) = 0.04889031
#
# Stress axis : x y z
#
# Youngs Moduli (GPa) = 27.33157 58.30488 50.79316
#
# Poissons Ratio (x) = 0.66926 -0.41125
# Poissons Ratio (y) = 0.31373 0.45136
# Poissons Ratio (z) = -0.22129 0.51811
#
# Static dielectric constant tensor:
#      x y z
#    x 1.869910 0.000000 -0.046770 
#    y 0.000000 1.850900 0.000000 
#    z -0.046770 0.000000 1.868050 
# 
# From -- ./inp_files/30693.got.cif
#   From: 2010.05.17/outbox.cif.g08.bks.cpg/sg9_16_cif.got.tgz:30693.got - 2010.06.03 20:04:27.
