data_PCOD9134572
_publ_section_title
;
Structure prediction by ZEFSAII (Michael W. Deem and Ramdas Pophale) SiO2 
 PCOD9134572
Probable space group: C C
;
_chemical_formula_sum "Si O2"
_cell_formula_units_Z 32
_cell_length_a 14.217279
_cell_length_b 14.890754
_cell_length_c 11.169702
_cell_angle_alpha 90.000000
_cell_angle_beta 138.663046
_cell_angle_gamma 90.000000
_cell_volume 1561.846778
_symmetry_space_group_name_H-M "C C"
_symmetry_group_IT_number 9
_symmetry_cell_setting 'monoclinic'
loop_
_space_group_symop_operation_xyz
x,y,z
x,-y,1/2+z
1/2+x,1/2+y,z
1/2+x,1/2-y,1/2+z
loop_
_atom_site_type_symbol
_atom_site_label
_atom_site_fract_x
_atom_site_fract_y
_atom_site_fract_z
Si Si1 0.838960 0.817230 0.419450
Si Si2 0.086479 0.185920 0.767530
Si Si3 0.649960 0.864496 0.924714
Si Si4 0.356913 0.217159 0.883768
Si Si5 0.564247 0.939768 0.586529
Si Si6 0.944795 0.935831 0.311585
Si Si7 0.828106 0.883067 0.682477
Si Si8 0.016374 0.642440 0.531647
O O1 0.937560 0.880896 0.428849
O O2 0.832371 0.858584 0.546585
O O3 0.675702 0.822093 0.216646
O O4 0.904639 0.716785 0.469740
O O5 0.158101 0.257620 0.924835
O O6 0.202816 0.181925 0.775472
O O7 0.945229 0.231247 0.574272
O O8 0.053126 0.100304 0.815709
O O9 0.626628 0.900695 0.769744
O O10 0.792066 0.909189 0.108436
O O11 0.518712 0.874853 0.890424
O O12 0.345242 0.290666 0.769747
O O13 0.444163 0.129470 0.932501
O O14 0.685335 0.929492 0.600661
O O15 0.511051 0.039243 0.568867
O O16 0.947219 0.042559 0.327577
#
# Coordination Sequence:
#
# PCOD9134572 Si02
#       8
#     4   4   4   4   4   4   4   4
#     4  11  26  40  66  98 133 171 215 270 332 391
#     4  11  20  39  68  93 128 164 226 276 319 378
#     4  10  19  37  67  92 118 170 225 265 306 392
#     4  11  24  40  68  97 127 170 228 276 321 380
#     4  11  23  41  71  96 126 183 226 262 329 403
#     4  11  22  39  66  96 129 171 222 266 325 398
#     4  12  24  41  68  96 136 177 217 269 333 399
#     4  11  24  43  66  94 135 172 217 270 331 389
#
# _framework density 20.488565000000001
#
# number of rings (size 3 to 8) (size 9 to 14) (size 15 to 20)
#    0.000    1.000    7.500    0.750    3.500    0.000 
#    2.250    0.000    0.000    0.000    0.000    0.000 
#    0.000    0.000    0.000    0.000    0.000    0.000 
#
# Total GULP energy -89195.851043 kJ/mol
# GULP energy per Si atom -5574.740690 kJ/mol
# Density = 2.044193 g / cm^3
# Si number density = 20.488565 Si / 1000 Ang^3
#
#
#
# Elastic Constant Matrix: (Units=GPa)
#
#
# Indices 1 2 3 4 5 6 
#
# 1 110.6268 59.2575 37.8114 0.0000 -14.3249 0.0000
# 2 59.2575 149.1354 24.8366 0.0000 4.5660 0.0000
# 3 37.8114 24.8366 35.8346 0.0000 -3.0083 0.0000
# 4 0.0000 0.0000 0.0000 9.4019 0.0000 9.6395
# 5 -14.3249 4.5660 -3.0083 0.0000 30.3574 0.0000
# 6 0.0000 0.0000 0.0000 9.6395 0.0000 33.3398
#
#
#
# Elastic Compliance Matrix: (Units=1/GPa)
#
#
# Indices 1 2 3 4 5 6 
#
# 1 0.017565 -0.004782 -0.014585 0.000000 0.007562 0.000000
# 2 -0.004782 0.008967 -0.001485 0.000000 -0.003752 0.000000
# 3 -0.014585 -0.001485 0.044133 0.000000 -0.002286 0.000000
# 4 0.000000 0.000000 0.000000 0.151174 0.000000 -0.043709
# 5 0.007562 -0.003752 -0.002286 0.000000 0.036847 0.000000
# 6 0.000000 0.000000 0.000000 -0.043709 0.000000 0.042632
#
#
# Mechanical properties :
#
#
# Convention : Reuss Voigt Hill
#
# Bulk Modulus (GPa) = 34.52762 59.93421 47.23091
# Shear Modulus (GPa) = 14.17734 26.19923 20.18829
#
# Velocity S-wave (km/s) = 2.63337 3.57981 3.14242
# Velocity P-wave (km/s) = 5.11223 6.81195 6.02236
#
# Compressibility (1/GPa) = 0.02896232
#
# Stress axis : x y z
#
# Youngs Moduli (GPa) = 56.93087 111.51385 22.65899
#
# Poissons Ratio (x) = 0.53325 0.33048
# Poissons Ratio (y) = 0.27224 0.03364
# Poissons Ratio (z) = 0.83033 0.16555
#
# Static dielectric constant tensor:
#      x y z
#    x 1.834890 0.000000 0.009510 
#    y 0.000000 1.759080 0.000000 
#    z 0.009510 0.000000 1.764150 
# 
# From -- ./inp_files/9607.got.cif
#   From: 2010.05.17/outbox.cif.g08.bks.cpg/sg9_5_cif.got.tgz:9607.got - 2010.06.03 20:04:27.
