data_PCOD9134206
_publ_section_title
;
Structure prediction by ZEFSAII (Michael W. Deem and Ramdas Pophale) SiO2 
 PCOD9134206
Probable space group: C C
;
_chemical_formula_sum "Si O2"
_cell_formula_units_Z 28
_cell_length_a 14.567816
_cell_length_b 6.589053
_cell_length_c 11.568823
_cell_angle_alpha 90.000000
_cell_angle_beta 70.369080
_cell_angle_gamma 90.000000
_cell_volume 1045.924866
_symmetry_space_group_name_H-M "C C"
_symmetry_group_IT_number 9
_symmetry_cell_setting 'monoclinic'
loop_
_space_group_symop_operation_xyz
x,y,z
x,-y,1/2+z
1/2+x,1/2+y,z
1/2+x,1/2-y,1/2+z
loop_
_atom_site_type_symbol
_atom_site_label
_atom_site_fract_x
_atom_site_fract_y
_atom_site_fract_z
Si Si1 0.427270 0.800032 0.205330
Si Si2 0.014515 0.217259 0.922153
Si Si3 0.205993 0.601184 0.022322
Si Si4 0.878157 0.829677 0.277685
Si Si5 0.522787 0.660301 0.543518
Si Si6 0.127166 0.204471 0.152040
Si Si7 0.719928 0.635862 0.749947
O O1 0.396115 0.569091 0.246441
O O2 0.529923 0.829461 0.227235
O O3 0.322836 0.903235 0.268771
O O4 0.460952 0.810242 0.055966
O O5 0.130627 0.240918 0.856419
O O6 0.958409 0.265645 0.829606
O O7 0.999453 0.972797 0.942551
O O8 0.101198 0.664940 0.016075
O O9 0.198563 0.365724 0.062020
O O10 0.231801 0.726597 0.129045
O O11 0.280265 0.665528 0.891495
O O12 0.921014 0.243113 0.636704
O O13 0.582378 0.481278 0.592572
O O14 0.681825 0.415688 0.727958
#
# Coordination Sequence:
#
# PCOD9134206 Si02
#       7
#     4   4   4   4   4   4   4
#     4  10  22  39  63  94 132 178 218 271 353 394
#     4  10  18  41  63  87 133 172 214 278 336 401
#     4  11  21  41  67  93 123 172 222 272 333 394
#     4  10  19  39  64  90 132 170 214 283 327 402
#     4   9  22  42  62  87 133 171 210 275 344 388
#     4   9  21  42  58  95 132 158 227 275 315 415
#     4  11  21  42  67  90 131 177 213 284 340 384
#
# _framework density 26.770564
#
# number of rings (size 3 to 8) (size 9 to 14) (size 15 to 20)
#    0.000    2.286    5.714    0.000    4.000    0.000 
#    7.714    4.286    0.000    0.000    0.000    0.000 
#    0.000    0.000    0.000    0.000    0.000    0.000 
#
# Total GULP energy -78140.190554 kJ/mol
# GULP energy per Si atom -5581.442182 kJ/mol
# Density = 2.670963 g / cm^3
# Si number density = 26.770564 Si / 1000 Ang^3
#
#
#
# Elastic Constant Matrix: (Units=GPa)
#
#
# Indices 1 2 3 4 5 6 
#
# 1 113.4261 24.0360 26.1990 0.0000 -33.4011 0.0000
# 2 24.0360 108.1485 43.1920 0.0000 -7.2650 0.0000
# 3 26.1990 43.1920 141.7632 0.0000 -48.0579 0.0000
# 4 0.0000 0.0000 0.0000 32.3728 0.0000 -10.8322
# 5 -33.4011 -7.2650 -48.0579 0.0000 52.0723 0.0000
# 6 0.0000 0.0000 0.0000 -10.8322 0.0000 23.5338
#
#
#
# Elastic Compliance Matrix: (Units=1/GPa)
#
#
# Indices 1 2 3 4 5 6 
#
# 1 0.011492 -0.002595 0.001518 0.000000 0.008411 0.000000
# 2 -0.002595 0.011285 -0.004350 0.000000 -0.004105 0.000000
# 3 0.001518 -0.004350 0.011967 0.000000 0.011412 0.000000
# 4 0.000000 0.000000 0.000000 0.036514 0.000000 0.016807
# 5 0.008411 -0.004105 0.011412 0.000000 0.034558 0.000000
# 6 0.000000 0.000000 0.000000 0.016807 0.000000 0.050228
#
#
# Mechanical properties :
#
#
# Convention : Reuss Voigt Hill
#
# Bulk Modulus (GPa) = 41.85949 61.13242 51.49596
# Shear Modulus (GPa) = 28.59377 39.58984 34.09181
#
# Velocity S-wave (km/s) = 3.27173 3.84976 3.57246
# Velocity P-wave (km/s) = 5.47199 6.53040 6.02448
#
# Compressibility (1/GPa) = 0.02388945
#
# Stress axis : x y z
#
# Youngs Moduli (GPa) = 87.01417 88.61281 83.55968
#
# Poissons Ratio (x) = 0.22999 -0.12685
# Poissons Ratio (y) = 0.22584 0.36351
# Poissons Ratio (z) = -0.13210 0.38550
#
# Static dielectric constant tensor:
#      x y z
#    x 2.172720 0.000000 0.010250 
#    y 0.000000 2.284420 0.000000 
#    z 0.010250 0.000000 2.136480 
# 
# From -- ./inp_files/25486.got.cif
#   From: 2010.05.17/outbox.cif.g08.bks.cpg/sg9_13_cif.got.tgz:25486.got - 2010.06.03 20:04:27.
