data_PCOD9134075
_publ_section_title
;
Structure prediction by ZEFSAII (Michael W. Deem and Ramdas Pophale) SiO2 
 PCOD9134075
Probable space group: C C
;
_chemical_formula_sum "Si O2"
_cell_formula_units_Z 32
_cell_length_a 6.473107
_cell_length_b 34.783365
_cell_length_c 5.530133
_cell_angle_alpha 90.000000
_cell_angle_beta 80.235936
_cell_angle_gamma 90.000000
_cell_volume 1227.108480
_symmetry_space_group_name_H-M "C C"
_symmetry_group_IT_number 9
_symmetry_cell_setting 'monoclinic'
loop_
_space_group_symop_operation_xyz
x,y,z
x,-y,1/2+z
1/2+x,1/2+y,z
1/2+x,1/2-y,1/2+z
loop_
_atom_site_type_symbol
_atom_site_label
_atom_site_fract_x
_atom_site_fract_y
_atom_site_fract_z
Si Si1 0.891940 0.206276 0.303100
Si Si2 0.501100 0.981453 0.799755
Si Si3 0.476948 0.509506 0.719074
Si Si4 0.787619 0.639231 0.665575
Si Si5 0.848943 0.903037 0.273533
Si Si6 0.317538 0.099698 0.165104
Si Si7 0.138938 0.781478 0.257825
Si Si8 0.820446 0.883107 0.786619
O O1 0.722336 0.238663 0.276489
O O2 0.818755 0.162404 0.324107
O O3 0.998390 0.216082 0.541533
O O4 0.038788 0.207759 0.036217
O O5 0.406843 0.942328 0.708536
O O6 0.454988 0.012615 0.594698
O O7 0.759302 0.985050 0.747939
O O8 0.585349 0.504385 0.440588
O O9 0.436843 0.554244 0.765762
O O10 0.537502 0.628062 0.714309
O O11 0.865896 0.626526 0.387234
O O12 0.811413 0.684984 0.686276
O O13 0.859060 0.617393 0.892511
O O14 0.732342 0.893403 0.543089
O O15 0.728154 0.901387 0.045731
O O16 0.059123 0.099841 0.222684
#
# Coordination Sequence:
#
# PCOD9134075 Si02
#       8
#     4   4   4   4   4   4   4   4
#     4  12  23  43  72 102 145 180 226 286 343 409
#     4  10  21  37  57  82 120 159 199 259 332 387
#     4  10  21  37  57  82 120 159 199 259 332 387
#     4  10  19  37  61  90 117 165 215 260 310 392
#     4  10  18  35  63  82 115 158 214 256 314 376
#     4  10  18  35  63  82 115 158 214 256 314 376
#     4  12  23  43  72 102 145 180 226 286 343 409
#     4  10  19  37  61  90 117 165 215 260 310 392
#
# _framework density 26.077563000000001
#
# number of rings (size 3 to 8) (size 9 to 14) (size 15 to 20)
#    0.000    1.500    5.000    2.250    0.000    0.000 
#    0.000   15.000   33.000    0.000    0.000    0.000 
#    0.000    0.000    0.000    0.000    0.000    0.000 
#
# Total GULP energy -89580.126545 kJ/mol
# GULP energy per Si atom -5598.757909 kJ/mol
# Density = 2.601821 g / cm^3
# Si number density = 26.077563 Si / 1000 Ang^3
#
#
#
# Elastic Constant Matrix: (Units=GPa)
#
#
# Indices 1 2 3 4 5 6 
#
# 1 60.2875 7.4688 25.3077 0.0000 19.8520 0.0000
# 2 7.4688 159.7730 43.8958 0.0000 -6.4511 0.0000
# 3 25.3077 43.8958 262.0755 0.0000 14.2957 0.0000
# 4 0.0000 0.0000 0.0000 53.6056 0.0000 12.4560
# 5 19.8520 -6.4511 14.2957 0.0000 39.5029 0.0000
# 6 0.0000 0.0000 0.0000 12.4560 0.0000 26.7374
#
#
#
# Elastic Compliance Matrix: (Units=1/GPa)
#
#
# Indices 1 2 3 4 5 6 
#
# 1 0.020549 -0.001018 -0.001267 0.000000 -0.010035 0.000000
# 2 -0.001018 0.006699 -0.001134 0.000000 0.002016 0.000000
# 3 -0.001267 -0.001134 0.004186 0.000000 -0.001064 0.000000
# 4 0.000000 0.000000 0.000000 0.020919 0.000000 -0.009746
# 5 -0.010035 0.002016 -0.001064 0.000000 0.031072 0.000000
# 6 0.000000 0.000000 0.000000 -0.009746 0.000000 0.041941
#
#
# Mechanical properties :
#
#
# Convention : Reuss Voigt Hill
#
# Bulk Modulus (GPa) = 40.65313 70.60896 55.63105
# Shear Modulus (GPa) = 35.61202 51.00008 43.30605
#
# Velocity S-wave (km/s) = 3.69944 4.42714 4.07954
# Velocity P-wave (km/s) = 5.81987 7.29849 6.60072
#
# Compressibility (1/GPa) = 0.02459835
#
# Stress axis : x y z
#
# Youngs Moduli (GPa) = 48.66345 149.26835 238.89682
#
# Poissons Ratio (x) = 0.15193 0.30257
# Poissons Ratio (y) = 0.04953 0.27085
# Poissons Ratio (z) = 0.06163 0.16924
#
# Static dielectric constant tensor:
#      x y z
#    x 2.223140 0.000000 -0.023860 
#    y 0.000000 2.006380 0.000000 
#    z -0.023860 0.000000 2.051910 
# 
# From -- ./inp_files/1401.got.cif
#   From: 2010.05.17/outbox.cif.g08.bks.cpg/sg9_1_cif.got.tgz:1401.got - 2010.06.03 20:04:27.
