data_PCOD9134842
_publ_section_title
;
Structure prediction by ZEFSAII (Michael W. Deem and Ramdas Pophale) SiO2 
 PCOD9134842
Probable space group: C C
;
_chemical_formula_sum "Si O2"
_cell_formula_units_Z 32
_cell_length_a 7.988492
_cell_length_b 16.235398
_cell_length_c 10.429492
_cell_angle_alpha 90.000000
_cell_angle_beta 102.500234
_cell_angle_gamma 90.000000
_cell_volume 1320.602209
_symmetry_space_group_name_H-M "C C"
_symmetry_group_IT_number 9
_symmetry_cell_setting 'monoclinic'
loop_
_space_group_symop_operation_xyz
x,y,z
x,-y,1/2+z
1/2+x,1/2+y,z
1/2+x,1/2-y,1/2+z
loop_
_atom_site_type_symbol
_atom_site_label
_atom_site_fract_x
_atom_site_fract_y
_atom_site_fract_z
Si Si1 0.817070 0.849074 0.731840
Si Si2 0.669384 0.120555 0.476461
Si Si3 0.780043 0.675759 0.762600
Si Si4 0.747211 0.497451 0.122366
Si Si5 0.832853 0.349078 0.790178
Si Si6 0.480544 0.879446 0.545560
Si Si7 0.369865 0.324237 0.259421
Si Si8 0.902715 0.997450 0.399647
O O1 0.740289 0.831109 0.862297
O O2 0.865111 0.755298 0.706848
O O3 0.681048 0.873468 0.601661
O O4 0.912726 0.933315 0.787700
O O5 0.468880 0.126524 0.420353
O O6 0.756064 0.155738 0.615976
O O7 0.744800 0.030598 0.458531
O O8 0.782488 0.592731 0.679497
O O9 0.574955 0.684668 0.761014
O O10 0.893847 0.655727 0.906041
O O11 0.737191 0.566684 0.234314
O O12 0.905151 0.530594 0.063507
O O13 0.574971 0.500006 0.010998
O O14 0.909633 0.331111 0.659722
O O15 0.784809 0.255304 0.815178
O O16 0.367406 0.407270 0.342511
#
# Coordination Sequence:
#
# PCOD9134842 Si02
#       8
#     4   4   4   4   4   4   4   4
#     4   9  20  35  50  80 107 127 171 219 254 303
#     4   9  19  34  50  76 108 126 172 211 254 302
#     4  12  18  30  59  77 101 140 164 212 265 294
#     4  10  20  31  51  81 105 128 173 217 249 302
#     4   9  20  35  50  80 107 127 171 219 254 303
#     4   9  19  34  50  76 108 126 172 211 254 302
#     4  12  18  30  59  77 101 140 164 212 265 294
#     4  10  20  31  51  81 105 128 173 217 249 302
#
# _framework density 24.231370999999999
#
# number of rings (size 3 to 8) (size 9 to 14) (size 15 to 20)
#    1.500    0.500    5.000    0.750    3.500    1.000 
#    0.000    0.000    0.000    4.500    0.000    0.000 
#    0.000    0.000    0.000    0.000    0.000    0.000 
#
# Total GULP energy -89103.654282 kJ/mol
# GULP energy per Si atom -5568.978393 kJ/mol
# Density = 2.417622 g / cm^3
# Si number density = 24.231371 Si / 1000 Ang^3
#
#
#
# Elastic Constant Matrix: (Units=GPa)
#
#
# Indices 1 2 3 4 5 6 
#
# 1 51.1221 38.1620 44.9724 0.0000 16.5266 0.0000
# 2 38.1620 217.9239 61.7179 0.0000 24.4919 0.0000
# 3 44.9724 61.7179 194.3336 0.0000 59.4805 0.0000
# 4 0.0000 0.0000 0.0000 29.1014 0.0000 -6.8536
# 5 16.5266 24.4919 59.4805 0.0000 28.2323 0.0000
# 6 0.0000 0.0000 0.0000 -6.8536 0.0000 13.1644
#
#
#
# Elastic Compliance Matrix: (Units=1/GPa)
#
#
# Indices 1 2 3 4 5 6 
#
# 1 0.026739 -0.003060 -0.003485 0.000000 -0.005655 0.000000
# 2 -0.003060 0.005473 -0.000352 0.000000 -0.002215 0.000000
# 3 -0.003485 -0.000352 0.015053 0.000000 -0.029369 0.000000
# 4 0.000000 0.000000 0.000000 0.039164 0.000000 0.020390
# 5 -0.005655 -0.002215 -0.029369 0.000000 0.102527 0.000000
# 6 0.000000 0.000000 0.000000 0.020390 0.000000 0.086578
#
#
# Mechanical properties :
#
#
# Convention : Reuss Voigt Hill
#
# Bulk Modulus (GPa) = 29.87632 83.67598 56.77615
# Shear Modulus (GPa) = 16.63964 35.33477 25.98721
#
# Velocity S-wave (km/s) = 2.62334 3.82281 3.27840
# Velocity P-wave (km/s) = 4.64028 7.35474 6.14917
#
# Compressibility (1/GPa) = 0.03347132
#
# Stress axis : x y z
#
# Youngs Moduli (GPa) = 37.39799 182.70630 66.43084
#
# Poissons Ratio (x) = 0.55905 0.23153
# Poissons Ratio (y) = 0.11443 0.02340
# Poissons Ratio (z) = 0.13034 0.06435
#
# Static dielectric constant tensor:
#      x y z
#    x 2.100450 0.000000 -0.035810 
#    y 0.000000 2.050030 0.000000 
#    z -0.035810 0.000000 1.836430 
# 
# From -- ./inp_files/24796.got.cif
#   From: 2010.05.17/outbox.cif.g08.bks.cpg/sg9_13_cif.got.tgz:24796.got - 2010.06.03 20:04:27.
