data_PCOD9134138
_publ_section_title
;
Structure prediction by ZEFSAII (Michael W. Deem and Ramdas Pophale) SiO2 
 PCOD9134138
Probable space group: C C
;
_chemical_formula_sum "Si O2"
_cell_formula_units_Z 32
_cell_length_a 9.572301
_cell_length_b 15.218263
_cell_length_c 11.436741
_cell_angle_alpha 90.000000
_cell_angle_beta 57.782336
_cell_angle_gamma 90.000000
_cell_volume 1409.512355
_symmetry_space_group_name_H-M "C C"
_symmetry_group_IT_number 9
_symmetry_cell_setting 'monoclinic'
loop_
_space_group_symop_operation_xyz
x,y,z
x,-y,1/2+z
1/2+x,1/2+y,z
1/2+x,1/2-y,1/2+z
loop_
_atom_site_type_symbol
_atom_site_label
_atom_site_fract_x
_atom_site_fract_y
_atom_site_fract_z
Si Si1 0.497440 0.848221 0.839660
Si Si2 0.360547 0.369943 0.632642
Si Si3 0.204052 0.157098 0.297639
Si Si4 0.127921 0.011911 0.137152
Si Si5 0.863273 0.763555 0.021537
Si Si6 0.520209 0.177335 0.593560
Si Si7 0.045394 0.853189 0.330038
Si Si8 0.345203 0.099284 0.869216
O O1 0.672787 0.893404 0.743154
O O2 0.348457 0.868003 0.821145
O O3 0.542797 0.746375 0.792137
O O4 0.459260 0.851549 0.994036
O O5 0.475736 0.443169 0.638617
O O6 0.431149 0.274300 0.649689
O O7 0.384355 0.368399 0.481702
O O8 0.166373 0.075179 0.229998
O O9 0.276919 0.235464 0.182189
O O10 0.034957 0.184247 0.439095
O O11 0.280168 0.020714 0.978759
O O12 0.078281 0.918753 0.210438
O O13 0.716458 0.808440 0.012381
O O14 0.897467 0.672879 0.938576
O O15 0.480088 0.103510 0.707824
O O16 0.188312 0.867622 0.363093
#
# Coordination Sequence:
#
# PCOD9134138 Si02
#       8
#     4   4   4   4   4   4   4   4
#     4  11  23  38  69 102 135 168 238 290 337 395
#     4  10  19  40  68  95 126 185 233 266 336 426
#     4  11  24  37  65 104 134 174 222 303 341 393
#     4  10  21  42  67  92 140 177 224 274 355 417
#     4  11  19  38  65  98 128 171 240 282 329 406
#     4  11  17  36  69  96 124 178 240 270 323 411
#     4  10  21  38  67  96 133 177 220 283 341 408
#     4  10  18  37  64  93 124 182 227 264 330 418
#
# _framework density 22.702888000000002
#
# number of rings (size 3 to 8) (size 9 to 14) (size 15 to 20)
#    0.000    1.500    7.500    0.750    3.500    0.000 
#    9.000    0.000    8.250    0.000    0.000    0.000 
#    0.000    0.000    0.000    0.000    0.000    0.000 
#
# Total GULP energy -89374.574054 kJ/mol
# GULP energy per Si atom -5585.910878 kJ/mol
# Density = 2.265122 g / cm^3
# Si number density = 22.702888 Si / 1000 Ang^3
#
#
#
# Elastic Constant Matrix: (Units=GPa)
#
#
# Indices 1 2 3 4 5 6 
#
# 1 106.2177 9.9081 28.3136 0.0000 -7.7317 0.0000
# 2 9.9081 68.4839 39.7426 0.0000 4.5240 0.0000
# 3 28.3136 39.7426 108.1548 0.0000 -6.3895 0.0000
# 4 0.0000 0.0000 0.0000 37.1728 0.0000 8.0028
# 5 -7.7317 4.5240 -6.3895 0.0000 22.7327 0.0000
# 6 0.0000 0.0000 0.0000 8.0028 0.0000 -3.4097
#
#
#
# Elastic Compliance Matrix: (Units=1/GPa)
#
#
# Indices 1 2 3 4 5 6 
#
# 1 0.010296 -0.000272 -0.002426 0.000000 0.002874 0.000000
# 2 -0.000272 0.019324 -0.007385 0.000000 -0.006014 0.000000
# 3 -0.002426 -0.007385 0.012846 0.000000 0.004255 0.000000
# 4 0.000000 0.000000 0.000000 0.017871 0.000000 0.041945
# 5 0.002874 -0.006014 0.004255 0.000000 0.047360 0.000000
# 6 0.000000 0.000000 0.000000 0.041945 0.000000 -0.194833
#
#
# Mechanical properties :
#
#
# Convention : Reuss Voigt Hill
#
# Bulk Modulus (GPa) = 44.84061 48.75391 46.79726
# Shear Modulus (GPa) = -83.98109 24.95864 -29.51122
#
# Velocity S-wave (km/s) = -6.08865 3.31926 -3.60931
# Velocity P-wave (km/s) = 5.44380 6.01759 1.81334
#
# Compressibility (1/GPa) = 0.02230122
#
# Stress axis : x y z
#
# Youngs Moduli (GPa) = 97.12726 51.74847 77.84454
#
# Poissons Ratio (x) = 0.01406 0.18882
# Poissons Ratio (y) = 0.02640 0.57488
# Poissons Ratio (z) = 0.23560 0.38216
#
# Static dielectric constant tensor:
#      x y z
#    x 1.827300 0.000000 -0.047540 
#    y 0.000000 1.865940 0.000000 
#    z -0.047540 0.000000 1.936290 
# 
# From -- ./inp_files/15179.got.cif
#   From: 2010.05.17/outbox.cif.g08.bks.cpg/sg9_8_cif.got.tgz:15179.got - 2010.06.03 20:04:27.
