data_PCOD9134846
_publ_section_title
;
Structure prediction by ZEFSAII (Michael W. Deem and Ramdas Pophale) SiO2 
 PCOD9134846
Probable space group: C C
;
_chemical_formula_sum "Si O2"
_cell_formula_units_Z 32
_cell_length_a 12.910415
_cell_length_b 20.127927
_cell_length_c 5.589432
_cell_angle_alpha 90.000000
_cell_angle_beta 79.598174
_cell_angle_gamma 90.000000
_cell_volume 1428.598899
_symmetry_space_group_name_H-M "C C"
_symmetry_group_IT_number 9
_symmetry_cell_setting 'monoclinic'
loop_
_space_group_symop_operation_xyz
x,y,z
x,-y,1/2+z
1/2+x,1/2+y,z
1/2+x,1/2-y,1/2+z
loop_
_atom_site_type_symbol
_atom_site_label
_atom_site_fract_x
_atom_site_fract_y
_atom_site_fract_z
Si Si1 0.457410 0.758878 0.530370
Si Si2 0.104384 0.463334 0.354289
Si Si3 0.189521 0.681257 0.907011
Si Si4 0.694485 0.465178 0.902012
Si Si5 0.936500 0.736686 0.532210
Si Si6 0.674171 0.777369 0.914858
Si Si7 0.872751 0.410456 0.535812
Si Si8 0.737091 0.355581 0.193323
O O1 0.580885 0.776733 0.476582
O O2 0.434163 0.727399 0.285898
O O3 0.401696 0.832265 0.558222
O O4 0.433816 0.723380 0.788291
O O5 0.126523 0.507593 0.581429
O O6 0.165981 0.394905 0.366707
O O7 0.980721 0.445005 0.420183
O O8 0.232484 0.709899 0.639962
O O9 0.229487 0.690176 0.160538
O O10 0.659479 0.493583 0.656843
O O11 0.818298 0.447528 0.782925
O O12 0.671108 0.390039 0.010339
O O13 0.840305 0.684946 0.565857
O O14 0.051450 0.699196 0.484085
O O15 0.672107 0.698629 0.867930
O O16 0.787310 0.408963 0.355687
#
# Coordination Sequence:
#
# PCOD9134846 Si02
#       8
#     4   4   4   4   4   4   4   4
#     4   8  15  27  46  61  94 127 164 205 241 285
#     4  11  22  32  53  78 111 151 177 206 262 329
#     4   9  19  34  48  72 103 135 183 216 252 303
#     4  12  23  33  46  73 106 138 177 211 251 321
#     4   9  17  32  48  71  94 129 172 215 250 306
#     4  10  21  35  52  72 102 145 180 226 262 309
#     4  10  20  32  45  72 103 141 182 204 245 314
#     4  11  23  35  56  73 107 148 183 215 277 309
#
# _framework density 22.399571000000002
#
# number of rings (size 3 to 8) (size 9 to 14) (size 15 to 20)
#    0.000    2.000    2.500    2.250    3.500    2.000 
#    0.000    0.000    0.000    0.000    0.000    0.000 
#    0.000    6.000    0.250    0.000    0.000    0.000 
#
# Total GULP energy -89073.248786 kJ/mol
# GULP energy per Si atom -5567.078049 kJ/mol
# Density = 2.234859 g / cm^3
# Si number density = 22.399571 Si / 1000 Ang^3
#
#
#
# Elastic Constant Matrix: (Units=GPa)
#
#
# Indices 1 2 3 4 5 6 
#
# 1 43.0750 4.2121 21.4766 0.0000 14.2664 0.0000
# 2 4.2121 66.3479 24.2084 0.0000 0.5161 0.0000
# 3 21.4766 24.2084 203.6438 0.0000 27.3618 0.0000
# 4 0.0000 0.0000 0.0000 39.4035 0.0000 1.8773
# 5 14.2664 0.5161 27.3618 0.0000 27.3236 0.0000
# 6 0.0000 0.0000 0.0000 1.8773 0.0000 22.9913
#
#
#
# Elastic Compliance Matrix: (Units=1/GPa)
#
#
# Indices 1 2 3 4 5 6 
#
# 1 0.028415 -0.001339 -0.000979 0.000000 -0.013830 0.000000
# 2 -0.001339 0.015898 -0.002082 0.000000 0.002484 0.000000
# 3 -0.000979 -0.002082 0.005994 0.000000 -0.005452 0.000000
# 4 0.000000 0.000000 0.000000 0.025478 0.000000 -0.002080
# 5 -0.013830 0.002484 -0.005452 0.000000 0.049232 0.000000
# 6 0.000000 0.000000 0.000000 -0.002080 0.000000 0.043665
#
#
# Mechanical properties :
#
#
# Convention : Reuss Voigt Hill
#
# Bulk Modulus (GPa) = 24.09342 45.87344 34.98343
# Shear Modulus (GPa) = 26.13462 35.48832 30.81147
#
# Velocity S-wave (km/s) = 3.41947 3.98468 3.71285
# Velocity P-wave (km/s) = 5.13517 6.45711 5.83371
#
# Compressibility (1/GPa) = 0.04150511
#
# Stress axis : x y z
#
# Youngs Moduli (GPa) = 35.19252 62.90275 166.83807
#
# Poissons Ratio (x) = 0.08423 0.16338
# Poissons Ratio (y) = 0.04712 0.34742
# Poissons Ratio (z) = 0.03446 0.13099
#
# Static dielectric constant tensor:
#      x y z
#    x 1.892190 0.000000 0.036920 
#    y 0.000000 1.881640 0.000000 
#    z 0.036920 0.000000 1.971550 
# 
# From -- ./inp_files/2640.got.cif
#   From: 2010.05.17/outbox.cif.g08.bks.cpg/sg9_2_cif.got.tgz:2640.got - 2010.06.03 20:04:27.
