data_PCOD9134990
_publ_section_title
;
Structure prediction by ZEFSAII (Michael W. Deem and Ramdas Pophale) SiO2 
 PCOD9134990
Probable space group: C C
;
_chemical_formula_sum "Si O2"
_cell_formula_units_Z 24
_cell_length_a 23.357977
_cell_length_b 7.322044
_cell_length_c 10.783727
_cell_angle_alpha 90.000000
_cell_angle_beta 29.966938
_cell_angle_gamma 90.000000
_cell_volume 921.238541
_symmetry_space_group_name_H-M "C C"
_symmetry_group_IT_number 9
_symmetry_cell_setting 'monoclinic'
loop_
_space_group_symop_operation_xyz
x,y,z
x,-y,1/2+z
1/2+x,1/2+y,z
1/2+x,1/2-y,1/2+z
loop_
_atom_site_type_symbol
_atom_site_label
_atom_site_fract_x
_atom_site_fract_y
_atom_site_fract_z
Si Si1 0.678810 0.879091 0.272740
Si Si2 0.002711 0.924198 0.074402
Si Si3 0.052495 0.120910 0.215653
Si Si4 0.427131 0.038256 0.257100
Si Si5 0.304173 0.038252 0.731298
Si Si6 0.228596 0.424198 0.913989
O O1 0.630218 0.675002 0.338300
O O2 0.562181 0.000686 0.490440
O O3 0.729692 0.913017 0.313553
O O4 0.750521 0.946072 0.019342
O O5 0.980783 0.946066 0.969053
O O6 0.927884 0.758263 0.265232
O O7 0.001615 0.086986 0.174836
O O8 0.101089 0.324999 0.150088
O O9 0.169122 0.999312 0.997956
O O10 0.365652 0.000007 0.244200
O O11 0.365652 0.960724 0.494198
O O12 0.303425 0.258259 0.723163
#
# Coordination Sequence:
#
# PCOD9134990 Si02
#       6
#     4   4   4   4   4   4
#     4   9  19  37  58  82 108 149 185 218 267 336
#     4   9  20  35  61  80 109 147 188 215 271 330
#     4   9  19  37  58  82 108 149 185 218 267 336
#     4  10  20  36  58  83 109 143 182 228 279 316
#     4  10  20  36  58  83 109 143 182 228 279 316
#     4   9  20  35  61  80 109 147 188 215 271 330
#
# _framework density 26.051884999999999
#
# number of rings (size 3 to 8) (size 9 to 14) (size 15 to 20)
#    2.000    0.667    0.000    2.000    0.000    1.333 
#    0.000    1.667    0.000    0.000    0.000    0.000 
#    0.000    0.000    0.000    0.000    0.000    0.000 
#
# Total GULP energy -66930.121617 kJ/mol
# GULP energy per Si atom -5577.510135 kJ/mol
# Density = 2.599259 g / cm^3
# Si number density = 26.051885 Si / 1000 Ang^3
#
#
#
# Elastic Constant Matrix: (Units=GPa)
#
#
# Indices 1 2 3 4 5 6 
#
# 1 124.6606 -3.2027 40.6797 0.0000 40.2234 0.0000
# 2 -3.2027 58.0733 1.2165 0.0000 12.1754 0.0000
# 3 40.6797 1.2165 142.2280 0.0000 48.1210 0.0000
# 4 0.0000 0.0000 0.0000 28.1676 0.0000 9.3640
# 5 40.2234 12.1754 48.1210 0.0000 61.2599 0.0000
# 6 0.0000 0.0000 0.0000 9.3640 0.0000 48.6481
#
#
#
# Elastic Compliance Matrix: (Units=1/GPa)
#
#
# Indices 1 2 3 4 5 6 
#
# 1 0.010475 0.001995 -0.000752 0.000000 -0.006684 0.000000
# 2 0.001995 0.018566 0.001311 0.000000 -0.006029 0.000000
# 3 -0.000752 0.001311 0.009746 0.000000 -0.007423 0.000000
# 4 0.000000 0.000000 0.000000 0.037929 0.000000 -0.007301
# 5 -0.006684 -0.006029 -0.007423 0.000000 0.027742 0.000000
# 6 0.000000 0.000000 0.000000 -0.007301 0.000000 0.021961
#
#
# Mechanical properties :
#
#
# Convention : Reuss Voigt Hill
#
# Bulk Modulus (GPa) = 22.78180 44.70543 33.74361
# Shear Modulus (GPa) = 36.78012 46.69968 41.73990
#
# Velocity S-wave (km/s) = 3.76147 4.23846 4.00707
# Velocity P-wave (km/s) = 5.25630 6.41484 5.86425
#
# Compressibility (1/GPa) = 0.04389469
#
# Stress axis : x y z
#
# Youngs Moduli (GPa) = 95.46572 53.86116 102.60488
#
# Poissons Ratio (x) = -0.10744 0.07713
# Poissons Ratio (y) = -0.19043 -0.13447
# Poissons Ratio (z) = 0.07176 -0.07059
#
# Static dielectric constant tensor:
#      x y z
#    x 2.087670 0.000000 -0.054210 
#    y 0.000000 2.072630 0.000000 
#    z -0.054210 0.000000 2.025780 
# 
# From -- ./inp_files/21122.got.cif
#   From: 2010.05.17/outbox.cif.g08.bks.cpg/sg9_11_cif.got.tgz:21122.got - 2010.06.03 20:04:27.
