data_PCOD9134061
_publ_section_title
;
Structure prediction by ZEFSAII (Michael W. Deem and Ramdas Pophale) SiO2 
 PCOD9134061
Probable space group: C C
;
_chemical_formula_sum "Si O2"
_cell_formula_units_Z 28
_cell_length_a 36.321661
_cell_length_b 6.962456
_cell_length_c 5.308325
_cell_angle_alpha 90.000000
_cell_angle_beta 63.789868
_cell_angle_gamma 90.000000
_cell_volume 1204.385141
_symmetry_space_group_name_H-M "C C"
_symmetry_group_IT_number 9
_symmetry_cell_setting 'monoclinic'
loop_
_space_group_symop_operation_xyz
x,y,z
x,-y,1/2+z
1/2+x,1/2+y,z
1/2+x,1/2-y,1/2+z
loop_
_atom_site_type_symbol
_atom_site_label
_atom_site_fract_x
_atom_site_fract_y
_atom_site_fract_z
Si Si1 0.419200 0.871655 0.473580
Si Si2 0.011406 0.629198 0.698115
Si Si3 0.717170 0.372616 0.585855
Si Si4 0.335754 0.712950 0.864931
Si Si5 0.802604 0.218166 0.465357
Si Si6 0.627186 0.728473 0.486992
Si Si7 0.594241 0.292538 0.585880
O O1 0.465229 0.788554 0.351847
O O2 0.382218 0.724293 0.629436
O O3 0.415557 0.025174 0.713652
O O4 0.015160 0.522562 0.417904
O O5 0.047795 0.780501 0.629670
O O6 0.718501 0.469091 0.306605
O O7 0.756271 0.237874 0.512469
O O8 0.673790 0.267921 0.754999
O O9 0.308179 0.803955 0.726920
O O10 0.318333 0.498969 0.954659
O O11 0.330861 0.801246 0.156934
O O12 0.612258 0.506177 0.567228
O O13 0.621512 0.804640 0.785589
O O14 0.598538 0.800327 0.347830
#
# Coordination Sequence:
#
# PCOD9134061 Si02
#       7
#     4   4   4   4   4   4   4
#     4  10  21  37  63  89 115 154 204 247 287 352
#     4  10  21  37  58  88 121 154 192 238 289 351
#     4  12  21  37  60  87 112 152 209 255 287 342
#     4  10  21  42  57  84 121 159 190 244 309 359
#     4  10  23  37  60  82 120 159 187 252 306 350
#     4  10  19  35  57  83 108 149 196 246 282 333
#     4  10  18  35  59  81 115 147 190 242 286 339
#
# _framework density 23.248377999999999
#
# number of rings (size 3 to 8) (size 9 to 14) (size 15 to 20)
#    0.000    1.714    2.857    2.571    0.000    3.429 
#    0.000    5.714   18.857    0.000    0.000    0.000 
#    0.000    0.000    0.000    0.000    0.000    0.000 
#
# Total GULP energy -78183.283738 kJ/mol
# GULP energy per Si atom -5584.520267 kJ/mol
# Density = 2.319546 g / cm^3
# Si number density = 23.248378 Si / 1000 Ang^3
#
#
#
# Elastic Constant Matrix: (Units=GPa)
#
#
# Indices 1 2 3 4 5 6 
#
# 1 112.7200 -10.3344 21.5178 0.0000 -13.7460 0.0000
# 2 -10.3344 56.5113 -15.3796 0.0000 -11.1490 0.0000
# 3 21.5178 -15.3796 122.2100 0.0000 19.6529 0.0000
# 4 0.0000 0.0000 0.0000 23.5137 0.0000 2.8694
# 5 -13.7460 -11.1490 19.6529 0.0000 79.0373 0.0000
# 6 0.0000 0.0000 0.0000 2.8694 0.0000 57.7954
#
#
#
# Elastic Compliance Matrix: (Units=1/GPa)
#
#
# Indices 1 2 3 4 5 6 
#
# 1 0.009679 0.001733 -0.001871 0.000000 0.002393 0.000000
# 2 0.001733 0.018973 0.001670 0.000000 0.002562 0.000000
# 3 -0.001871 0.001670 0.009101 0.000000 -0.002353 0.000000
# 4 0.000000 0.000000 0.000000 0.042788 0.000000 -0.002124
# 5 0.002393 0.002562 -0.002353 0.000000 0.014015 0.000000
# 6 0.000000 0.000000 0.000000 -0.002124 0.000000 0.017408
#
#
# Mechanical properties :
#
#
# Convention : Reuss Voigt Hill
#
# Bulk Modulus (GPa) = 24.49923 31.44986 27.97454
# Shear Modulus (GPa) = 40.81498 51.77845 46.29672
#
# Velocity S-wave (km/s) = 4.19454 4.72443 4.46735
# Velocity P-wave (km/s) = 5.83265 6.58160 6.21841
#
# Compressibility (1/GPa) = 0.04081762
#
# Stress axis : x y z
#
# Youngs Moduli (GPa) = 103.31176 52.70745 109.88256
#
# Poissons Ratio (x) = -0.09134 0.20559
# Poissons Ratio (y) = -0.17904 -0.18355
# Poissons Ratio (z) = 0.19330 -0.08804
#
# Static dielectric constant tensor:
#      x y z
#    x 1.878260 0.000000 0.055300 
#    y 0.000000 -0.027100 0.000000 
#    z 0.055300 0.000000 1.934460 
# 
# From -- ./inp_files/3281.got.cif
#   From: 2010.05.17/outbox.cif.g08.bks.cpg/sg9_2_cif.got.tgz:3281.got - 2010.06.03 20:04:27.
