data_PCOD9134948
_publ_section_title
;
Structure prediction by ZEFSAII (Michael W. Deem and Ramdas Pophale) SiO2 
 PCOD9134948
Probable space group: C C
;
_chemical_formula_sum "Si O2"
_cell_formula_units_Z 32
_cell_length_a 16.304235
_cell_length_b 18.552668
_cell_length_c 5.350956
_cell_angle_alpha 90.000000
_cell_angle_beta 118.348774
_cell_angle_gamma 90.000000
_cell_volume 1424.482450
_symmetry_space_group_name_H-M "C C"
_symmetry_group_IT_number 9
_symmetry_cell_setting 'monoclinic'
loop_
_space_group_symop_operation_xyz
x,y,z
x,-y,1/2+z
1/2+x,1/2+y,z
1/2+x,1/2-y,1/2+z
loop_
_atom_site_type_symbol
_atom_site_label
_atom_site_fract_x
_atom_site_fract_y
_atom_site_fract_z
Si Si1 0.300690 0.714738 0.643890
Si Si2 0.163753 0.815329 0.219958
Si Si3 0.460190 0.322504 0.077723
Si Si4 0.991508 0.023368 0.764183
Si Si5 0.827400 0.908989 0.523175
Si Si6 0.933277 0.547868 0.597471
Si Si7 0.754903 0.649386 0.349436
Si Si8 0.135060 0.544974 0.969840
O O1 0.220879 0.741004 0.340483
O O2 0.398986 0.730714 0.653417
O O3 0.297433 0.632634 0.728799
O O4 0.287310 0.767659 0.858396
O O5 0.199400 0.862625 0.509140
O O6 0.190712 0.852293 0.000132
O O7 0.056076 0.798229 0.099791
O O8 0.395175 0.355624 0.770065
O O9 0.480888 0.392056 0.282521
O O10 0.892714 0.979803 0.580147
O O11 0.040391 0.011507 0.570409
O O12 0.734185 0.920513 0.547177
O O13 0.928891 0.490374 0.819634
O O14 0.845636 0.600319 0.499228
O O15 0.036147 0.584010 0.775113
O O16 0.133097 0.481945 0.753044
#
# Coordination Sequence:
#
# PCOD9134948 Si02
#       8
#     4   4   4   4   4   4   4   4
#     4  10  24  42  69  95 133 181 222 276 331 403
#     4  10  25  44  67  95 138 171 232 276 332 400
#     4  11  23  42  68  99 136 178 217 284 336 409
#     4  10  20  35  59  93 130 166 208 263 327 394
#     4  11  22  38  66  97 138 174 223 267 350 394
#     4  10  21  42  72 100 131 175 225 278 337 391
#     4  10  23  47  67  99 132 177 223 282 329 396
#     4  10  22  38  62 100 136 168 216 278 332 403
#
# _framework density 22.464299
#
# number of rings (size 3 to 8) (size 9 to 14) (size 15 to 20)
#    0.750    1.000    1.250    3.000    3.500    1.000 
#    0.000   10.000    0.000    0.000    0.000    0.000 
#    0.000    0.000    0.000    0.000    0.000    0.000 
#
# Total GULP energy -89244.282153 kJ/mol
# GULP energy per Si atom -5577.767635 kJ/mol
# Density = 2.241317 g / cm^3
# Si number density = 22.464299 Si / 1000 Ang^3
#
#
#
# Elastic Constant Matrix: (Units=GPa)
#
#
# Indices 1 2 3 4 5 6 
#
# 1 154.5015 13.5981 42.3633 0.0000 5.9028 0.0000
# 2 13.5981 20.1479 3.8370 0.0000 4.7511 0.0000
# 3 42.3633 3.8370 88.4198 0.0000 -10.2887 0.0000
# 4 0.0000 0.0000 0.0000 23.9132 0.0000 4.7266
# 5 5.9028 4.7511 -10.2887 0.0000 43.8800 0.0000
# 6 0.0000 0.0000 0.0000 4.7266 0.0000 15.2857
#
#
#
# Elastic Compliance Matrix: (Units=1/GPa)
#
#
# Indices 1 2 3 4 5 6 
#
# 1 0.007948 -0.004289 -0.003796 0.000000 -0.001495 0.000000
# 2 -0.004289 0.053998 -0.000927 0.000000 -0.005487 0.000000
# 3 -0.003796 -0.000927 0.013611 0.000000 0.003802 0.000000
# 4 0.000000 0.000000 0.000000 0.044540 0.000000 -0.013772
# 5 -0.001495 -0.005487 0.003802 0.000000 0.024476 0.000000
# 6 0.000000 0.000000 0.000000 -0.013772 0.000000 0.069679
#
#
# Mechanical properties :
#
#
# Convention : Reuss Voigt Hill
#
# Bulk Modulus (GPa) = 17.38105 42.51844 29.94974
# Shear Modulus (GPa) = 19.88444 30.16718 25.02581
#
# Velocity S-wave (km/s) = 2.97839 3.66853 3.34132
# Velocity P-wave (km/s) = 4.42512 6.07555 5.31479
#
# Compressibility (1/GPa) = 0.05753393
#
# Stress axis : x y z
#
# Youngs Moduli (GPa) = 125.82154 18.51919 73.47024
#
# Poissons Ratio (x) = 0.07942 0.27887
# Poissons Ratio (y) = 0.53961 0.06810
# Poissons Ratio (z) = 0.47758 0.01717
#
# Static dielectric constant tensor:
#      x y z
#    x 1.863300 0.000000 -0.022770 
#    y 0.000000 1.850920 0.000000 
#    z -0.022770 0.000000 1.882030 
# 
# From -- ./inp_files/2706.got.cif
#   From: 2010.05.17/outbox.cif.g08.bks.cpg/sg9_2_cif.got.tgz:2706.got - 2010.06.03 20:04:27.
