data_PCOD9134500
_publ_section_title
;
Structure prediction by ZEFSAII (Michael W. Deem and Ramdas Pophale) SiO2 
 PCOD9134500
Probable space group: C C
;
_chemical_formula_sum "Si O2"
_cell_formula_units_Z 32
_cell_length_a 5.685500
_cell_length_b 18.040873
_cell_length_c 19.482353
_cell_angle_alpha 90.000000
_cell_angle_beta 140.704192
_cell_angle_gamma 90.000000
_cell_volume 1265.592059
_symmetry_space_group_name_H-M "C C"
_symmetry_group_IT_number 9
_symmetry_cell_setting 'monoclinic'
loop_
_space_group_symop_operation_xyz
x,y,z
x,-y,1/2+z
1/2+x,1/2+y,z
1/2+x,1/2-y,1/2+z
loop_
_atom_site_type_symbol
_atom_site_label
_atom_site_fract_x
_atom_site_fract_y
_atom_site_fract_z
Si Si1 0.269150 0.819422 0.024250
Si Si2 0.750643 0.269795 0.734713
Si Si3 0.495485 0.005718 0.735972
Si Si4 0.170531 0.439794 0.913857
Si Si5 0.887112 0.852378 0.364186
Si Si6 0.698875 0.947456 0.064060
Si Si7 0.952366 0.223704 0.309707
Si Si8 0.826588 0.564102 0.061821
O O1 0.409936 0.762888 0.113224
O O2 0.571278 0.885459 0.087902
O O3 0.890806 0.862728 0.956689
O O4 0.218519 0.790896 0.935136
O O5 0.989370 0.204509 0.827102
O O6 0.580144 0.310009 0.764289
O O7 0.044687 0.297402 0.744492
O O8 0.457802 0.959591 0.797259
O O9 0.511320 0.949260 0.676841
O O10 0.816460 0.066823 0.816258
O O11 0.129520 0.056132 0.645405
O O12 0.972633 0.439142 0.942157
O O13 0.469370 0.507962 0.984347
O O14 0.514382 0.811535 0.307624
O O15 0.167936 0.862263 0.491145
O O16 0.608009 0.027890 0.071791
#
# Coordination Sequence:
#
# PCOD9134500 Si02
#       8
#     4   4   4   4   4   4   4   4
#     4  11  23  42  66  90 134 172 235 273 352 401
#     4  10  23  42  67  94 122 180 218 282 334 399
#     4  10  19  37  59  93 129 161 221 263 354 397
#     4   9  21  35  59  93 127 164 213 278 325 417
#     4   9  20  38  59  91 127 169 225 270 337 404
#     4  10  20  33  63  90 121 177 208 275 333 422
#     4  10  25  42  65  98 126 174 233 282 323 404
#     4   9  19  35  56  91 126 165 207 269 338 404
#
# _framework density 25.284610000000001
#
# number of rings (size 3 to 8) (size 9 to 14) (size 15 to 20)
#    0.750    1.500    0.000    3.000    3.500    7.000 
#    2.250    0.000    0.000    0.000    0.000    0.000 
#    0.000    0.000    0.000    0.000    0.000    0.000 
#
# Total GULP energy -89262.229433 kJ/mol
# GULP energy per Si atom -5578.889340 kJ/mol
# Density = 2.522706 g / cm^3
# Si number density = 25.284610 Si / 1000 Ang^3
#
#
#
# Elastic Constant Matrix: (Units=GPa)
#
#
# Indices 1 2 3 4 5 6 
#
# 1 108.7632 22.4204 22.3007 0.0001 -27.5125 0.0000
# 2 22.4204 73.6279 17.5860 0.0000 -9.6282 0.0000
# 3 22.3007 17.5860 76.9305 0.0001 -33.7955 0.0000
# 4 0.0001 0.0000 0.0001 30.3302 0.0001 -14.1293
# 5 -27.5125 -9.6282 -33.7955 0.0001 41.2514 0.0000
# 6 0.0000 0.0000 0.0000 -14.1293 0.0000 30.5670
#
#
#
# Elastic Compliance Matrix: (Units=1/GPa)
#
#
# Indices 1 2 3 4 5 6 
#
# 1 0.011533 -0.002664 0.000581 0.000000 0.007546 0.000000
# 2 -0.002664 0.015010 -0.002969 0.000000 -0.000706 0.000000
# 3 0.000581 -0.002969 0.020895 0.000000 0.016813 0.000000
# 4 0.000000 0.000000 0.000000 0.042018 0.000000 0.019423
# 5 0.007546 -0.000706 0.016813 0.000000 0.042883 0.000000
# 6 0.000000 0.000000 0.000000 0.019423 0.000000 0.041693
#
#
# Mechanical properties :
#
#
# Convention : Reuss Voigt Hill
#
# Bulk Modulus (GPa) = 26.78566 42.65951 34.72259
# Shear Modulus (GPa) = 25.43476 33.56404 29.49940
#
# Velocity S-wave (km/s) = 3.17509 3.64737 3.41940
# Velocity P-wave (km/s) = 4.90492 5.88609 5.41777
#
# Compressibility (1/GPa) = 0.03733341
#
# Stress axis : x y z
#
# Youngs Moduli (GPa) = 86.70647 66.62292 47.85872
#
# Poissons Ratio (x) = 0.17748 -0.02779
# Poissons Ratio (y) = 0.23098 0.14209
# Poissons Ratio (z) = -0.05034 0.19780
#
# Static dielectric constant tensor:
#      x y z
#    x 2.011660 0.000000 0.006680 
#    y 0.000000 2.005570 0.000000 
#    z 0.006680 0.000000 2.109790 
# 
# From -- ./inp_files/13643.got.cif
#   From: 2010.05.17/outbox.cif.g08.bks.cpg/sg9_7_cif.got.tgz:13643.got - 2010.06.03 20:04:27.
