data_PCOD9134894
_publ_section_title
;
Structure prediction by ZEFSAII (Michael W. Deem and Ramdas Pophale) SiO2 
 PCOD9134894
Probable space group: C C
;
_chemical_formula_sum "Si O2"
_cell_formula_units_Z 32
_cell_length_a 17.982178
_cell_length_b 5.009389
_cell_length_c 21.962513
_cell_angle_alpha 90.000000
_cell_angle_beta 36.894249
_cell_angle_gamma 90.000000
_cell_volume 1187.698833
_symmetry_space_group_name_H-M "C C"
_symmetry_group_IT_number 9
_symmetry_cell_setting 'monoclinic'
loop_
_space_group_symop_operation_xyz
x,y,z
x,-y,1/2+z
1/2+x,1/2+y,z
1/2+x,1/2-y,1/2+z
loop_
_atom_site_type_symbol
_atom_site_label
_atom_site_fract_x
_atom_site_fract_y
_atom_site_fract_z
Si Si1 0.302430 0.851325 0.767340
Si Si2 0.799879 0.268771 0.155905
Si Si3 0.229826 0.230705 0.107491
Si Si4 0.227218 0.850629 0.996136
Si Si5 0.010465 0.042530 0.078901
Si Si6 0.019211 0.543372 0.684520
Si Si7 0.430461 0.410108 0.427199
Si Si8 0.599238 0.089949 0.836249
O O1 0.411019 0.684203 0.661307
O O2 0.178269 0.674041 0.844410
O O3 0.276359 0.098073 0.739120
O O4 0.379303 0.935991 0.777053
O O5 0.764888 0.499759 0.131675
O O6 0.944708 0.188270 0.066016
O O7 0.703778 0.022090 0.221744
O O8 0.084961 0.310888 0.197410
O O9 0.253292 0.097499 0.024312
O O10 0.325873 0.477529 0.041681
O O11 0.118650 0.683507 0.102181
O O12 0.351466 0.673692 0.918985
O O13 0.150316 0.934834 0.986416
O O14 0.014890 0.249669 0.131658
O O15 0.528677 0.646873 0.360222
O O16 0.501024 0.146887 0.403230
#
# Coordination Sequence:
#
# PCOD9134894 Si02
#       8
#     4   4   4   4   4   4   4   4
#     4   9  17  33  55  83 119 152 205 251 301 370
#     4  10  20  34  58  92 129 153 203 269 317 359
#     4  10  20  34  58  92 129 153 203 269 317 359
#     4   9  17  33  55  83 119 152 205 251 301 370
#     4   8  16  30  52  84 117 151 197 250 297 363
#     4   8  16  30  52  84 117 151 197 250 297 363
#     4  11  21  36  55  86 123 163 206 253 318 382
#     4  11  21  36  55  86 123 163 206 253 318 382
#
# _framework density 26.942855000000002
#
# number of rings (size 3 to 8) (size 9 to 14) (size 15 to 20)
#    0.000    2.500    2.500    0.000    0.000    4.000 
#    0.000    0.000    0.000    0.000    0.000  124.250 
#    0.000    0.000    0.000    0.000    0.000    0.250 
#
# Total GULP energy -89400.735889 kJ/mol
# GULP energy per Si atom -5587.545993 kJ/mol
# Density = 2.688153 g / cm^3
# Si number density = 26.942855 Si / 1000 Ang^3
#
#
#
# Elastic Constant Matrix: (Units=GPa)
#
#
# Indices 1 2 3 4 5 6 
#
# 1 236.5828 82.9403 76.7298 -0.1179 -76.2704 0.1182
# 2 82.9403 145.9386 53.9176 0.0505 -49.6979 0.1766
# 3 76.7298 53.9176 129.0792 -0.0155 -54.1608 0.0607
# 4 -0.1179 0.0505 -0.0155 46.8266 0.1020 -30.6527
# 5 -76.2704 -49.6979 -54.1608 0.1020 62.5237 -0.0403
# 6 0.1182 0.1766 0.0607 -30.6527 -0.0403 53.5412
#
#
#
# Elastic Compliance Matrix: (Units=1/GPa)
#
#
# Indices 1 2 3 4 5 6 
#
# 1 0.007247 -0.001443 -0.000749 0.000001 0.007044 -0.000004
# 2 -0.001443 0.009811 -0.001110 -0.000066 0.005077 -0.000062
# 3 -0.000749 -0.001110 0.012415 -0.000028 0.008958 -0.000018
# 4 0.000001 -0.000066 -0.000028 0.034156 -0.000118 0.019555
# 5 0.007044 0.005077 0.008958 -0.000118 0.036381 -0.000083
# 6 -0.000004 -0.000062 -0.000018 0.019555 -0.000083 0.029873
#
#
# Mechanical properties :
#
#
# Convention : Reuss Voigt Hill
#
# Bulk Modulus (GPa) = 43.72977 104.30846 74.01911
# Shear Modulus (GPa) = 34.69539 52.44584 43.57061
#
# Velocity S-wave (km/s) = 3.59240 4.41677 4.02574
# Velocity P-wave (km/s) = 5.78558 8.05042 7.01007
#
# Compressibility (1/GPa) = 0.02286772
#
# Stress axis : x y z
#
# Youngs Moduli (GPa) = 137.99759 101.92222 80.54705
#
# Poissons Ratio (x) = 0.14705 0.06037
# Poissons Ratio (y) = 0.19910 0.08944
# Poissons Ratio (z) = 0.10342 0.11317
#
# Static dielectric constant tensor:
#      x y z
#    x 2.253660 -0.000750 0.038330 
#    y -0.000750 2.294430 0.000170 
#    z 0.038330 0.000170 2.234590 
# 
# From -- ./inp_files/37459.got.cif
#   From: 2010.05.17/outbox.cif.g08.bks.cpg/sg9_19_cif.got.tgz:37459.got - 2010.06.03 20:04:27.
