data_PCOD9134686
_publ_section_title
;
Structure prediction by ZEFSAII (Michael W. Deem and Ramdas Pophale) SiO2 
 PCOD9134686
Probable space group: C C
;
_chemical_formula_sum "Si O2"
_cell_formula_units_Z 24
_cell_length_a 11.999489
_cell_length_b 16.573532
_cell_length_c 6.182506
_cell_angle_alpha 90.000000
_cell_angle_beta 50.753026
_cell_angle_gamma 90.000000
_cell_volume 952.187175
_symmetry_space_group_name_H-M "C C"
_symmetry_group_IT_number 9
_symmetry_cell_setting 'monoclinic'
loop_
_space_group_symop_operation_xyz
x,y,z
x,-y,1/2+z
1/2+x,1/2+y,z
1/2+x,1/2-y,1/2+z
loop_
_atom_site_type_symbol
_atom_site_label
_atom_site_fract_x
_atom_site_fract_y
_atom_site_fract_z
Si Si1 0.751070 0.716805 0.573880
Si Si2 0.386159 0.309648 0.035333
Si Si3 0.446427 0.835944 0.166196
Si Si4 0.770015 0.474169 0.448360
Si Si5 0.516759 0.588010 0.749597
Si Si6 0.736221 0.884103 0.842097
O O1 0.777921 0.755626 0.309597
O O2 0.906304 0.685164 0.468595
O O3 0.627531 0.650087 0.730955
O O4 0.722021 0.793782 0.759217
O O5 0.483170 0.362777 0.073542
O O6 0.463969 0.244740 0.785570
O O7 0.294799 0.372129 0.007635
O O8 0.300591 0.879733 0.423050
O O9 0.568710 0.904403 0.042404
O O10 0.821595 0.502642 0.631934
O O11 0.607751 0.506829 0.625958
O O12 0.362549 0.574756 0.051688
#
# Coordination Sequence:
#
# PCOD9134686 Si02
#       6
#     4   4   4   4   4   4
#     4  10  19  39  67 100 144 191 250 311 384 456
#     4  10  21  37  71 109 144 189 252 327 388 449
#     4  11  23  42  70 105 148 196 258 316 384 461
#     4  12  28  50  77 102 150 212 263 301 380 480
#     4  11  23  42  70 104 149 198 257 314 385 462
#     4  10  22  38  65 108 143 184 250 329 385 434
#
# _framework density 25.20513
#
# number of rings (size 3 to 8) (size 9 to 14) (size 15 to 20)
#    0.000    1.333    1.667    5.000    2.333    4.000 
#    0.000    1.667    0.000    0.000    0.000    0.000 
#    0.000    0.000    0.000    0.000    0.000    0.000 
#
# Total GULP energy -66921.509478 kJ/mol
# GULP energy per Si atom -5576.792457 kJ/mol
# Density = 2.514776 g / cm^3
# Si number density = 25.205130 Si / 1000 Ang^3
#
#
#
# Elastic Constant Matrix: (Units=GPa)
#
#
# Indices 1 2 3 4 5 6 
#
# 1 139.0526 29.6783 46.2509 0.0000 14.8661 0.0000
# 2 29.6783 60.0091 28.3653 0.0000 -5.0411 0.0000
# 3 46.2509 28.3653 97.0167 0.0000 10.8936 0.0000
# 4 0.0000 0.0000 0.0000 25.4678 0.0000 -7.4851
# 5 14.8661 -5.0411 10.8936 0.0000 44.9468 0.0000
# 6 0.0000 0.0000 0.0000 -7.4851 0.0000 37.6871
#
#
#
# Elastic Compliance Matrix: (Units=1/GPa)
#
#
# Indices 1 2 3 4 5 6 
#
# 1 0.009223 -0.003305 -0.003132 0.000000 -0.002662 0.000000
# 2 -0.003305 0.021117 -0.005127 0.000000 0.004704 0.000000
# 3 -0.003132 -0.005127 0.013618 0.000000 -0.002840 0.000000
# 4 0.000000 0.000000 0.000000 0.041699 0.000000 0.008282
# 5 -0.002662 0.004704 -0.002840 0.000000 0.024345 0.000000
# 6 0.000000 0.000000 0.000000 0.008282 0.000000 0.028179
#
#
# Mechanical properties :
#
#
# Convention : Reuss Voigt Hill
#
# Bulk Modulus (GPa) = 48.00347 56.07416 52.03882
# Shear Modulus (GPa) = 29.71718 34.40592 32.06155
#
# Velocity S-wave (km/s) = 3.43740 3.69865 3.57041
# Velocity P-wave (km/s) = 5.90261 6.36674 6.13906
#
# Compressibility (1/GPa) = 0.02083183
#
# Stress axis : x y z
#
# Youngs Moduli (GPa) = 108.42281 47.35500 73.43014
#
# Poissons Ratio (x) = 0.15649 0.22997
# Poissons Ratio (y) = 0.35831 0.37647
# Poissons Ratio (z) = 0.33956 0.24278
#
# Static dielectric constant tensor:
#      x y z
#    x 2.170750 0.000000 -0.044460 
#    y 0.000000 1.984970 0.000000 
#    z -0.044460 0.000000 2.136660 
# 
# From -- ./inp_files/1918.got.cif
#   From: 2010.05.17/outbox.cif.g08.bks.cpg/sg9_1_cif.got.tgz:1918.got - 2010.06.03 20:04:27.
