data_PCOD9134742
_publ_section_title
;
Structure prediction by ZEFSAII (Michael W. Deem and Ramdas Pophale) SiO2 
 PCOD9134742
Probable space group: C C
;
_chemical_formula_sum "Si O2"
_cell_formula_units_Z 28
_cell_length_a 11.986559
_cell_length_b 9.554425
_cell_length_c 12.096867
_cell_angle_alpha 90.000000
_cell_angle_beta 48.059000
_cell_angle_gamma 90.000000
_cell_volume 1030.499302
_symmetry_space_group_name_H-M "C C"
_symmetry_group_IT_number 9
_symmetry_cell_setting 'monoclinic'
loop_
_space_group_symop_operation_xyz
x,y,z
x,-y,1/2+z
1/2+x,1/2+y,z
1/2+x,1/2-y,1/2+z
loop_
_atom_site_type_symbol
_atom_site_label
_atom_site_fract_x
_atom_site_fract_y
_atom_site_fract_z
Si Si1 0.025370 0.095158 0.120440
Si Si2 0.039989 0.362408 0.549678
Si Si3 0.346487 0.542676 0.888092
Si Si4 0.183796 0.841175 0.206494
Si Si5 0.507377 0.842753 0.954567
Si Si6 0.448715 0.737017 0.382162
Si Si7 0.807966 0.500383 0.342842
O O1 0.011744 0.213679 0.038138
O O2 0.061280 0.174505 0.213439
O O3 0.149310 0.982024 0.007826
O O4 0.872766 0.013527 0.245738
O O5 0.205853 0.357255 0.489473
O O6 0.041353 0.517234 0.496472
O O7 0.006806 0.265720 0.466249
O O8 0.912881 0.374981 0.728632
O O9 0.513695 0.601576 0.801351
O O10 0.332631 0.394601 0.962800
O O11 0.333677 0.849898 0.032324
O O12 0.250878 0.924894 0.267722
O O13 0.135134 0.687679 0.280434
O O14 0.388615 0.879562 0.364222
#
# Coordination Sequence:
#
# PCOD9134742 Si02
#       7
#     4   4   4   4   4   4   4
#     4   9  19  40  68  96 131 179 239 288 359 438
#     4  11  21  41  70 101 132 178 247 291 359 440
#     4  10  22  41  67  99 142 185 232 299 372 430
#     4  10  20  39  67  94 135 183 234 294 365 434
#     4  10  19  40  67  97 125 180 238 283 359 433
#     4  10  22  39  73  97 137 181 247 291 360 439
#     4  10  21  40  68 102 128 178 237 298 352 430
#
# _framework density 27.171296000000002
#
# number of rings (size 3 to 8) (size 9 to 14) (size 15 to 20)
#    0.857    1.143    2.857    2.571    4.000    0.000 
#    7.714    1.429    6.286    0.000    0.000    0.000 
#    0.000    0.000    0.000    0.000    0.000    0.000 
#
# Total GULP energy -78117.051644 kJ/mol
# GULP energy per Si atom -5579.789403 kJ/mol
# Density = 2.710945 g / cm^3
# Si number density = 27.171296 Si / 1000 Ang^3
#
#
#
# Elastic Constant Matrix: (Units=GPa)
#
#
# Indices 1 2 3 4 5 6 
#
# 1 159.4445 51.2070 47.9672 0.0000 -10.1612 0.0000
# 2 51.2070 56.9857 17.6231 0.0000 1.7811 0.0000
# 3 47.9672 17.6231 155.4030 0.0000 -19.9433 0.0000
# 4 0.0000 0.0000 0.0000 -34.8365 0.0000 153.2990
# 5 -10.1612 1.7811 -19.9433 0.0000 37.8466 0.0000
# 6 0.0000 0.0000 0.0000 153.2990 0.0000 -342.5310
#
#
#
# Elastic Compliance Matrix: (Units=1/GPa)
#
#
# Indices 1 2 3 4 5 6 
#
# 1 0.009524 -0.008075 -0.001767 0.000000 0.002006 0.000000
# 2 -0.008075 0.025187 -0.000852 0.000000 -0.003802 0.000000
# 3 -0.001767 -0.000852 0.007530 0.000000 0.003534 0.000000
# 4 0.000000 0.000000 0.000000 0.029610 0.000000 0.013252
# 5 0.002006 -0.003802 0.003534 0.000000 0.029002 0.000000
# 6 0.000000 0.000000 0.000000 0.013252 0.000000 0.003011
#
#
# Mechanical properties :
#
#
# Convention : Reuss Voigt Hill
#
# Bulk Modulus (GPa) = 47.95093 67.26976 57.61035
# Shear Modulus (GPa) = 37.82046 -50.90179 -6.54066
#
# Velocity S-wave (km/s) = 3.73490 -4.33294 -1.55320
# Velocity P-wave (km/s) = 6.02373 0.47015 4.24642
#
# Compressibility (1/GPa) = 0.02085465
#
# Stress axis : x y z
#
# Youngs Moduli (GPa) = 104.99273 39.70358 132.79717
#
# Poissons Ratio (x) = 0.32061 0.23461
# Poissons Ratio (y) = 0.84782 0.11311
# Poissons Ratio (z) = 0.18549 0.03382
#
# Static dielectric constant tensor:
#      x y z
#    x 2.284790 0.000000 0.071030 
#    y 0.000000 2.623610 0.000000 
#    z 0.071030 0.000000 2.174070 
# 
# From -- ./inp_files/24611.got.cif
#   From: 2010.05.17/outbox.cif.g08.bks.cpg/sg9_13_cif.got.tgz:24611.got - 2010.06.03 20:04:27.
