data_PCOD9134393
_publ_section_title
;
Structure prediction by ZEFSAII (Michael W. Deem and Ramdas Pophale) SiO2 
 PCOD9134393
Probable space group: C C
;
_chemical_formula_sum "Si O2"
_cell_formula_units_Z 32
_cell_length_a 15.053693
_cell_length_b 21.238067
_cell_length_c 9.409700
_cell_angle_alpha 90.000000
_cell_angle_beta 30.843033
_cell_angle_gamma 90.000000
_cell_volume 1542.363896
_symmetry_space_group_name_H-M "C C"
_symmetry_group_IT_number 9
_symmetry_cell_setting 'monoclinic'
loop_
_space_group_symop_operation_xyz
x,y,z
x,-y,1/2+z
1/2+x,1/2+y,z
1/2+x,1/2-y,1/2+z
loop_
_atom_site_type_symbol
_atom_site_label
_atom_site_fract_x
_atom_site_fract_y
_atom_site_fract_z
Si Si1 0.635830 0.712182 0.954990
Si Si2 0.468650 0.121249 0.484739
Si Si3 0.355632 0.619536 0.484024
Si Si4 0.019489 0.169944 0.838221
Si Si5 0.038640 0.996620 0.132240
Si Si6 0.337851 0.365901 0.341060
Si Si7 0.167416 0.356342 0.976629
Si Si8 0.736722 0.552220 0.600351
O O1 0.813638 0.672421 0.708402
O O2 0.575037 0.721832 0.875171
O O3 0.641726 0.780956 0.013131
O O4 0.495852 0.668175 0.225291
O O5 0.527124 0.110229 0.568375
O O6 0.399962 0.064916 0.477357
O O7 0.645066 0.141625 0.165222
O O8 0.429327 0.549557 0.363082
O O9 0.332909 0.636833 0.678774
O O10 0.189954 0.622334 0.607224
O O11 0.175316 0.120816 0.631538
O O12 0.958569 0.183576 0.762677
O O13 0.852287 0.136523 0.141778
O O14 0.926999 0.933105 0.262492
O O15 0.211848 0.986605 0.990205
O O16 0.096307 0.023640 0.901930
#
# Coordination Sequence:
#
# PCOD9134393 Si02
#       8
#     4   4   4   4   4   4   4   4
#     4  10  19  37  65  83 111 153 201 238 285 347
#     4  10  20  38  55  89 119 139 201 249 269 339
#     4  11  21  39  58  84 117 158 193 232 294 358
#     4   8  17  35  57  81 110 150 192 221 281 362
#     4  11  19  38  60  81 111 163 188 221 300 364
#     4  10  22  36  60  86 120 150 188 240 295 340
#     4  10  19  35  62  87 112 154 198 240 289 339
#     4  10  19  36  59  83 112 151 191 235 281 353
#
# _framework density 20.747374000000001
#
# number of rings (size 3 to 8) (size 9 to 14) (size 15 to 20)
#    0.000    2.000    5.000    1.500    0.000    0.000 
#    4.500    8.750    0.000    0.000    0.000    0.000 
#    0.000    0.000    0.000    0.000    0.000    0.000 
#
# Total GULP energy -89091.263449 kJ/mol
# GULP energy per Si atom -5568.203966 kJ/mol
# Density = 2.070015 g / cm^3
# Si number density = 20.747374 Si / 1000 Ang^3
#
#
#
# Elastic Constant Matrix: (Units=GPa)
#
#
# Indices 1 2 3 4 5 6 
#
# 1 210.0626 35.5556 35.6482 0.0000 14.6457 0.0016
# 2 35.5556 45.9626 4.8025 -0.0003 -0.6520 0.0001
# 3 35.6482 4.8025 49.8270 -0.0005 7.7843 0.0000
# 4 0.0000 -0.0003 -0.0005 12.4288 -0.0004 -9.1282
# 5 14.6457 -0.6520 7.7843 -0.0004 33.6178 -0.0001
# 6 0.0016 0.0001 0.0000 -9.1282 -0.0001 34.1319
#
#
#
# Elastic Compliance Matrix: (Units=1/GPa)
#
#
# Indices 1 2 3 4 5 6 
#
# 1 0.006299 -0.004507 -0.003766 -0.000001 -0.001960 0.000000
# 2 -0.004507 0.025232 0.000425 0.000001 0.002355 0.000000
# 3 -0.003766 0.000425 0.023308 0.000001 -0.003748 0.000000
# 4 -0.000001 0.000001 0.000001 0.100125 0.000001 0.026777
# 5 -0.001960 0.002355 -0.003748 0.000001 0.031513 0.000001
# 6 0.000000 0.000000 0.000000 0.026777 0.000001 0.036459
#
#
# Mechanical properties :
#
#
# Convention : Reuss Voigt Hill
#
# Bulk Modulus (GPa) = 25.54733 50.87386 38.21060
# Shear Modulus (GPa) = 19.86633 31.35876 25.61255
#
# Velocity S-wave (km/s) = 3.09776 3.89196 3.51735
# Velocity P-wave (km/s) = 5.01349 6.69107 5.91208
#
# Compressibility (1/GPa) = 0.03914304
#
# Stress axis : x y z
#
# Youngs Moduli (GPa) = 158.75266 39.63152 42.90289
#
# Poissons Ratio (x) = 0.17862 0.16158
# Poissons Ratio (y) = 0.71552 -0.01822
# Poissons Ratio (z) = 0.59787 -0.01683
#
# Static dielectric constant tensor:
#      x y z
#    x 1.822500 0.000000 -0.019460 
#    y 0.000000 1.775820 0.000000 
#    z -0.019460 0.000000 1.721980 
# 
# From -- ./inp_files/10122.got.cif
#   From: 2010.05.17/outbox.cif.g08.bks.cpg/sg9_6_cif.got.tgz:10122.got - 2010.06.03 20:04:27.
