data_PCOD9134012
_publ_section_title
;
Structure prediction by ZEFSAII (Michael W. Deem and Ramdas Pophale) SiO2 
 PCOD9134012
Probable space group: C C
;
_chemical_formula_sum "Si O2"
_cell_formula_units_Z 20
_cell_length_a 15.420512
_cell_length_b 11.919510
_cell_length_c 8.841942
_cell_angle_alpha 90.000000
_cell_angle_beta 153.375344
_cell_angle_gamma 90.000000
_cell_volume 728.320066
_symmetry_space_group_name_H-M "C C"
_symmetry_group_IT_number 9
_symmetry_cell_setting 'monoclinic'
loop_
_space_group_symop_operation_xyz
x,y,z
x,-y,1/2+z
1/2+x,1/2+y,z
1/2+x,1/2-y,1/2+z
loop_
_atom_site_type_symbol
_atom_site_label
_atom_site_fract_x
_atom_site_fract_y
_atom_site_fract_z
Si Si1 0.346600 0.593681 0.900230
Si Si2 0.940726 0.530405 0.150417
Si Si3 0.515981 0.214241 0.471085
Si Si4 0.974370 0.659505 0.906899
Si Si5 0.433407 0.644894 0.561299
O O1 0.175517 0.549157 0.521890
O O2 0.456577 0.698860 0.003998
O O3 0.206080 0.643521 0.809826
O O4 0.476790 0.486756 0.129520
O O5 0.876373 0.618248 0.182251
O O6 0.888011 0.582073 0.907958
O O7 0.899270 0.403598 0.137691
O O8 0.547970 0.289413 0.370508
O O9 0.206523 0.648921 0.255431
O O10 0.949216 0.784674 0.931671
#
# Coordination Sequence:
#
# PCOD9134012 Si02
#       5
#     4   4   4   4   4
#     4   9  18  31  55  80 111 148 195 234 290 347
#     4   8  18  31  59  79 111 154 189 239 291 345
#     4   9  16  34  54  78 112 153 188 239 297 345
#     4  10  18  36  59  82 120 152 200 239 303 343
#     4  10  18  34  57  87 112 159 194 245 291 366
#
# _framework density 27.460453999999999
#
# number of rings (size 3 to 8) (size 9 to 14) (size 15 to 20)
#    1.200    1.600    2.000    0.000    0.000    0.000 
#    3.600    2.000    0.000    0.000    0.000    0.000 
#    0.000    0.000    0.000    0.000    0.000    0.000 
#
# Total GULP energy -55806.870550 kJ/mol
# GULP energy per Si atom -5580.687055 kJ/mol
# Density = 2.739795 g / cm^3
# Si number density = 27.460454 Si / 1000 Ang^3
#
#
#
# Elastic Constant Matrix: (Units=GPa)
#
#
# Indices 1 2 3 4 5 6 
#
# 1 49.3288 59.6933 25.0344 0.0000 19.1619 0.0000
# 2 59.6933 235.7933 42.9638 0.0000 14.2098 0.0000
# 3 25.0344 42.9638 63.7043 0.0000 -2.7516 0.0000
# 4 0.0000 0.0000 0.0000 38.1495 0.0000 1.6849
# 5 19.1619 14.2098 -2.7516 0.0000 27.5980 0.0000
# 6 0.0000 0.0000 0.0000 1.6849 0.0000 53.8493
#
#
#
# Elastic Compliance Matrix: (Units=1/GPa)
#
#
# Indices 1 2 3 4 5 6 
#
# 1 0.050714 -0.007957 -0.015976 0.000000 -0.032708 0.000000
# 2 -0.007957 0.006314 -0.001038 0.000000 0.002170 0.000000
# 3 -0.015976 -0.001038 0.023278 0.000000 0.013948 0.000000
# 4 0.000000 0.000000 0.000000 0.026249 0.000000 -0.000821
# 5 -0.032708 0.002170 0.013948 0.000000 0.059217 0.000000
# 6 0.000000 0.000000 0.000000 -0.000821 0.000000 0.018596
#
#
# Mechanical properties :
#
#
# Convention : Reuss Voigt Hill
#
# Bulk Modulus (GPa) = 32.93269 67.13438 50.03354
# Shear Modulus (GPa) = 20.45581 38.66170 29.55875
#
# Velocity S-wave (km/s) = 2.73228 3.75628 3.28443
# Velocity P-wave (km/s) = 4.68750 6.58130 5.71341
#
# Compressibility (1/GPa) = 0.03036497
#
# Stress axis : x y z
#
# Youngs Moduli (GPa) = 19.71854 158.38962 42.95914
#
# Poissons Ratio (x) = 1.26024 0.68632
# Poissons Ratio (y) = 0.15689 0.04457
# Poissons Ratio (z) = 0.31502 0.16433
#
# Static dielectric constant tensor:
#      x y z
#    x 2.164480 0.000000 0.004310 
#    y 0.000000 2.179710 0.000000 
#    z 0.004310 0.000000 2.252420 
# 
# From -- ./inp_files/6837.got.cif
#   From: 2010.05.17/outbox.cif.g08.bks.cpg/sg9_4_cif.got.tgz:6837.got - 2010.06.03 20:04:27.
