data_PCOD9134243
_publ_section_title
;
Structure prediction by ZEFSAII (Michael W. Deem and Ramdas Pophale) SiO2 
 PCOD9134243
Probable space group: C C
;
_chemical_formula_sum "Si O2"
_cell_formula_units_Z 28
_cell_length_a 14.004010
_cell_length_b 17.625124
_cell_length_c 12.503905
_cell_angle_alpha 90.000000
_cell_angle_beta 30.221254
_cell_angle_gamma 90.000000
_cell_volume 1553.431650
_symmetry_space_group_name_H-M "C C"
_symmetry_group_IT_number 9
_symmetry_cell_setting 'monoclinic'
loop_
_space_group_symop_operation_xyz
x,y,z
x,-y,1/2+z
1/2+x,1/2+y,z
1/2+x,1/2-y,1/2+z
loop_
_atom_site_type_symbol
_atom_site_label
_atom_site_fract_x
_atom_site_fract_y
_atom_site_fract_z
Si Si1 0.573550 0.491710 0.283190
Si Si2 0.668825 0.935383 0.654738
Si Si3 0.442340 0.358536 0.018994
Si Si4 0.927586 0.546799 0.588645
Si Si5 0.400645 0.928927 0.351450
Si Si6 0.349162 0.195927 0.084412
Si Si7 0.608540 0.885634 0.487556
O O1 0.397223 0.436371 0.433662
O O2 0.464486 0.567373 0.426172
O O3 0.724063 0.464565 0.227812
O O4 0.713981 0.518135 0.052072
O O5 0.599561 0.883931 0.623393
O O6 0.578750 0.018345 0.712451
O O7 0.572748 0.918229 0.861633
O O8 0.656944 0.332290 0.824989
O O9 0.345074 0.284610 0.059810
O O10 0.323857 0.381894 0.237269
O O11 0.912843 0.590303 0.715008
O O12 0.011171 0.463639 0.539632
O O13 0.386034 0.858203 0.446606
O O14 0.503292 0.180583 0.026491
#
# Coordination Sequence:
#
# PCOD9134243 Si02
#       7
#     4   4   4   4   4   4   4
#     4  10  19  32  50  84 108 135 176 217 271 320
#     4  10  20  32  53  77 111 142 174 216 266 325
#     4  11  20  31  55  76 111 137 173 220 267 317
#     4  10  19  34  52  77 112 139 174 222 265 319
#     4   9  20  33  49  76 112 141 170 218 270 314
#     4  11  20  35  52  81 109 137 177 219 265 320
#     4  11  20  33  51  81 109 141 174 214 272 313
#
# _framework density 18.024609000000002
#
# number of rings (size 3 to 8) (size 9 to 14) (size 15 to 20)
#    0.000    1.714    7.143    0.000    2.000    1.143 
#    0.000    0.000    0.000    0.000    7.429    0.000 
#    0.000    0.000    0.000    0.000    0.000    0.000 
#
# Total GULP energy -77951.718104 kJ/mol
# GULP energy per Si atom -5567.979865 kJ/mol
# Density = 1.798358 g / cm^3
# Si number density = 18.024609 Si / 1000 Ang^3
#
#
#
# Elastic Constant Matrix: (Units=GPa)
#
#
# Indices 1 2 3 4 5 6 
#
# 1 95.1090 11.0020 62.9116 0.0027 12.9019 -0.0019
# 2 11.0020 29.0484 -0.7294 -0.0035 3.1800 0.0030
# 3 62.9116 -0.7294 98.8303 -0.0004 3.0846 -0.0005
# 4 0.0027 -0.0035 -0.0004 20.7091 -0.0022 -1.2443
# 5 12.9019 3.1800 3.0846 -0.0022 33.7137 0.0001
# 6 -0.0019 0.0030 -0.0005 -1.2443 0.0001 9.9991
#
#
#
# Elastic Compliance Matrix: (Units=1/GPa)
#
#
# Indices 1 2 3 4 5 6 
#
# 1 0.020955 -0.007601 -0.013205 -0.000005 -0.006094 0.000005
# 2 -0.007601 0.037554 0.005150 0.000007 -0.001105 -0.000012
# 3 -0.013205 0.005150 0.018472 0.000003 0.002878 -0.000003
# 4 -0.000005 0.000007 0.000003 0.048652 0.000004 0.006054
# 5 -0.006094 -0.001105 0.002878 0.000004 0.031835 -0.000001
# 6 0.000005 -0.000012 -0.000003 0.006054 -0.000001 0.100762
#
#
# Mechanical properties :
#
#
# Convention : Reuss Voigt Hill
#
# Bulk Modulus (GPa) = 21.89621 41.03958 31.46790
# Shear Modulus (GPa) = 16.40608 22.87128 19.63868
#
# Velocity S-wave (km/s) = 3.02023 3.56602 3.30441
# Velocity P-wave (km/s) = 4.93323 6.30661 5.66172
#
# Compressibility (1/GPa) = 0.04567000
#
# Stress axis : x y z
#
# Youngs Moduli (GPa) = 47.72153 26.62798 54.13492
#
# Poissons Ratio (x) = 0.20240 0.71485
# Poissons Ratio (y) = 0.36273 -0.27880
# Poissons Ratio (z) = 0.63016 -0.13714
#
# Static dielectric constant tensor:
#      x y z
#    x 1.650320 0.000000 -0.037650 
#    y 0.000000 1.632890 0.000000 
#    z -0.037650 0.000000 1.672530 
# 
# From -- ./inp_files/18499.got.cif
#   From: 2010.05.17/outbox.cif.g08.bks.cpg/sg9_10_cif.got.tgz:18499.got - 2010.06.03 20:04:27.
