data_PCOD9134513
_publ_section_title
;
Structure prediction by ZEFSAII (Michael W. Deem and Ramdas Pophale) SiO2 
 PCOD9134513
Probable space group: C C
;
_chemical_formula_sum "Si O2"
_cell_formula_units_Z 28
_cell_length_a 12.093977
_cell_length_b 9.189569
_cell_length_c 17.547943
_cell_angle_alpha 90.000000
_cell_angle_beta 130.062062
_cell_angle_gamma 90.000000
_cell_volume 1492.620142
_symmetry_space_group_name_H-M "C C"
_symmetry_group_IT_number 9
_symmetry_cell_setting 'monoclinic'
loop_
_space_group_symop_operation_xyz
x,y,z
x,-y,1/2+z
1/2+x,1/2+y,z
1/2+x,1/2-y,1/2+z
loop_
_atom_site_type_symbol
_atom_site_label
_atom_site_fract_x
_atom_site_fract_y
_atom_site_fract_z
Si Si1 0.666840 0.189389 0.578700
Si Si2 0.444576 0.982794 0.551055
Si Si3 0.637178 0.508253 0.991420
Si Si4 0.459858 0.685055 0.789391
Si Si5 0.102034 0.539070 0.399279
Si Si6 0.157890 0.659166 0.267940
Si Si7 0.461672 0.772980 0.417116
O O1 0.654674 0.361293 0.559551
O O2 0.799774 0.151911 0.692155
O O3 0.520666 0.121567 0.546753
O O4 0.692748 0.111823 0.508060
O O5 0.295467 0.016996 0.526632
O O6 0.560056 0.915538 0.661228
O O7 0.419057 0.865782 0.472740
O O8 0.533037 0.573611 0.879411
O O9 0.564003 0.360370 0.986102
O O10 0.563694 0.708858 0.762298
O O11 0.468986 0.846232 0.831487
O O12 0.176620 0.552245 0.349992
O O13 0.047755 0.382167 0.399880
O O14 0.315023 0.713469 0.314353
#
# Coordination Sequence:
#
# PCOD9134513 Si02
#       7
#     4   4   4   4   4   4   4
#     4  10  19  37  61  85 115 155 193 234 292 341
#     4  11  22  38  59  87 118 154 194 242 285 342
#     4  11  21  38  60  86 118 152 193 241 288 343
#     4   9  18  37  62  79 116 155 186 235 287 337
#     4   8  20  36  60  83 120 145 191 241 282 341
#     4  10  20  36  63  80 117 153 192 234 291 335
#     4  11  22  38  63  86 114 156 195 235 293 343
#
# _framework density 18.758959000000001
#
# number of rings (size 3 to 8) (size 9 to 14) (size 15 to 20)
#    0.857    1.143    2.857    0.857    0.000    3.429 
#    0.000    1.429    9.429    0.000    0.000    0.000 
#    0.000    0.000    0.000    0.000    0.000    0.000 
#
# Total GULP energy -78023.403045 kJ/mol
# GULP energy per Si atom -5573.100218 kJ/mol
# Density = 1.871626 g / cm^3
# Si number density = 18.758959 Si / 1000 Ang^3
#
#
#
# Elastic Constant Matrix: (Units=GPa)
#
#
# Indices 1 2 3 4 5 6 
#
# 1 26.4219 23.0293 0.0629 0.0000 14.7830 0.0000
# 2 23.0293 40.6468 3.1495 0.0000 19.2932 0.0000
# 3 0.0629 3.1495 91.5427 0.0000 12.1477 0.0000
# 4 0.0000 0.0000 0.0000 9.7822 0.0000 4.9438
# 5 14.7830 19.2932 12.1477 0.0000 31.0000 0.0000
# 6 0.0000 0.0000 0.0000 4.9438 0.0000 20.2446
#
#
#
# Elastic Compliance Matrix: (Units=1/GPa)
#
#
# Indices 1 2 3 4 5 6 
#
# 1 0.079718 -0.037980 0.003333 0.000000 -0.015684 0.000000
# 2 -0.037980 0.053287 0.000201 0.000000 -0.015131 0.000000
# 3 0.003333 0.000201 0.011753 0.000000 -0.006320 0.000000
# 4 0.000000 0.000000 0.000000 0.116619 0.000000 -0.028479
# 5 -0.015684 -0.015131 -0.006320 0.000000 0.051631 0.000000
# 6 0.000000 0.000000 0.000000 -0.028479 0.000000 0.056351
#
#
# Mechanical properties :
#
#
# Convention : Reuss Voigt Hill
#
# Bulk Modulus (GPa) = 13.18104 23.45497 18.31801
# Shear Modulus (GPa) = 10.78657 21.02999 15.90828
#
# Velocity S-wave (km/s) = 2.40054 3.35186 2.91527
# Velocity P-wave (km/s) = 3.83734 5.24504 4.59541
#
# Compressibility (1/GPa) = 0.07586657
#
# Stress axis : x y z
#
# Youngs Moduli (GPa) = 12.54423 18.76635 85.08216
#
# Poissons Ratio (x) = 0.71274 -0.28360
# Poissons Ratio (y) = 0.47643 -0.01707
# Poissons Ratio (z) = -0.04181 -0.00377
#
# Static dielectric constant tensor:
#      x y z
#    x 1.654790 0.000000 -0.021020 
#    y 0.000000 1.650500 0.000000 
#    z -0.021020 0.000000 1.645610 
# 
# From -- ./inp_files/24067.got.cif
#   From: 2010.05.17/outbox.cif.g08.bks.cpg/sg9_13_cif.got.tgz:24067.got - 2010.06.03 20:04:27.
