data_PCOD9134295
_publ_section_title
;
Structure prediction by ZEFSAII (Michael W. Deem and Ramdas Pophale) SiO2 
 PCOD9134295
Probable space group: C C
;
_chemical_formula_sum "Si O2"
_cell_formula_units_Z 28
_cell_length_a 24.262489
_cell_length_b 7.994964
_cell_length_c 5.504789
_cell_angle_alpha 90.000000
_cell_angle_beta 73.646987
_cell_angle_gamma 90.000000
_cell_volume 1024.608550
_symmetry_space_group_name_H-M "C C"
_symmetry_group_IT_number 9
_symmetry_cell_setting 'monoclinic'
loop_
_space_group_symop_operation_xyz
x,y,z
x,-y,1/2+z
1/2+x,1/2+y,z
1/2+x,1/2-y,1/2+z
loop_
_atom_site_type_symbol
_atom_site_label
_atom_site_fract_x
_atom_site_fract_y
_atom_site_fract_z
Si Si1 0.314590 0.916096 0.234300
Si Si2 0.701472 0.893481 0.351880
Si Si3 0.692439 0.461654 0.883747
Si Si4 0.459798 0.038236 0.769224
Si Si5 0.483606 0.570102 0.244364
Si Si6 0.849092 0.940219 0.877509
Si Si7 0.582995 0.081683 0.140816
O O1 0.343312 0.745501 0.287519
O O2 0.327246 0.041838 0.440161
O O3 0.244799 0.901882 0.320767
O O4 0.728812 0.711769 0.327791
O O5 0.707503 0.009998 0.586091
O O6 0.635410 0.813814 0.469377
O O7 0.660558 0.500502 0.673355
O O8 0.481086 0.228978 0.749423
O O9 0.514408 0.908892 0.702070
O O10 0.429206 0.000246 0.557330
O O11 0.509343 0.498927 0.461745
O O12 0.416208 0.512429 0.325429
O O13 0.823414 0.041588 0.679898
O O14 0.592249 0.064651 0.419607
#
# Coordination Sequence:
#
# PCOD9134295 Si02
#       7
#     4   4   4   4   4   4   4
#     4  10  21  38  56  80 114 142 179 231 277 322
#     4  10  19  35  60  81 105 145 185 223 270 330
#     4  10  21  38  55  81 114 142 176 230 282 325
#     4  10  19  33  56  82 110 144 187 225 264 323
#     4  10  21  36  55  82 115 145 180 228 278 320
#     4  10  21  38  58  80 109 149 188 222 268 331
#     4   8  16  30  52  76 103 135 179 221 255 311
#
# _framework density 27.32751
#
# number of rings (size 3 to 8) (size 9 to 14) (size 15 to 20)
#    0.000    2.286    0.000    2.571    0.000    1.143 
#    0.000   17.143    0.000   46.286    0.000    0.000 
#    0.000    0.000    0.000    0.000    0.000    0.000 
#
# Total GULP energy -78063.909236 kJ/mol
# GULP energy per Si atom -5575.993517 kJ/mol
# Density = 2.726531 g / cm^3
# Si number density = 27.327510 Si / 1000 Ang^3
#
#
#
# Elastic Constant Matrix: (Units=GPa)
#
#
# Indices 1 2 3 4 5 6 
#
# 1 34.2501 -10.5076 19.5919 0.0000 6.0286 0.0000
# 2 -10.5076 116.3018 81.9989 0.0000 37.5820 0.0000
# 3 19.5919 81.9989 279.0896 0.0000 46.8085 0.0000
# 4 0.0000 0.0000 0.0000 46.0425 0.0000 22.5797
# 5 6.0286 37.5820 46.8085 0.0000 41.3507 0.0000
# 6 0.0000 0.0000 0.0000 22.5797 0.0000 -0.7241
#
#
#
# Elastic Compliance Matrix: (Units=1/GPa)
#
#
# Indices 1 2 3 4 5 6 
#
# 1 0.035408 0.008570 -0.003495 0.000000 -0.008995 0.000000
# 2 0.008570 0.015361 -0.003165 0.000000 -0.011629 0.000000
# 3 -0.003495 -0.003165 0.005172 0.000000 -0.002469 0.000000
# 4 0.000000 0.000000 0.000000 0.001333 0.000000 0.041569
# 5 -0.008995 -0.011629 -0.002469 0.000000 0.038859 0.000000
# 6 0.000000 0.000000 0.000000 0.041569 0.000000 -0.084764
#
#
# Mechanical properties :
#
#
# Convention : Reuss Voigt Hill
#
# Bulk Modulus (GPa) = 16.73282 67.97864 42.35573
# Shear Modulus (GPa) = 182.01441 39.90437 110.95939
#
# Velocity S-wave (km/s) = 8.17003 3.82544 6.37900
# Velocity P-wave (km/s) = 9.75375 6.66645 8.35395
#
# Compressibility (1/GPa) = 0.05976280
#
# Stress axis : x y z
#
# Youngs Moduli (GPa) = 28.24181 65.09801 193.33521
#
# Poissons Ratio (x) = -0.55788 0.67569
# Poissons Ratio (y) = -0.24203 0.61183
# Poissons Ratio (z) = 0.09870 0.20601
#
# Static dielectric constant tensor:
#      x y z
#    x 2.386660 0.000000 -0.084090 
#    y 0.000000 2.158610 0.000000 
#    z -0.084090 0.000000 2.255440 
# 
# From -- ./inp_files/3429.got.cif
#   From: 2010.05.17/outbox.cif.g08.bks.cpg/sg9_2_cif.got.tgz:3429.got - 2010.06.03 20:04:27.
