data_PCOD9134807
_publ_section_title
;
Structure prediction by ZEFSAII (Michael W. Deem and Ramdas Pophale) SiO2 
 PCOD9134807
Probable space group: C C
;
_chemical_formula_sum "Si O2"
_cell_formula_units_Z 32
_cell_length_a 10.106940
_cell_length_b 11.555117
_cell_length_c 11.498561
_cell_angle_alpha 90.000000
_cell_angle_beta 103.372080
_cell_angle_gamma 90.000000
_cell_volume 1306.473738
_symmetry_space_group_name_H-M "C C"
_symmetry_group_IT_number 9
_symmetry_cell_setting 'monoclinic'
loop_
_space_group_symop_operation_xyz
x,y,z
x,-y,1/2+z
1/2+x,1/2+y,z
1/2+x,1/2-y,1/2+z
loop_
_atom_site_type_symbol
_atom_site_label
_atom_site_fract_x
_atom_site_fract_y
_atom_site_fract_z
Si Si1 0.234570 0.047214 0.646620
Si Si2 0.799123 0.123754 0.177205
Si Si3 0.474680 0.279339 0.107739
Si Si4 0.102670 0.832345 0.710939
Si Si5 0.545740 0.213247 0.371326
Si Si6 0.181300 0.608365 0.596862
Si Si7 0.281514 0.203820 0.464622
Si Si8 0.312042 0.815834 0.375068
O O1 0.094868 0.125420 0.616534
O O2 0.308801 0.086916 0.544475
O O3 0.316348 0.085195 0.778998
O O4 0.200498 0.914443 0.656364
O O5 0.754660 0.200598 0.057541
O O6 0.803956 0.199332 0.294718
O O7 0.958287 0.104600 0.184282
O O8 0.705564 0.012423 0.163653
O O9 0.511967 0.204941 0.228976
O O10 0.334143 0.345049 0.107039
O O11 0.433083 0.200389 0.989752
O O12 0.101774 0.705062 0.655108
O O13 0.159610 0.820003 0.852024
O O14 0.609252 0.106790 0.456284
O O15 0.407438 0.242656 0.410703
O O16 0.662024 0.313234 0.403392
#
# Coordination Sequence:
#
# PCOD9134807 Si02
#       8
#     4   4   4   4   4   4   4   4
#     4  10  23  43  68 108 143 192 247 311 375 449
#     4  11  24  48  75 106 149 193 255 311 374 459
#     4  10  19  42  69  98 143 191 246 307 369 450
#     4  12  24  44  75 107 146 201 249 310 381 450
#     4  10  21  42  66 102 147 192 246 309 373 446
#     4  11  23  42  73 110 138 197 247 308 374 445
#     4  11  24  45  70 108 149 189 252 313 373 458
#     4   9  22  42  70 107 145 193 250 309 379 447
#
# _framework density 24.493413
#
# number of rings (size 3 to 8) (size 9 to 14) (size 15 to 20)
#    0.000    1.500    3.750    0.750    0.000    5.000 
#    6.750    5.000    0.000    0.000    0.000    0.000 
#    0.000    0.000    0.000    0.000    0.000    0.000 
#
# Total GULP energy -89493.953412 kJ/mol
# GULP energy per Si atom -5593.372088 kJ/mol
# Density = 2.443766 g / cm^3
# Si number density = 24.493413 Si / 1000 Ang^3
#
#
#
# Elastic Constant Matrix: (Units=GPa)
#
#
# Indices 1 2 3 4 5 6 
#
# 1 68.5337 11.5282 28.9490 0.0000 7.8230 0.0000
# 2 11.5282 91.3161 59.9547 0.0000 2.6986 0.0000
# 3 28.9490 59.9547 209.9784 0.0000 21.3099 0.0000
# 4 0.0000 0.0000 0.0000 13.7849 0.0000 1.8100
# 5 7.8230 2.6986 21.3099 0.0000 41.8948 0.0000
# 6 0.0000 0.0000 0.0000 1.8100 0.0000 25.2678
#
#
#
# Elastic Compliance Matrix: (Units=1/GPa)
#
#
# Indices 1 2 3 4 5 6 
#
# 1 0.015684 -0.000781 -0.001737 0.000000 -0.001995 0.000000
# 2 -0.000781 0.013569 -0.003894 0.000000 0.001252 0.000000
# 3 -0.001737 -0.003894 0.006385 0.000000 -0.002673 0.000000
# 4 0.000000 0.000000 0.000000 0.073232 0.000000 -0.005246
# 5 -0.001995 0.001252 -0.002673 0.000000 0.025520 0.000000
# 6 0.000000 0.000000 0.000000 -0.005246 0.000000 0.039952
#
#
# Mechanical properties :
#
#
# Convention : Reuss Voigt Hill
#
# Bulk Modulus (GPa) = 43.83051 63.41023 53.62037
# Shear Modulus (GPa) = 25.67127 34.14926 29.91026
#
# Velocity S-wave (km/s) = 3.24093 3.73798 3.49829
# Velocity P-wave (km/s) = 5.65142 6.67644 6.18520
#
# Compressibility (1/GPa) = 0.02281516
#
# Stress axis : x y z
#
# Youngs Moduli (GPa) = 63.75892 73.69712 156.62005
#
# Poissons Ratio (x) = 0.05753 0.27204
# Poissons Ratio (y) = 0.04977 0.60985
# Poissons Ratio (z) = 0.11075 0.28696
#
# Static dielectric constant tensor:
#      x y z
#    x 2.062850 0.000000 -0.031290 
#    y 0.000000 1.937410 0.000000 
#    z -0.031290 0.000000 1.938460 
# 
# From -- ./inp_files/16581.got.cif
#   From: 2010.05.17/outbox.cif.g08.bks.cpg/sg9_9_cif.got.tgz:16581.got - 2010.06.03 20:04:27.
