data_PCOD9134268
_publ_section_title
;
Structure prediction by ZEFSAII (Michael W. Deem and Ramdas Pophale) SiO2 
 PCOD9134268
Probable space group: C C
;
_chemical_formula_sum "Si O2"
_cell_formula_units_Z 28
_cell_length_a 7.298804
_cell_length_b 10.493709
_cell_length_c 15.862492
_cell_angle_alpha 90.000000
_cell_angle_beta 71.843407
_cell_angle_gamma 90.000000
_cell_volume 1154.439028
_symmetry_space_group_name_H-M "C C"
_symmetry_group_IT_number 9
_symmetry_cell_setting 'monoclinic'
loop_
_space_group_symop_operation_xyz
x,y,z
x,-y,1/2+z
1/2+x,1/2+y,z
1/2+x,1/2-y,1/2+z
loop_
_atom_site_type_symbol
_atom_site_label
_atom_site_fract_x
_atom_site_fract_y
_atom_site_fract_z
Si Si1 0.729440 0.945351 0.683920
Si Si2 0.290748 0.780123 0.832256
Si Si3 0.400904 0.235910 0.971572
Si Si4 0.679451 0.554165 0.106314
Si Si5 0.343640 0.059454 0.740240
Si Si6 0.166075 0.299201 0.860597
Si Si7 0.440576 0.255107 0.146430
O O1 0.575397 0.058977 0.696032
O O2 0.720580 0.904159 0.783176
O O3 0.618949 0.838572 0.643312
O O4 0.951886 0.955573 0.627384
O O5 0.292403 0.926488 0.796885
O O6 0.437942 0.780620 0.888758
O O7 0.387833 0.692230 0.745606
O O8 0.085936 0.728815 0.886647
O O9 0.245050 0.317071 0.942557
O O10 0.305822 0.097791 0.007516
O O11 0.473157 0.303688 0.047403
O O12 0.755719 0.443463 0.157519
O O13 0.742627 0.676386 0.153281
O O14 0.264425 0.173231 0.807015
#
# Coordination Sequence:
#
# PCOD9134268 Si02
#       7
#     4   4   4   4   4   4   4
#     4   9  17  36  59  76 109 157 184 231 300 340
#     4   9  19  37  56  77 115 155 185 238 292 338
#     4  10  19  32  59  82 110 148 198 234 280 359
#     4   8  17  32  57  74 108 148 184 231 291 337
#     4   9  19  36  53  82 114 145 188 242 284 347
#     4  10  20  32  58  86 107 150 199 232 291 349
#     4   7  17  31  52  79 107 143 188 232 278 340
#
# _framework density 24.254204999999999
#
# number of rings (size 3 to 8) (size 9 to 14) (size 15 to 20)
#    0.857    2.857    0.000    1.714    2.000    1.143 
#    0.000    2.857    6.286    0.000    0.000    0.000 
#    0.000    0.000    0.000    0.000    0.000    0.000 
#
# Total GULP energy -77935.118375 kJ/mol
# GULP energy per Si atom -5566.794170 kJ/mol
# Density = 2.419900 g / cm^3
# Si number density = 24.254205 Si / 1000 Ang^3
#
#
#
# Elastic Constant Matrix: (Units=GPa)
#
#
# Indices 1 2 3 4 5 6 
#
# 1 147.9194 8.8124 20.5200 0.0000 -3.2996 0.0000
# 2 8.8124 63.7052 -7.1323 0.0000 -8.6705 0.0000
# 3 20.5200 -7.1323 72.6551 0.0000 24.5945 0.0000
# 4 0.0000 0.0000 0.0000 16.3611 0.0000 3.3153
# 5 -3.2996 -8.6705 24.5945 0.0000 49.6704 0.0000
# 6 0.0000 0.0000 0.0000 3.3153 0.0000 0.8032
#
#
#
# Elastic Compliance Matrix: (Units=1/GPa)
#
#
# Indices 1 2 3 4 5 6 
#
# 1 0.007236 -0.001082 -0.002701 0.000000 0.001630 0.000000
# 2 -0.001082 0.016276 0.001160 0.000000 0.002195 0.000000
# 3 -0.002701 0.001160 0.017579 0.000000 -0.008681 0.000000
# 4 0.000000 0.000000 0.000000 0.373574 0.000000 -1.541967
# 5 0.001630 0.002195 -0.008681 0.000000 0.024923 0.000000
# 6 0.000000 0.000000 0.000000 -1.541967 0.000000 7.609666
#
#
# Mechanical properties :
#
#
# Convention : Reuss Voigt Hill
#
# Bulk Modulus (GPa) = 27.89774 36.51998 32.20886
# Shear Modulus (GPa) = 0.61985 30.83889 15.72937
#
# Velocity S-wave (km/s) = 0.50608 3.56966 2.54937
# Velocity P-wave (km/s) = 3.44510 5.66390 4.68767
#
# Compressibility (1/GPa) = 0.03584519
#
# Stress axis : x y z
#
# Youngs Moduli (GPa) = 138.19823 61.44187 56.88517
#
# Poissons Ratio (x) = 0.06646 0.15367
# Poissons Ratio (y) = 0.14948 -0.06600
# Poissons Ratio (z) = 0.37334 -0.07129
#
# Static dielectric constant tensor:
#      x y z
#    x 1.942450 0.000000 0.047310 
#    y 0.000000 2.132420 0.000000 
#    z 0.047310 0.000000 2.055050 
# 
# From -- ./inp_files/23043.got.cif
#   From: 2010.05.17/outbox.cif.g08.bks.cpg/sg9_12_cif.got.tgz:23043.got - 2010.06.03 20:04:27.
