data_PCOD9134148
_publ_section_title
;
Structure prediction by ZEFSAII (Michael W. Deem and Ramdas Pophale) SiO2 
 PCOD9134148
Probable space group: C C
;
_chemical_formula_sum "Si O2"
_cell_formula_units_Z 32
_cell_length_a 13.437938
_cell_length_b 13.479529
_cell_length_c 11.631751
_cell_angle_alpha 90.000000
_cell_angle_beta 135.152693
_cell_angle_gamma 90.000000
_cell_volume 1485.856835
_symmetry_space_group_name_H-M "C C"
_symmetry_group_IT_number 9
_symmetry_cell_setting 'monoclinic'
loop_
_space_group_symop_operation_xyz
x,y,z
x,-y,1/2+z
1/2+x,1/2+y,z
1/2+x,1/2-y,1/2+z
loop_
_atom_site_type_symbol
_atom_site_label
_atom_site_fract_x
_atom_site_fract_y
_atom_site_fract_z
Si Si1 0.479970 0.342272 0.033050
Si Si2 0.609693 0.827965 0.341786
Si Si3 0.910262 0.779931 0.543996
Si Si4 0.201801 0.673690 0.179971
Si Si5 0.077242 0.939920 0.556759
Si Si6 0.895135 0.637072 0.327198
Si Si7 0.892547 0.842230 0.217341
Si Si8 0.133262 0.549121 0.638581
O O1 0.597501 0.257099 0.143787
O O2 0.551052 0.442900 0.042756
O O3 0.406190 0.366308 0.094777
O O4 0.360050 0.302778 0.848835
O O5 0.744101 0.771479 0.398894
O O6 0.472299 0.761759 0.211800
O O7 0.662326 0.838931 0.513371
O O8 0.594937 0.916022 0.237636
O O9 0.956317 0.706792 0.480192
O O10 0.975865 0.885997 0.567844
O O11 0.182828 0.561420 0.204711
O O12 0.238789 0.907453 0.708909
O O13 0.022898 0.893305 0.391947
O O14 0.894010 0.721632 0.228341
O O15 0.007260 0.549350 0.439770
O O16 0.757301 0.886493 0.176659
#
# Coordination Sequence:
#
# PCOD9134148 Si02
#       8
#     4   4   4   4   4   4   4   4
#     4  12  30  46  68  98 149 184 230 281 350 418
#     4  11  21  41  70  95 135 171 225 286 331 405
#     4  10  18  37  68 102 126 167 220 285 331 393
#     4  12  29  47  64  99 141 191 225 278 352 409
#     4  11  22  44  68 104 132 179 235 275 346 404
#     4  10  21  40  70 106 129 165 235 286 336 400
#     4  11  23  45  74 103 137 178 227 294 344 410
#     4  11  24  42  74 105 129 183 235 283 344 405
#
# _framework density 21.536393
#
# number of rings (size 3 to 8) (size 9 to 14) (size 15 to 20)
#    0.000    1.000    5.000    2.250    8.750    1.000 
#    0.000    1.250    0.000    0.000    0.000    0.000 
#    0.000    0.000    0.000    0.000    0.000    0.000 
#
# Total GULP energy -89109.459706 kJ/mol
# GULP energy per Si atom -5569.341232 kJ/mol
# Density = 2.148738 g / cm^3
# Si number density = 21.536393 Si / 1000 Ang^3
#
#
#
# Elastic Constant Matrix: (Units=GPa)
#
#
# Indices 1 2 3 4 5 6 
#
# 1 55.3399 20.5459 33.2131 0.0000 -8.0589 0.0000
# 2 20.5459 37.8189 13.1173 0.0000 4.5753 0.0000
# 3 33.2131 13.1173 124.5912 0.0000 12.6804 0.0000
# 4 0.0000 0.0000 0.0000 26.9275 0.0000 5.7493
# 5 -8.0589 4.5753 12.6804 0.0000 46.6546 0.0000
# 6 0.0000 0.0000 0.0000 5.7493 0.0000 21.1626
#
#
#
# Elastic Compliance Matrix: (Units=1/GPa)
#
#
# Indices 1 2 3 4 5 6 
#
# 1 0.028748 -0.014186 -0.007011 0.000000 0.008262 0.000000
# 2 -0.014186 0.034619 0.000752 0.000000 -0.006050 0.000000
# 3 -0.007011 0.000752 0.010230 0.000000 -0.004065 0.000000
# 4 0.000000 0.000000 0.000000 0.039423 0.000000 -0.010710
# 5 0.008262 -0.006050 -0.004065 0.000000 0.024560 0.000000
# 6 0.000000 0.000000 0.000000 -0.010710 0.000000 0.050163
#
#
# Mechanical properties :
#
#
# Convention : Reuss Voigt Hill
#
# Bulk Modulus (GPa) = 30.57294 39.05584 34.81439
# Shear Modulus (GPa) = 20.87388 29.00719 24.94053
#
# Velocity S-wave (km/s) = 3.11664 3.67398 3.40673
# Velocity P-wave (km/s) = 5.21325 6.01429 5.62804
#
# Compressibility (1/GPa) = 0.03270866
#
# Stress axis : x y z
#
# Youngs Moduli (GPa) = 34.78535 28.88554 97.75462
#
# Poissons Ratio (x) = 0.40976 0.68535
# Poissons Ratio (y) = 0.49345 -0.07356
# Poissons Ratio (z) = 0.24388 -0.02174
#
# Static dielectric constant tensor:
#      x y z
#    x 1.835390 0.000000 0.001650 
#    y 0.000000 1.917160 0.000000 
#    z 0.001650 0.000000 1.810770 
# 
# From -- ./inp_files/18462.got.cif
#   From: 2010.05.17/outbox.cif.g08.bks.cpg/sg9_10_cif.got.tgz:18462.got - 2010.06.03 20:04:27.
