data_PCOD9134957
_publ_section_title
;
Structure prediction by ZEFSAII (Michael W. Deem and Ramdas Pophale) SiO2 
 PCOD9134957
Probable space group: C C
;
_chemical_formula_sum "Si O2"
_cell_formula_units_Z 32
_cell_length_a 15.914396
_cell_length_b 11.588289
_cell_length_c 8.885307
_cell_angle_alpha 90.000000
_cell_angle_beta 125.540404
_cell_angle_gamma 90.000000
_cell_volume 1333.365872
_symmetry_space_group_name_H-M "C C"
_symmetry_group_IT_number 9
_symmetry_cell_setting 'monoclinic'
loop_
_space_group_symop_operation_xyz
x,y,z
x,-y,1/2+z
1/2+x,1/2+y,z
1/2+x,1/2-y,1/2+z
loop_
_atom_site_type_symbol
_atom_site_label
_atom_site_fract_x
_atom_site_fract_y
_atom_site_fract_z
Si Si1 0.867240 0.099819 0.200190
Si Si2 0.537691 0.503211 0.725286
Si Si3 0.986259 0.776937 0.588477
Si Si4 0.346940 0.765712 0.425306
Si Si5 0.018534 0.430824 0.497567
Si Si6 0.344260 0.119095 0.245624
Si Si7 0.143038 0.602435 0.832712
Si Si8 0.181070 0.071398 0.639284
O O1 0.853725 0.136630 0.360609
O O2 0.934194 0.988493 0.216964
O O3 0.937427 0.203087 0.203262
O O4 0.762663 0.096669 0.995113
O O5 0.508878 0.407754 0.569853
O O6 0.601732 0.593056 0.694567
O O7 0.619465 0.442621 0.921673
O O8 0.093746 0.709310 0.691309
O O9 0.897795 0.712491 0.407160
O O10 0.454860 0.831469 0.513065
O O11 0.318691 0.811772 0.564473
O O12 0.262485 0.825938 0.229332
O O13 0.093722 0.494706 0.693389
O O14 0.088911 0.388454 0.437095
O O15 0.934393 0.519787 0.334949
O O16 0.248604 0.047627 0.217118
#
# Coordination Sequence:
#
# PCOD9134957 Si02
#       8
#     4   4   4   4   4   4   4   4
#     4  10  24  39  65  83 131 168 206 249 332 384
#     4  10  23  42  57  96 127 173 198 272 319 385
#     4   9  22  39  61  88 130 161 205 255 324 370
#     4  11  20  38  63 100 119 164 217 264 304 382
#     4  10  20  35  62  89 125 153 213 258 303 369
#     4  10  21  36  63  98 118 165 213 271 298 383
#     4  11  20  39  61  91 119 170 199 255 315 375
#     4  11  22  38  68  95 131 160 223 266 323 364
#
# _framework density 23.999413000000001
#
# number of rings (size 3 to 8) (size 9 to 14) (size 15 to 20)
#    0.750    1.000    3.750    0.750    3.500    1.000 
#    2.250    2.500    0.000    0.000    0.000    0.000 
#    0.000    0.000    0.000    0.000    0.000    0.000 
#
# Total GULP energy -89146.025135 kJ/mol
# GULP energy per Si atom -5571.626571 kJ/mol
# Density = 2.394479 g / cm^3
# Si number density = 23.999413 Si / 1000 Ang^3
#
#
#
# Elastic Constant Matrix: (Units=GPa)
#
#
# Indices 1 2 3 4 5 6 
#
# 1 86.7175 21.1789 31.3303 0.0000 20.3865 0.0000
# 2 21.1789 28.5509 26.9574 0.0000 12.4075 0.0000
# 3 31.3303 26.9574 113.9283 0.0000 13.6454 0.0000
# 4 0.0000 0.0000 0.0000 28.2168 0.0000 -6.1550
# 5 20.3865 12.4075 13.6454 0.0000 37.4900 0.0000
# 6 0.0000 0.0000 0.0000 -6.1550 0.0000 21.5381
#
#
#
# Elastic Compliance Matrix: (Units=1/GPa)
#
#
# Indices 1 2 3 4 5 6 
#
# 1 0.015192 -0.007286 -0.001833 0.000000 -0.005182 0.000000
# 2 -0.007286 0.053942 -0.009511 0.000000 -0.010428 0.000000
# 3 -0.001833 -0.009511 0.011539 0.000000 -0.000055 0.000000
# 4 0.000000 0.000000 0.000000 0.037796 0.000000 0.010801
# 5 -0.005182 -0.010428 -0.000055 0.000000 0.032963 0.000000
# 6 0.000000 0.000000 0.000000 0.010801 0.000000 0.049516
#
#
# Mechanical properties :
#
#
# Convention : Reuss Voigt Hill
#
# Bulk Modulus (GPa) = 23.03501 43.12554 33.08027
# Shear Modulus (GPa) = 19.78793 27.43097 23.60945
#
# Velocity S-wave (km/s) = 2.87456 3.38447 3.13988
# Velocity P-wave (km/s) = 4.54273 5.76900 5.19219
#
# Compressibility (1/GPa) = 0.04341217
#
# Stress axis : x y z
#
# Youngs Moduli (GPa) = 65.82491 18.53836 86.66577
#
# Poissons Ratio (x) = 0.13508 0.15885
# Poissons Ratio (y) = 0.47963 0.82427
# Poissons Ratio (z) = 0.12065 0.17632
#
# Static dielectric constant tensor:
#      x y z
#    x 1.989340 0.000000 -0.013650 
#    y 0.000000 1.958250 0.000000 
#    z -0.013650 0.000000 1.933560 
# 
# From -- ./inp_files/9602.got.cif
#   From: 2010.05.17/outbox.cif.g08.bks.cpg/sg9_5_cif.got.tgz:9602.got - 2010.06.03 20:04:27.
