data_PCOD9134369
_publ_section_title
;
Structure prediction by ZEFSAII (Michael W. Deem and Ramdas Pophale) SiO2 
 PCOD9134369
Probable space group: C C
;
_chemical_formula_sum "Si O2"
_cell_formula_units_Z 32
_cell_length_a 17.893615
_cell_length_b 16.742123
_cell_length_c 5.333720
_cell_angle_alpha 90.000000
_cell_angle_beta 71.042302
_cell_angle_gamma 90.000000
_cell_volume 1511.190343
_symmetry_space_group_name_H-M "C C"
_symmetry_group_IT_number 9
_symmetry_cell_setting 'monoclinic'
loop_
_space_group_symop_operation_xyz
x,y,z
x,-y,1/2+z
1/2+x,1/2+y,z
1/2+x,1/2-y,1/2+z
loop_
_atom_site_type_symbol
_atom_site_label
_atom_site_fract_x
_atom_site_fract_y
_atom_site_fract_z
Si Si1 0.840330 0.031001 0.881580
Si Si2 0.639136 0.787563 0.857641
Si Si3 0.158977 0.531506 0.177436
Si Si4 0.374609 0.711798 0.717416
Si Si5 0.976962 0.216887 0.102958
Si Si6 0.224655 0.976828 0.731313
Si Si7 0.208875 0.789812 0.785989
Si Si8 0.549315 0.543289 0.929066
O O1 0.844882 0.120450 0.776218
O O2 0.874880 0.975791 0.623743
O O3 0.749673 0.005145 0.027831
O O4 0.661651 0.878094 0.769430
O O5 0.546652 0.781113 0.017023
O O6 0.658819 0.737932 0.583116
O O7 0.683682 0.754283 0.055820
O O8 0.122223 0.479390 0.441765
O O9 0.419033 0.728742 0.930036
O O10 0.298760 0.766687 0.753267
O O11 0.431665 0.717197 0.415658
O O12 0.021923 0.131901 0.021592
O O13 0.200903 0.884467 0.756877
O O14 0.269650 0.000693 0.433064
O O15 0.145036 0.031790 0.821472
O O16 0.523946 0.516335 0.679783
#
# Coordination Sequence:
#
# PCOD9134369 Si02
#       8
#     4   4   4   4   4   4   4   4
#     4  10  21  37  59  88 126 168 212 254 311 395
#     4  12  23  42  68  96 123 174 227 281 326 388
#     4  10  21  37  63  93 120 157 218 281 320 373
#     4  12  26  42  59  95 136 179 208 265 338 407
#     4  12  26  40  62  93 137 170 213 266 344 407
#     4  10  20  37  62  93 122 157 218 276 320 369
#     4  12  24  42  70  95 130 179 229 277 325 399
#     4  10  19  35  57  85 124 162 205 252 312 392
#
# _framework density 21.175360000000001
#
# number of rings (size 3 to 8) (size 9 to 14) (size 15 to 20)
#    0.000    1.000    1.250    7.500    3.500    3.000 
#    0.000    0.000    0.000    4.500    0.000    0.000 
#    0.000    0.000    0.000    0.000    0.000    0.000 
#
# Total GULP energy -89455.712356 kJ/mol
# GULP energy per Si atom -5590.982022 kJ/mol
# Density = 2.112716 g / cm^3
# Si number density = 21.175360 Si / 1000 Ang^3
#
#
#
# Elastic Constant Matrix: (Units=GPa)
#
#
# Indices 1 2 3 4 5 6 
#
# 1 49.5432 13.3067 23.3193 0.0000 8.5005 0.0000
# 2 13.3067 72.5971 40.6151 0.0000 8.5393 0.0000
# 3 23.3193 40.6151 169.1966 0.0000 34.2647 0.0000
# 4 0.0000 0.0000 0.0000 30.9714 0.0000 -2.8683
# 5 8.5005 8.5393 34.2647 0.0000 32.5339 0.0000
# 6 0.0000 0.0000 0.0000 -2.8683 0.0000 25.3989
#
#
#
# Elastic Compliance Matrix: (Units=1/GPa)
#
#
# Indices 1 2 3 4 5 6 
#
# 1 0.022303 -0.002719 -0.001761 0.000000 -0.003259 0.000000
# 2 -0.002719 0.016244 -0.003565 0.000000 0.000202 0.000000
# 3 -0.001761 -0.003565 0.008550 0.000000 -0.007609 0.000000
# 4 0.000000 0.000000 0.000000 0.032629 0.000000 0.003685
# 5 -0.003259 0.000202 -0.007609 0.000000 0.039549 0.000000
# 6 0.000000 0.000000 0.000000 0.003685 0.000000 0.039788
#
#
# Mechanical properties :
#
#
# Convention : Reuss Voigt Hill
#
# Bulk Modulus (GPa) = 32.25318 49.53545 40.89431
# Shear Modulus (GPa) = 26.95567 32.05387 29.50477
#
# Velocity S-wave (km/s) = 3.57175 3.89489 3.73682
# Velocity P-wave (km/s) = 5.68105 6.60838 6.16219
#
# Compressibility (1/GPa) = 0.03100470
#
# Stress axis : x y z
#
# Youngs Moduli (GPa) = 44.83725 61.56090 116.96267
#
# Poissons Ratio (x) = 0.16741 0.20599
# Poissons Ratio (y) = 0.12193 0.41703
# Poissons Ratio (z) = 0.07896 0.21949
#
# Static dielectric constant tensor:
#      x y z
#    x 1.811770 0.000000 0.052570 
#    y 0.000000 1.730810 0.000000 
#    z 0.052570 0.000000 1.826320 
# 
# From -- ./inp_files/3202.got.cif
#   From: 2010.05.17/outbox.cif.g08.bks.cpg/sg9_2_cif.got.tgz:3202.got - 2010.06.03 20:04:27.
