data_PCOD9134160
_publ_section_title
;
Structure prediction by ZEFSAII (Michael W. Deem and Ramdas Pophale) SiO2 
 PCOD9134160
Probable space group: C C
;
_chemical_formula_sum "Si O2"
_cell_formula_units_Z 28
_cell_length_a 16.700344
_cell_length_b 7.942827
_cell_length_c 19.968354
_cell_angle_alpha 90.000000
_cell_angle_beta 26.996176
_cell_angle_gamma 90.000000
_cell_volume 1202.354853
_symmetry_space_group_name_H-M "C C"
_symmetry_group_IT_number 9
_symmetry_cell_setting 'monoclinic'
loop_
_space_group_symop_operation_xyz
x,y,z
x,-y,1/2+z
1/2+x,1/2+y,z
1/2+x,1/2-y,1/2+z
loop_
_atom_site_type_symbol
_atom_site_label
_atom_site_fract_x
_atom_site_fract_y
_atom_site_fract_z
Si Si1 0.850920 0.274096 0.578940
Si Si2 0.579923 0.490583 0.723383
Si Si3 0.185358 0.418990 0.392755
Si Si4 0.549047 0.291330 0.116015
Si Si5 0.369731 0.062103 0.772717
Si Si6 0.715270 0.202587 0.475474
Si Si7 0.614965 0.482470 0.842266
O O1 0.735011 0.349820 0.605161
O O2 0.718350 0.314239 0.738742
O O3 0.016686 0.393038 0.472492
O O4 0.930693 0.090377 0.507244
O O5 0.163776 0.729099 0.966670
O O6 0.603196 0.614501 0.643830
O O7 0.387544 0.400070 0.872281
O O8 0.378880 0.396994 0.218533
O O9 0.173433 0.596860 0.438533
O O10 0.475677 0.110106 0.194115
O O11 0.764204 0.609624 0.917537
O O12 0.236865 0.060403 0.808664
O O13 0.528223 0.196922 0.651058
O O14 0.099908 0.922684 0.282354
#
# Coordination Sequence:
#
# PCOD9134160 Si02
#       7
#     4   4   4   4   4   4   4
#     4  10  18  39  65  91 126 169 206 255 312 383
#     4   9  22  37  65  88 131 157 209 263 322 365
#     4  10  18  38  62  89 120 166 215 252 305 379
#     4  10  19  38  63  91 119 162 211 262 301 376
#     4  11  22  41  62  91 124 171 219 250 312 373
#     4  10  22  37  59  91 131 157 209 269 307 365
#     4  10  21  40  66  91 129 166 209 257 317 381
#
# _framework density 23.287634000000001
#
# number of rings (size 3 to 8) (size 9 to 14) (size 15 to 20)
#    0.857    1.143    4.286    0.000    2.000    2.286 
#    2.571    8.571    0.000    0.000    0.000    0.000 
#    0.000    0.000    0.000    0.000    0.000    0.000 
#
# Total GULP energy -77987.933977 kJ/mol
# GULP energy per Si atom -5570.566713 kJ/mol
# Density = 2.323463 g / cm^3
# Si number density = 23.287634 Si / 1000 Ang^3
#
#
#
# Elastic Constant Matrix: (Units=GPa)
#
#
# Indices 1 2 3 4 5 6 
#
# 1 122.1887 20.9512 36.6067 0.0000 -32.3223 0.0000
# 2 20.9512 18.0764 11.9515 0.0002 -10.0733 -0.0001
# 3 36.6067 11.9515 96.8791 0.0004 2.7661 -0.0002
# 4 0.0000 0.0002 0.0004 30.9254 0.0000 6.6812
# 5 -32.3223 -10.0733 2.7661 0.0000 38.6950 0.0000
# 6 0.0000 -0.0001 -0.0002 6.6812 0.0000 33.8845
#
#
#
# Elastic Compliance Matrix: (Units=1/GPa)
#
#
# Indices 1 2 3 4 5 6 
#
# 1 0.013242 -0.007139 -0.004395 0.000000 0.009517 0.000000
# 2 -0.007139 0.076348 -0.007133 -0.000001 0.014422 0.000000
# 3 -0.004395 -0.007133 0.013047 0.000000 -0.006460 0.000000
# 4 0.000000 -0.000001 0.000000 0.033775 0.000000 -0.006660
# 5 0.009517 0.014422 -0.006460 0.000000 0.038009 0.000000
# 6 0.000000 0.000000 0.000000 -0.006660 0.000000 0.030825
#
#
# Mechanical properties :
#
#
# Convention : Reuss Voigt Hill
#
# Bulk Modulus (GPa) = 15.31299 41.79587 28.55443
# Shear Modulus (GPa) = 18.91447 31.87664 25.39555
#
# Velocity S-wave (km/s) = 2.85302 3.70377 3.30588
# Velocity P-wave (km/s) = 4.17646 6.02306 5.18267
#
# Compressibility (1/GPa) = 0.06530403
#
# Stress axis : x y z
#
# Youngs Moduli (GPa) = 75.51525 13.09791 76.64519
#
# Poissons Ratio (x) = 0.09351 0.33684
# Poissons Ratio (y) = 0.53912 0.54669
# Poissons Ratio (z) = 0.33187 0.09342
#
# Static dielectric constant tensor:
#      x y z
#    x 1.968470 0.000000 0.011410 
#    y 0.000000 1.899320 0.000000 
#    z 0.011410 0.000000 1.915460 
# 
# From -- ./inp_files/37629.got.cif
#   From: 2010.05.17/outbox.cif.g08.bks.cpg/sg9_19_cif.got.tgz:37629.got - 2010.06.03 20:04:27.
