data_PCOD9134955
_publ_section_title
;
Structure prediction by ZEFSAII (Michael W. Deem and Ramdas Pophale) SiO2 
 PCOD9134955
Probable space group: C C
;
_chemical_formula_sum "Si O2"
_cell_formula_units_Z 32
_cell_length_a 11.325981
_cell_length_b 17.257924
_cell_length_c 10.744590
_cell_angle_alpha 90.000000
_cell_angle_beta 140.537146
_cell_angle_gamma 90.000000
_cell_volume 1334.820804
_symmetry_space_group_name_H-M "C C"
_symmetry_group_IT_number 9
_symmetry_cell_setting 'monoclinic'
loop_
_space_group_symop_operation_xyz
x,y,z
x,-y,1/2+z
1/2+x,1/2+y,z
1/2+x,1/2-y,1/2+z
loop_
_atom_site_type_symbol
_atom_site_label
_atom_site_fract_x
_atom_site_fract_y
_atom_site_fract_z
Si Si1 0.281910 0.167530 0.199360
Si Si2 0.273587 0.598865 0.980667
Si Si3 0.884860 0.450918 0.462667
Si Si4 0.860819 0.154945 0.784536
Si Si5 0.092784 0.450892 0.918158
Si Si6 0.195856 0.667475 0.181654
Si Si7 0.116938 0.845004 0.096487
Si Si8 0.204265 0.901101 0.900435
O O1 0.318150 0.257864 0.208145
O O2 0.440349 0.114883 0.269573
O O3 0.282363 0.149165 0.348552
O O4 0.080512 0.145524 0.982513
O O5 0.267158 0.641509 0.843771
O O6 0.171141 0.516347 0.889833
O O7 0.195425 0.649120 0.032481
O O8 0.488928 0.585253 0.190557
O O9 0.988633 0.500013 0.440182
O O10 0.037521 0.385245 0.611473
O O11 0.806686 0.516372 0.491209
O O12 0.707332 0.406557 0.261950
O O13 0.770363 0.093362 0.619100
O O14 0.397272 0.645528 0.398516
O O15 0.159496 0.757800 0.172762
O O16 0.210660 0.858464 0.037317
#
# Coordination Sequence:
#
# PCOD9134955 Si02
#       8
#     4   4   4   4   4   4   4   4
#     4  10  20  35  61  92 121 157 201 252 314 352
#     4   9  21  36  58  93 126 159 201 249 311 366
#     4  10  22  38  57  92 127 165 197 247 315 366
#     4  11  20  38  63  91 125 155 202 262 299 363
#     4  10  22  38  57  92 127 165 197 247 315 366
#     4  10  20  35  61  92 121 157 201 252 314 352
#     4  11  20  38  63  91 125 155 202 262 299 363
#     4   9  21  36  58  93 126 159 201 249 311 366
#
# _framework density 23.973255000000002
#
# number of rings (size 3 to 8) (size 9 to 14) (size 15 to 20)
#    0.000    2.000    2.500    0.750    0.000   13.000 
#    0.000    2.500    0.000    1.500    0.000    0.000 
#    0.000    0.000    0.000    0.000    0.000    0.000 
#
# Total GULP energy -89627.848002 kJ/mol
# GULP energy per Si atom -5601.740500 kJ/mol
# Density = 2.391869 g / cm^3
# Si number density = 23.973255 Si / 1000 Ang^3
#
#
#
# Elastic Constant Matrix: (Units=GPa)
#
#
# Indices 1 2 3 4 5 6 
#
# 1 49.1454 3.1286 14.3854 0.0000 -21.2275 0.0000
# 2 3.1286 135.7715 37.9073 0.0000 -17.5298 0.0000
# 3 14.3854 37.9073 113.9746 0.0000 12.7364 0.0000
# 4 0.0000 0.0000 0.0000 27.3866 0.0000 13.8690
# 5 -21.2275 -17.5298 12.7364 0.0000 -8.7871 0.0000
# 6 0.0000 0.0000 0.0000 13.8690 0.0000 37.6099
#
#
#
# Elastic Compliance Matrix: (Units=1/GPa)
#
#
# Indices 1 2 3 4 5 6 
#
# 1 0.011715 -0.003249 0.001756 0.000000 -0.019275 0.000000
# 2 -0.003249 0.006798 -0.001044 0.000000 -0.007227 0.000000
# 3 0.001756 -0.001044 0.007867 0.000000 0.009242 0.000000
# 4 0.000000 0.000000 0.000000 0.044899 0.000000 -0.016557
# 5 -0.019275 -0.007227 0.009242 0.000000 -0.039427 0.000000
# 6 0.000000 0.000000 0.000000 -0.016557 0.000000 0.032694
#
#
# Mechanical properties :
#
#
# Convention : Reuss Voigt Hill
#
# Bulk Modulus (GPa) = 46.93244 45.52601 46.22922
# Shear Modulus (GPa) = 65.17043 27.47323 46.32183
#
# Velocity S-wave (km/s) = 5.21955 3.38893 4.40048
# Velocity P-wave (km/s) = 7.47960 5.86043 6.71897
#
# Compressibility (1/GPa) = 0.02130723
#
# Stress axis : x y z
#
# Youngs Moduli (GPa) = 85.35908 147.09211 127.12071
#
# Poissons Ratio (x) = 0.47787 -0.22320
# Poissons Ratio (y) = 0.27731 0.13265
# Poissons Ratio (z) = -0.14987 0.15349
#
# Static dielectric constant tensor:
#      x y z
#    x 1.961150 0.000000 -0.051140 
#    y 0.000000 1.848090 0.000000 
#    z -0.051140 0.000000 1.921580 
# 
# From -- ./inp_files/26035.got.cif
#   From: 2010.05.17/outbox.cif.g08.bks.cpg/sg9_14_cif.got.tgz:26035.got - 2010.06.03 20:04:27.
