data_PCOD9134864
_publ_section_title
;
Structure prediction by ZEFSAII (Michael W. Deem and Ramdas Pophale) SiO2 
 PCOD9134864
Probable space group: C C
;
_chemical_formula_sum "Si O2"
_cell_formula_units_Z 32
_cell_length_a 16.334645
_cell_length_b 9.498130
_cell_length_c 18.290604
_cell_angle_alpha 90.000000
_cell_angle_beta 154.989034
_cell_angle_gamma 90.000000
_cell_volume 1199.781953
_symmetry_space_group_name_H-M "C C"
_symmetry_group_IT_number 9
_symmetry_cell_setting 'monoclinic'
loop_
_space_group_symop_operation_xyz
x,y,z
x,-y,1/2+z
1/2+x,1/2+y,z
1/2+x,1/2-y,1/2+z
loop_
_atom_site_type_symbol
_atom_site_label
_atom_site_fract_x
_atom_site_fract_y
_atom_site_fract_z
Si Si1 0.864870 0.382554 0.570620
Si Si2 0.025317 0.462554 0.337511
Si Si3 0.569451 0.537451 0.576553
Si Si4 0.171745 0.681013 0.210867
Si Si5 0.579706 0.085689 0.536622
Si Si6 0.515058 0.414315 0.377440
Si Si7 0.229892 0.117448 0.343438
Si Si8 0.923019 0.181017 0.203194
O O1 0.670694 0.330985 0.454404
O O2 0.797382 0.500002 0.457031
O O3 0.992614 0.447198 0.738872
O O4 0.008803 0.287609 0.640181
O O5 0.004612 0.551657 0.394965
O O6 0.236200 0.390743 0.516594
O O7 0.885831 0.328916 0.210908
O O8 0.358566 0.609257 0.397469
O O9 0.708934 0.671090 0.703153
O O10 0.590156 0.448345 0.519099
O O11 0.602153 0.447203 0.675191
O O12 0.101939 0.565196 0.095738
O O13 0.797383 0.144443 0.707032
O O14 0.424069 0.169020 0.459656
O O15 0.492823 0.565201 0.318322
O O16 0.085958 0.212393 0.273876
#
# Coordination Sequence:
#
# PCOD9134864 Si02
#       8
#     4   4   4   4   4   4   4   4
#     4  10  20  34  51  80 114 146 180 226 276 325
#     4  11  20  34  55  81 110 145 183 227 272 325
#     4  11  20  34  55  81 110 145 183 227 272 325
#     4  10  20  33  53  84 115 145 180 226 277 324
#     4   9  19  33  53  81 113 144 181 225 274 322
#     4   9  19  33  53  81 113 144 181 225 274 322
#     4  10  20  34  51  80 114 146 180 226 276 325
#     4  10  20  33  53  84 115 145 180 226 277 324
#
# _framework density 26.671510999999999
#
# number of rings (size 3 to 8) (size 9 to 14) (size 15 to 20)
#    0.000    2.000    0.000    5.250    0.000    4.000 
#    0.000    0.000    0.000    0.000    0.000  124.250 
#    0.000    0.000    0.000    0.000    0.000    0.000 
#
# Total GULP energy -89650.163023 kJ/mol
# GULP energy per Si atom -5603.135189 kJ/mol
# Density = 2.661081 g / cm^3
# Si number density = 26.671511 Si / 1000 Ang^3
#
#
#
# Elastic Constant Matrix: (Units=GPa)
#
#
# Indices 1 2 3 4 5 6 
#
# 1 241.6049 44.1469 79.7569 -0.0005 8.3899 -0.0002
# 2 44.1469 73.6519 36.6168 -0.0015 -15.2286 -0.0007
# 3 79.7569 36.6168 196.3908 -0.0010 -23.2934 -0.0003
# 4 -0.0005 -0.0015 -0.0010 19.8588 -0.0001 -7.5547
# 5 8.3899 -15.2286 -23.2934 -0.0001 71.8146 -0.0001
# 6 -0.0002 -0.0007 -0.0003 -7.5547 -0.0001 18.1245
#
#
#
# Elastic Compliance Matrix: (Units=1/GPa)
#
#
# Indices 1 2 3 4 5 6 
#
# 1 0.005297 -0.002611 -0.001876 0.000000 -0.001781 0.000000
# 2 -0.002611 0.016646 -0.001652 0.000002 0.003299 0.000001
# 3 -0.001876 -0.001652 0.006392 0.000000 0.001942 0.000000
# 4 0.000000 0.000002 0.000000 0.059845 0.000001 0.024945
# 5 -0.001781 0.003299 0.001942 0.000001 0.015462 0.000000
# 6 0.000000 0.000001 0.000000 0.024945 0.000000 0.065572
#
#
# Mechanical properties :
#
#
# Convention : Reuss Voigt Hill
#
# Bulk Modulus (GPa) = 62.27480 92.52097 77.39788
# Shear Modulus (GPa) = 26.76043 45.36803 36.06423
#
# Velocity S-wave (km/s) = 3.17098 4.12878 3.68117
# Velocity P-wave (km/s) = 6.06682 7.58245 6.86658
#
# Compressibility (1/GPa) = 0.01605786
#
# Stress axis : x y z
#
# Youngs Moduli (GPa) = 188.78414 60.07553 156.44613
#
# Poissons Ratio (x) = 0.15684 0.29344
# Poissons Ratio (y) = 0.49287 0.25845
# Poissons Ratio (z) = 0.35409 0.09925
#
# Static dielectric constant tensor:
#      x y z
#    x 2.140190 0.000000 0.055950 
#    y 0.000000 1.969760 0.000000 
#    z 0.055950 0.000000 2.107540 
# 
# From -- ./inp_files/12542.got.cif
#   From: 2010.05.17/outbox.cif.g08.bks.cpg/sg9_7_cif.got.tgz:12542.got - 2010.06.03 20:04:27.
