data_PCOD9134563
_publ_section_title
;
Structure prediction by ZEFSAII (Michael W. Deem and Ramdas Pophale) SiO2 
 PCOD9134563
Probable space group: C C
;
_chemical_formula_sum "Si O2"
_cell_formula_units_Z 28
_cell_length_a 13.817142
_cell_length_b 10.559552
_cell_length_c 8.386504
_cell_angle_alpha 90.000000
_cell_angle_beta 61.890982
_cell_angle_gamma 90.000000
_cell_volume 1079.292642
_symmetry_space_group_name_H-M "C C"
_symmetry_group_IT_number 9
_symmetry_cell_setting 'monoclinic'
loop_
_space_group_symop_operation_xyz
x,y,z
x,-y,1/2+z
1/2+x,1/2+y,z
1/2+x,1/2-y,1/2+z
loop_
_atom_site_type_symbol
_atom_site_label
_atom_site_fract_x
_atom_site_fract_y
_atom_site_fract_z
Si Si1 0.424490 0.624426 0.696100
Si Si2 0.202308 0.829621 0.261223
Si Si3 0.640064 0.454955 0.596843
Si Si4 0.464141 0.228697 0.472568
Si Si5 0.215205 0.416042 0.536777
Si Si6 0.445728 0.280389 0.840597
Si Si7 0.060135 0.550142 0.881368
O O1 0.540808 0.548908 0.607249
O O2 0.325559 0.546411 0.857449
O O3 0.392281 0.659140 0.540909
O O4 0.425218 0.742783 0.821201
O O5 0.225213 0.877972 0.420376
O O6 0.071783 0.814773 0.388769
O O7 0.215408 0.951414 0.140793
O O8 0.231517 0.703915 0.140574
O O9 0.564558 0.352087 0.743574
O O10 0.407698 0.272070 0.684195
O O11 0.505015 0.085260 0.460935
O O12 0.159971 0.524993 0.682624
O O13 0.119043 0.385234 0.485784
O O14 0.471921 0.138814 0.872031
#
# Coordination Sequence:
#
# PCOD9134563 Si02
#       7
#     4   4   4   4   4   4   4
#     4  11  24  42  64  99 135 156 217 282 332 369
#     4   9  19  37  59  90 119 164 215 255 311 383
#     4  10  19  37  66  86 118 171 217 256 306 399
#     4   9  21  40  66  91 122 176 223 257 310 407
#     4  11  25  39  64 100 133 163 209 289 330 372
#     4  11  21  38  68  94 120 177 219 257 317 404
#     4  11  21  43  67  92 129 175 228 260 320 402
#
# _framework density 25.942917999999999
#
# number of rings (size 3 to 8) (size 9 to 14) (size 15 to 20)
#    0.000    1.714    2.857    2.571    2.000    0.000 
#    0.000    1.429    0.000    0.000    0.000    0.000 
#    0.000    0.000    0.000    0.000    0.000    0.000 
#
# Total GULP energy -78051.722917 kJ/mol
# GULP energy per Si atom -5575.123066 kJ/mol
# Density = 2.588387 g / cm^3
# Si number density = 25.942918 Si / 1000 Ang^3
#
#
#
# Elastic Constant Matrix: (Units=GPa)
#
#
# Indices 1 2 3 4 5 6 
#
# 1 79.9376 9.8512 51.4498 0.0000 23.1551 0.0000
# 2 9.8512 74.8588 38.3021 0.0000 10.5037 0.0000
# 3 51.4498 38.3021 198.0407 0.0000 8.8282 0.0000
# 4 0.0000 0.0000 0.0000 27.7698 0.0000 3.0575
# 5 23.1551 10.5037 8.8282 0.0000 44.0750 0.0000
# 6 0.0000 0.0000 0.0000 3.0575 0.0000 -0.0916
#
#
#
# Elastic Compliance Matrix: (Units=1/GPa)
#
#
# Indices 1 2 3 4 5 6 
#
# 1 0.017754 0.001162 -0.004449 0.000000 -0.008713 0.000000
# 2 0.001162 0.015302 -0.003099 0.000000 -0.003636 0.000000
# 3 -0.004449 -0.003099 0.006728 0.000000 0.001728 0.000000
# 4 0.000000 0.000000 0.000000 0.007702 0.000000 0.257114
# 5 -0.008713 -0.003636 0.001728 0.000000 0.027786 0.000000
# 6 0.000000 0.000000 0.000000 0.257114 0.000000 -2.335274
#
#
# Mechanical properties :
#
#
# Convention : Reuss Voigt Hill
#
# Bulk Modulus (GPa) = 37.02107 61.33815 49.17961
# Shear Modulus (GPa) = -2.23391 31.23291 14.49950
#
# Velocity S-wave (km/s) = -0.92895 3.47350 2.36667
# Velocity P-wave (km/s) = 3.62637 6.30728 5.14453
#
# Compressibility (1/GPa) = 0.02701165
#
# Stress axis : x y z
#
# Youngs Moduli (GPa) = 56.32652 65.35292 148.64159
#
# Poissons Ratio (x) = -0.07597 0.66126
# Poissons Ratio (y) = -0.06548 0.46068
# Poissons Ratio (z) = 0.25058 0.20255
#
# Static dielectric constant tensor:
#      x y z
#    x 2.254230 0.000000 0.017070 
#    y 0.000000 2.031680 0.000000 
#    z 0.017070 0.000000 2.122740 
# 
# From -- ./inp_files/10609.got.cif
#   From: 2010.05.17/outbox.cif.g08.bks.cpg/sg9_6_cif.got.tgz:10609.got - 2010.06.03 20:04:27.
