data_PCOD9134425
_publ_section_title
;
Structure prediction by ZEFSAII (Michael W. Deem and Ramdas Pophale) SiO2 
 PCOD9134425
Probable space group: C C
;
_chemical_formula_sum "Si O2"
_cell_formula_units_Z 32
_cell_length_a 22.231018
_cell_length_b 10.714806
_cell_length_c 8.692270
_cell_angle_alpha 90.000000
_cell_angle_beta 50.904440
_cell_angle_gamma 90.000000
_cell_volume 1606.911324
_symmetry_space_group_name_H-M "C C"
_symmetry_group_IT_number 9
_symmetry_cell_setting 'monoclinic'
loop_
_space_group_symop_operation_xyz
x,y,z
x,-y,1/2+z
1/2+x,1/2+y,z
1/2+x,1/2-y,1/2+z
loop_
_atom_site_type_symbol
_atom_site_label
_atom_site_fract_x
_atom_site_fract_y
_atom_site_fract_z
Si Si1 0.196700 0.177148 0.765630
Si Si2 0.345663 0.321795 0.452183
Si Si3 0.400753 0.067705 0.795213
Si Si4 0.642937 0.903829 0.653238
Si Si5 0.469620 0.840880 0.864177
Si Si6 0.825027 0.718857 0.146802
Si Si7 0.239212 0.435334 0.188847
Si Si8 0.730854 0.500275 0.455870
O O1 0.287752 0.214884 0.611895
O O2 0.156845 0.301154 0.765716
O O3 0.185361 0.110037 0.945147
O O4 0.182396 0.070482 0.662870
O O5 0.429953 0.291836 0.386370
O O6 0.346571 0.295067 0.267149
O O7 0.301102 0.450273 0.568950
O O8 0.443250 0.122164 0.578950
O O9 0.311095 0.050227 0.895129
O O10 0.434457 0.936495 0.796001
O O11 0.398700 0.154617 0.949288
O O12 0.560862 0.866888 0.716614
O O13 0.665121 0.032620 0.702815
O O14 0.704188 0.909049 0.414597
O O15 0.762970 0.611939 0.293917
O O16 0.787280 0.810733 0.082283
#
# Coordination Sequence:
#
# PCOD9134425 Si02
#       8
#     4   4   4   4   4   4   4   4
#     4  10  19  36  58  87 114 149 202 250 299 361
#     4  10  20  38  59  86 118 158 208 247 296 366
#     4  12  20  33  64  94 114 154 202 266 312 348
#     4  11  25  39  59  87 131 165 198 253 320 376
#     4  12  22  38  60  91 126 160 204 262 317 362
#     4  11  20  35  61  91 118 150 210 258 299 361
#     4  11  22  40  60  88 124 166 201 249 307 380
#     4  11  16  33  61  90 109 140 203 261 294 344
#
# _framework density 19.913979999999999
#
# number of rings (size 3 to 8) (size 9 to 14) (size 15 to 20)
#    0.000    1.000   10.000    0.750    1.750    0.000 
#    0.000    0.000    5.500    0.000    0.000    0.000 
#    0.000    0.000    0.000    0.000    0.000    0.000 
#
# Total GULP energy -89093.465619 kJ/mol
# GULP energy per Si atom -5568.341601 kJ/mol
# Density = 1.986865 g / cm^3
# Si number density = 19.913980 Si / 1000 Ang^3
#
#
#
# Elastic Constant Matrix: (Units=GPa)
#
#
# Indices 1 2 3 4 5 6 
#
# 1 82.5447 29.1286 10.1449 0.0000 -11.1594 0.0000
# 2 29.1286 71.7099 11.9255 0.0000 -4.5008 0.0000
# 3 10.1449 11.9255 31.9867 0.0000 -3.0876 0.0000
# 4 0.0000 0.0000 0.0000 15.3319 0.0000 8.1524
# 5 -11.1594 -4.5008 -3.0876 0.0000 15.4015 0.0000
# 6 0.0000 0.0000 0.0000 8.1524 0.0000 29.6558
#
#
#
# Elastic Compliance Matrix: (Units=1/GPa)
#
#
# Indices 1 2 3 4 5 6 
#
# 1 0.015515 -0.005385 -0.002019 0.000000 0.009264 0.000000
# 2 -0.005385 0.016902 -0.004582 0.000000 0.000119 0.000000
# 3 -0.002019 -0.004582 0.033999 0.000000 0.004014 0.000000
# 4 0.000000 0.000000 0.000000 0.076389 0.000000 -0.021000
# 5 0.009264 0.000119 0.004014 0.000000 0.072480 0.000000
# 6 0.000000 0.000000 0.000000 -0.021000 0.000000 0.039493
#
#
# Mechanical properties :
#
#
# Convention : Reuss Voigt Hill
#
# Bulk Modulus (GPa) = 23.56040 32.07104 27.81572
# Shear Modulus (GPa) = 17.07067 21.08066 19.07567
#
# Velocity S-wave (km/s) = 2.93101 3.25712 3.09836
# Velocity P-wave (km/s) = 4.82817 5.50317 5.17668
#
# Compressibility (1/GPa) = 0.04244410
#
# Stress axis : x y z
#
# Youngs Moduli (GPa) = 64.45170 59.16455 29.41252
#
# Poissons Ratio (x) = 0.31861 0.05938
# Poissons Ratio (y) = 0.34709 0.13477
# Poissons Ratio (z) = 0.13013 0.27110
#
# Static dielectric constant tensor:
#      x y z
#    x 1.760990 0.000000 0.037350 
#    y 0.000000 1.764410 0.000000 
#    z 0.037350 0.000000 1.744600 
# 
# From -- ./inp_files/10642.got.cif
#   From: 2010.05.17/outbox.cif.g08.bks.cpg/sg9_6_cif.got.tgz:10642.got - 2010.06.03 20:04:27.
