data_PCOD9134992
_publ_section_title
;
Structure prediction by ZEFSAII (Michael W. Deem and Ramdas Pophale) SiO2 
 PCOD9134992
Probable space group: C C
;
_chemical_formula_sum "Si O2"
_cell_formula_units_Z 32
_cell_length_a 21.054321
_cell_length_b 14.338833
_cell_length_c 14.525630
_cell_angle_alpha 90.000000
_cell_angle_beta 161.667208
_cell_angle_gamma 90.000000
_cell_volume 1379.304301
_symmetry_space_group_name_H-M "C C"
_symmetry_group_IT_number 9
_symmetry_cell_setting 'monoclinic'
loop_
_space_group_symop_operation_xyz
x,y,z
x,-y,1/2+z
1/2+x,1/2+y,z
1/2+x,1/2-y,1/2+z
loop_
_atom_site_type_symbol
_atom_site_label
_atom_site_fract_x
_atom_site_fract_y
_atom_site_fract_z
Si Si1 0.269870 0.782014 0.167750
Si Si2 0.597600 0.684444 0.753295
Si Si3 0.012755 0.387098 0.344622
Si Si4 0.210575 0.659356 0.678315
Si Si5 0.911970 0.009776 0.450916
Si Si6 0.694323 0.464435 0.160441
Si Si7 0.457506 0.075204 0.173620
Si Si8 0.788905 0.657798 0.199798
O O1 0.439505 0.741468 0.474086
O O2 0.379697 0.830946 0.233913
O O3 0.147440 0.866618 0.046914
O O4 0.130268 0.693741 0.950139
O O5 0.517029 0.580962 0.663132
O O6 0.671421 0.711129 0.955223
O O7 0.798762 0.659226 0.973057
O O8 0.905754 0.472399 0.144666
O O9 0.191261 0.443628 0.640748
O O10 0.394522 0.594670 0.961606
O O11 0.268535 0.766684 0.752113
O O12 0.151531 0.610244 0.497590
O O13 0.014868 0.646890 0.472305
O O14 0.033475 0.019750 0.521653
O O15 0.919894 0.446539 0.514850
O O16 0.707341 0.557448 0.118077
#
# Coordination Sequence:
#
# PCOD9134992 Si02
#       8
#     4   4   4   4   4   4   4   4
#     4  11  20  35  60  87 112 144 187 231 279 331
#     4   9  19  35  58  86 110 142 183 231 279 327
#     4  10  20  36  58  85 113 145 186 235 278 327
#     4  10  20  38  57  80 111 146 187 230 277 332
#     4   9  19  36  56  79 111 146 182 230 279 326
#     4  11  21  37  57  83 115 149 183 228 280 334
#     4   9  19  37  57  81 113 146 184 231 277 328
#     4  11  22  36  57  85 113 148 186 230 279 331
#
# _framework density 23.200102999999999
#
# number of rings (size 3 to 8) (size 9 to 14) (size 15 to 20)
#    0.000    2.000    0.000    6.000    0.000    3.000 
#    0.000   13.750    0.000    1.500    0.000    0.000 
#    0.000    0.000    0.000    0.000    0.000    0.000 
#
# Total GULP energy -89106.876749 kJ/mol
# GULP energy per Si atom -5569.179797 kJ/mol
# Density = 2.314730 g / cm^3
# Si number density = 23.200103 Si / 1000 Ang^3
#
#
#
# Elastic Constant Matrix: (Units=GPa)
#
#
# Indices 1 2 3 4 5 6 
#
# 1 56.6370 38.3811 12.1550 0.0000 8.5809 0.0000
# 2 38.3811 171.0679 12.4546 0.0000 13.4603 0.0000
# 3 12.1550 12.4546 31.7682 0.0000 15.6237 0.0000
# 4 0.0000 0.0000 0.0000 31.9711 0.0000 4.1556
# 5 8.5809 13.4603 15.6237 0.0000 16.9823 0.0000
# 6 0.0000 0.0000 0.0000 4.1556 0.0000 41.7878
#
#
#
# Elastic Compliance Matrix: (Units=1/GPa)
#
#
# Indices 1 2 3 4 5 6 
#
# 1 0.022199 -0.004368 -0.005419 0.000000 -0.002769 0.000000
# 2 -0.004368 0.007094 0.001041 0.000000 -0.004373 0.000000
# 3 -0.005419 0.001041 0.058813 0.000000 -0.052195 0.000000
# 4 0.000000 0.000000 0.000000 0.031688 0.000000 -0.003151
# 5 -0.002769 -0.004373 -0.052195 0.000000 0.111769 0.000000
# 6 0.000000 0.000000 0.000000 -0.003151 0.000000 0.024244
#
#
# Mechanical properties :
#
#
# Convention : Reuss Voigt Hill
#
# Bulk Modulus (GPa) = 14.16178 42.82826 28.49502
# Shear Modulus (GPa) = 16.84419 31.24707 24.04563
#
# Velocity S-wave (km/s) = 2.69744 3.67393 3.22288
# Velocity P-wave (km/s) = 3.97731 6.04131 5.11451
#
# Compressibility (1/GPa) = 0.07061261
#
# Stress axis : x y z
#
# Youngs Moduli (GPa) = 45.04701 140.96403 17.00302
#
# Poissons Ratio (x) = 0.61576 0.09215
# Poissons Ratio (y) = 0.19677 -0.01770
# Poissons Ratio (z) = 0.24413 -0.14674
#
# Static dielectric constant tensor:
#      x y z
#    x 1.895700 0.000000 -0.015590 
#    y 0.000000 1.900090 0.000000 
#    z -0.015590 0.000000 1.942200 
# 
# From -- ./inp_files/11708.got.cif
#   From: 2010.05.17/outbox.cif.g08.bks.cpg/sg9_6_cif.got.tgz:11708.got - 2010.06.03 20:04:27.
