data_PCOD9134015
_publ_section_title
;
Structure prediction by ZEFSAII (Michael W. Deem and Ramdas Pophale) SiO2 
 PCOD9134015
Probable space group: C C
;
_chemical_formula_sum "Si O2"
_cell_formula_units_Z 32
_cell_length_a 12.999340
_cell_length_b 9.961695
_cell_length_c 10.684464
_cell_angle_alpha 90.000000
_cell_angle_beta 92.140207
_cell_angle_gamma 90.000000
_cell_volume 1382.624437
_symmetry_space_group_name_H-M "C C"
_symmetry_group_IT_number 9
_symmetry_cell_setting 'monoclinic'
loop_
_space_group_symop_operation_xyz
x,y,z
x,-y,1/2+z
1/2+x,1/2+y,z
1/2+x,1/2-y,1/2+z
loop_
_atom_site_type_symbol
_atom_site_label
_atom_site_fract_x
_atom_site_fract_y
_atom_site_fract_z
Si Si1 0.354720 0.719132 0.969950
Si Si2 0.923371 0.798018 0.973538
Si Si3 0.164743 0.865654 0.022067
Si Si4 0.684480 0.529321 0.257154
Si Si5 0.794436 0.185606 0.710045
Si Si6 0.466623 0.351259 0.714693
Si Si7 0.577719 0.058587 0.730013
Si Si8 0.473218 0.000057 0.974566
O O1 0.370394 0.668347 0.830795
O O2 0.403234 0.868505 0.978613
O O3 0.232753 0.737415 0.985416
O O4 0.405922 0.638296 0.083604
O O5 0.901261 0.862828 0.837875
O O6 0.911431 0.637577 0.956706
O O7 0.850668 0.836962 0.083071
O O8 0.043863 0.830338 0.009334
O O9 0.208132 0.911963 0.159217
O O10 0.186193 0.972930 0.909199
O O11 0.751503 0.660214 0.220530
O O12 0.564900 0.554288 0.220737
O O13 0.696966 0.090022 0.721385
O O14 0.519154 0.202941 0.726174
O O15 0.546465 0.987649 0.857119
O O16 0.535310 0.985055 0.606070
#
# Coordination Sequence:
#
# PCOD9134015 Si02
#       8
#     4   4   4   4   4   4   4   4
#     4  10  19  33  57  84 103 132 176 218 262 309
#     4  10  20  36  54  77 108 140 173 215 261 311
#     4  10  21  35  53  80 107 136 175 219 261 308
#     4   9  19  36  54  74 104 138 173 213 261 312
#     4  10  20  36  54  78 108 139 173 216 261 310
#     4   8  18  35  54  75 104 135 172 218 261 306
#     4   9  19  35  54  79 108 136 173 220 261 306
#     4  10  18  34  58  81 104 136 175 217 262 310
#
# _framework density 23.144390000000001
#
# number of rings (size 3 to 8) (size 9 to 14) (size 15 to 20)
#    0.000    2.500    0.000    3.750    0.000    7.000 
#    0.000   11.250    0.000    0.000    0.000    0.000 
#    0.000    0.000    0.000    0.000    0.000    0.000 
#
# Total GULP energy -89421.646133 kJ/mol
# GULP energy per Si atom -5588.852883 kJ/mol
# Density = 2.309171 g / cm^3
# Si number density = 23.144390 Si / 1000 Ang^3
#
#
#
# Elastic Constant Matrix: (Units=GPa)
#
#
# Indices 1 2 3 4 5 6 
#
# 1 79.9648 3.3512 53.7297 0.0000 -21.1710 0.0000
# 2 3.3512 55.5955 2.8669 0.0000 -6.8170 0.0000
# 3 53.7297 2.8669 166.5822 0.0000 -18.9629 0.0000
# 4 0.0000 0.0000 0.0000 -47.5587 0.0000 25.6210
# 5 -21.1710 -6.8170 -18.9629 0.0000 39.3409 0.0000
# 6 0.0000 0.0000 0.0000 25.6210 0.0000 10.9586
#
#
#
# Elastic Compliance Matrix: (Units=1/GPa)
#
#
# Indices 1 2 3 4 5 6 
#
# 1 0.017687 0.000066 -0.004889 0.000000 0.007173 0.000000
# 2 0.000066 0.018378 0.000031 0.000000 0.003235 0.000000
# 3 -0.004889 0.000031 0.007703 0.000000 0.001087 0.000000
# 4 0.000000 0.000000 0.000000 -0.009306 0.000000 0.021757
# 5 0.007173 0.003235 0.001087 0.000000 0.030363 0.000000
# 6 0.000000 0.000000 0.000000 0.021757 0.000000 0.040386
#
#
# Mechanical properties :
#
#
# Convention : Reuss Voigt Hill
#
# Bulk Modulus (GPa) = 29.25494 46.89313 38.07403
# Shear Modulus (GPa) = 39.62215 16.69448 28.15831
#
# Velocity S-wave (km/s) = 4.14207 2.68865 3.49182
# Velocity P-wave (km/s) = 5.96182 5.47207 5.72219
#
# Compressibility (1/GPa) = 0.03418226
#
# Stress axis : x y z
#
# Youngs Moduli (GPa) = 56.53851 54.41243 129.81408
#
# Poissons Ratio (x) = -0.00356 0.63472
# Poissons Ratio (y) = -0.00370 -0.00400
# Poissons Ratio (z) = 0.27644 -0.00168
#
# Static dielectric constant tensor:
#      x y z
#    x 1.845770 0.000000 0.000690 
#    y 0.000000 1.906120 0.000000 
#    z 0.000690 0.000000 1.891480 
# 
# From -- ./inp_files/7608.got.cif
#   From: 2010.05.17/outbox.cif.g08.bks.cpg/sg9_4_cif.got.tgz:7608.got - 2010.06.03 20:04:27.
