data_PCOD9134151
_publ_section_title
;
Structure prediction by ZEFSAII (Michael W. Deem and Ramdas Pophale) SiO2 
 PCOD9134151
Probable space group: C C
;
_chemical_formula_sum "Si O2"
_cell_formula_units_Z 28
_cell_length_a 16.008820
_cell_length_b 8.485846
_cell_length_c 22.006593
_cell_angle_alpha 90.000000
_cell_angle_beta 158.788380
_cell_angle_gamma 90.000000
_cell_volume 1081.663612
_symmetry_space_group_name_H-M "C C"
_symmetry_group_IT_number 9
_symmetry_cell_setting 'monoclinic'
loop_
_space_group_symop_operation_xyz
x,y,z
x,-y,1/2+z
1/2+x,1/2+y,z
1/2+x,1/2-y,1/2+z
loop_
_atom_site_type_symbol
_atom_site_label
_atom_site_fract_x
_atom_site_fract_y
_atom_site_fract_z
Si Si1 0.144930 0.067954 0.357210
Si Si2 0.086886 0.785363 0.686321
Si Si3 0.711779 0.797620 0.630598
Si Si4 0.735095 0.740086 0.985513
Si Si5 0.841315 0.953699 0.422486
Si Si6 0.402656 0.022813 0.206542
Si Si7 0.237988 0.777612 0.288640
O O1 0.091300 0.119024 0.252216
O O2 0.364735 0.169720 0.529043
O O3 0.922903 0.104526 0.247106
O O4 0.200688 0.886507 0.407900
O O5 0.300848 0.666862 0.839708
O O6 0.059170 0.899947 0.609943
O O7 0.753306 0.622459 0.629779
O O8 0.468645 0.881666 0.449876
O O9 0.729050 0.781372 0.713970
O O10 0.767441 0.637167 0.068304
O O11 0.982268 0.816891 0.137193
O O12 0.532873 0.868074 0.844385
O O13 0.616218 0.944722 0.313999
O O14 0.819356 0.129654 0.384669
#
# Coordination Sequence:
#
# PCOD9134151 Si02
#       7
#     4   4   4   4   4   4   4
#     4  11  20  40  71 102 127 187 235 280 329 427
#     4  10  18  37  72  97 133 171 249 273 329 397
#     4  12  24  43  71 100 141 180 226 288 358 405
#     4  11  24  43  67 101 137 183 241 283 334 414
#     4  10  21  40  64 103 135 181 232 285 330 425
#     4  11  23  40  68  98 138 181 238 277 335 420
#     4  11  24  43  63 103 145 177 223 298 353 402
#
# _framework density 25.886050000000001
#
# number of rings (size 3 to 8) (size 9 to 14) (size 15 to 20)
#    0.000    1.143    5.714    3.429    2.000    0.000 
#    2.571    2.857    0.000    1.714    0.000    0.000 
#    0.000    0.000    0.000    0.000    0.000    0.000 
#
# Total GULP energy -78422.380783 kJ/mol
# GULP energy per Si atom -5601.598627 kJ/mol
# Density = 2.582713 g / cm^3
# Si number density = 25.886050 Si / 1000 Ang^3
#
#
#
# Elastic Constant Matrix: (Units=GPa)
#
#
# Indices 1 2 3 4 5 6 
#
# 1 73.3956 17.1761 59.7796 0.0032 2.3614 -0.0009
# 2 17.1761 111.9081 35.6914 0.0202 -7.2207 0.0033
# 3 59.7796 35.6914 144.0923 0.0394 -31.4292 0.0096
# 4 0.0032 0.0202 0.0394 45.1077 0.0063 -18.1900
# 5 2.3614 -7.2207 -31.4292 0.0063 49.6979 -0.0002
# 6 -0.0009 0.0033 0.0096 -18.1900 -0.0002 37.1204
#
#
#
# Elastic Compliance Matrix: (Units=1/GPa)
#
#
# Indices 1 2 3 4 5 6 
#
# 1 0.023249 -0.000489 -0.011346 0.000014 -0.008351 0.000010
# 2 -0.000489 0.009713 -0.002193 -0.000003 0.000048 -0.000002
# 3 -0.011346 -0.002193 0.014196 -0.000017 0.009198 -0.000012
# 4 0.000014 -0.000003 -0.000017 0.027629 -0.000015 0.013539
# 5 -0.008351 0.000048 0.009198 -0.000015 0.026342 -0.000010
# 6 0.000010 -0.000002 -0.000012 0.013539 -0.000010 0.033574
#
#
# Mechanical properties :
#
#
# Convention : Reuss Voigt Hill
#
# Bulk Modulus (GPa) = 52.34415 61.63225 56.98820
# Shear Modulus (GPa) = 29.56386 40.83514 35.19950
#
# Velocity S-wave (km/s) = 3.38313 3.97608 3.69153
# Velocity P-wave (km/s) = 5.96034 6.70371 6.34292
#
# Compressibility (1/GPa) = 0.01910433
#
# Stress axis : x y z
#
# Youngs Moduli (GPa) = 43.01337 102.95100 70.44022
#
# Poissons Ratio (x) = 0.05030 0.79918
# Poissons Ratio (y) = 0.02102 0.15447
# Poissons Ratio (z) = 0.48801 0.22576
#
# Static dielectric constant tensor:
#      x y z
#    x 2.015780 0.000000 -0.007630 
#    y 0.000000 2.112990 -0.000010 
#    z -0.007630 -0.000010 2.052600 
# 
# From -- ./inp_files/35823.got.cif
#   From: 2010.05.17/outbox.cif.g08.bks.cpg/sg9_18_cif.got.tgz:35823.got - 2010.06.03 20:04:27.
