data_PCOD9134449
_publ_section_title
;
Structure prediction by ZEFSAII (Michael W. Deem and Ramdas Pophale) SiO2 
 PCOD9134449
Probable space group: C C
;
_chemical_formula_sum "Si O2"
_cell_formula_units_Z 32
_cell_length_a 5.262155
_cell_length_b 30.232539
_cell_length_c 10.244206
_cell_angle_alpha 90.000000
_cell_angle_beta 120.615978
_cell_angle_gamma 90.000000
_cell_volume 1402.548610
_symmetry_space_group_name_H-M "C C"
_symmetry_group_IT_number 9
_symmetry_cell_setting 'monoclinic'
loop_
_space_group_symop_operation_xyz
x,y,z
x,-y,1/2+z
1/2+x,1/2+y,z
1/2+x,1/2-y,1/2+z
loop_
_atom_site_type_symbol
_atom_site_label
_atom_site_fract_x
_atom_site_fract_y
_atom_site_fract_z
Si Si1 0.401950 0.781125 0.387440
Si Si2 0.204483 0.281438 0.182177
Si Si3 0.753708 0.033279 0.340541
Si Si4 0.972500 0.533344 0.556079
Si Si5 0.415164 0.121742 0.242401
Si Si6 0.979693 0.813608 0.617443
Si Si7 0.431268 0.316195 0.906738
Si Si8 0.419821 0.128046 0.539133
O O1 0.532645 0.782442 0.275172
O O2 0.625770 0.814340 0.515325
O O3 0.456915 0.732789 0.465952
O O4 0.053245 0.785566 0.293146
O O5 0.102757 0.233709 0.097293
O O6 0.109529 0.326994 0.086828
O O7 0.625018 0.025996 0.453923
O O8 0.624676 0.081309 0.257513
O O9 0.112256 0.030274 0.446014
O O10 0.611713 0.999651 0.199083
O O11 0.044151 0.583109 0.628797
O O12 0.607988 0.166105 0.302742
O O13 0.341147 0.111166 0.373280
O O14 0.123555 0.141545 0.098335
O O15 0.051108 0.812235 0.790095
O O16 0.619810 0.354052 0.025930
#
# Coordination Sequence:
#
# PCOD9134449 Si02
#       8
#     4   4   4   4   4   4   4   4
#     4  11  24  37  56  88 130 168 209 266 320 361
#     4  11  24  37  59  89 125 169 213 264 313 378
#     4  11  24  46  75 105 137 177 227 289 353 417
#     4  11  24  46  75 105 137 177 228 288 352 418
#     4  10  21  39  68  90 122 174 222 262 321 405
#     4  10  22  37  57  88 126 165 219 262 313 382
#     4  10  19  36  61  85 117 175 217 257 306 385
#     4  10  22  40  65  92 124 171 225 258 320 410
#
# _framework density 22.815608999999998
#
# number of rings (size 3 to 8) (size 9 to 14) (size 15 to 20)
#    0.000    1.500    3.750    0.750    3.500    0.000 
#    2.250    0.000    0.000    0.000    0.000    0.000 
#    0.000    0.000    0.000    0.000    0.000    0.000 
#
# Total GULP energy -89178.216390 kJ/mol
# GULP energy per Si atom -5573.638524 kJ/mol
# Density = 2.276368 g / cm^3
# Si number density = 22.815609 Si / 1000 Ang^3
#
#
#
# Elastic Constant Matrix: (Units=GPa)
#
#
# Indices 1 2 3 4 5 6 
#
# 1 140.7684 25.8142 43.2300 0.0000 15.2179 0.0000
# 2 25.8142 92.6357 35.7365 0.0000 0.3455 0.0000
# 3 43.2300 35.7365 81.5543 0.0000 13.8640 0.0000
# 4 0.0000 0.0000 0.0000 36.2645 0.0000 4.4529
# 5 15.2179 0.3455 13.8640 0.0000 42.6123 0.0000
# 6 0.0000 0.0000 0.0000 4.4529 0.0000 24.4123
#
#
#
# Elastic Compliance Matrix: (Units=1/GPa)
#
#
# Indices 1 2 3 4 5 6 
#
# 1 0.008660 -0.000909 -0.003882 0.000000 -0.001822 0.000000
# 2 -0.000909 0.013225 -0.005664 0.000000 0.002060 0.000000
# 3 -0.003882 -0.005664 0.017528 0.000000 -0.004270 0.000000
# 4 0.000000 0.000000 0.000000 0.028207 0.000000 -0.005145
# 5 -0.001822 0.002060 -0.004270 0.000000 0.025491 0.000000
# 6 0.000000 0.000000 0.000000 -0.005145 0.000000 0.041901
#
#
# Mechanical properties :
#
#
# Convention : Reuss Voigt Hill
#
# Bulk Modulus (GPa) = 54.04548 58.27999 56.16273
# Shear Modulus (GPa) = 30.84719 34.66967 32.75843
#
# Velocity S-wave (km/s) = 3.68097 3.90238 3.79329
# Velocity P-wave (km/s) = 6.46571 6.77526 6.62230
#
# Compressibility (1/GPa) = 0.01850294
#
# Stress axis : x y z
#
# Youngs Moduli (GPa) = 115.47656 75.61169 57.05310
#
# Poissons Ratio (x) = 0.06870 0.22151
# Poissons Ratio (y) = 0.10492 0.32314
# Poissons Ratio (z) = 0.44833 0.42825
#
# Static dielectric constant tensor:
#      x y z
#    x 1.938410 0.000000 -0.016820 
#    y 0.000000 1.919500 0.000000 
#    z -0.016820 0.000000 1.914150 
# 
# From -- ./inp_files/13930.got.cif
#   From: 2010.05.17/outbox.cif.g08.bks.cpg/sg9_7_cif.got.tgz:13930.got - 2010.06.03 20:04:27.
