data_PCOD9134805
_publ_section_title
;
Structure prediction by ZEFSAII (Michael W. Deem and Ramdas Pophale) SiO2 
 PCOD9134805
Probable space group: C C
;
_chemical_formula_sum "Si O2"
_cell_formula_units_Z 32
_cell_length_a 20.416625
_cell_length_b 4.941112
_cell_length_c 12.070298
_cell_angle_alpha 90.000000
_cell_angle_beta 85.710862
_cell_angle_gamma 90.000000
_cell_volume 1214.251421
_symmetry_space_group_name_H-M "C C"
_symmetry_group_IT_number 9
_symmetry_cell_setting 'monoclinic'
loop_
_space_group_symop_operation_xyz
x,y,z
x,-y,1/2+z
1/2+x,1/2+y,z
1/2+x,1/2-y,1/2+z
loop_
_atom_site_type_symbol
_atom_site_label
_atom_site_fract_x
_atom_site_fract_y
_atom_site_fract_z
Si Si1 0.187660 0.971959 0.796120
Si Si2 0.982050 0.520804 0.751671
Si Si3 0.579358 0.195545 0.418365
Si Si4 0.994098 0.970156 0.087031
Si Si5 0.852432 0.087760 0.070195
Si Si6 0.838602 0.413897 0.727272
Si Si7 0.238876 0.843438 0.000980
Si Si8 0.177987 0.623476 0.591816
O O1 0.267390 0.010668 0.779550
O O2 0.161188 0.786634 0.702386
O O3 0.136764 0.206780 0.828527
O O4 0.189825 0.795730 0.907559
O O5 0.905210 0.450422 0.789504
O O6 0.027023 0.473103 0.853745
O O7 0.989540 0.807295 0.687839
O O8 0.001703 0.305468 0.653335
O O9 0.543910 0.448772 0.484401
O O10 0.616519 0.083656 0.521254
O O11 0.923675 0.978915 0.034137
O O12 0.854755 0.382743 0.124903
O O13 0.805288 0.171821 0.974363
O O14 0.830522 0.880310 0.171228
O O15 0.210000 0.668645 0.106929
O O16 0.230260 0.161102 0.028175
#
# Coordination Sequence:
#
# PCOD9134805 Si02
#       8
#     4   4   4   4   4   4   4   4
#     4  11  24  42  69 101 139 177 229 286 342 410
#     4  10  24  46  69  98 136 185 231 283 343 406
#     4  11  26  44  71 102 138 186 225 278 354 416
#     4  10  24  44  69  99 139 176 229 285 333 417
#     4  10  19  42  68  96 135 177 223 284 344 395
#     4  10  21  41  70  98 135 177 229 289 340 400
#     4  11  23  40  66  98 131 176 223 272 348 393
#     4  11  25  43  62  98 137 174 221 281 332 411
#
# _framework density 26.353687999999998
#
# number of rings (size 3 to 8) (size 9 to 14) (size 15 to 20)
#    0.000    1.500    2.500    0.750    1.750   11.000 
#    0.000    0.000    0.000    0.000    0.000    0.000 
#    0.000    0.000    0.000    0.000    0.000    0.000 
#
# Total GULP energy -89339.848820 kJ/mol
# GULP energy per Si atom -5583.740551 kJ/mol
# Density = 2.629371 g / cm^3
# Si number density = 26.353688 Si / 1000 Ang^3
#
#
#
# Elastic Constant Matrix: (Units=GPa)
#
#
# Indices 1 2 3 4 5 6 
#
# 1 168.0821 27.7909 40.1613 0.0000 13.4312 0.0000
# 2 27.7909 110.0706 0.2856 0.0000 12.5900 0.0000
# 3 40.1613 0.2856 63.0998 0.0000 18.9578 0.0000
# 4 0.0000 0.0000 0.0000 22.2234 0.0000 -6.0769
# 5 13.4312 12.5900 18.9578 0.0000 63.8989 0.0000
# 6 0.0000 0.0000 0.0000 -6.0769 0.0000 32.0205
#
#
#
# Elastic Compliance Matrix: (Units=1/GPa)
#
#
# Indices 1 2 3 4 5 6 
#
# 1 0.007378 -0.001877 -0.004756 0.000000 0.000230 0.000000
# 2 -0.001877 0.009790 0.001769 0.000000 -0.002059 0.000000
# 3 -0.004756 0.001769 0.020499 0.000000 -0.005430 0.000000
# 4 0.000000 0.000000 0.000000 0.047461 0.000000 0.009007
# 5 0.000230 -0.002059 -0.005430 0.000000 0.017618 0.000000
# 6 0.000000 0.000000 0.000000 0.009007 0.000000 0.032939
#
#
# Mechanical properties :
#
#
# Convention : Reuss Voigt Hill
#
# Bulk Modulus (GPa) = 35.79381 53.08091 44.43736
# Shear Modulus (GPa) = 32.31518 41.82953 37.07235
#
# Velocity S-wave (km/s) = 3.50553 3.98834 3.75470
# Velocity P-wave (km/s) = 5.47691 6.43386 5.97458
#
# Compressibility (1/GPa) = 0.02793779
#
# Stress axis : x y z
#
# Youngs Moduli (GPa) = 135.53988 102.14630 48.78337
#
# Poissons Ratio (x) = 0.19171 0.23204
# Poissons Ratio (y) = 0.25438 -0.08629
# Poissons Ratio (z) = 0.64469 -0.18068
#
# Static dielectric constant tensor:
#      x y z
#    x 2.203000 0.000000 -0.020250 
#    y 0.000000 2.048570 0.000000 
#    z -0.020250 0.000000 2.136540 
# 
# From -- ./inp_files/19690.got.cif
#   From: 2010.05.17/outbox.cif.g08.bks.cpg/sg9_10_cif.got.tgz:19690.got - 2010.06.03 20:04:27.
