data_PCOD9134099
_publ_section_title
;
Structure prediction by ZEFSAII (Michael W. Deem and Ramdas Pophale) SiO2 
 PCOD9134099
Probable space group: C C
;
_chemical_formula_sum "Si O2"
_cell_formula_units_Z 28
_cell_length_a 7.701008
_cell_length_b 11.698406
_cell_length_c 12.035202
_cell_angle_alpha 90.000000
_cell_angle_beta 91.863687
_cell_angle_gamma 90.000000
_cell_volume 1083.672014
_symmetry_space_group_name_H-M "C C"
_symmetry_group_IT_number 9
_symmetry_cell_setting 'monoclinic'
loop_
_space_group_symop_operation_xyz
x,y,z
x,-y,1/2+z
1/2+x,1/2+y,z
1/2+x,1/2-y,1/2+z
loop_
_atom_site_type_symbol
_atom_site_label
_atom_site_fract_x
_atom_site_fract_y
_atom_site_fract_z
Si Si1 0.564180 0.449198 0.364120
Si Si2 0.415575 0.113604 0.792793
Si Si3 0.665685 0.000435 0.055558
Si Si4 0.714270 0.932372 0.831143
Si Si5 0.817334 0.625238 0.034065
Si Si6 0.752923 0.230019 0.126836
Si Si7 0.913238 0.171536 0.670371
O O1 0.304874 0.439981 0.136985
O O2 0.418505 0.543921 0.350890
O O3 0.741278 0.465955 0.295340
O O4 0.471812 0.342809 0.299162
O O5 0.588232 0.040252 0.803081
O O6 0.405271 0.195875 0.685715
O O7 0.137156 0.072838 0.988384
O O8 0.388242 0.172919 0.914271
O O9 0.465540 0.034844 0.073023
O O10 0.753692 0.127533 0.037297
O O11 0.653234 0.910018 0.954803
O O12 0.690583 0.842971 0.733836
O O13 0.806736 0.718276 0.129474
O O14 0.591600 0.314372 0.103335
#
# Coordination Sequence:
#
# PCOD9134099 Si02
#       7
#     4   4   4   4   4   4   4
#     4   9  19  38  60  90 125 156 215 253 299 390
#     4   8  19  38  59  87 127 160 209 252 304 375
#     4  10  20  35  63  92 121 164 214 253 315 382
#     4  11  20  39  65  88 123 172 200 261 321 364
#     4   8  18  36  57  87 124 163 199 259 312 362
#     4  10  20  38  63  90 127 166 202 265 314 362
#     4  10  18  36  63  86 123 165 203 255 317 369
#
# _framework density 25.838076000000001
#
# number of rings (size 3 to 8) (size 9 to 14) (size 15 to 20)
#    0.857    1.714    1.429    0.857    0.000    0.000 
#    2.571   10.000    0.000    0.000    0.000    0.000 
#    0.000    0.000    0.000    0.000    0.000    0.000 
#
# Total GULP energy -77944.359893 kJ/mol
# GULP energy per Si atom -5567.454278 kJ/mol
# Density = 2.577927 g / cm^3
# Si number density = 25.838076 Si / 1000 Ang^3
#
#
#
# Elastic Constant Matrix: (Units=GPa)
#
#
# Indices 1 2 3 4 5 6 
#
# 1 117.5017 33.6571 29.1245 0.0000 30.8262 0.0000
# 2 33.6571 84.5256 28.5200 0.0000 14.7087 0.0000
# 3 29.1245 28.5200 109.7924 0.0000 45.0649 0.0000
# 4 0.0000 0.0000 0.0000 45.7980 0.0000 5.0260
# 5 30.8262 14.7087 45.0649 0.0000 46.3122 0.0000
# 6 0.0000 0.0000 0.0000 5.0260 0.0000 28.9938
#
#
#
# Elastic Compliance Matrix: (Units=1/GPa)
#
#
# Indices 1 2 3 4 5 6 
#
# 1 0.011181 -0.003502 0.000902 0.000000 -0.007208 0.000000
# 2 -0.003502 0.014119 -0.003088 0.000000 0.000852 0.000000
# 3 0.000902 -0.003088 0.015842 0.000000 -0.015035 0.000000
# 4 0.000000 0.000000 0.000000 0.022258 0.000000 -0.003858
# 5 -0.007208 0.000852 -0.015035 0.000000 0.040750 0.000000
# 6 0.000000 0.000000 0.000000 -0.003858 0.000000 0.035159
#
#
# Mechanical properties :
#
#
# Convention : Reuss Voigt Hill
#
# Bulk Modulus (GPa) = 33.59557 54.93590 44.26573
# Shear Modulus (GPa) = 31.13157 38.92201 35.02679
#
# Velocity S-wave (km/s) = 3.47489 3.88542 3.68588
# Velocity P-wave (km/s) = 5.39726 6.43712 5.93999
#
# Compressibility (1/GPa) = 0.02976583
#
# Stress axis : x y z
#
# Youngs Moduli (GPa) = 89.43697 70.82620 63.12200
#
# Poissons Ratio (x) = 0.24806 -0.05696
# Poissons Ratio (y) = 0.31324 0.19494
# Poissons Ratio (z) = -0.08070 0.21874
#
# Static dielectric constant tensor:
#      x y z
#    x 2.044320 0.000000 -0.071280 
#    y 0.000000 2.098150 0.000000 
#    z -0.071280 0.000000 2.210360 
# 
# From -- ./inp_files/23265.got.cif
#   From: 2010.05.17/outbox.cif.g08.bks.cpg/sg9_12_cif.got.tgz:23265.got - 2010.06.03 20:04:27.
