data_PCOD9134492
_publ_section_title
;
Structure prediction by ZEFSAII (Michael W. Deem and Ramdas Pophale) SiO2 
 PCOD9134492
Probable space group: C C
;
_chemical_formula_sum "Si O2"
_cell_formula_units_Z 32
_cell_length_a 8.737811
_cell_length_b 23.935002
_cell_length_c 7.605659
_cell_angle_alpha 90.000000
_cell_angle_beta 81.789542
_cell_angle_gamma 90.000000
_cell_volume 1574.340089
_symmetry_space_group_name_H-M "C C"
_symmetry_group_IT_number 9
_symmetry_cell_setting 'monoclinic'
loop_
_space_group_symop_operation_xyz
x,y,z
x,-y,1/2+z
1/2+x,1/2+y,z
1/2+x,1/2-y,1/2+z
loop_
_atom_site_type_symbol
_atom_site_label
_atom_site_fract_x
_atom_site_fract_y
_atom_site_fract_z
Si Si1 0.248530 0.336519 0.772290
Si Si2 0.445767 0.154946 0.526444
Si Si3 0.451906 0.031632 0.072919
Si Si4 0.424681 0.408630 0.994940
Si Si5 0.257827 0.943094 0.915929
Si Si6 0.265976 0.736684 0.951519
Si Si7 0.925870 0.216375 0.550635
Si Si8 0.121606 0.427009 0.232918
O O1 0.333323 0.392091 0.830757
O O2 0.285818 0.318003 0.569819
O O3 0.312213 0.288900 0.899767
O O4 0.068194 0.343296 0.845138
O O5 0.317641 0.106798 0.528608
O O6 0.359062 0.213714 0.536461
O O7 0.553848 0.131284 0.666547
O O8 0.326075 0.001278 0.971075
O O9 0.542182 0.980214 0.149507
O O10 0.349789 0.932651 0.721427
O O11 0.573241 0.066668 0.941279
O O12 0.575157 0.444104 0.934015
O O13 0.299943 0.431022 0.152425
O O14 0.976635 0.848358 0.060781
O O15 0.335640 0.733092 0.743272
O O16 0.082426 0.750061 0.984700
#
# Coordination Sequence:
#
# PCOD9134492 Si02
#       8
#     4   4   4   4   4   4   4   4
#     4   9  22  38  56  85 117 155 196 238 288 339
#     4  10  19  37  56  78 113 151 184 243 280 343
#     4   9  20  36  58  85 104 154 188 232 299 358
#     4   9  20  39  54  85 117 149 190 249 278 347
#     4  10  19  38  58  82 117 143 196 239 297 341
#     4  12  21  40  58  84 119 162 193 241 288 343
#     4  10  24  37  59  86 117 157 199 239 289 340
#     4   9  19  37  57  77 114 141 190 233 291 347
#
# _framework density 20.325977999999999
#
# number of rings (size 3 to 8) (size 9 to 14) (size 15 to 20)
#    0.750    1.500    2.500    0.000    1.750    2.000 
#    4.500    0.000    0.000    0.000    0.000    0.000 
#    0.000    0.000    0.000    0.000    0.000    0.000 
#
# Total GULP energy -89102.085827 kJ/mol
# GULP energy per Si atom -5568.880364 kJ/mol
# Density = 2.027971 g / cm^3
# Si number density = 20.325978 Si / 1000 Ang^3
#
#
#
# Elastic Constant Matrix: (Units=GPa)
#
#
# Indices 1 2 3 4 5 6 
#
# 1 88.3140 6.3538 28.5143 0.0000 -30.1375 0.0000
# 2 6.3538 23.7843 1.9317 0.0000 -5.1076 0.0000
# 3 28.5143 1.9317 91.0687 0.0000 -17.8490 0.0000
# 4 0.0000 0.0000 0.0000 -5.8753 0.0000 23.0308
# 5 -30.1375 -5.1076 -17.8490 0.0000 24.1905 0.0000
# 6 0.0000 0.0000 0.0000 23.0308 0.0000 -15.9902
#
#
#
# Elastic Compliance Matrix: (Units=1/GPa)
#
#
# Indices 1 2 3 4 5 6 
#
# 1 0.019896 -0.000122 -0.001606 0.000000 0.023577 0.000000
# 2 -0.000122 0.044126 0.001050 0.000000 0.009940 0.000000
# 3 -0.001606 0.001050 0.012991 0.000000 0.007806 0.000000
# 4 0.000000 0.000000 0.000000 0.036635 0.000000 0.052766
# 5 0.023577 0.009940 0.007806 0.000000 0.078570 0.000000
# 6 0.000000 0.000000 0.000000 0.052766 0.000000 0.013461
#
#
# Mechanical properties :
#
#
# Convention : Reuss Voigt Hill
#
# Bulk Modulus (GPa) = 13.21726 30.75186 21.98456
# Shear Modulus (GPa) = 21.52808 11.55614 16.54211
#
# Velocity S-wave (km/s) = 3.25798 2.38700 2.85588
# Velocity P-wave (km/s) = 4.54635 4.77066 4.65985
#
# Compressibility (1/GPa) = 0.07565867
#
# Stress axis : x y z
#
# Youngs Moduli (GPa) = 50.26087 22.66223 76.97425
#
# Poissons Ratio (x) = 0.00276 0.12364
# Poissons Ratio (y) = 0.00612 -0.08085
# Poissons Ratio (z) = 0.08073 -0.02380
#
# Static dielectric constant tensor:
#      x y z
#    x 1.731870 0.000000 0.038440 
#    y 0.000000 1.740900 0.000000 
#    z 0.038440 0.000000 1.746520 
# 
# From -- ./inp_files/6303.got.cif
#   From: 2010.05.17/outbox.cif.g08.bks.cpg/sg9_4_cif.got.tgz:6303.got - 2010.06.03 20:04:27.
