data_PCOD9134725
_publ_section_title
;
Structure prediction by ZEFSAII (Michael W. Deem and Ramdas Pophale) SiO2 
 PCOD9134725
Probable space group: C C
;
_chemical_formula_sum "Si O2"
_cell_formula_units_Z 24
_cell_length_a 17.580619
_cell_length_b 7.708379
_cell_length_c 8.970051
_cell_angle_alpha 90.000000
_cell_angle_beta 133.291918
_cell_angle_gamma 90.000000
_cell_volume 884.801091
_symmetry_space_group_name_H-M "C C"
_symmetry_group_IT_number 9
_symmetry_cell_setting 'monoclinic'
loop_
_space_group_symop_operation_xyz
x,y,z
x,-y,1/2+z
1/2+x,1/2+y,z
1/2+x,1/2-y,1/2+z
loop_
_atom_site_type_symbol
_atom_site_label
_atom_site_fract_x
_atom_site_fract_y
_atom_site_fract_z
Si Si1 0.025540 0.776389 0.218290
Si Si2 0.091126 0.089106 0.482829
Si Si3 0.824992 0.070590 0.335473
Si Si4 0.765618 0.310149 0.016455
Si Si5 0.936319 0.710162 0.549870
Si Si6 0.615109 0.962605 0.195649
O O1 0.084352 0.591970 0.292260
O O2 0.053427 0.898191 0.391711
O O3 0.072584 0.866612 0.129609
O O4 0.901418 0.799702 0.027379
O O5 0.208405 0.094759 0.574135
O O6 0.020696 0.220896 0.286779
O O7 0.823314 0.143856 0.166879
O O8 0.703950 0.064438 0.223646
O O9 0.876381 0.880487 0.410849
O O10 0.849527 0.397833 0.024135
O O11 0.675267 0.217369 0.801840
O O12 0.996108 0.598304 0.504925
#
# Coordination Sequence:
#
# PCOD9134725 Si02
#       6
#     4   4   4   4   4   4
#     4  11  22  41  64  95 131 180 221 273 332 399
#     4  10  21  39  64  91 132 173 219 272 330 394
#     4  10  20  39  67  87 131 176 214 270 341 385
#     4  10  19  40  65  91 132 175 212 277 333 393
#     4   9  20  39  61  93 126 173 221 274 326 395
#     4  10  22  40  63  95 130 173 223 270 334 398
#
# _framework density 27.124742000000001
#
# number of rings (size 3 to 8) (size 9 to 14) (size 15 to 20)
#    0.000    2.000    3.333    0.000    0.000    1.333 
#   12.000    0.000    0.000    0.000    0.000    0.000 
#    0.000    0.000    0.000    0.000    0.000    0.000 
#
# Total GULP energy -67021.386471 kJ/mol
# GULP energy per Si atom -5585.115539 kJ/mol
# Density = 2.706300 g / cm^3
# Si number density = 27.124742 Si / 1000 Ang^3
#
#
#
# Elastic Constant Matrix: (Units=GPa)
#
#
# Indices 1 2 3 4 5 6 
#
# 1 204.2906 46.7649 39.5504 0.0000 58.2503 0.0000
# 2 46.7649 83.1156 26.3533 0.0000 10.6263 0.0000
# 3 39.5504 26.3533 93.0641 0.0000 9.4081 0.0000
# 4 0.0000 0.0000 0.0000 37.1625 0.0000 2.3134
# 5 58.2503 10.6263 9.4081 0.0000 44.4545 0.0000
# 6 0.0000 0.0000 0.0000 2.3134 0.0000 47.1235
#
#
#
# Elastic Compliance Matrix: (Units=1/GPa)
#
#
# Indices 1 2 3 4 5 6 
#
# 1 0.009012 -0.003114 -0.001870 0.000000 -0.010668 0.000000
# 2 -0.003114 0.014554 -0.002921 0.000000 0.001219 0.000000
# 3 -0.001870 -0.002921 0.012312 0.000000 0.000542 0.000000
# 4 0.000000 0.000000 0.000000 0.026991 0.000000 -0.001325
# 5 -0.010668 0.001219 0.000542 0.000000 0.036068 0.000000
# 6 0.000000 0.000000 0.000000 -0.001325 0.000000 0.021286
#
#
# Mechanical properties :
#
#
# Convention : Reuss Voigt Hill
#
# Bulk Modulus (GPa) = 49.82915 67.31194 58.57055
# Shear Modulus (GPa) = 35.03345 43.60154 39.31750
#
# Velocity S-wave (km/s) = 3.59774 4.01365 3.81137
# Velocity P-wave (km/s) = 5.97231 6.80799 6.40380
#
# Compressibility (1/GPa) = 0.02006857
#
# Stress axis : x y z
#
# Youngs Moduli (GPa) = 110.96847 68.71113 81.22024
#
# Poissons Ratio (x) = 0.21394 0.15184
# Poissons Ratio (y) = 0.34552 0.23726
# Poissons Ratio (z) = 0.20746 0.20072
#
# Static dielectric constant tensor:
#      x y z
#    x 2.148420 0.000000 0.020670 
#    y 0.000000 2.156200 0.000000 
#    z 0.020670 0.000000 2.163430 
# 
# From -- ./inp_files/17451.got.cif
#   From: 2010.05.17/outbox.cif.g08.bks.cpg/sg9_9_cif.got.tgz:17451.got - 2010.06.03 20:04:27.
