data_PCOD9134874
_publ_section_title
;
Structure prediction by ZEFSAII (Michael W. Deem and Ramdas Pophale) SiO2 
 PCOD9134874
Probable space group: C C
;
_chemical_formula_sum "Si O2"
_cell_formula_units_Z 20
_cell_length_a 10.470191
_cell_length_b 14.437766
_cell_length_c 5.594810
_cell_angle_alpha 90.000000
_cell_angle_beta 65.769632
_cell_angle_gamma 90.000000
_cell_volume 771.238065
_symmetry_space_group_name_H-M "C C"
_symmetry_group_IT_number 9
_symmetry_cell_setting 'monoclinic'
loop_
_space_group_symop_operation_xyz
x,y,z
x,-y,1/2+z
1/2+x,1/2+y,z
1/2+x,1/2-y,1/2+z
loop_
_atom_site_type_symbol
_atom_site_label
_atom_site_fract_x
_atom_site_fract_y
_atom_site_fract_z
Si Si1 0.625000 0.052149 0.044660
Si Si2 0.781504 0.648162 0.814659
Si Si3 0.048730 0.287764 0.932561
Si Si4 0.382619 0.332771 0.258619
Si Si5 0.688656 0.649136 0.365271
O O1 0.558104 0.149372 0.186382
O O2 0.593811 0.992453 0.309896
O O3 0.788501 0.078390 0.879974
O O4 0.948286 0.659680 0.689208
O O5 0.698539 0.748002 0.884748
O O6 0.736006 0.611830 0.588367
O O7 0.735085 0.597864 0.089980
O O8 0.960603 0.196795 0.940461
O O9 0.277829 0.246416 0.287088
O O10 0.519633 0.342402 0.986560
#
# Coordination Sequence:
#
# PCOD9134874 Si02
#       5
#     4   4   4   4   4
#     4  12  28  42  64 102 142 168 208 280 348 378
#     4  10  20  33  64  98 120 155 233 269 301 360
#     4  10  20  42  67  96 124 177 226 263 308 406
#     4  10  20  42  67  96 124 177 226 263 308 406
#     4  10  20  33  64  98 120 155 233 269 301 360
#
# _framework density 25.932328999999999
#
# number of rings (size 3 to 8) (size 9 to 14) (size 15 to 20)
#    0.000    1.600    6.000    1.200    2.800    6.400 
#    0.000    0.000    0.000   31.200    0.000    0.000 
#    0.000    0.000    0.000    0.000    0.000    0.000 
#
# Total GULP energy -55693.660766 kJ/mol
# GULP energy per Si atom -5569.366077 kJ/mol
# Density = 2.587331 g / cm^3
# Si number density = 25.932329 Si / 1000 Ang^3
#
#
#
# Elastic Constant Matrix: (Units=GPa)
#
#
# Indices 1 2 3 4 5 6 
#
# 1 74.0235 39.0586 69.8919 0.0000 -14.9336 0.0000
# 2 39.0586 75.5522 43.1881 0.0000 3.6762 0.0000
# 3 69.8919 43.1881 218.8801 0.0000 1.2518 0.0000
# 4 0.0000 0.0000 0.0000 11.7607 0.0000 -6.8775
# 5 -14.9336 3.6762 1.2518 0.0000 75.1874 0.0000
# 6 0.0000 0.0000 0.0000 -6.8775 0.0000 19.7210
#
#
#
# Elastic Compliance Matrix: (Units=1/GPa)
#
#
# Indices 1 2 3 4 5 6 
#
# 1 0.025977 -0.010087 -0.006338 0.000000 0.005758 0.000000
# 2 -0.010087 0.018870 -0.000486 0.000000 -0.002918 0.000000
# 3 -0.006338 -0.000486 0.006696 0.000000 -0.001346 0.000000
# 4 0.000000 0.000000 0.000000 0.106812 0.000000 0.037249
# 5 0.005758 -0.002918 -0.001346 0.000000 0.014609 0.000000
# 6 0.000000 0.000000 0.000000 0.037249 0.000000 0.063697
#
#
# Mechanical properties :
#
#
# Convention : Reuss Voigt Hill
#
# Bulk Modulus (GPa) = 56.42451 74.74810 65.58630
# Shear Modulus (GPa) = 18.09041 35.75498 26.92269
#
# Velocity S-wave (km/s) = 2.64408 3.71722 3.22559
# Velocity P-wave (km/s) = 5.57917 6.87826 6.26249
#
# Compressibility (1/GPa) = 0.01772280
#
# Stress axis : x y z
#
# Youngs Moduli (GPa) = 38.49552 52.99360 149.34443
#
# Poissons Ratio (x) = 0.53454 0.94647
# Poissons Ratio (y) = 0.38830 0.07254
# Poissons Ratio (z) = 0.24397 0.02574
#
# Static dielectric constant tensor:
#      x y z
#    x 2.055790 0.000000 0.017100 
#    y 0.000000 2.046040 0.000000 
#    z 0.017100 0.000000 2.146780 
# 
# From -- ./inp_files/1565.got.cif
#   From: 2010.05.17/outbox.cif.g08.bks.cpg/sg9_1_cif.got.tgz:1565.got - 2010.06.03 20:04:27.
