data_PCOD9134298
_publ_section_title
;
Structure prediction by ZEFSAII (Michael W. Deem and Ramdas Pophale) SiO2 
 PCOD9134298
Probable space group: C C
;
_chemical_formula_sum "Si O2"
_cell_formula_units_Z 28
_cell_length_a 13.673879
_cell_length_b 15.110122
_cell_length_c 5.284581
_cell_angle_alpha 90.000000
_cell_angle_beta 71.963423
_cell_angle_gamma 90.000000
_cell_volume 1038.212866
_symmetry_space_group_name_H-M "C C"
_symmetry_group_IT_number 9
_symmetry_cell_setting 'monoclinic'
loop_
_space_group_symop_operation_xyz
x,y,z
x,-y,1/2+z
1/2+x,1/2+y,z
1/2+x,1/2-y,1/2+z
loop_
_atom_site_type_symbol
_atom_site_label
_atom_site_fract_x
_atom_site_fract_y
_atom_site_fract_z
Si Si1 0.156050 0.376381 0.634090
Si Si2 0.278582 0.612048 0.552770
Si Si3 0.300770 0.974275 0.749524
Si Si4 0.350803 0.224887 0.298439
Si Si5 0.013976 0.052437 0.281974
Si Si6 0.060777 0.236218 0.431280
Si Si7 0.457894 0.130886 0.611574
O O1 0.205742 0.424575 0.346075
O O2 0.145228 0.273329 0.556863
O O3 0.226740 0.384577 0.820924
O O4 0.040879 0.395613 0.824984
O O5 0.294148 0.710110 0.650055
O O6 0.390813 0.571306 0.420776
O O7 0.398492 0.040149 0.719287
O O8 0.242228 0.012213 0.557955
O O9 0.333019 0.872944 0.701606
O O10 0.367528 0.196198 0.579482
O O11 0.461457 0.273173 0.185260
O O12 0.075214 0.143824 0.284159
O O13 0.032763 0.982233 0.487648
O O14 0.025492 0.315087 0.264663
#
# Coordination Sequence:
#
# PCOD9134298 Si02
#       7
#     4   4   4   4   4   4   4
#     4  11  23  40  66  96 129 176 207 260 328 409
#     4  11  24  41  65  92 136 171 209 263 334 397
#     4  10  19  33  56  90 125 148 195 255 301 366
#     4   9  21  35  63  92 123 168 210 257 312 385
#     4  11  26  44  69  97 127 174 235 285 319 376
#     4  10  21  41  69  94 123 172 227 266 325 376
#     4  10  20  38  64  97 125 163 219 256 323 383
#
# _framework density 26.969424
#
# number of rings (size 3 to 8) (size 9 to 14) (size 15 to 20)
#    0.000    1.714    2.857    0.857   10.000    0.000 
#    0.000   12.857    0.000   10.286    0.000    0.000 
#    0.000    0.000    0.000    0.000    0.000    0.000 
#
# Total GULP energy -78087.553212 kJ/mol
# GULP energy per Si atom -5577.682372 kJ/mol
# Density = 2.690804 g / cm^3
# Si number density = 26.969424 Si / 1000 Ang^3
#
#
#
# Elastic Constant Matrix: (Units=GPa)
#
#
# Indices 1 2 3 4 5 6 
#
# 1 69.4948 40.4313 42.2375 0.0000 27.8147 0.0000
# 2 40.4313 144.0007 23.4984 0.0000 22.6110 0.0000
# 3 42.2375 23.4984 121.2815 0.0000 19.9423 0.0000
# 4 0.0000 0.0000 0.0000 26.1839 0.0000 -7.9821
# 5 27.8147 22.6110 19.9423 0.0000 54.3911 0.0000
# 6 0.0000 0.0000 0.0000 -7.9821 0.0000 -30.1731
#
#
#
# Elastic Compliance Matrix: (Units=1/GPa)
#
#
# Indices 1 2 3 4 5 6 
#
# 1 0.023980 -0.004448 -0.006148 0.000000 -0.008160 0.000000
# 2 -0.004448 0.008368 0.000134 0.000000 -0.001253 0.000000
# 3 -0.006148 0.000134 0.010485 0.000000 -0.000756 0.000000
# 4 0.000000 0.000000 0.000000 0.035341 0.000000 -0.009349
# 5 -0.008160 -0.001253 -0.000756 0.000000 0.023356 0.000000
# 6 0.000000 0.000000 0.000000 -0.009349 0.000000 -0.030669
#
#
# Mechanical properties :
#
#
# Convention : Reuss Voigt Hill
#
# Bulk Modulus (GPa) = 45.64468 60.79016 53.21742
# Shear Modulus (GPa) = 50.45985 25.32102 37.89043
#
# Velocity S-wave (km/s) = 4.33020 3.06744 3.75232
# Velocity P-wave (km/s) = 6.47782 5.92747 6.20875
#
# Compressibility (1/GPa) = 0.02190836
#
# Stress axis : x y z
#
# Youngs Moduli (GPa) = 41.70170 119.49844 95.37772
#
# Poissons Ratio (x) = 0.53158 0.58635
# Poissons Ratio (y) = 0.18551 -0.01277
# Poissons Ratio (z) = 0.25637 -0.01600
#
# Static dielectric constant tensor:
#      x y z
#    x 2.349280 0.000000 -0.109130 
#    y 0.000000 2.306690 0.000000 
#    z -0.109130 0.000000 2.232750 
# 
# From -- ./inp_files/2392.got.cif
#   From: 2010.05.17/outbox.cif.g08.bks.cpg/sg9_2_cif.got.tgz:2392.got - 2010.06.03 20:04:27.
