data_PCOD9134252
_publ_section_title
;
Structure prediction by ZEFSAII (Michael W. Deem and Ramdas Pophale) SiO2 
 PCOD9134252
Probable space group: C C
;
_chemical_formula_sum "Si O2"
_cell_formula_units_Z 32
_cell_length_a 14.906490
_cell_length_b 7.037793
_cell_length_c 30.819972
_cell_angle_alpha 90.000000
_cell_angle_beta 156.139834
_cell_angle_gamma 90.000000
_cell_volume 1307.883160
_symmetry_space_group_name_H-M "C C"
_symmetry_group_IT_number 9
_symmetry_cell_setting 'monoclinic'
loop_
_space_group_symop_operation_xyz
x,y,z
x,-y,1/2+z
1/2+x,1/2+y,z
1/2+x,1/2-y,1/2+z
loop_
_atom_site_type_symbol
_atom_site_label
_atom_site_fract_x
_atom_site_fract_y
_atom_site_fract_z
Si Si1 0.929390 0.147900 0.884130
Si Si2 0.969451 0.663922 0.717621
Si Si3 0.277528 0.721901 0.722615
Si Si4 0.558648 0.706193 0.766256
Si Si5 0.487036 0.646848 0.479758
Si Si6 0.360202 0.820310 0.266422
Si Si7 0.349949 0.627343 0.003678
Si Si8 0.410652 0.669954 0.607001
O O1 0.706024 0.241282 0.806232
O O2 0.870712 0.136156 0.807884
O O3 0.943123 0.950380 0.914436
O O4 0.170643 0.231397 0.002111
O O5 0.743253 0.701126 0.592153
O O6 0.899576 0.728794 0.734150
O O7 0.999811 0.432801 0.732953
O O8 0.408163 0.647745 0.739384
O O9 0.024997 0.712624 0.594809
O O10 0.324371 0.949012 0.750594
O O11 0.489556 0.615060 0.690189
O O12 0.804876 0.688730 0.895508
O O13 0.422559 0.497931 0.491734
O O14 0.602747 0.793464 0.393176
O O15 0.137170 0.733018 0.188200
O O16 0.363330 0.486749 0.050037
#
# Coordination Sequence:
#
# PCOD9134252 Si02
#       8
#     4   4   4   4   4   4   4   4
#     4  11  20  31  56  86 110 141 183 229 280 322
#     4  10  19  33  56  85 110 142 180 233 272 322
#     4  10  19  32  53  83 111 144 181 222 278 323
#     4  10  19  32  53  83 111 144 181 222 278 323
#     4  11  18  35  58  82 113 139 184 236 272 322
#     4  10  19  33  56  85 110 142 180 233 272 322
#     4  11  18  35  58  82 113 139 184 236 272 322
#     4  11  20  31  56  86 110 141 183 229 280 322
#
# _framework density 24.467019000000001
#
# number of rings (size 3 to 8) (size 9 to 14) (size 15 to 20)
#    0.000    1.500   10.000    0.000    0.000    1.000 
#    0.000    0.000    0.000    7.500    0.000    0.000 
#    0.000    0.000    0.000    0.000    0.000    0.000 
#
# Total GULP energy -89241.141846 kJ/mol
# GULP energy per Si atom -5577.571365 kJ/mol
# Density = 2.441133 g / cm^3
# Si number density = 24.467019 Si / 1000 Ang^3
#
#
#
# Elastic Constant Matrix: (Units=GPa)
#
#
# Indices 1 2 3 4 5 6 
#
# 1 126.1426 -11.0276 49.5238 -0.0072 -1.2315 0.0061
# 2 -11.0276 54.6467 5.9851 -0.0064 2.0978 0.0033
# 3 49.5238 5.9851 236.4473 -0.0044 22.1258 0.0050
# 4 -0.0072 -0.0064 -0.0044 18.8895 0.0029 -3.7340
# 5 -1.2315 2.0978 22.1258 0.0029 60.2800 -0.0024
# 6 0.0061 0.0033 0.0050 -3.7340 -0.0024 1.2388
#
#
#
# Elastic Compliance Matrix: (Units=1/GPa)
#
#
# Indices 1 2 3 4 5 6 
#
# 1 0.008891 0.001980 -0.001991 -0.000011 0.000844 -0.000071
# 2 0.001980 0.018805 -0.000863 -0.000011 -0.000297 -0.000089
# 3 -0.001991 -0.000863 0.004835 -0.000004 -0.001785 -0.000024
# 4 -0.000011 -0.000011 -0.000004 0.130980 0.000011 0.394788
# 5 0.000844 -0.000297 -0.001785 0.000011 0.017272 0.000070
# 6 -0.000071 -0.000089 -0.000024 0.394788 0.000070 1.997138
#
#
# Mechanical properties :
#
#
# Convention : Reuss Voigt Hill
#
# Bulk Modulus (GPa) = 32.48630 56.24435 44.36532
# Shear Modulus (GPa) = 2.28318 40.93201 21.60759
#
# Velocity S-wave (km/s) = 0.96705 4.09460 2.97498
# Velocity P-wave (km/s) = 3.81488 6.73737 5.47473
#
# Compressibility (1/GPa) = 0.03078220
#
# Stress axis : x y z
#
# Youngs Moduli (GPa) = 112.47837 53.17785 206.81497
#
# Poissons Ratio (x) = -0.10528 0.41181
# Poissons Ratio (y) = -0.22269 0.17845
# Poissons Ratio (z) = 0.22397 0.04588
#
# Static dielectric constant tensor:
#      x y z
#    x 2.064350 0.000000 0.113900 
#    y 0.000000 2.167930 0.000000 
#    z 0.113900 0.000000 2.083460 
# 
# From -- ./inp_files/16169.got.cif
#   From: 2010.05.17/outbox.cif.g08.bks.cpg/sg9_9_cif.got.tgz:16169.got - 2010.06.03 20:04:27.
