data_PCOD9134390
_publ_section_title
;
Structure prediction by ZEFSAII (Michael W. Deem and Ramdas Pophale) SiO2 
 PCOD9134390
Probable space group: C C
;
_chemical_formula_sum "Si O2"
_cell_formula_units_Z 28
_cell_length_a 10.819166
_cell_length_b 19.345717
_cell_length_c 9.839888
_cell_angle_alpha 90.000000
_cell_angle_beta 28.543405
_cell_angle_gamma 90.000000
_cell_volume 984.095113
_symmetry_space_group_name_H-M "C C"
_symmetry_group_IT_number 9
_symmetry_cell_setting 'monoclinic'
loop_
_space_group_symop_operation_xyz
x,y,z
x,-y,1/2+z
1/2+x,1/2+y,z
1/2+x,1/2-y,1/2+z
loop_
_atom_site_type_symbol
_atom_site_label
_atom_site_fract_x
_atom_site_fract_y
_atom_site_fract_z
Si Si1 0.806760 0.934391 0.399090
Si Si2 0.394937 0.574208 0.436678
Si Si3 0.763128 0.219357 0.707668
Si Si4 0.725124 0.716758 0.946240
Si Si5 0.289952 0.964949 0.739270
Si Si6 0.067568 0.603722 0.488684
Si Si7 0.337245 0.297663 0.509543
O O1 0.523955 0.937442 0.604670
O O2 0.860069 0.853033 0.364008
O O3 0.823711 0.991381 0.506278
O O4 0.031061 0.961244 0.079704
O O5 0.287685 0.640138 0.629385
O O6 0.124223 0.763548 0.230339
O O7 0.283192 0.589124 0.395375
O O8 0.508290 0.241461 0.034190
O O9 0.719944 0.265711 0.609996
O O10 0.850659 0.647132 0.778829
O O11 0.935286 0.769558 0.681529
O O12 0.195962 0.927708 0.691723
O O13 0.397632 0.040082 0.600560
O O14 0.204325 0.644496 0.237008
#
# Coordination Sequence:
#
# PCOD9134390 Si02
#       7
#     4   4   4   4   4   4   4
#     4  11  29  53  77 114 164 224 282 319 415 512
#     4  11  26  47  79 110 171 198 271 346 410 493
#     4  10  21  37  63 104 145 189 236 309 415 461
#     4  10  19  35  62 103 152 178 235 306 419 463
#     4  11  29  48  80 113 161 223 276 326 415 508
#     4  11  25  46  83 124 158 206 272 359 422 484
#     4  12  29  52  88 118 167 218 282 355 412 493
#
# _framework density 28.452534
#
# number of rings (size 3 to 8) (size 9 to 14) (size 15 to 20)
#    0.000    1.143    2.857    1.714   12.000    2.286 
#    0.000    4.286    0.000    0.000    0.000    0.000 
#    0.000    0.000    0.000    0.000    0.000    0.000 
#
# Total GULP energy -78229.735512 kJ/mol
# GULP energy per Si atom -5587.838251 kJ/mol
# Density = 2.838777 g / cm^3
# Si number density = 28.452534 Si / 1000 Ang^3
#
#
#
# Elastic Constant Matrix: (Units=GPa)
#
#
# Indices 1 2 3 4 5 6 
#
# 1 73.9163 42.8009 46.5220 -0.0031 -21.6827 0.0000
# 2 42.8009 183.7153 49.3242 0.0007 -25.3696 -0.0005
# 3 46.5220 49.3242 170.7124 -0.0060 -38.7660 0.0013
# 4 -0.0031 0.0007 -0.0060 60.3263 0.0032 -1.1773
# 5 -21.6827 -25.3696 -38.7660 0.0032 55.5204 0.0004
# 6 0.0000 -0.0005 0.0013 -1.1773 0.0004 46.6494
#
#
#
# Elastic Compliance Matrix: (Units=1/GPa)
#
#
# Indices 1 2 3 4 5 6 
#
# 1 0.018347 -0.002887 -0.003373 0.000000 0.003491 0.000000
# 2 -0.002887 0.006509 -0.000802 0.000000 0.001287 0.000000
# 3 -0.003373 -0.000802 0.007875 0.000000 0.003815 0.000000
# 4 0.000000 0.000000 0.000000 0.016585 -0.000001 0.000419
# 5 0.003491 0.001287 0.003815 -0.000001 0.022627 0.000000
# 6 0.000000 0.000000 0.000000 0.000419 0.000000 0.021447
#
#
# Mechanical properties :
#
#
# Convention : Reuss Voigt Hill
#
# Bulk Modulus (GPa) = 53.74028 78.40424 66.07226
# Shear Modulus (GPa) = 43.96948 51.81233 47.89091
#
# Velocity S-wave (km/s) = 3.93537 4.27196 4.10712
# Velocity P-wave (km/s) = 6.29113 7.20755 6.76488
#
# Compressibility (1/GPa) = 0.01860802
#
# Stress axis : x y z
#
# Youngs Moduli (GPa) = 54.50336 153.64072 126.98468
#
# Poissons Ratio (x) = 0.44353 0.42834
# Poissons Ratio (y) = 0.15734 0.10179
# Poissons Ratio (z) = 0.18385 0.12316
#
# Static dielectric constant tensor:
#      x y z
#    x 2.561440 0.000000 0.071070 
#    y 0.000000 2.275000 0.000000 
#    z 0.071070 0.000000 2.195880 
# 
# From -- ./inp_files/31043.got.cif
#   From: 2010.05.17/outbox.cif.g08.bks.cpg/sg9_16_cif.got.tgz:31043.got - 2010.06.03 20:04:27.
