data_PCOD9134365
_publ_section_title
;
Structure prediction by ZEFSAII (Michael W. Deem and Ramdas Pophale) SiO2 
 PCOD9134365
Probable space group: C C
;
_chemical_formula_sum "Si O2"
_cell_formula_units_Z 32
_cell_length_a 8.531883
_cell_length_b 23.605396
_cell_length_c 13.426115
_cell_angle_alpha 90.000000
_cell_angle_beta 145.685432
_cell_angle_gamma 90.000000
_cell_volume 1524.341843
_symmetry_space_group_name_H-M "C C"
_symmetry_group_IT_number 9
_symmetry_cell_setting 'monoclinic'
loop_
_space_group_symop_operation_xyz
x,y,z
x,-y,1/2+z
1/2+x,1/2+y,z
1/2+x,1/2-y,1/2+z
loop_
_atom_site_type_symbol
_atom_site_label
_atom_site_fract_x
_atom_site_fract_y
_atom_site_fract_z
Si Si1 0.293990 0.315670 0.736920
Si Si2 0.636285 0.178099 0.717134
Si Si3 0.235419 0.502598 0.974682
Si Si4 0.239560 0.075090 0.773627
Si Si5 0.222626 0.721068 0.980675
Si Si6 0.199225 0.088086 0.516332
Si Si7 0.208558 0.963544 0.571506
Si Si8 0.710742 0.649149 0.942066
O O1 0.302815 0.312481 0.621494
O O2 0.980523 0.315102 0.608774
O O3 0.454597 0.260472 0.859849
O O4 0.441520 0.373692 0.847551
O O5 0.455128 0.230967 0.585987
O O6 0.466603 0.119927 0.611695
O O7 0.925399 0.179122 0.814091
O O8 0.679772 0.185394 0.858734
O O9 0.033790 0.541489 0.936472
O O10 0.998504 0.469759 0.785406
O O11 0.461285 0.462480 0.147206
O O12 0.442271 0.535567 0.006577
O O13 0.218500 0.091092 0.646468
O O14 0.236457 0.128480 0.842554
O O15 0.185149 0.020849 0.492563
O O16 0.211729 0.907907 0.508210
#
# Coordination Sequence:
#
# PCOD9134365 Si02
#       8
#     4   4   4   4   4   4   4   4
#     4  10  21  38  64  87 109 149 194 240 295 344
#     4  10  21  39  61  84 111 147 191 243 293 342
#     4   8  18  36  54  71 112 169 196 225 269 317
#     4  10  20  34  53  82 117 154 197 230 270 333
#     4   9  21  44  63  79 108 148 196 245 296 346
#     4   9  19  39  60  83 120 159 189 225 281 349
#     4  10  19  35  55  83 123 158 190 231 274 335
#     4  12  23  33  56  93 120 150 191 235 286 342
#
# _framework density 20.992667000000001
#
# number of rings (size 3 to 8) (size 9 to 14) (size 15 to 20)
#    0.000    2.500    0.000    3.750    0.000    4.000 
#    0.000   13.750    0.000    0.000    0.000    0.000 
#    0.000    0.000    0.000    0.000    0.000    0.000 
#
# Total GULP energy -89338.858709 kJ/mol
# GULP energy per Si atom -5583.678669 kJ/mol
# Density = 2.094489 g / cm^3
# Si number density = 20.992667 Si / 1000 Ang^3
#
#
#
# Elastic Constant Matrix: (Units=GPa)
#
#
# Indices 1 2 3 4 5 6 
#
# 1 31.9650 21.3335 38.5240 0.0000 35.7509 0.0000
# 2 21.3335 55.4662 26.0328 0.0000 16.1545 0.0000
# 3 38.5240 26.0328 97.3595 0.0000 43.7568 0.0000
# 4 0.0000 0.0000 0.0000 26.4938 0.0000 -3.7753
# 5 35.7509 16.1545 43.7568 0.0000 45.7567 0.0000
# 6 0.0000 0.0000 0.0000 -3.7753 0.0000 -76.8147
#
#
#
# Elastic Compliance Matrix: (Units=1/GPa)
#
#
# Indices 1 2 3 4 5 6 
#
# 1 0.418212 -0.069067 -0.019494 0.000000 -0.283733 0.000000
# 2 -0.069067 0.032351 -0.000774 0.000000 0.043282 0.000000
# 3 -0.019494 -0.000774 0.019683 0.000000 -0.003318 0.000000
# 4 0.000000 0.000000 0.000000 0.037482 0.000000 -0.001842
# 5 -0.283733 0.043282 -0.003318 0.000000 0.231435 0.000000
# 6 0.000000 0.000000 0.000000 -0.001842 0.000000 -0.012928
#
#
# Mechanical properties :
#
#
# Convention : Reuss Voigt Hill
#
# Bulk Modulus (GPa) = 3.42964 39.61903 21.52433
# Shear Modulus (GPa) = 4.98954 5.68052 5.33503
#
# Velocity S-wave (km/s) = 1.54336 1.64676 1.59590
# Velocity P-wave (km/s) = 2.19391 4.74653 3.69748
#
# Compressibility (1/GPa) = 0.29157608
#
# Stress axis : x y z
#
# Youngs Moduli (GPa) = 2.39113 30.91100 50.80499
#
# Poissons Ratio (x) = 2.13493 0.99040
# Poissons Ratio (y) = 0.16515 0.03931
# Poissons Ratio (z) = 0.04661 0.02392
#
# Static dielectric constant tensor:
#      x y z
#    x 1.741380 0.000000 0.004430 
#    y 0.000000 1.801250 0.000000 
#    z 0.004430 0.000000 1.766530 
# 
# From -- ./inp_files/6326.got.cif
#   From: 2010.05.17/outbox.cif.g08.bks.cpg/sg9_4_cif.got.tgz:6326.got - 2010.06.03 20:04:27.
