data_PCOD9134200
_publ_section_title
;
Structure prediction by ZEFSAII (Michael W. Deem and Ramdas Pophale) SiO2 
 PCOD9134200
Probable space group: C C
;
_chemical_formula_sum "Si O2"
_cell_formula_units_Z 28
_cell_length_a 9.627744
_cell_length_b 14.658759
_cell_length_c 13.769569
_cell_angle_alpha 90.000000
_cell_angle_beta 138.473534
_cell_angle_gamma 90.000000
_cell_volume 1288.348329
_symmetry_space_group_name_H-M "C C"
_symmetry_group_IT_number 9
_symmetry_cell_setting 'monoclinic'
loop_
_space_group_symop_operation_xyz
x,y,z
x,-y,1/2+z
1/2+x,1/2+y,z
1/2+x,1/2-y,1/2+z
loop_
_atom_site_type_symbol
_atom_site_label
_atom_site_fract_x
_atom_site_fract_y
_atom_site_fract_z
Si Si1 0.137830 0.203696 0.362080
Si Si2 0.968846 0.165281 0.477296
Si Si3 0.086020 0.768376 0.619780
Si Si4 0.149136 0.528812 0.271390
Si Si5 0.918996 0.393864 0.281680
Si Si6 0.871387 0.374965 0.469216
Si Si7 0.449039 0.630570 0.854552
O O1 0.013312 0.156813 0.384323
O O2 0.079866 0.180217 0.221094
O O3 0.386104 0.199690 0.511560
O O4 0.079211 0.311188 0.343053
O O5 0.188899 0.145368 0.642488
O O6 0.794529 0.092561 0.413818
O O7 0.896603 0.267061 0.463132
O O8 0.300175 0.710748 0.734358
O O9 0.055212 0.831671 0.509871
O O10 0.300452 0.454066 0.301860
O O11 0.975555 0.475701 0.241411
O O12 0.032550 0.592292 0.134029
O O13 0.929837 0.422023 0.398787
O O14 0.636115 0.394042 0.380318
#
# Coordination Sequence:
#
# PCOD9134200 Si02
#       7
#     4   4   4   4   4   4   4
#     4  10  18  40  71 101 137 188 227 280 362 442
#     4  11  24  42  73 101 143 191 241 291 360 434
#     4  10  20  39  73 102 148 178 237 287 369 424
#     4  12  25  46  71 103 142 183 251 301 348 430
#     4  11  23  45  65 100 138 185 238 290 358 428
#     4  11  27  46  71 102 145 190 237 297 369 427
#     4  11  25  44  72 109 141 187 239 304 356 429
#
# _framework density 21.733253000000001
#
# number of rings (size 3 to 8) (size 9 to 14) (size 15 to 20)
#    0.000    1.143    4.286    2.571    6.000    1.143 
#    0.000    5.714    0.000    0.000    0.000    0.000 
#    0.000    0.000    0.000    0.000    0.000    0.000 
#
# Total GULP energy -78328.648681 kJ/mol
# GULP energy per Si atom -5594.903477 kJ/mol
# Density = 2.168379 g / cm^3
# Si number density = 21.733253 Si / 1000 Ang^3
#
#
#
# Elastic Constant Matrix: (Units=GPa)
#
#
# Indices 1 2 3 4 5 6 
#
# 1 67.2033 7.2480 15.5483 0.0000 6.5638 0.0000
# 2 7.2480 39.6152 3.1873 -0.0001 6.5331 0.0000
# 3 15.5483 3.1873 92.9728 -0.0001 13.2365 0.0000
# 4 0.0000 -0.0001 -0.0001 30.4430 0.0001 6.5081
# 5 6.5638 6.5331 13.2365 0.0001 19.3928 0.0000
# 6 0.0000 0.0000 0.0000 6.5081 0.0000 20.6994
#
#
#
# Elastic Compliance Matrix: (Units=1/GPa)
#
#
# Indices 1 2 3 4 5 6 
#
# 1 0.015924 -0.002216 -0.002133 0.000000 -0.003187 0.000000
# 2 -0.002216 0.027050 0.000702 0.000000 -0.008842 0.000000
# 3 -0.002133 0.000702 0.012205 0.000000 -0.007845 0.000000
# 4 0.000000 0.000000 0.000000 0.035215 0.000000 -0.011072
# 5 -0.003187 -0.008842 -0.007845 0.000000 0.060978 0.000000
# 6 0.000000 0.000000 0.000000 -0.011072 0.000000 0.051792
#
#
# Mechanical properties :
#
#
# Convention : Reuss Voigt Hill
#
# Bulk Modulus (GPa) = 20.88356 27.97316 24.42836
# Shear Modulus (GPa) = 22.08279 25.69422 23.88851
#
# Velocity S-wave (km/s) = 3.19106 3.44212 3.31897
# Velocity P-wave (km/s) = 4.81737 5.35693 5.09430
#
# Compressibility (1/GPa) = 0.04788456
#
# Stress axis : x y z
#
# Youngs Moduli (GPa) = 62.79783 36.96863 81.93055
#
# Poissons Ratio (x) = 0.08193 0.17479
# Poissons Ratio (y) = 0.13918 -0.05752
# Poissons Ratio (z) = 0.13397 -0.02596
#
# Static dielectric constant tensor:
#      x y z
#    x 1.804850 0.000000 -0.020380 
#    y 0.000000 1.756750 0.000000 
#    z -0.020380 0.000000 1.761990 
# 
# From -- ./inp_files/15143.got.cif
#   From: 2010.05.17/outbox.cif.g08.bks.cpg/sg9_8_cif.got.tgz:15143.got - 2010.06.03 20:04:27.
