data_PCOD9134355
_publ_section_title
;
Structure prediction by ZEFSAII (Michael W. Deem and Ramdas Pophale) SiO2 
 PCOD9134355
Probable space group: C C
;
_chemical_formula_sum "Si O2"
_cell_formula_units_Z 24
_cell_length_a 13.830722
_cell_length_b 8.141602
_cell_length_c 19.674176
_cell_angle_alpha 90.000000
_cell_angle_beta 23.611660
_cell_angle_gamma 90.000000
_cell_volume 887.344571
_symmetry_space_group_name_H-M "C C"
_symmetry_group_IT_number 9
_symmetry_cell_setting 'monoclinic'
loop_
_space_group_symop_operation_xyz
x,y,z
x,-y,1/2+z
1/2+x,1/2+y,z
1/2+x,1/2-y,1/2+z
loop_
_atom_site_type_symbol
_atom_site_label
_atom_site_fract_x
_atom_site_fract_y
_atom_site_fract_z
Si Si1 0.978210 0.314048 0.090780
Si Si2 0.491010 0.927357 0.380929
Si Si3 0.491262 0.300507 0.435960
Si Si4 0.941095 0.410394 0.774495
Si Si5 0.454478 0.271662 0.145228
Si Si6 0.974755 0.091409 0.224892
O O1 0.706932 0.386181 0.254798
O O2 0.008086 0.190534 0.006958
O O3 0.951121 0.219469 0.178376
O O4 0.236302 0.401974 0.923460
O O5 0.519585 0.111327 0.392766
O O6 0.439035 0.945923 0.333154
O O7 0.726162 0.822123 0.246472
O O8 0.244341 0.871547 0.576864
O O9 0.220298 0.356131 0.597662
O O10 0.910527 0.400006 0.712649
O O11 0.714910 0.296831 0.943359
O O12 0.469564 0.413600 0.193109
#
# Coordination Sequence:
#
# PCOD9134355 Si02
#       6
#     4   4   4   4   4   4
#     4  10  19  34  64  91 117 167 215 263 322 393
#     4  11  22  39  68  88 125 177 209 264 341 384
#     4  11  17  35  66  87 116 168 215 258 319 390
#     4  11  21  39  68  95 132 174 221 273 333 396
#     4  11  22  41  65  97 133 174 214 276 335 390
#     4  10  21  38  61  90 129 164 208 270 332 379
#
# _framework density 27.046987999999999
#
# number of rings (size 3 to 8) (size 9 to 14) (size 15 to 20)
#    0.000    1.333    8.333    0.000    0.000    1.333 
#    0.000    8.333    0.000    0.000    0.000    0.000 
#    0.000    0.000    0.000    0.000    0.000    0.000 
#
# Total GULP energy -66982.038037 kJ/mol
# GULP energy per Si atom -5581.836503 kJ/mol
# Density = 2.698543 g / cm^3
# Si number density = 27.046988 Si / 1000 Ang^3
#
#
#
# Elastic Constant Matrix: (Units=GPa)
#
#
# Indices 1 2 3 4 5 6 
#
# 1 97.4870 17.9063 65.9950 -0.0024 -15.4368 0.0010
# 2 17.9063 56.3147 49.1054 -0.0050 -2.8428 -0.0003
# 3 65.9950 49.1054 328.1380 -0.0101 -6.1588 0.0034
# 4 -0.0024 -0.0050 -0.0101 40.3693 0.0010 4.5891
# 5 -15.4368 -2.8428 -6.1588 0.0010 48.7499 -0.0009
# 6 0.0010 -0.0003 0.0034 4.5891 -0.0009 43.9892
#
#
#
# Elastic Compliance Matrix: (Units=1/GPa)
#
#
# Indices 1 2 3 4 5 6 
#
# 1 0.012670 -0.001936 -0.002190 0.000000 0.003622 0.000000
# 2 -0.001936 0.020750 -0.002711 0.000002 0.000255 0.000000
# 3 -0.002190 -0.002711 0.003887 0.000001 -0.000361 0.000000
# 4 0.000000 0.000002 0.000001 0.025069 0.000000 -0.002615
# 5 0.003622 0.000255 -0.000361 0.000000 0.021629 0.000000
# 6 0.000000 0.000000 0.000000 -0.002615 0.000000 0.023006
#
#
# Mechanical properties :
#
#
# Convention : Reuss Voigt Hill
#
# Bulk Modulus (GPa) = 42.31555 83.10591 62.71073
# Shear Modulus (GPa) = 38.89183 49.88388 44.38785
#
# Velocity S-wave (km/s) = 3.79613 4.29924 4.05549
# Velocity P-wave (km/s) = 5.90705 7.44566 6.72053
#
# Compressibility (1/GPa) = 0.02363197
#
# Stress axis : x y z
#
# Youngs Moduli (GPa) = 78.92796 48.19347 257.26858
#
# Poissons Ratio (x) = 0.09329 0.56354
# Poissons Ratio (y) = 0.15278 0.69748
# Poissons Ratio (z) = 0.17289 0.13066
#
# Static dielectric constant tensor:
#      x y z
#    x 2.208130 0.000000 -0.052000 
#    y 0.000000 2.242540 0.000000 
#    z -0.052000 0.000000 2.135420 
# 
# From -- ./inp_files/8865.got.cif
#   From: 2010.05.17/outbox.cif.g08.bks.cpg/sg9_5_cif.got.tgz:8865.got - 2010.06.03 20:04:27.
