data_PCOD9134091
_publ_section_title
;
Structure prediction by ZEFSAII (Michael W. Deem and Ramdas Pophale) SiO2 
 PCOD9134091
Probable space group: C C
;
_chemical_formula_sum "Si O2"
_cell_formula_units_Z 32
_cell_length_a 12.664278
_cell_length_b 8.185749
_cell_length_c 27.549174
_cell_angle_alpha 90.000000
_cell_angle_beta 144.248448
_cell_angle_gamma 90.000000
_cell_volume 1668.638479
_symmetry_space_group_name_H-M "C C"
_symmetry_group_IT_number 9
_symmetry_cell_setting 'monoclinic'
loop_
_space_group_symop_operation_xyz
x,y,z
x,-y,1/2+z
1/2+x,1/2+y,z
1/2+x,1/2-y,1/2+z
loop_
_atom_site_type_symbol
_atom_site_label
_atom_site_fract_x
_atom_site_fract_y
_atom_site_fract_z
Si Si1 0.662530 0.412989 0.066210
Si Si2 0.838079 0.334403 0.794735
Si Si3 0.897790 0.308663 0.708419
Si Si4 0.569632 0.294278 0.468444
Si Si5 0.624258 0.644358 0.715534
Si Si6 0.963398 0.286496 0.569074
Si Si7 0.444690 0.683130 0.120844
Si Si8 0.532039 0.145405 0.558000
O O1 0.795932 0.534670 0.146511
O O2 0.511291 0.341118 0.045035
O O3 0.783214 0.269189 0.088561
O O4 0.576576 0.521952 0.991698
O O5 0.935411 0.331965 0.778967
O O6 0.793064 0.525899 0.787948
O O7 0.140415 0.752346 0.712765
O O8 0.941427 0.246945 0.876049
O O9 0.745518 0.168148 0.647103
O O10 0.064224 0.249398 0.738758
O O11 0.773161 0.264086 0.525243
O O12 0.510807 0.189578 0.493683
O O13 0.622303 0.761726 0.668294
O O14 0.472846 0.507242 0.643421
O O15 0.967847 0.466985 0.548580
O O16 0.440800 0.727611 0.062283
#
# Coordination Sequence:
#
# PCOD9134091 Si02
#       8
#     4   4   4   4   4   4   4   4
#     4  11  20  37  63  91 117 155 212 243 292 368
#     4   9  22  38  58  86 127 154 197 253 313 343
#     4  10  18  36  62  85 116 154 195 250 285 358
#     4  11  23  41  58  91 127 155 196 261 308 348
#     4  10  18  36  60  87 113 156 201 244 290 356
#     4  12  21  36  66  89 115 162 202 244 301 358
#     4   9  19  38  63  88 116 161 203 248 289 365
#     4  10  19  36  64  87 115 155 202 247 290 358
#
# _framework density 19.177311
#
# number of rings (size 3 to 8) (size 9 to 14) (size 15 to 20)
#    0.750    1.000    5.000    1.500    0.000    1.000 
#    2.250    0.000    5.500    0.000    0.000    0.000 
#    0.000    0.000    0.000    0.000    0.000    0.000 
#
# Total GULP energy -89116.543458 kJ/mol
# GULP energy per Si atom -5569.783966 kJ/mol
# Density = 1.913366 g / cm^3
# Si number density = 19.177311 Si / 1000 Ang^3
#
#
#
# Elastic Constant Matrix: (Units=GPa)
#
#
# Indices 1 2 3 4 5 6 
#
# 1 93.3564 26.1420 1.8813 0.0000 -23.7320 0.0000
# 2 26.1420 66.5793 -3.0422 0.0000 -8.0297 0.0000
# 3 1.8813 -3.0422 26.0123 0.0000 -16.6950 0.0000
# 4 0.0000 0.0000 0.0000 9.4666 0.0000 -7.4005
# 5 -23.7320 -8.0297 -16.6950 0.0000 20.2940 0.0000
# 6 0.0000 0.0000 0.0000 -7.4005 0.0000 40.5544
#
#
#
# Elastic Compliance Matrix: (Units=1/GPa)
#
#
# Indices 1 2 3 4 5 6 
#
# 1 0.024934 -0.001291 0.034813 0.000000 0.057287 0.000000
# 2 -0.001291 0.017981 0.012275 0.000000 0.015703 0.000000
# 3 0.034813 0.012275 0.141112 0.000000 0.161654 0.000000
# 4 0.000000 0.000000 0.000000 0.123212 0.000000 0.022484
# 5 0.057287 0.015703 0.161654 0.000000 0.255465 0.000000
# 6 0.000000 0.000000 0.000000 0.022484 0.000000 0.028761
#
#
# Mechanical properties :
#
#
# Convention : Reuss Voigt Hill
#
# Bulk Modulus (GPa) = 3.62816 26.21223 14.92020
# Shear Modulus (GPa) = 8.44958 24.79413 16.62185
#
# Velocity S-wave (km/s) = 2.10133 3.59958 2.94725
# Velocity P-wave (km/s) = 2.78989 5.56543 4.40213
#
# Compressibility (1/GPa) = 0.27562167
#
# Stress axis : x y z
#
# Youngs Moduli (GPa) = 40.10553 55.61372 7.08656
#
# Poissons Ratio (x) = 0.07178 -0.24670
# Poissons Ratio (y) = 0.05176 -0.08699
# Poissons Ratio (z) = -1.39619 -0.68265
#
# Static dielectric constant tensor:
#      x y z
#    x 1.684310 0.000000 -0.009450 
#    y 0.000000 1.693340 0.000000 
#    z -0.009450 0.000000 1.662830 
# 
# From -- ./inp_files/33141.got.cif
#   From: 2010.05.17/outbox.cif.g08.bks.cpg/sg9_17_cif.got.tgz:33141.got - 2010.06.03 20:04:27.
