data_PCOD9134976
_publ_section_title
;
Structure prediction by ZEFSAII (Michael W. Deem and Ramdas Pophale) SiO2 
 PCOD9134976
Probable space group: C C
;
_chemical_formula_sum "Si O2"
_cell_formula_units_Z 32
_cell_length_a 7.243698
_cell_length_b 17.864693
_cell_length_c 10.976242
_cell_angle_alpha 90.000000
_cell_angle_beta 121.869798
_cell_angle_gamma 90.000000
_cell_volume 1206.271827
_symmetry_space_group_name_H-M "C C"
_symmetry_group_IT_number 9
_symmetry_cell_setting 'monoclinic'
loop_
_space_group_symop_operation_xyz
x,y,z
x,-y,1/2+z
1/2+x,1/2+y,z
1/2+x,1/2-y,1/2+z
loop_
_atom_site_type_symbol
_atom_site_label
_atom_site_fract_x
_atom_site_fract_y
_atom_site_fract_z
Si Si1 0.085510 0.747848 0.061170
Si Si2 0.124524 0.472453 0.494546
Si Si3 0.874846 0.378884 0.831737
Si Si4 0.928368 0.066930 0.751870
Si Si5 0.746729 0.539278 0.057910
Si Si6 0.330951 0.109765 0.734794
Si Si7 0.187179 0.286875 0.096877
Si Si8 0.997591 0.197528 0.263972
O O1 0.259861 0.815182 0.142657
O O2 0.247265 0.679475 0.147167
O O3 0.891471 0.756218 0.089762
O O4 0.008231 0.757541 0.895839
O O5 0.032007 0.550197 0.404101
O O6 0.949498 0.457217 0.538405
O O7 0.066725 0.408811 0.374364
O O8 0.344789 0.499298 0.637010
O O9 0.784557 0.394107 0.665856
O O10 0.655346 0.373891 0.835346
O O11 0.010267 0.308059 0.930882
O O12 0.754963 0.133777 0.681697
O O13 0.148868 0.103225 0.776213
O O14 0.010475 0.042936 0.912721
O O15 0.774537 0.459756 0.130557
O O16 0.101499 0.236599 0.178776
#
# Coordination Sequence:
#
# PCOD9134976 Si02
#       8
#     4   4   4   4   4   4   4   4
#     4  11  26  45  69 100 135 188 244 291 357 419
#     4   9  19  39  64  95 134 178 220 278 357 419
#     4  10  22  42  65  97 140 181 227 296 355 415
#     4   9  20  37  62  98 131 180 221 282 348 410
#     4  10  20  35  67  98 129 178 223 277 346 418
#     4   9  20  41  59  93 136 169 225 286 341 423
#     4  10  24  46  68  94 144 180 234 297 349 419
#     4  12  25  45  68  99 133 190 234 295 351 417
#
# _framework density 26.528017999999999
#
# number of rings (size 3 to 8) (size 9 to 14) (size 15 to 20)
#    0.000    2.000    1.250    0.750    5.250    4.000 
#    4.500    2.500    0.000    0.000    0.000    0.000 
#    0.000    0.000    0.000    0.000    0.000    0.000 
#
# Total GULP energy -89413.532787 kJ/mol
# GULP energy per Si atom -5588.345799 kJ/mol
# Density = 2.646764 g / cm^3
# Si number density = 26.528018 Si / 1000 Ang^3
#
#
#
# Elastic Constant Matrix: (Units=GPa)
#
#
# Indices 1 2 3 4 5 6 
#
# 1 279.1389 97.3999 188.5040 0.0000 -25.1441 0.0000
# 2 97.3999 111.5546 108.1075 0.0000 -11.9841 0.0000
# 3 188.5040 108.1075 337.5834 0.0000 -9.5013 0.0000
# 4 0.0000 0.0000 0.0000 26.0465 0.0000 -4.5041
# 5 -25.1441 -11.9841 -9.5013 0.0000 53.5332 0.0000
# 6 0.0000 0.0000 0.0000 -4.5041 0.0000 42.8705
#
#
#
# Elastic Compliance Matrix: (Units=1/GPa)
#
#
# Indices 1 2 3 4 5 6 
#
# 1 0.006604 -0.002950 -0.002687 0.000000 0.001964 0.000000
# 2 -0.002950 0.014575 -0.002982 0.000000 0.001348 0.000000
# 3 -0.002687 -0.002982 0.005390 0.000000 -0.000973 0.000000
# 4 0.000000 0.000000 0.000000 0.039103 0.000000 0.004108
# 5 0.001964 0.001348 -0.000973 0.000000 0.019732 0.000000
# 6 0.000000 0.000000 0.000000 0.004108 0.000000 0.023758
#
#
# Mechanical properties :
#
#
# Convention : Reuss Voigt Hill
#
# Bulk Modulus (GPa) = 107.18778 168.47773 137.83276
# Shear Modulus (GPa) = 38.60680 46.77440 42.69060
#
# Velocity S-wave (km/s) = 3.81901 4.20361 4.01592
# Velocity P-wave (km/s) = 7.74207 9.33851 8.57751
#
# Compressibility (1/GPa) = 0.00932942
#
# Stress axis : x y z
#
# Youngs Moduli (GPa) = 151.43232 68.61069 185.51647
#
# Poissons Ratio (x) = 0.20243 0.49853
# Poissons Ratio (y) = 0.44680 0.55322
# Poissons Ratio (z) = 0.40694 0.20460
#
# Static dielectric constant tensor:
#      x y z
#    x 2.010710 0.000000 0.075200 
#    y 0.000000 2.289870 0.000000 
#    z 0.075200 0.000000 2.120180 
# 
# From -- ./inp_files/15488.got.cif
#   From: 2010.05.17/outbox.cif.g08.bks.cpg/sg9_8_cif.got.tgz:15488.got - 2010.06.03 20:04:27.
