data_PCOD9134155
_publ_section_title
;
Structure prediction by ZEFSAII (Michael W. Deem and Ramdas Pophale) SiO2 
 PCOD9134155
Probable space group: C C
;
_chemical_formula_sum "Si O2"
_cell_formula_units_Z 28
_cell_length_a 12.532830
_cell_length_b 12.761575
_cell_length_c 13.947811
_cell_angle_alpha 90.000000
_cell_angle_beta 137.954224
_cell_angle_gamma 90.000000
_cell_volume 1494.016595
_symmetry_space_group_name_H-M "C C"
_symmetry_group_IT_number 9
_symmetry_cell_setting 'monoclinic'
loop_
_space_group_symop_operation_xyz
x,y,z
x,-y,1/2+z
1/2+x,1/2+y,z
1/2+x,1/2-y,1/2+z
loop_
_atom_site_type_symbol
_atom_site_label
_atom_site_fract_x
_atom_site_fract_y
_atom_site_fract_z
Si Si1 0.491830 0.528837 0.114550
Si Si2 0.933847 0.208965 0.562144
Si Si3 0.996774 0.940097 0.842218
Si Si4 0.299096 0.240793 0.781472
Si Si5 0.283663 0.963333 0.177171
Si Si6 0.950115 0.156631 0.910835
Si Si7 0.326276 0.812460 0.681754
O O1 0.406696 0.416103 0.046619
O O2 0.507682 0.559130 0.235213
O O3 0.663659 0.503969 0.181068
O O4 0.415895 0.618231 0.996317
O O5 0.819376 0.263766 0.409489
O O6 0.912812 0.252270 0.654077
O O7 0.110091 0.233805 0.639493
O O8 0.885410 0.845448 0.803408
O O9 0.928132 0.051813 0.832316
O O10 0.167804 0.934572 0.010633
O O11 0.368696 0.139268 0.773747
O O12 0.383276 0.066858 0.220725
O O13 0.855910 0.251638 0.800583
O O14 0.137868 0.184916 0.033188
#
# Coordination Sequence:
#
# PCOD9134155 Si02
#       7
#     4   4   4   4   4   4   4
#     4   9  18  36  59  83 108 159 186 220 294 342
#     4  11  20  34  65  85 108 150 196 236 268 341
#     4  10  18  38  60  81 113 154 186 232 287 339
#     4  11  20  39  55  89 114 144 193 235 284 333
#     4   9  22  37  59  83 115 149 193 232 283 343
#     4  10  20  38  59  86 115 147 191 238 278 341
#     4  10  20  38  59  87 115 149 191 231 288 331
#
# _framework density 18.741426000000001
#
# number of rings (size 3 to 8) (size 9 to 14) (size 15 to 20)
#    0.000    2.286    5.714    0.857    6.000    0.000 
#    7.714    0.000    3.143    0.000    0.000    0.000 
#    0.000    0.000    0.000    0.000    0.000    0.000 
#
# Total GULP energy -78007.936575 kJ/mol
# GULP energy per Si atom -5571.995470 kJ/mol
# Density = 1.869877 g / cm^3
# Si number density = 18.741426 Si / 1000 Ang^3
#
#
#
# Elastic Constant Matrix: (Units=GPa)
#
#
# Indices 1 2 3 4 5 6 
#
# 1 46.6940 22.5903 29.1535 0.0000 -31.1810 0.0000
# 2 22.5903 122.9748 46.9264 0.0000 -4.9912 0.0000
# 3 29.1535 46.9264 78.6489 0.0000 -30.9650 0.0000
# 4 0.0000 0.0000 0.0000 37.0617 0.0000 -4.9015
# 5 -31.1810 -4.9912 -30.9650 0.0000 35.9726 0.0000
# 6 0.0000 0.0000 0.0000 -4.9015 0.0000 16.8571
#
#
#
# Elastic Compliance Matrix: (Units=1/GPa)
#
#
# Indices 1 2 3 4 5 6 
#
# 1 0.060621 -0.011362 0.006618 0.000000 0.056667 0.000000
# 2 -0.011362 0.013580 -0.010629 0.000000 -0.017113 0.000000
# 3 0.006618 -0.010629 0.027653 0.000000 0.028066 0.000000
# 4 0.000000 0.000000 0.000000 0.028061 0.000000 0.008159
# 5 0.056667 -0.017113 0.028066 0.000000 0.098702 0.000000
# 6 0.000000 0.000000 0.000000 0.008159 0.000000 0.061695
#
#
# Mechanical properties :
#
#
# Convention : Reuss Voigt Hill
#
# Bulk Modulus (GPa) = 14.06264 49.51755 31.79009
# Shear Modulus (GPa) = 14.50284 27.95478 21.22881
#
# Velocity S-wave (km/s) = 2.78481 3.86632 3.36924
# Velocity P-wave (km/s) = 4.22611 6.81249 5.66878
#
# Compressibility (1/GPa) = 0.07111040
#
# Stress axis : x y z
#
# Youngs Moduli (GPa) = 16.49584 73.63674 36.16255
#
# Poissons Ratio (x) = 0.83663 -0.23934
# Poissons Ratio (y) = 0.18742 0.38437
# Poissons Ratio (z) = -0.10918 0.78267
#
# Static dielectric constant tensor:
#      x y z
#    x 1.646340 0.000000 -0.008630 
#    y 0.000000 1.693810 0.000000 
#    z -0.008630 0.000000 1.653410 
# 
# From -- ./inp_files/10613.got.cif
#   From: 2010.05.17/outbox.cif.g08.bks.cpg/sg9_6_cif.got.tgz:10613.got - 2010.06.03 20:04:27.
