data_PCOD9134164
_publ_section_title
;
Structure prediction by ZEFSAII (Michael W. Deem and Ramdas Pophale) SiO2 
 PCOD9134164
Probable space group: C C
;
_chemical_formula_sum "Si O2"
_cell_formula_units_Z 28
_cell_length_a 11.521943
_cell_length_b 13.765608
_cell_length_c 7.826030
_cell_angle_alpha 90.000000
_cell_angle_beta 121.977247
_cell_angle_gamma 90.000000
_cell_volume 1052.908987
_symmetry_space_group_name_H-M "C C"
_symmetry_group_IT_number 9
_symmetry_cell_setting 'monoclinic'
loop_
_space_group_symop_operation_xyz
x,y,z
x,-y,1/2+z
1/2+x,1/2+y,z
1/2+x,1/2-y,1/2+z
loop_
_atom_site_type_symbol
_atom_site_label
_atom_site_fract_x
_atom_site_fract_y
_atom_site_fract_z
Si Si1 0.843900 0.653843 0.457890
Si Si2 0.264423 0.679617 0.102299
Si Si3 0.832043 0.282378 0.500461
Si Si4 0.198001 0.529813 0.293174
Si Si5 0.633325 0.160433 0.556024
Si Si6 0.982924 0.116957 0.485875
Si Si7 0.288950 0.953734 0.253882
O O1 0.747089 0.742679 0.440771
O O2 0.800990 0.567268 0.299984
O O3 0.866400 0.594489 0.654007
O O4 0.984650 0.695914 0.493982
O O5 0.255770 0.744327 0.268565
O O6 0.177974 0.587019 0.095564
O O7 0.359981 0.452033 0.957933
O O8 0.740543 0.242885 0.583261
O O9 0.966530 0.214537 0.588503
O O10 0.840662 0.394789 0.462000
O O11 0.121289 0.590302 0.378576
O O12 0.423913 0.645333 0.251291
O O13 0.178186 0.417489 0.235956
O O14 0.128203 0.068389 0.600884
#
# Coordination Sequence:
#
# PCOD9134164 Si02
#       7
#     4   4   4   4   4   4   4
#     4  11  22  37  63 102 131 167 207 274 334 378
#     4   6  16  39  57  88 119 169 208 242 326 380
#     4   7  18  38  61  85 120 173 210 251 318 378
#     4   8  18  36  67  91 119 166 216 265 312 374
#     4  10  18  38  63  99 123 158 222 265 309 394
#     4   7  17  39  65  83 122 170 212 248 331 378
#     4  11  21  41  62  96 134 167 209 273 330 386
#
# _framework density 26.592991000000001
#
# number of rings (size 3 to 8) (size 9 to 14) (size 15 to 20)
#    1.714    1.714    0.000    0.857    0.000    2.286 
#   12.857    2.857    6.286    0.000    0.000    0.000 
#    0.000    0.000    0.000    0.000    0.000    0.000 
#
# Total GULP energy -78063.802480 kJ/mol
# GULP energy per Si atom -5575.985891 kJ/mol
# Density = 2.653246 g / cm^3
# Si number density = 26.592991 Si / 1000 Ang^3
#
#
#
# Elastic Constant Matrix: (Units=GPa)
#
#
# Indices 1 2 3 4 5 6 
#
# 1 115.5902 -0.6617 21.1426 0.0000 1.9488 0.0000
# 2 -0.6617 143.2766 9.6223 0.0000 -11.8582 0.0000
# 3 21.1426 9.6223 63.6787 0.0000 -24.6217 0.0000
# 4 0.0000 0.0000 0.0000 46.1562 0.0000 -4.7662
# 5 1.9488 -11.8582 -24.6217 0.0000 54.0568 0.0000
# 6 0.0000 0.0000 0.0000 -4.7662 0.0000 16.2295
#
#
#
# Elastic Compliance Matrix: (Units=1/GPa)
#
#
# Indices 1 2 3 4 5 6 
#
# 1 0.009413 0.000135 -0.003963 0.000000 -0.002115 0.000000
# 2 0.000135 0.007128 -0.000630 0.000000 0.001272 0.000000
# 3 -0.003963 -0.000630 0.020776 0.000000 0.009468 0.000000
# 4 0.000000 0.000000 0.000000 0.022343 0.000000 0.006562
# 5 -0.002115 0.001272 0.009468 0.000000 0.023167 0.000000
# 6 0.000000 0.000000 0.000000 0.006562 0.000000 0.063543
#
#
# Mechanical properties :
#
#
# Convention : Reuss Voigt Hill
#
# Bulk Modulus (GPa) = 35.21311 42.52800 38.87056
# Shear Modulus (GPa) = 30.34861 42.78467 36.56664
#
# Velocity S-wave (km/s) = 3.38187 4.01542 3.71219
# Velocity P-wave (km/s) = 5.34038 6.12577 5.74651
#
# Compressibility (1/GPa) = 0.02839851
#
# Stress axis : x y z
#
# Youngs Moduli (GPa) = 106.24056 140.29781 48.13343
#
# Poissons Ratio (x) = -0.01888 0.19077
# Poissons Ratio (y) = -0.01430 0.03032
# Poissons Ratio (z) = 0.42106 0.08839
#
# Static dielectric constant tensor:
#      x y z
#    x 2.026770 0.000000 0.008390 
#    y 0.000000 2.174430 0.000000 
#    z 0.008390 0.000000 2.337070 
# 
# From -- ./inp_files/7295.got.cif
#   From: 2010.05.17/outbox.cif.g08.bks.cpg/sg9_4_cif.got.tgz:7295.got - 2010.06.03 20:04:27.
