data_PCOD9134483
_publ_section_title
;
Structure prediction by ZEFSAII (Michael W. Deem and Ramdas Pophale) SiO2 
 PCOD9134483
Probable space group: C C
;
_chemical_formula_sum "Si O2"
_cell_formula_units_Z 32
_cell_length_a 5.597207
_cell_length_b 18.146932
_cell_length_c 13.143133
_cell_angle_alpha 90.000000
_cell_angle_beta 79.825560
_cell_angle_gamma 90.000000
_cell_volume 1313.982922
_symmetry_space_group_name_H-M "C C"
_symmetry_group_IT_number 9
_symmetry_cell_setting 'monoclinic'
loop_
_space_group_symop_operation_xyz
x,y,z
x,-y,1/2+z
1/2+x,1/2+y,z
1/2+x,1/2-y,1/2+z
loop_
_atom_site_type_symbol
_atom_site_label
_atom_site_fract_x
_atom_site_fract_y
_atom_site_fract_z
Si Si1 0.437350 0.946677 0.681280
Si Si2 0.077715 0.773982 0.512944
Si Si3 0.570021 0.446501 0.084548
Si Si4 0.928532 0.274100 0.252843
Si Si5 0.924841 0.284385 0.747422
Si Si6 0.365464 0.576357 0.986587
Si Si7 0.642068 0.923617 0.279362
Si Si8 0.581433 0.715759 0.518153
O O1 0.358134 0.869649 0.735058
O O2 0.650923 0.922089 0.587130
O O3 0.253830 0.000154 0.632936
O O4 0.531771 0.996208 0.767354
O O5 0.068608 0.862318 0.499311
O O6 0.836776 0.751241 0.471227
O O7 0.002970 0.749768 0.632814
O O8 0.336957 0.736258 0.475430
O O9 0.475955 0.496195 0.998548
O O10 0.356380 0.421947 0.178723
O O11 0.648676 0.369451 0.030698
O O12 0.169319 0.250963 0.294371
O O13 0.938468 0.362381 0.266886
O O14 0.669132 0.236404 0.290106
O O15 0.002924 0.250152 0.632732
O O16 0.253911 0.585141 0.882938
#
# Coordination Sequence:
#
# PCOD9134483 Si02
#       8
#     4   4   4   4   4   4   4   4
#     4  11  23  41  69  94 138 186 226 285 351 418
#     4  10  19  39  65  95 124 169 221 276 342 407
#     4  11  23  41  69  94 138 186 226 285 351 418
#     4  10  19  39  65  95 124 169 221 276 342 407
#     4  10  19  36  68  93 122 168 222 269 340 408
#     4  11  25  42  65 100 135 181 235 289 346 416
#     4  11  25  42  65 100 135 181 235 289 346 416
#     4  10  19  36  68  93 122 168 222 269 340 408
#
# _framework density 24.353435000000001
#
# number of rings (size 3 to 8) (size 9 to 14) (size 15 to 20)
#    0.000    1.500    5.000    3.000    3.500    1.000 
#    0.000    2.500    0.000    0.000    0.000    0.000 
#    0.000    0.000    0.000    0.000    0.000    0.000 
#
# Total GULP energy -89375.306540 kJ/mol
# GULP energy per Si atom -5585.956659 kJ/mol
# Density = 2.429801 g / cm^3
# Si number density = 24.353435 Si / 1000 Ang^3
#
#
#
# Elastic Constant Matrix: (Units=GPa)
#
#
# Indices 1 2 3 4 5 6 
#
# 1 167.3997 22.7478 43.3840 0.0000 3.7289 0.0000
# 2 22.7478 155.7845 24.9063 0.0000 6.5457 0.0000
# 3 43.3840 24.9063 111.6868 0.0000 28.3318 0.0000
# 4 0.0000 0.0000 0.0000 -12.0285 0.0000 29.6337
# 5 3.7289 6.5457 28.3318 0.0000 57.5965 0.0000
# 6 0.0000 0.0000 0.0000 29.6337 0.0000 39.3575
#
#
#
# Elastic Compliance Matrix: (Units=1/GPa)
#
#
# Indices 1 2 3 4 5 6 
#
# 1 0.006741 -0.000588 -0.002735 0.000000 0.000976 0.000000
# 2 -0.000588 0.006708 -0.001238 0.000000 -0.000115 0.000000
# 3 -0.002735 -0.001238 0.011667 0.000000 -0.005421 0.000000
# 4 0.000000 0.000000 0.000000 -0.029120 0.000000 0.021925
# 5 0.000976 -0.000115 -0.005421 0.000000 0.019979 0.000000
# 6 0.000000 0.000000 0.000000 0.021925 0.000000 0.008900
#
#
# Mechanical properties :
#
#
# Convention : Reuss Voigt Hill
#
# Bulk Modulus (GPa) = 62.52437 68.54968 65.53702
# Shear Modulus (GPa) = 127.13719 39.90728 83.52224
#
# Velocity S-wave (km/s) = 7.23314 4.05244 5.86262
# Velocity P-wave (km/s) = 9.77176 7.07851 8.53208
#
# Compressibility (1/GPa) = 0.01599376
#
# Stress axis : x y z
#
# Youngs Moduli (GPa) = 148.35374 149.08037 85.70983
#
# Poissons Ratio (x) = 0.08767 0.23439
# Poissons Ratio (y) = 0.08724 0.10613
# Poissons Ratio (z) = 0.40571 0.18459
#
# Static dielectric constant tensor:
#      x y z
#    x 1.924310 0.000000 -0.033550 
#    y 0.000000 1.916540 0.000000 
#    z -0.033550 0.000000 1.955270 
# 
# From -- ./inp_files/21975.got.cif
#   From: 2010.05.17/outbox.cif.g08.bks.cpg/sg9_11_cif.got.tgz:21975.got - 2010.06.03 20:04:27.
