data_PCOD9134471
_publ_section_title
;
Structure prediction by ZEFSAII (Michael W. Deem and Ramdas Pophale) SiO2 
 PCOD9134471
Probable space group: C C
;
_chemical_formula_sum "Si O2"
_cell_formula_units_Z 32
_cell_length_a 15.185588
_cell_length_b 10.633391
_cell_length_c 8.915458
_cell_angle_alpha 90.000000
_cell_angle_beta 116.971937
_cell_angle_gamma 90.000000
_cell_volume 1283.028361
_symmetry_space_group_name_H-M "C C"
_symmetry_group_IT_number 9
_symmetry_cell_setting 'monoclinic'
loop_
_space_group_symop_operation_xyz
x,y,z
x,-y,1/2+z
1/2+x,1/2+y,z
1/2+x,1/2-y,1/2+z
loop_
_atom_site_type_symbol
_atom_site_label
_atom_site_fract_x
_atom_site_fract_y
_atom_site_fract_z
Si Si1 0.426390 0.712165 0.000000
Si Si2 0.279769 0.166665 0.618061
Si Si3 0.599528 0.628037 0.001466
Si Si4 0.446445 0.413011 0.800292
Si Si5 0.217678 0.039297 0.836714
Si Si6 0.268370 0.579947 0.707123
Si Si7 0.072907 0.317549 0.512392
Si Si8 0.626193 0.971892 0.835731
O O1 0.370791 0.781571 0.093057
O O2 0.450195 0.591303 0.122426
O O3 0.533286 0.744187 0.013721
O O4 0.344165 0.690287 0.809531
O O5 0.296463 0.113363 0.797307
O O6 0.181242 0.253861 0.559664
O O7 0.253388 0.048777 0.495484
O O8 0.515595 0.528303 0.894467
O O9 0.654600 0.639446 0.884940
O O10 0.662339 0.558655 0.180651
O O11 0.335402 0.453386 0.755236
O O12 0.495224 0.293310 0.919722
O O13 0.191829 0.562986 0.781376
O O14 0.206744 0.591604 0.508501
O O15 0.073350 0.378356 0.678505
O O16 0.061526 0.435180 0.389217
#
# Coordination Sequence:
#
# PCOD9134471 Si02
#       8
#     4   4   4   4   4   4   4   4
#     4  11  20  36  64  98 139 173 227 295 355 406
#     4  11  22  42  65  97 140 188 227 301 350 420
#     4  10  19  36  64 100 127 171 227 296 340 413
#     4  11  20  35  67  95 131 176 224 296 352 393
#     4  10  20  40  67  94 135 176 238 279 357 420
#     4  10  19  37  64  97 132 173 239 288 347 415
#     4  11  21  41  65  97 140 186 230 292 361 411
#     4  10  21  39  66  96 136 187 234 281 346 444
#
# _framework density 24.940992000000001
#
# number of rings (size 3 to 8) (size 9 to 14) (size 15 to 20)
#    0.000    1.500    6.250    0.750    0.000    0.000 
#    4.500    2.500    0.000    0.000    0.000    0.000 
#    0.000    0.000    0.000    0.000    0.000    0.000 
#
# Total GULP energy -89277.817727 kJ/mol
# GULP energy per Si atom -5579.863608 kJ/mol
# Density = 2.488423 g / cm^3
# Si number density = 24.940992 Si / 1000 Ang^3
#
#
#
# Elastic Constant Matrix: (Units=GPa)
#
#
# Indices 1 2 3 4 5 6 
#
# 1 82.3188 28.6389 55.4710 0.0000 -19.3275 0.0000
# 2 28.6389 68.2463 39.9945 0.0000 3.4850 0.0000
# 3 55.4710 39.9945 131.4190 0.0000 -28.4884 0.0000
# 4 0.0000 0.0000 0.0000 41.0424 0.0000 1.2323
# 5 -19.3275 3.4850 -28.4884 0.0000 40.1373 0.0000
# 6 0.0000 0.0000 0.0000 1.2323 0.0000 37.8269
#
#
#
# Elastic Compliance Matrix: (Units=1/GPa)
#
#
# Indices 1 2 3 4 5 6 
#
# 1 0.018747 -0.005209 -0.005050 0.000000 0.005895 0.000000
# 2 -0.005209 0.020780 -0.005980 0.000000 -0.008557 0.000000
# 3 -0.005050 -0.005980 0.013173 0.000000 0.007437 0.000000
# 4 0.000000 0.000000 0.000000 0.024389 0.000000 -0.000795
# 5 0.005895 -0.008557 0.007437 0.000000 0.033775 0.000000
# 6 0.000000 0.000000 0.000000 -0.000795 0.000000 0.026462
#
#
# Mechanical properties :
#
#
# Convention : Reuss Voigt Hill
#
# Bulk Modulus (GPa) = 49.45030 58.91034 54.18032
# Shear Modulus (GPa) = 28.32131 34.32663 31.32397
#
# Velocity S-wave (km/s) = 3.37342 3.71389 3.54775
# Velocity P-wave (km/s) = 5.91974 6.48551 6.20907
#
# Compressibility (1/GPa) = 0.02022232
#
# Stress axis : x y z
#
# Youngs Moduli (GPa) = 53.34172 48.12252 75.91242
#
# Poissons Ratio (x) = 0.25065 0.38335
# Poissons Ratio (y) = 0.27784 0.45399
# Poissons Ratio (z) = 0.26937 0.28780
#
# Static dielectric constant tensor:
#      x y z
#    x 2.104400 0.000000 0.037530 
#    y 0.000000 2.403690 0.000000 
#    z 0.037530 0.000000 1.971440 
# 
# From -- ./inp_files/9284.got.cif
#   From: 2010.05.17/outbox.cif.g08.bks.cpg/sg9_5_cif.got.tgz:9284.got - 2010.06.03 20:04:27.
