data_PCOD9134069
_publ_section_title
;
Structure prediction by ZEFSAII (Michael W. Deem and Ramdas Pophale) SiO2 
 PCOD9134069
Probable space group: C C
;
_chemical_formula_sum "Si O2"
_cell_formula_units_Z 32
_cell_length_a 18.864018
_cell_length_b 7.589216
_cell_length_c 22.421920
_cell_angle_alpha 90.000000
_cell_angle_beta 25.481870
_cell_angle_gamma 90.000000
_cell_volume 1381.020210
_symmetry_space_group_name_H-M "C C"
_symmetry_group_IT_number 9
_symmetry_cell_setting 'monoclinic'
loop_
_space_group_symop_operation_xyz
x,y,z
x,-y,1/2+z
1/2+x,1/2+y,z
1/2+x,1/2-y,1/2+z
loop_
_atom_site_type_symbol
_atom_site_label
_atom_site_fract_x
_atom_site_fract_y
_atom_site_fract_z
Si Si1 0.297840 0.065131 0.832760
Si Si2 0.238000 0.054490 0.086705
Si Si3 0.977365 0.898185 0.208821
Si Si4 0.501937 0.857140 0.466804
Si Si5 0.515978 0.889985 0.280538
Si Si6 0.778978 0.030364 0.665951
Si Si7 0.133862 0.698211 0.988543
Si Si8 0.467642 0.704400 0.116512
O O1 0.436383 0.054517 0.778769
O O2 0.380464 0.123897 0.708873
O O3 0.190582 0.887666 0.917705
O O4 0.159545 0.212402 0.953912
O O5 0.108865 0.205126 0.202426
O O6 0.131810 0.906477 0.135345
O O7 0.360179 0.015248 0.048393
O O8 0.363173 0.127399 0.941609
O O9 0.808894 0.882529 0.372936
O O10 0.012864 0.743502 0.134096
O O11 0.967062 0.069847 0.174121
O O12 0.660105 0.867030 0.303608
O O13 0.413923 0.666202 0.537526
O O14 0.558500 0.901656 0.489896
O O15 0.651782 0.015446 0.209227
O O16 0.866828 0.880213 0.638064
#
# Coordination Sequence:
#
# PCOD9134069 Si02
#       8
#     4   4   4   4   4   4   4   4
#     4  11  21  37  61  88 121 155 201 247 303 350
#     4  10  20  35  60  88 120 151 203 246 294 360
#     4  11  21  38  58  90 122 153 200 251 300 356
#     4  10  18  35  61  87 114 157 197 243 299 358
#     4  10  18  35  61  85 116 154 194 244 300 348
#     4  10  20  35  60  85 121 152 200 248 300 356
#     4  11  21  37  61  90 121 156 199 252 300 357
#     4  11  21  38  58  89 121 156 200 251 296 353
#
# _framework density 23.171275000000001
#
# number of rings (size 3 to 8) (size 9 to 14) (size 15 to 20)
#    0.000    1.500    7.500    0.000    0.000    1.000 
#    4.500    0.000    5.500    0.000    0.000    0.000 
#    0.000    0.000    0.000    0.000    0.000    0.000 
#
# Total GULP energy -89389.075211 kJ/mol
# GULP energy per Si atom -5586.817201 kJ/mol
# Density = 2.311854 g / cm^3
# Si number density = 23.171275 Si / 1000 Ang^3
#
#
#
# Elastic Constant Matrix: (Units=GPa)
#
#
# Indices 1 2 3 4 5 6 
#
# 1 142.3339 24.1314 31.3780 -0.0010 -22.3511 0.0000
# 2 24.1314 44.4824 14.3343 -0.0011 4.9450 0.0007
# 3 31.3780 14.3343 84.2805 -0.0024 -8.9236 0.0006
# 4 -0.0010 -0.0011 -0.0024 32.5062 0.0004 -1.0541
# 5 -22.3511 4.9450 -8.9236 0.0004 30.2848 -0.0001
# 6 0.0000 0.0007 0.0006 -1.0541 -0.0001 30.7647
#
#
#
# Elastic Compliance Matrix: (Units=1/GPa)
#
#
# Indices 1 2 3 4 5 6 
#
# 1 0.009496 -0.005374 -0.001844 0.000000 0.007343 0.000000
# 2 -0.005374 0.027659 -0.003718 0.000001 -0.009578 -0.000001
# 3 -0.001844 -0.003718 0.013526 0.000001 0.003232 0.000000
# 4 0.000000 0.000001 0.000001 0.030798 0.000000 0.001055
# 5 0.007343 -0.009578 0.003232 0.000000 0.040955 0.000000
# 6 0.000000 -0.000001 0.000000 0.001055 0.000000 0.032541
#
#
# Mechanical properties :
#
#
# Convention : Reuss Voigt Hill
#
# Bulk Modulus (GPa) = 34.70972 45.64268 40.17620
# Shear Modulus (GPa) = 26.81696 32.12800 29.47248
#
# Velocity S-wave (km/s) = 3.40566 3.72767 3.57030
# Velocity P-wave (km/s) = 5.52058 6.18612 5.86280
#
# Compressibility (1/GPa) = 0.02881037
#
# Stress axis : x y z
#
# Youngs Moduli (GPa) = 105.30321 36.15503 73.93086
#
# Poissons Ratio (x) = 0.19429 0.13634
# Poissons Ratio (y) = 0.56587 0.27484
# Poissons Ratio (z) = 0.19419 0.13441
#
# Static dielectric constant tensor:
#      x y z
#    x 1.894440 0.000000 -0.021540 
#    y 0.000000 1.928910 0.000000 
#    z -0.021540 0.000000 1.839660 
# 
# From -- ./inp_files/21173.got.cif
#   From: 2010.05.17/outbox.cif.g08.bks.cpg/sg9_11_cif.got.tgz:21173.got - 2010.06.03 20:04:27.
