data_PCOD9134124
_publ_section_title
;
Structure prediction by ZEFSAII (Michael W. Deem and Ramdas Pophale) SiO2 
 PCOD9134124
Probable space group: C C
;
_chemical_formula_sum "Si O2"
_cell_formula_units_Z 32
_cell_length_a 9.961506
_cell_length_b 17.030610
_cell_length_c 9.708338
_cell_angle_alpha 90.000000
_cell_angle_beta 132.393260
_cell_angle_gamma 90.000000
_cell_volume 1216.384768
_symmetry_space_group_name_H-M "C C"
_symmetry_group_IT_number 9
_symmetry_cell_setting 'monoclinic'
loop_
_space_group_symop_operation_xyz
x,y,z
x,-y,1/2+z
1/2+x,1/2+y,z
1/2+x,1/2-y,1/2+z
loop_
_atom_site_type_symbol
_atom_site_label
_atom_site_fract_x
_atom_site_fract_y
_atom_site_fract_z
Si Si1 0.329470 0.660868 0.880640
Si Si2 0.703534 0.366257 0.131379
Si Si3 0.102696 0.907820 0.358737
Si Si4 0.283511 0.497826 0.510246
Si Si5 0.865450 0.468330 0.744065
Si Si6 0.962111 0.329955 0.954047
Si Si7 0.685713 0.161319 0.326761
Si Si8 0.982287 0.266651 0.442174
O O1 0.502226 0.643226 0.903225
O O2 0.323473 0.588710 0.982501
O O3 0.140754 0.654113 0.666967
O O4 0.360671 0.752427 0.934200
O O5 0.632073 0.361515 0.238709
O O6 0.734376 0.457440 0.143847
O O7 0.575464 0.312644 0.950779
O O8 0.893304 0.320006 0.265588
O O9 0.301839 0.930197 0.554732
O O10 0.950445 0.975206 0.222813
O O11 0.268853 0.573342 0.394616
O O12 0.071451 0.501525 0.410015
O O13 0.834837 0.406886 0.847522
O O14 0.044602 0.326890 0.854464
O O15 0.611089 0.179878 0.123806
O O16 0.836098 0.228690 0.445133
#
# Coordination Sequence:
#
# PCOD9134124 Si02
#       8
#     4   4   4   4   4   4   4   4
#     4  12  24  43  69 104 139 175 232 290 350 406
#     4  11  22  42  64 102 127 173 223 270 344 396
#     4  12  23  41  71 100 136 172 223 285 338 411
#     4  11  25  44  65 101 137 180 219 279 344 409
#     4  11  26  44  70  97 135 185 228 275 339 412
#     4  11  22  40  67  98 135 174 229 289 336 398
#     4  10  18  37  60  99 125 167 215 275 340 376
#     4  10  20  33  66  91 132 158 213 283 323 394
#
# _framework density 26.307466000000002
#
# number of rings (size 3 to 8) (size 9 to 14) (size 15 to 20)
#    0.000    1.000    3.750    5.250    3.500    0.000 
#    2.250    1.250    0.000    0.000    0.000    0.000 
#    0.000    0.000    0.000    0.000    0.000    0.000 
#
# Total GULP energy -89381.119844 kJ/mol
# GULP energy per Si atom -5586.319990 kJ/mol
# Density = 2.624759 g / cm^3
# Si number density = 26.307466 Si / 1000 Ang^3
#
#
#
# Elastic Constant Matrix: (Units=GPa)
#
#
# Indices 1 2 3 4 5 6 
#
# 1 73.1707 24.0558 -0.7807 0.0000 2.6619 0.0000
# 2 24.0558 174.6958 25.2275 0.0000 6.7808 0.0000
# 3 -0.7807 25.2275 102.8223 0.0000 26.7337 0.0000
# 4 0.0000 0.0000 0.0000 27.5951 0.0000 20.5341
# 5 2.6619 6.7808 26.7337 0.0000 15.6619 0.0000
# 6 0.0000 0.0000 0.0000 20.5341 0.0000 24.9719
#
#
#
# Elastic Compliance Matrix: (Units=1/GPa)
#
#
# Indices 1 2 3 4 5 6 
#
# 1 0.014545 -0.002087 0.001852 0.000000 -0.004730 0.000000
# 2 -0.002087 0.006234 -0.001683 0.000000 0.000528 0.000000
# 3 0.001852 -0.001683 0.018060 0.000000 -0.030413 0.000000
# 4 0.000000 0.000000 0.000000 0.093369 0.000000 -0.076777
# 5 -0.004730 0.000528 -0.030413 0.000000 0.116337 0.000000
# 6 0.000000 0.000000 0.000000 -0.076777 0.000000 0.103178
#
#
# Mechanical properties :
#
#
# Convention : Reuss Voigt Hill
#
# Bulk Modulus (GPa) = 28.56790 49.74378 39.15584
# Shear Modulus (GPa) = 13.61565 33.79153 23.70359
#
# Velocity S-wave (km/s) = 2.27746 3.58786 3.00496
# Velocity P-wave (km/s) = 4.21884 6.00943 5.19191
#
# Compressibility (1/GPa) = 0.03500432
#
# Stress axis : x y z
#
# Youngs Moduli (GPa) = 68.75434 160.40892 55.37190
#
# Poissons Ratio (x) = 0.33472 -0.10256
# Poissons Ratio (y) = 0.14347 0.09317
# Poissons Ratio (z) = -0.12735 0.26990
#
# Static dielectric constant tensor:
#      x y z
#    x 2.157620 0.000000 0.066840 
#    y 0.000000 2.185940 0.000000 
#    z 0.066840 0.000000 2.074610 
# 
# From -- ./inp_files/17041.got.cif
#   From: 2010.05.17/outbox.cif.g08.bks.cpg/sg9_9_cif.got.tgz:17041.got - 2010.06.03 20:04:27.
