data_PCOD9134287
_publ_section_title
;
Structure prediction by ZEFSAII (Michael W. Deem and Ramdas Pophale) SiO2 
 PCOD9134287
Probable space group: C C
;
_chemical_formula_sum "Si O2"
_cell_formula_units_Z 28
_cell_length_a 15.722312
_cell_length_b 17.654083
_cell_length_c 8.738098
_cell_angle_alpha 90.000000
_cell_angle_beta 25.651138
_cell_angle_gamma 90.000000
_cell_volume 1049.920769
_symmetry_space_group_name_H-M "C C"
_symmetry_group_IT_number 9
_symmetry_cell_setting 'monoclinic'
loop_
_space_group_symop_operation_xyz
x,y,z
x,-y,1/2+z
1/2+x,1/2+y,z
1/2+x,1/2-y,1/2+z
loop_
_atom_site_type_symbol
_atom_site_label
_atom_site_fract_x
_atom_site_fract_y
_atom_site_fract_z
Si Si1 0.114680 0.030629 0.390230
Si Si2 0.080416 0.780057 0.489728
Si Si3 0.112773 0.393808 0.952323
Si Si4 0.749045 0.173054 0.713561
Si Si5 0.082201 0.108225 0.760730
Si Si6 0.147642 0.540072 0.069718
Si Si7 0.149804 0.816576 0.702268
O O1 0.152932 0.061691 0.497370
O O2 0.205226 0.097122 0.140671
O O3 0.881207 0.028657 0.724822
O O4 0.163942 0.945453 0.265887
O O5 0.029153 0.691567 0.594920
O O6 0.149171 0.809029 0.213985
O O7 0.208495 0.793023 0.434119
O O8 0.911657 0.819033 0.079190
O O9 0.350826 0.383996 0.589304
O O10 0.066040 0.458840 0.152020
O O11 0.072004 0.426494 0.850276
O O12 0.627915 0.100465 0.961511
O O13 0.668419 0.255369 0.806454
O O14 0.890287 0.165529 0.334584
#
# Coordination Sequence:
#
# PCOD9134287 Si02
#       7
#     4   4   4   4   4   4   4
#     4   9  18  32  55  83 108 153 193 250 284 346
#     4  10  21  32  55  86 118 151 184 248 291 350
#     4  10  21  34  58  87 115 153 201 248 290 343
#     4   9  20  35  58  82 116 149 196 235 297 344
#     4  10  19  33  54  82 118 144 202 238 293 352
#     4   9  20  34  57  84 115 151 201 241 291 350
#     4   9  19  34  57  82 114 153 193 236 298 345
#
# _framework density 26.668679000000001
#
# number of rings (size 3 to 8) (size 9 to 14) (size 15 to 20)
#    0.857    1.714    0.000    1.714   10.000    0.000 
#    0.000    0.000    0.000   10.286    0.000    0.000 
#    0.000    0.000    0.000    0.000    0.000    0.000 
#
# Total GULP energy -78040.828306 kJ/mol
# GULP energy per Si atom -5574.344879 kJ/mol
# Density = 2.660798 g / cm^3
# Si number density = 26.668679 Si / 1000 Ang^3
#
#
#
# Elastic Constant Matrix: (Units=GPa)
#
#
# Indices 1 2 3 4 5 6 
#
# 1 102.9878 73.5845 33.2460 0.0006 23.3454 0.0011
# 2 73.5845 169.3018 39.8127 -0.0128 23.6863 0.0092
# 3 33.2460 39.8127 50.1372 -0.0283 16.6244 0.0170
# 4 0.0006 -0.0128 -0.0283 37.3926 0.0143 4.7219
# 5 23.3454 23.6863 16.6244 0.0143 37.4612 -0.0097
# 6 0.0011 0.0092 0.0170 4.7219 -0.0097 60.6719
#
#
#
# Elastic Compliance Matrix: (Units=1/GPa)
#
#
# Indices 1 2 3 4 5 6 
#
# 1 0.016044 -0.005156 -0.005054 -0.000004 -0.004496 0.000002
# 2 -0.005156 0.009106 -0.003480 0.000001 -0.001000 -0.000001
# 3 -0.005054 -0.003480 0.028477 0.000025 -0.007287 -0.000010
# 4 -0.000004 0.000001 0.000025 0.027009 -0.000020 -0.002102
# 5 -0.004496 -0.001000 -0.007287 -0.000020 0.033362 0.000009
# 6 0.000002 -0.000001 -0.000010 -0.002102 0.000009 0.016646
#
#
# Mechanical properties :
#
#
# Convention : Reuss Voigt Hill
#
# Bulk Modulus (GPa) = 38.10095 68.41258 53.25677
# Shear Modulus (GPa) = 29.98088 38.82404 34.40246
#
# Velocity S-wave (km/s) = 3.35654 3.81962 3.59555
# Velocity P-wave (km/s) = 5.41661 6.72021 6.10331
#
# Compressibility (1/GPa) = 0.02624606
#
# Stress axis : x y z
#
# Youngs Moduli (GPa) = 62.32668 109.81886 35.11666
#
# Poissons Ratio (x) = 0.56623 0.17748
# Poissons Ratio (y) = 0.32136 0.12222
# Poissons Ratio (z) = 0.31501 0.38220
#
# Static dielectric constant tensor:
#      x y z
#    x 2.228710 0.000020 -0.185300 
#    y 0.000020 2.055670 0.000000 
#    z -0.185300 0.000000 2.358210 
# 
# From -- ./inp_files/7713.got.cif
#   From: 2010.05.17/outbox.cif.g08.bks.cpg/sg9_4_cif.got.tgz:7713.got - 2010.06.03 20:04:27.
