data_PCOD9134584
_publ_section_title
;
Structure prediction by ZEFSAII (Michael W. Deem and Ramdas Pophale) SiO2 
 PCOD9134584
Probable space group: C C
;
_chemical_formula_sum "Si O2"
_cell_formula_units_Z 32
_cell_length_a 7.392153
_cell_length_b 17.189697
_cell_length_c 13.016019
_cell_angle_alpha 90.000000
_cell_angle_beta 126.194556
_cell_angle_gamma 90.000000
_cell_volume 1334.749346
_symmetry_space_group_name_H-M "C C"
_symmetry_group_IT_number 9
_symmetry_cell_setting 'monoclinic'
loop_
_space_group_symop_operation_xyz
x,y,z
x,-y,1/2+z
1/2+x,1/2+y,z
1/2+x,1/2-y,1/2+z
loop_
_atom_site_type_symbol
_atom_site_label
_atom_site_fract_x
_atom_site_fract_y
_atom_site_fract_z
Si Si1 0.923760 0.693537 0.980530
Si Si2 0.232823 0.979071 0.110684
Si Si3 0.253755 0.476954 0.058271
Si Si4 0.553865 0.880422 0.729228
Si Si5 0.592929 0.108012 0.858663
Si Si6 0.913444 0.006405 0.845659
Si Si7 0.660023 0.806045 0.034292
Si Si8 0.950328 0.778799 0.313721
O O1 0.362026 0.728375 0.527701
O O2 0.666289 0.665445 0.871824
O O3 0.042469 0.684991 0.909675
O O4 0.052334 0.644266 0.109416
O O5 0.348117 0.060922 0.175890
O O6 0.397451 0.913581 0.211654
O O7 0.994985 0.972652 0.084907
O O8 0.163827 0.986280 0.967091
O O9 0.329803 0.487032 0.201370
O O10 0.125365 0.395939 0.004204
O O11 0.108927 0.543008 0.954230
O O12 0.768399 0.930688 0.830121
O O13 0.522639 0.802077 0.781428
O O14 0.819518 0.084886 0.871502
O O15 0.733229 0.799594 0.177067
O O16 0.456941 0.750071 0.933269
#
# Coordination Sequence:
#
# PCOD9134584 Si02
#       8
#     4   4   4   4   4   4   4   4
#     4   9  19  33  60  82 113 160 202 246 311 364
#     4  10  22  31  58  88 121 155 204 257 307 367
#     4  11  21  37  58  92 122 161 205 259 316 370
#     4  10  19  38  53  90 122 154 205 265 299 359
#     4  10  20  38  56  88 127 160 203 260 313 362
#     4  10  22  34  59  88 125 157 203 264 311 369
#     4   9  19  31  54  88 108 152 198 250 292 374
#     4   9  18  32  56  82 112 149 206 247 291 377
#
# _framework density 23.974540999999999
#
# number of rings (size 3 to 8) (size 9 to 14) (size 15 to 20)
#    0.750    1.500    1.250    3.000    3.500    0.000 
#    0.000    0.000    0.000    3.000   32.500    0.000 
#    0.000    0.000    0.000    0.000    0.000    0.000 
#
# Total GULP energy -89073.919356 kJ/mol
# GULP energy per Si atom -5567.119960 kJ/mol
# Density = 2.391997 g / cm^3
# Si number density = 23.974541 Si / 1000 Ang^3
#
#
#
# Elastic Constant Matrix: (Units=GPa)
#
#
# Indices 1 2 3 4 5 6 
#
# 1 56.7669 7.9254 16.0114 0.0000 -1.7834 0.0000
# 2 7.9254 44.8900 15.2359 0.0000 -0.9893 0.0000
# 3 16.0114 15.2359 165.7863 0.0000 -7.0863 0.0000
# 4 0.0000 0.0000 0.0000 28.7517 0.0000 -1.4283
# 5 -1.7834 -0.9893 -7.0863 0.0000 26.1857 0.0000
# 6 0.0000 0.0000 0.0000 -1.4283 0.0000 17.6991
#
#
#
# Elastic Compliance Matrix: (Units=1/GPa)
#
#
# Indices 1 2 3 4 5 6 
#
# 1 0.018443 -0.002731 -0.001498 0.000000 0.000747 0.000000
# 2 -0.002731 0.023401 -0.001879 0.000000 0.000190 0.000000
# 3 -0.001498 -0.001879 0.006416 0.000000 0.001563 0.000000
# 4 0.000000 0.000000 0.000000 0.034921 0.000000 0.002818
# 5 0.000747 0.000190 0.001563 0.000000 0.038670 0.000000
# 6 0.000000 0.000000 0.000000 0.002818 0.000000 0.056727
#
#
# Mechanical properties :
#
#
# Convention : Reuss Voigt Hill
#
# Bulk Modulus (GPa) = 27.74408 38.42096 33.08252
# Shear Modulus (GPa) = 24.65380 29.74536 27.19958
#
# Velocity S-wave (km/s) = 3.21024 3.52619 3.37192
# Velocity P-wave (km/s) = 5.03372 5.71307 5.38412
#
# Compressibility (1/GPa) = 0.03604372
#
# Stress axis : x y z
#
# Youngs Moduli (GPa) = 54.22029 42.73382 155.85955
#
# Poissons Ratio (x) = 0.11671 0.23352
# Poissons Ratio (y) = 0.14809 0.29281
# Poissons Ratio (z) = 0.08124 0.08028
#
# Static dielectric constant tensor:
#      x y z
#    x 1.986160 0.000000 -0.083080 
#    y 0.000000 2.002100 0.000000 
#    z -0.083080 0.000000 2.013820 
# 
# From -- ./inp_files/23729.got.cif
#   From: 2010.05.17/outbox.cif.g08.bks.cpg/sg9_12_cif.got.tgz:23729.got - 2010.06.03 20:04:27.
