data_PCOD9134277
_publ_section_title
;
Structure prediction by ZEFSAII (Michael W. Deem and Ramdas Pophale) SiO2 
 PCOD9134277
Probable space group: C C
;
_chemical_formula_sum "Si O2"
_cell_formula_units_Z 32
_cell_length_a 14.093932
_cell_length_b 21.926800
_cell_length_c 8.901565
_cell_angle_alpha 90.000000
_cell_angle_beta 147.825329
_cell_angle_gamma 90.000000
_cell_volume 1464.856744
_symmetry_space_group_name_H-M "C C"
_symmetry_group_IT_number 9
_symmetry_cell_setting 'monoclinic'
loop_
_space_group_symop_operation_xyz
x,y,z
x,-y,1/2+z
1/2+x,1/2+y,z
1/2+x,1/2-y,1/2+z
loop_
_atom_site_type_symbol
_atom_site_label
_atom_site_fract_x
_atom_site_fract_y
_atom_site_fract_z
Si Si1 0.071440 0.956288 0.865910
Si Si2 0.198324 0.451560 0.195654
Si Si3 0.126341 0.666326 0.773541
Si Si4 0.612015 0.329854 0.486459
Si Si5 0.015060 0.468684 0.668812
Si Si6 0.859785 0.401625 0.056482
Si Si7 0.161388 0.075339 0.809965
Si Si8 0.861693 0.222506 0.872552
O O1 0.888928 0.949019 0.529913
O O2 0.142576 0.023093 0.913005
O O3 0.223620 0.909818 0.010732
O O4 0.049247 0.945841 0.013608
O O5 0.099984 0.389957 0.120864
O O6 0.092727 0.511932 0.112653
O O7 0.185336 0.455695 0.000769
O O8 0.317175 0.689904 0.971264
O O9 0.045996 0.635860 0.816535
O O10 0.012222 0.727308 0.602559
O O11 0.602538 0.363600 0.315284
O O12 0.696996 0.262263 0.589034
O O13 0.431476 0.323521 0.339883
O O14 0.745773 0.367548 0.774621
O O15 0.913446 0.530990 0.577867
O O16 0.862604 0.421108 0.512479
#
# Coordination Sequence:
#
# PCOD9134277 Si02
#       8
#     4   4   4   4   4   4   4   4
#     4  11  22  35  56  89 125 159 197 238 298 371
#     4  11  21  34  53  84 120 153 191 240 290 357
#     4   9  18  33  56  83 112 145 197 252 293 341
#     4  10  19  35  60  85 114 153 204 254 303 354
#     4  10  19  33  52  77 113 151 188 230 285 350
#     4   9  18  34  55  83 115 152 191 239 293 357
#     4  11  21  37  58  85 120 162 197 245 300 361
#     4   9  18  33  58  88 109 147 207 258 296 355
#
# _framework density 21.845139
#
# number of rings (size 3 to 8) (size 9 to 14) (size 15 to 20)
#    0.000    2.000    0.000    6.750    0.000    1.000 
#    0.000    0.000    0.000   12.000    0.000    0.000 
#    0.000    0.000    0.000    0.000    0.000    0.000 
#
# Total GULP energy -89075.411996 kJ/mol
# GULP energy per Si atom -5567.213250 kJ/mol
# Density = 2.179542 g / cm^3
# Si number density = 21.845139 Si / 1000 Ang^3
#
#
#
# Elastic Constant Matrix: (Units=GPa)
#
#
# Indices 1 2 3 4 5 6 
#
# 1 98.8403 37.2895 22.7984 0.0000 15.1172 0.0000
# 2 37.2895 55.0227 7.7859 0.0000 7.2493 0.0000
# 3 22.7984 7.7859 66.4623 0.0000 -5.1004 0.0000
# 4 0.0000 0.0000 0.0000 13.1804 0.0000 1.4069
# 5 15.1172 7.2493 -5.1004 0.0000 30.9689 0.0000
# 6 0.0000 0.0000 0.0000 1.4069 0.0000 46.6801
#
#
#
# Elastic Compliance Matrix: (Units=1/GPa)
#
#
# Indices 1 2 3 4 5 6 
#
# 1 0.015600 -0.009070 -0.004770 0.000000 -0.006277 0.000000
# 2 -0.009070 0.024468 0.000147 0.000000 -0.001276 0.000000
# 3 -0.004770 0.000147 0.017057 0.000000 0.005103 0.000000
# 4 0.000000 0.000000 0.000000 0.076115 0.000000 -0.002294
# 5 -0.006277 -0.001276 0.005103 0.000000 0.036494 0.000000
# 6 0.000000 0.000000 0.000000 -0.002294 0.000000 0.021492
#
#
# Mechanical properties :
#
#
# Convention : Reuss Voigt Hill
#
# Bulk Modulus (GPa) = 33.62676 39.56366 36.59521
# Shear Modulus (GPa) = 21.87950 28.32934 25.10442
#
# Velocity S-wave (km/s) = 3.16820 3.60505 3.39366
# Velocity P-wave (km/s) = 5.36749 5.95641 5.66960
#
# Compressibility (1/GPa) = 0.02973822
#
# Stress axis : x y z
#
# Youngs Moduli (GPa) = 64.10460 40.86900 58.62737
#
# Poissons Ratio (x) = 0.37068 0.27967
# Poissons Ratio (y) = 0.58142 -0.00861
# Poissons Ratio (z) = 0.30580 -0.00600
#
# Static dielectric constant tensor:
#      x y z
#    x 1.898290 0.000000 0.058410 
#    y 0.000000 1.830460 0.000000 
#    z 0.058410 0.000000 1.872120 
# 
# From -- ./inp_files/8434.got.cif
#   From: 2010.05.17/outbox.cif.g08.bks.cpg/sg9_5_cif.got.tgz:8434.got - 2010.06.03 20:04:27.
