data_PCOD9134504
_publ_section_title
;
Structure prediction by ZEFSAII (Michael W. Deem and Ramdas Pophale) SiO2 
 PCOD9134504
Probable space group: C C
;
_chemical_formula_sum "Si O2"
_cell_formula_units_Z 24
_cell_length_a 7.812710
_cell_length_b 22.947927
_cell_length_c 7.651956
_cell_angle_alpha 90.000000
_cell_angle_beta 39.840767
_cell_angle_gamma 90.000000
_cell_volume 878.906449
_symmetry_space_group_name_H-M "C C"
_symmetry_group_IT_number 9
_symmetry_cell_setting 'monoclinic'
loop_
_space_group_symop_operation_xyz
x,y,z
x,-y,1/2+z
1/2+x,1/2+y,z
1/2+x,1/2-y,1/2+z
loop_
_atom_site_type_symbol
_atom_site_label
_atom_site_fract_x
_atom_site_fract_y
_atom_site_fract_z
Si Si1 0.867610 0.268942 0.604930
Si Si2 0.473097 0.280472 0.417978
Si Si3 0.283846 0.000806 0.509831
Si Si4 0.275203 0.114577 0.317704
Si Si5 0.282711 0.423420 0.025004
Si Si6 0.322266 0.881172 0.160163
O O1 0.899485 0.339020 0.589531
O O2 0.058834 0.241508 0.315637
O O3 0.893110 0.232558 0.773330
O O4 0.742884 0.244354 0.215625
O O5 0.561400 0.344644 0.410977
O O6 0.326000 0.046326 0.312633
O O7 0.250796 0.051133 0.683169
O O8 0.017157 0.959979 0.735030
O O9 0.562288 0.965327 0.289457
O O10 0.366213 0.142092 0.429327
O O11 0.960667 0.111781 0.523905
O O12 0.089840 0.383268 0.060447
#
# Coordination Sequence:
#
# PCOD9134504 Si02
#       6
#     4   4   4   4   4   4
#     4  10  19  37  60  89 116 152 205 244 296 366
#     4  10  19  37  60  89 116 152 205 244 296 366
#     4  10  24  42  64  86 130 162 200 252 300 356
#     4  10  23  40  67  90 121 168 197 253 306 355
#     4  12  24  44  56  98 124 156 212 248 294 370
#     4  10  23  40  67  90 121 168 197 253 306 355
#
# _framework density 27.306660000000001
#
# number of rings (size 3 to 8) (size 9 to 14) (size 15 to 20)
#    1.000    0.667    3.333    2.000    0.000    8.000 
#    0.000    1.667    0.000    0.000    0.000    0.000 
#    0.000    0.000    0.000    0.000    0.000    0.000 
#
# Total GULP energy -66906.911333 kJ/mol
# GULP energy per Si atom -5575.575944 kJ/mol
# Density = 2.724451 g / cm^3
# Si number density = 27.306660 Si / 1000 Ang^3
#
#
#
# Elastic Constant Matrix: (Units=GPa)
#
#
# Indices 1 2 3 4 5 6 
#
# 1 123.7451 25.5935 30.2280 0.0000 -32.3716 0.0000
# 2 25.5935 167.7982 58.1719 0.0000 -7.3297 0.0000
# 3 30.2280 58.1719 171.2745 0.0000 -3.8973 0.0000
# 4 0.0000 0.0000 0.0000 57.8158 0.0000 -14.3061
# 5 -32.3716 -7.3297 -3.8973 0.0000 32.1645 0.0000
# 6 0.0000 0.0000 0.0000 -14.3061 0.0000 17.4622
#
#
#
# Elastic Compliance Matrix: (Units=1/GPa)
#
#
# Indices 1 2 3 4 5 6 
#
# 1 0.011559 -0.000739 -0.001532 0.000000 0.011279 0.000000
# 2 -0.000739 0.006854 -0.002185 0.000000 0.000553 0.000000
# 3 -0.001532 -0.002185 0.006823 0.000000 -0.001213 0.000000
# 4 0.000000 0.000000 0.000000 0.021694 0.000000 0.017773
# 5 0.011279 0.000553 -0.001213 0.000000 0.042421 0.000000
# 6 0.000000 0.000000 0.000000 0.017773 0.000000 0.071827
#
#
# Mechanical properties :
#
#
# Convention : Reuss Voigt Hill
#
# Bulk Modulus (GPa) = 61.26042 76.75606 69.00824
# Shear Modulus (GPa) = 28.48478 44.74346 36.61412
#
# Velocity S-wave (km/s) = 3.23328 4.05230 3.66573
# Velocity P-wave (km/s) = 6.03504 7.07565 6.57596
#
# Compressibility (1/GPa) = 0.01632375
#
# Stress axis : x y z
#
# Youngs Moduli (GPa) = 86.51309 145.90296 146.55308
#
# Poissons Ratio (x) = 0.10784 0.22457
# Poissons Ratio (y) = 0.06394 0.32019
# Poissons Ratio (z) = 0.13257 0.31877
#
# Static dielectric constant tensor:
#      x y z
#    x 2.308810 0.000000 0.045210 
#    y 0.000000 2.165640 0.000000 
#    z 0.045210 0.000000 2.115100 
# 
# From -- ./inp_files/768.got.cif
#   From: 2010.05.17/outbox.cif.g08.bks.cpg/sg9_1_cif.got.tgz:768.got - 2010.06.03 20:04:27.
