data_PCOD9134415
_publ_section_title
;
Structure prediction by ZEFSAII (Michael W. Deem and Ramdas Pophale) SiO2 
 PCOD9134415
Probable space group: C C
;
_chemical_formula_sum "Si O2"
_cell_formula_units_Z 28
_cell_length_a 9.928888
_cell_length_b 27.426514
_cell_length_c 7.857150
_cell_angle_alpha 90.000000
_cell_angle_beta 147.186644
_cell_angle_gamma 90.000000
_cell_volume 1159.467910
_symmetry_space_group_name_H-M "C C"
_symmetry_group_IT_number 9
_symmetry_cell_setting 'monoclinic'
loop_
_space_group_symop_operation_xyz
x,y,z
x,-y,1/2+z
1/2+x,1/2+y,z
1/2+x,1/2-y,1/2+z
loop_
_atom_site_type_symbol
_atom_site_label
_atom_site_fract_x
_atom_site_fract_y
_atom_site_fract_z
Si Si1 0.595330 0.821375 0.632290
Si Si2 0.959001 0.924546 0.386275
Si Si3 0.967955 0.622412 0.474401
Si Si4 0.004488 0.423082 0.393222
Si Si5 0.999352 0.027654 0.306031
Si Si6 0.653885 0.221466 0.817141
Si Si7 0.901622 0.759248 0.163058
O O1 0.515182 0.876869 0.530210
O O2 0.646593 0.802601 0.498347
O O3 0.408819 0.782778 0.524051
O O4 0.835354 0.809977 0.003973
O O5 0.683968 0.902285 0.092343
O O6 0.983352 0.948703 0.601461
O O7 0.987737 0.969488 0.289503
O O8 0.189120 0.887160 0.613550
O O9 0.976624 0.598726 0.672347
O O10 0.055821 0.677630 0.593441
O O11 0.262319 0.452472 0.659689
O O12 0.762319 0.455906 0.165217
O O13 0.441134 0.263024 0.600904
O O14 0.169156 0.756782 0.527295
#
# Coordination Sequence:
#
# PCOD9134415 Si02
#       7
#     4   4   4   4   4   4   4
#     4   9  16  23  35  54  88 118 160 175 220 274
#     4  10  19  36  50  70  97 129 166 196 254 279
#     4   9  19  30  46  66  98 133 157 198 241 297
#     4   9  19  27  44  66  91 124 165 192 239 279
#     4  10  20  33  50  70  90 131 157 206 242 293
#     4  11  17  25  39  62  92 129 155 185 226 292
#     4   8  14  20  30  48  72 118 140 172 206 266
#
# _framework density 24.149007999999998
#
# number of rings (size 3 to 8) (size 9 to 14) (size 15 to 20)
#    0.857    1.714    1.429    1.714    2.000    2.286 
#    0.000    0.000    0.000    0.000    0.000    0.000 
#    0.000    0.000   48.571    5.714    0.000    0.000 
#
# Total GULP energy -78223.337325 kJ/mol
# GULP energy per Si atom -5587.381238 kJ/mol
# Density = 2.409404 g / cm^3
# Si number density = 24.149008 Si / 1000 Ang^3
#
#
#
# Elastic Constant Matrix: (Units=GPa)
#
#
# Indices 1 2 3 4 5 6 
#
# 1 71.9895 29.4126 38.6249 0.0000 13.2689 0.0000
# 2 29.4126 69.8466 8.4035 0.0000 10.0217 0.0000
# 3 38.6249 8.4035 119.0631 0.0000 20.9663 0.0000
# 4 0.0000 0.0000 0.0000 38.2431 0.0000 2.1533
# 5 13.2689 10.0217 20.9663 0.0000 35.8872 0.0000
# 6 0.0000 0.0000 0.0000 2.1533 0.0000 31.8249
#
#
#
# Elastic Compliance Matrix: (Units=1/GPa)
#
#
# Indices 1 2 3 4 5 6 
#
# 1 0.020470 -0.007631 -0.005734 0.000000 -0.002087 0.000000
# 2 -0.007631 0.017773 0.001781 0.000000 -0.003183 0.000000
# 3 -0.005734 0.001781 0.010977 0.000000 -0.004790 0.000000
# 4 0.000000 0.000000 0.000000 0.026249 0.000000 -0.001776
# 5 -0.002087 -0.003183 -0.004790 0.000000 0.032324 0.000000
# 6 0.000000 0.000000 0.000000 -0.001776 0.000000 0.031542
#
#
# Mechanical properties :
#
#
# Convention : Reuss Voigt Hill
#
# Bulk Modulus (GPa) = 38.38399 45.97569 42.17984
# Shear Modulus (GPa) = 29.20803 33.48825 31.34814
#
# Velocity S-wave (km/s) = 3.48155 3.72793 3.60684
# Velocity P-wave (km/s) = 5.66487 6.13267 5.90340
#
# Compressibility (1/GPa) = 0.02605253
#
# Stress axis : x y z
#
# Youngs Moduli (GPa) = 48.85199 56.26634 91.09949
#
# Poissons Ratio (x) = 0.42934 0.52241
# Poissons Ratio (y) = 0.37277 -0.16229
# Poissons Ratio (z) = 0.28014 -0.10023
#
# Static dielectric constant tensor:
#      x y z
#    x 1.984820 0.000000 0.005240 
#    y 0.000000 1.898510 0.000000 
#    z 0.005240 0.000000 1.914890 
# 
# From -- ./inp_files/17276.got.cif
#   From: 2010.05.17/outbox.cif.g08.bks.cpg/sg9_9_cif.got.tgz:17276.got - 2010.06.03 20:04:27.
