data_PCOD9134637
_publ_section_title
;
Structure prediction by ZEFSAII (Michael W. Deem and Ramdas Pophale) SiO2 
 PCOD9134637
Probable space group: C C
;
_chemical_formula_sum "Si O2"
_cell_formula_units_Z 32
_cell_length_a 10.239537
_cell_length_b 9.353240
_cell_length_c 19.648033
_cell_angle_alpha 90.000000
_cell_angle_beta 55.786949
_cell_angle_gamma 90.000000
_cell_volume 1556.116299
_symmetry_space_group_name_H-M "C C"
_symmetry_group_IT_number 9
_symmetry_cell_setting 'monoclinic'
loop_
_space_group_symop_operation_xyz
x,y,z
x,-y,1/2+z
1/2+x,1/2+y,z
1/2+x,1/2-y,1/2+z
loop_
_atom_site_type_symbol
_atom_site_label
_atom_site_fract_x
_atom_site_fract_y
_atom_site_fract_z
Si Si1 0.883580 0.248661 0.564560
Si Si2 0.301049 0.570574 0.277034
Si Si3 0.660664 0.557792 0.524613
Si Si4 0.658779 0.475494 0.683584
Si Si5 0.989477 0.516913 0.446834
Si Si6 0.207516 0.479069 0.646966
Si Si7 0.893024 0.633609 0.712670
Si Si8 0.968833 0.777600 0.554811
O O1 0.758964 0.328035 0.650715
O O2 0.933794 0.364261 0.493471
O O3 0.047856 0.192008 0.546497
O O4 0.791598 0.101786 0.577083
O O5 0.473345 0.524166 0.251556
O O6 0.271146 0.524185 0.206704
O O7 0.314707 0.743603 0.281637
O O8 0.153670 0.508700 0.360425
O O9 0.671172 0.531952 0.602637
O O10 0.839790 0.570138 0.446331
O O11 0.580397 0.415964 0.515574
O O12 0.752309 0.562709 0.712238
O O13 0.007293 0.639535 0.499133
O O14 0.288323 0.333362 0.596197
O O15 0.022099 0.519129 0.701000
O O16 0.982142 0.728873 0.629255
#
# Coordination Sequence:
#
# PCOD9134637 Si02
#       8
#     4   4   4   4   4   4   4   4
#     4  10  19  38  68  90 116 167 216 256 303 378
#     4  11  24  42  59  95 137 164 202 269 330 365
#     4  10  20  39  62  92 126 160 212 262 308 376
#     4  11  20  36  65  92 122 160 216 258 303 377
#     4  11  24  38  64  94 132 166 202 271 326 371
#     4  10  21  40  69  90 123 167 216 257 308 378
#     4  11  20  37  64  92 117 165 216 254 305 379
#     4  10  20  38  63  93 119 161 212 261 309 376
#
# _framework density 20.564015999999999
#
# number of rings (size 3 to 8) (size 9 to 14) (size 15 to 20)
#    0.000    1.500    7.500    0.750    1.750    2.000 
#    0.000    0.000    5.500    0.000    0.000    0.000 
#    0.000    0.000    0.000    0.000    0.000    0.000 
#
# Total GULP energy -89072.069145 kJ/mol
# GULP energy per Si atom -5567.004322 kJ/mol
# Density = 2.051721 g / cm^3
# Si number density = 20.564016 Si / 1000 Ang^3
#
#
#
# Elastic Constant Matrix: (Units=GPa)
#
#
# Indices 1 2 3 4 5 6 
#
# 1 135.4941 31.8002 17.9200 0.0000 -36.6081 0.0000
# 2 31.8002 67.9065 19.7014 0.0000 -4.9257 0.0000
# 3 17.9200 19.7014 62.5747 0.0000 -27.6428 0.0000
# 4 0.0000 0.0000 0.0000 20.3395 0.0000 -8.1913
# 5 -36.6081 -4.9257 -27.6428 0.0000 31.3372 0.0000
# 6 0.0000 0.0000 0.0000 -8.1913 0.0000 34.7588
#
#
#
# Elastic Compliance Matrix: (Units=1/GPa)
#
#
# Indices 1 2 3 4 5 6 
#
# 1 0.014143 -0.007384 0.008292 0.000000 0.022676 0.000000
# 2 -0.007384 0.020260 -0.010925 0.000000 -0.015079 0.000000
# 3 0.008292 -0.010925 0.033698 0.000000 0.037694 0.000000
# 4 0.000000 0.000000 0.000000 0.054321 0.000000 0.012801
# 5 0.022676 -0.015079 0.037694 0.000000 0.089281 0.000000
# 6 0.000000 0.000000 0.000000 0.012801 0.000000 0.031786
#
#
# Mechanical properties :
#
#
# Convention : Reuss Voigt Hill
#
# Bulk Modulus (GPa) = 20.80475 44.97983 32.89229
# Shear Modulus (GPa) = 17.88606 30.39068 24.13837
#
# Velocity S-wave (km/s) = 2.95239 3.84846 3.42982
# Velocity P-wave (km/s) = 4.66489 6.45508 5.63158
#
# Compressibility (1/GPa) = 0.04806594
#
# Stress axis : x y z
#
# Youngs Moduli (GPa) = 70.70422 49.35835 29.67543
#
# Poissons Ratio (x) = 0.36447 -0.24606
# Poissons Ratio (y) = 0.52209 0.32422
# Poissons Ratio (z) = -0.58626 0.53926
#
# Static dielectric constant tensor:
#      x y z
#    x 1.782610 0.000000 -0.029440 
#    y 0.000000 1.824830 0.000000 
#    z -0.029440 0.000000 1.771290 
# 
# From -- ./inp_files/35240.got.cif
#   From: 2010.05.17/outbox.cif.g08.bks.cpg/sg9_18_cif.got.tgz:35240.got - 2010.06.03 20:04:27.
