data_PCOD9134950
_publ_section_title
;
Structure prediction by ZEFSAII (Michael W. Deem and Ramdas Pophale) SiO2 
 PCOD9134950
Probable space group: C C
;
_chemical_formula_sum "Si O2"
_cell_formula_units_Z 20
_cell_length_a 10.052901
_cell_length_b 20.215262
_cell_length_c 5.611034
_cell_angle_alpha 90.000000
_cell_angle_beta 58.282113
_cell_angle_gamma 90.000000
_cell_volume 969.980641
_symmetry_space_group_name_H-M "C C"
_symmetry_group_IT_number 9
_symmetry_cell_setting 'monoclinic'
loop_
_space_group_symop_operation_xyz
x,y,z
x,-y,1/2+z
1/2+x,1/2+y,z
1/2+x,1/2-y,1/2+z
loop_
_atom_site_type_symbol
_atom_site_label
_atom_site_fract_x
_atom_site_fract_y
_atom_site_fract_z
Si Si1 0.300780 0.182720 0.833880
Si Si2 0.741892 0.786888 0.264372
Si Si3 0.512607 0.280022 0.323661
Si Si4 0.596689 0.103274 0.571972
Si Si5 0.776103 0.013824 0.102483
O O1 0.400082 0.240097 0.606579
O O2 0.135968 0.176309 0.853417
O O3 0.415134 0.120193 0.720036
O O4 0.272944 0.214438 0.119557
O O5 0.612645 0.774331 0.585933
O O6 0.676546 0.833981 0.121873
O O7 0.900217 0.813124 0.234861
O O8 0.690947 0.082689 0.244442
O O9 0.637064 0.040284 0.699361
O O10 0.860782 0.992516 0.268682
#
# Coordination Sequence:
#
# PCOD9134950 Si02
#       5
#     4   4   4   4   4
#     4  11  20  35  54  89 120 152 184 248 299 361
#     4  11  20  35  54  89 120 152 184 248 299 361
#     4  10  22  31  54  88 121 154 182 228 328 342
#     4  10  20  35  60  80 123 146 208 240 288 350
#     4   8  20  34  54  86 106 160 196 246 270 338
#
# _framework density 20.618967999999999
#
# number of rings (size 3 to 8) (size 9 to 14) (size 15 to 20)
#    1.200    0.800    4.000    0.000    2.800    0.000 
#    0.000    0.000    0.000    2.400    0.000    0.000 
#    0.000    0.000    0.000    0.000    0.000    0.000 
#
# Total GULP energy -55687.308754 kJ/mol
# GULP energy per Si atom -5568.730875 kJ/mol
# Density = 2.057204 g / cm^3
# Si number density = 20.618968 Si / 1000 Ang^3
#
#
#
# Elastic Constant Matrix: (Units=GPa)
#
#
# Indices 1 2 3 4 5 6 
#
# 1 125.4431 -6.1575 15.3832 0.0000 5.4473 0.0000
# 2 -6.1575 29.2478 -5.5766 0.0000 2.0998 0.0000
# 3 15.3832 -5.5766 67.1068 0.0000 11.2467 0.0000
# 4 0.0000 0.0000 0.0000 16.4858 0.0000 16.9404
# 5 5.4473 2.0998 11.2467 0.0000 28.0858 0.0000
# 6 0.0000 0.0000 0.0000 16.9404 0.0000 20.0788
#
#
#
# Elastic Compliance Matrix: (Units=1/GPa)
#
#
# Indices 1 2 3 4 5 6 
#
# 1 0.008289 0.001519 -0.001592 0.000000 -0.001084 0.000000
# 2 0.001519 0.035449 0.003314 0.000000 -0.004272 0.000000
# 3 -0.001592 0.003314 0.016649 0.000000 -0.006606 0.000000
# 4 0.000000 0.000000 0.000000 0.455961 0.000000 -0.384693
# 5 -0.001084 -0.004272 -0.006606 0.000000 0.038780 0.000000
# 6 0.000000 0.000000 0.000000 -0.384693 0.000000 0.374369
#
#
# Mechanical properties :
#
#
# Convention : Reuss Voigt Hill
#
# Bulk Modulus (GPa) = 14.95490 25.45510 20.20500
# Shear Modulus (GPa) = 5.28930 27.47331 16.38130
#
# Velocity S-wave (km/s) = 1.60338 3.65421 2.82171
# Velocity P-wave (km/s) = 3.27055 5.49332 4.52068
#
# Compressibility (1/GPa) = 0.06686770
#
# Stress axis : x y z
#
# Youngs Moduli (GPa) = 120.64733 28.20958 60.06336
#
# Poissons Ratio (x) = -0.04286 0.09563
# Poissons Ratio (y) = -0.18329 -0.19902
# Poissons Ratio (z) = 0.19209 -0.09347
#
# Static dielectric constant tensor:
#      x y z
#    x 1.768660 0.000000 0.056630 
#    y 0.000000 1.753800 0.000000 
#    z 0.056630 0.000000 1.774790 
# 
# From -- ./inp_files/743.got.cif
#   From: 2010.05.17/outbox.cif.g08.bks.cpg/sg9_1_cif.got.tgz:743.got - 2010.06.03 20:04:27.
