data_PCOD9134792
_publ_section_title
;
Structure prediction by ZEFSAII (Michael W. Deem and Ramdas Pophale) SiO2 
 PCOD9134792
Probable space group: C C
;
_chemical_formula_sum "Si O2"
_cell_formula_units_Z 24
_cell_length_a 9.296054
_cell_length_b 11.338222
_cell_length_c 10.210460
_cell_angle_alpha 90.000000
_cell_angle_beta 57.356474
_cell_angle_gamma 90.000000
_cell_volume 906.198006
_symmetry_space_group_name_H-M "C C"
_symmetry_group_IT_number 9
_symmetry_cell_setting 'monoclinic'
loop_
_space_group_symop_operation_xyz
x,y,z
x,-y,1/2+z
1/2+x,1/2+y,z
1/2+x,1/2-y,1/2+z
loop_
_atom_site_type_symbol
_atom_site_label
_atom_site_fract_x
_atom_site_fract_y
_atom_site_fract_z
Si Si1 0.801240 0.099448 0.649020
Si Si2 0.552095 0.629836 0.744573
Si Si3 0.918138 0.455898 0.012169
Si Si4 0.468204 0.265761 0.840793
Si Si5 0.563491 0.901620 0.666612
Si Si6 0.079690 0.793564 0.515384
O O1 0.640391 0.188189 0.750847
O O2 0.890192 0.086735 0.744400
O O3 0.785192 0.300767 0.424519
O O4 0.722733 0.983465 0.624063
O O5 0.720178 0.554860 0.639226
O O6 0.486123 0.332136 0.693074
O O7 0.440736 0.653172 0.480371
O O8 0.990819 0.565516 0.059700
O O9 0.938549 0.443078 0.846335
O O10 0.021900 0.343131 0.020629
O O11 0.526632 0.358469 0.410769
O O12 0.591827 0.763169 0.672344
#
# Coordination Sequence:
#
# PCOD9134792 Si02
#       6
#     4   4   4   4   4   4
#     4  11  25  45  75 114 151 197 250 307 377 446
#     4  11  26  46  78 110 152 191 252 312 374 435
#     4  11  24  48  74 110 146 198 247 311 370 442
#     4  10  20  40  75 107 145 196 241 302 371 433
#     4  11  26  48  76 105 152 196 251 303 374 450
#     4  10  19  41  72 102 146 192 239 299 376 428
#
# _framework density 26.484276000000001
#
# number of rings (size 3 to 8) (size 9 to 14) (size 15 to 20)
#    0.000    1.333    5.000    0.000    7.000    0.000 
#    0.000   11.667    0.000    0.000    0.000    0.000 
#    0.000    0.000    0.000    0.000    0.000    0.000 
#
# Total GULP energy -67333.432644 kJ/mol
# GULP energy per Si atom -5611.119387 kJ/mol
# Density = 2.642400 g / cm^3
# Si number density = 26.484276 Si / 1000 Ang^3
#
#
#
# Elastic Constant Matrix: (Units=GPa)
#
#
# Indices 1 2 3 4 5 6 
#
# 1 145.5067 31.2348 44.3805 0.0000 6.4879 0.0000
# 2 31.2348 86.4336 11.2640 0.0000 -13.6908 0.0000
# 3 44.3805 11.2640 189.0380 0.0000 0.8807 0.0000
# 4 0.0000 0.0000 0.0000 24.7729 0.0000 -10.5907
# 5 6.4879 -13.6908 0.8807 0.0000 51.1859 0.0000
# 6 0.0000 0.0000 0.0000 -10.5907 0.0000 28.3992
#
#
#
# Elastic Compliance Matrix: (Units=1/GPa)
#
#
# Indices 1 2 3 4 5 6 
#
# 1 0.008120 -0.002996 -0.001720 0.000000 -0.001801 0.000000
# 2 -0.002996 0.013290 -0.000107 0.000000 0.003936 0.000000
# 3 -0.001720 -0.000107 0.005700 0.000000 0.000091 0.000000
# 4 0.000000 0.000000 0.000000 0.048023 0.000000 0.017909
# 5 -0.001801 0.003936 0.000091 0.000000 0.020816 0.000000
# 6 0.000000 0.000000 0.000000 0.017909 0.000000 0.041891
#
#
# Mechanical properties :
#
#
# Convention : Reuss Voigt Hill
#
# Bulk Modulus (GPa) = 57.25652 66.08189 61.66920
# Shear Modulus (GPa) = 32.61466 43.14485 37.87976
#
# Velocity S-wave (km/s) = 3.51304 4.04056 3.78600
# Velocity P-wave (km/s) = 6.17424 6.83913 6.51517
#
# Compressibility (1/GPa) = 0.01746526
#
# Stress axis : x y z
#
# Youngs Moduli (GPa) = 123.14724 75.24720 175.45145
#
# Poissons Ratio (x) = 0.22542 0.30169
# Poissons Ratio (y) = 0.36891 0.01876
# Poissons Ratio (z) = 0.21176 0.00805
#
# Static dielectric constant tensor:
#      x y z
#    x 2.004720 0.000000 0.008850 
#    y 0.000000 2.113140 0.000000 
#    z 0.008850 0.000000 2.028030 
# 
# From -- ./inp_files/5193.got.cif
#   From: 2010.05.17/outbox.cif.g08.bks.cpg/sg9_3_cif.got.tgz:5193.got - 2010.06.03 20:04:27.
