data_PCOD9134400
_publ_section_title
;
Structure prediction by ZEFSAII (Michael W. Deem and Ramdas Pophale) SiO2 
 PCOD9134400
Probable space group: C C
;
_chemical_formula_sum "Si O2"
_cell_formula_units_Z 32
_cell_length_a 7.703682
_cell_length_b 34.548798
_cell_length_c 5.697139
_cell_angle_alpha 90.000000
_cell_angle_beta 115.915888
_cell_angle_gamma 90.000000
_cell_volume 1363.825074
_symmetry_space_group_name_H-M "C C"
_symmetry_group_IT_number 9
_symmetry_cell_setting 'monoclinic'
loop_
_space_group_symop_operation_xyz
x,y,z
x,-y,1/2+z
1/2+x,1/2+y,z
1/2+x,1/2-y,1/2+z
loop_
_atom_site_type_symbol
_atom_site_label
_atom_site_fract_x
_atom_site_fract_y
_atom_site_fract_z
Si Si1 0.173310 0.295445 0.007090
Si Si2 0.558198 0.983882 0.608245
Si Si3 0.175883 0.898127 0.989550
Si Si4 0.113341 0.011390 0.377068
Si Si5 0.081928 0.603332 0.996281
Si Si6 0.077805 0.794396 0.493030
Si Si7 0.882340 0.160316 0.252951
Si Si8 0.872063 0.350778 0.741420
O O1 0.373008 0.302014 0.255845
O O2 0.123443 0.250532 0.996432
O O3 0.228213 0.310868 0.780839
O O4 0.993620 0.321778 0.979431
O O5 0.621556 0.941554 0.559802
O O6 0.616309 0.989858 0.916226
O O7 0.324619 0.990599 0.480449
O O8 0.382479 0.894027 0.236457
O O9 0.129755 0.943042 0.939808
O O10 0.217792 0.879779 0.760175
O O11 0.004494 0.870594 0.982301
O O12 0.024965 0.993814 0.564252
O O13 0.258642 0.630222 0.018867
O O14 0.026378 0.621533 0.213471
O O15 0.254471 0.820699 0.508789
O O16 0.037541 0.810487 0.730549
#
# Coordination Sequence:
#
# PCOD9134400 Si02
#       8
#     4   4   4   4   4   4   4   4
#     4  11  22  42  62  90 123 159 209 266 316 391
#     4  10  19  35  63  96 128 174 227 268 326 398
#     4  11  21  39  65  86 128 169 210 270 322 389
#     4  10  19  35  63  96 128 174 227 268 326 398
#     4  11  21  39  65  86 128 169 210 270 322 389
#     4  11  22  42  62  90 123 159 209 266 316 391
#     4  10  26  42  60  98 124 162 220 260 328 388
#     4  10  22  38  60  88 120 168 210 256 334 382
#
# _framework density 23.463419999999999
#
# number of rings (size 3 to 8) (size 9 to 14) (size 15 to 20)
#    0.000    1.500    3.750    3.000    0.000    1.000 
#    2.250    1.250    0.000    0.000    0.000    0.000 
#    0.000    0.000    0.000    0.000    0.000    0.000 
#
# Total GULP energy -89141.140445 kJ/mol
# GULP energy per Si atom -5571.321278 kJ/mol
# Density = 2.341002 g / cm^3
# Si number density = 23.463420 Si / 1000 Ang^3
#
#
#
# Elastic Constant Matrix: (Units=GPa)
#
#
# Indices 1 2 3 4 5 6 
#
# 1 85.3696 20.8053 6.4515 0.0000 12.3983 0.0000
# 2 20.8053 160.1579 16.3308 0.0000 -3.6334 0.0000
# 3 6.4515 16.3308 65.8213 0.0000 0.4008 0.0000
# 4 0.0000 0.0000 0.0000 25.9317 0.0000 -2.5163
# 5 12.3983 -3.6334 0.4008 0.0000 30.1825 0.0000
# 6 0.0000 0.0000 0.0000 -2.5163 0.0000 20.7326
#
#
#
# Elastic Compliance Matrix: (Units=1/GPa)
#
#
# Indices 1 2 3 4 5 6 
#
# 1 0.013001 -0.001732 -0.000811 0.000000 -0.005538 0.000000
# 2 -0.001732 0.006656 -0.001491 0.000000 0.001532 0.000000
# 3 -0.000811 -0.001491 0.015642 0.000000 -0.000054 0.000000
# 4 0.000000 0.000000 0.000000 0.039022 0.000000 0.004736
# 5 -0.005538 0.001532 -0.000054 0.000000 0.035592 0.000000
# 6 0.000000 0.000000 0.000000 0.004736 0.000000 0.048808
#
#
# Mechanical properties :
#
#
# Convention : Reuss Voigt Hill
#
# Bulk Modulus (GPa) = 36.72148 44.28044 40.50096
# Shear Modulus (GPa) = 28.43062 33.22010 30.82536
#
# Velocity S-wave (km/s) = 3.48472 3.76683 3.62852
# Velocity P-wave (km/s) = 5.64585 6.15075 5.90370
#
# Compressibility (1/GPa) = 0.02723202
#
# Stress axis : x y z
#
# Youngs Moduli (GPa) = 76.91428 150.24917 63.92895
#
# Poissons Ratio (x) = 0.26022 0.05184
# Poissons Ratio (y) = 0.13321 0.09531
# Poissons Ratio (z) = 0.06237 0.22400
#
# Static dielectric constant tensor:
#      x y z
#    x 2.067500 0.000000 -0.012010 
#    y 0.000000 1.804790 0.000000 
#    z -0.012010 0.000000 2.030190 
# 
# From -- ./inp_files/1268.got.cif
#   From: 2010.05.17/outbox.cif.g08.bks.cpg/sg9_1_cif.got.tgz:1268.got - 2010.06.03 20:04:27.
