data_PCOD9134968
_publ_section_title
;
Structure prediction by ZEFSAII (Michael W. Deem and Ramdas Pophale) SiO2 
 PCOD9134968
Probable space group: C C
;
_chemical_formula_sum "Si O2"
_cell_formula_units_Z 28
_cell_length_a 24.531564
_cell_length_b 11.249424
_cell_length_c 8.524212
_cell_angle_alpha 90.000000
_cell_angle_beta 154.557814
_cell_angle_gamma 90.000000
_cell_volume 1010.588074
_symmetry_space_group_name_H-M "C C"
_symmetry_group_IT_number 9
_symmetry_cell_setting 'monoclinic'
loop_
_space_group_symop_operation_xyz
x,y,z
x,-y,1/2+z
1/2+x,1/2+y,z
1/2+x,1/2-y,1/2+z
loop_
_atom_site_type_symbol
_atom_site_label
_atom_site_fract_x
_atom_site_fract_y
_atom_site_fract_z
Si Si1 0.891750 0.109903 0.390970
Si Si2 0.120022 0.504911 0.588202
Si Si3 0.510044 0.123554 0.547598
Si Si4 0.280050 0.823872 0.942492
Si Si5 0.679556 0.777300 0.887105
Si Si6 0.260266 0.040204 0.077284
Si Si7 0.937868 0.128031 0.883875
O O1 0.888553 0.236390 0.291888
O O2 0.904218 0.120583 0.610584
O O3 0.978891 0.002050 0.551728
O O4 0.754500 0.057389 0.985903
O O5 0.016844 0.597433 0.381556
O O6 0.114737 0.462248 0.396913
O O7 0.088059 0.377786 0.587675
O O8 0.532489 0.260819 0.639263
O O9 0.382754 0.078711 0.296012
O O10 0.228418 0.905347 0.950424
O O11 0.191610 0.736917 0.606159
O O12 0.297114 0.922628 0.849944
O O13 0.657096 0.642853 0.770183
O O14 0.815837 0.823555 0.169034
#
# Coordination Sequence:
#
# PCOD9134968 Si02
#       7
#     4   4   4   4   4   4   4
#     4  11  22  40  70  91 127 180 230 261 322 414
#     4  11  21  40  66  95 130 168 216 275 342 385
#     4  11  23  37  63  97 134 156 214 282 334 381
#     4  10  20  35  65  89 124 164 230 259 315 382
#     4   8  19  37  60  90 126 164 221 260 313 401
#     4   9  21  36  59  94 126 164 215 269 319 386
#     4  10  22  39  63  94 123 172 224 268 317 395
#
# _framework density 27.706643
#
# number of rings (size 3 to 8) (size 9 to 14) (size 15 to 20)
#    0.857    1.143    0.000    5.143    6.000    0.000 
#    0.000    0.000    6.286    0.000    0.000    0.000 
#    0.000    0.000    0.000    0.000    0.000    0.000 
#
# Total GULP energy -78133.598077 kJ/mol
# GULP energy per Si atom -5580.971291 kJ/mol
# Density = 2.764358 g / cm^3
# Si number density = 27.706643 Si / 1000 Ang^3
#
#
#
# Elastic Constant Matrix: (Units=GPa)
#
#
# Indices 1 2 3 4 5 6 
#
# 1 105.3583 78.8222 29.1365 0.0000 -21.1927 0.0000
# 2 78.8222 155.8683 38.7438 0.0000 -41.5517 0.0000
# 3 29.1365 38.7438 68.7408 0.0000 -22.6745 0.0000
# 4 0.0000 0.0000 0.0000 57.2802 0.0000 -17.2308
# 5 -21.1927 -41.5517 -22.6745 0.0000 37.5016 0.0000
# 6 0.0000 0.0000 0.0000 -17.2308 0.0000 60.3175
#
#
#
# Elastic Compliance Matrix: (Units=1/GPa)
#
#
# Indices 1 2 3 4 5 6 
#
# 1 0.015669 -0.007551 -0.002779 0.000000 -0.001192 0.000000
# 2 -0.007551 0.013032 -0.000986 0.000000 0.009576 0.000000
# 3 -0.002779 -0.000986 0.019240 0.000000 0.008970 0.000000
# 4 0.000000 0.000000 0.000000 0.019099 0.000000 0.005456
# 5 -0.001192 0.009576 0.008970 0.000000 0.042026 0.000000
# 6 0.000000 0.000000 0.000000 0.005456 0.000000 0.018138
#
#
# Mechanical properties :
#
#
# Convention : Reuss Voigt Hill
#
# Bulk Modulus (GPa) = 39.50990 69.26360 54.38675
# Shear Modulus (GPa) = 31.59121 43.23752 37.41436
#
# Velocity S-wave (km/s) = 3.38035 3.95466 3.67873
# Velocity P-wave (km/s) = 5.43385 6.77537 6.14135
#
# Compressibility (1/GPa) = 0.02531011
#
# Stress axis : x y z
#
# Youngs Moduli (GPa) = 63.81935 76.73400 51.97574
#
# Poissons Ratio (x) = 0.57940 0.14443
# Poissons Ratio (y) = 0.48189 0.05124
# Poissons Ratio (z) = 0.17734 0.07565
#
# Static dielectric constant tensor:
#      x y z
#    x 2.218900 0.000000 -0.019890 
#    y 0.000000 2.222740 0.000000 
#    z -0.019890 0.000000 2.286100 
# 
# From -- ./inp_files/12516.got.cif
#   From: 2010.05.17/outbox.cif.g08.bks.cpg/sg9_7_cif.got.tgz:12516.got - 2010.06.03 20:04:27.
