data_PCOD9134236
_publ_section_title
;
Structure prediction by ZEFSAII (Michael W. Deem and Ramdas Pophale) SiO2 
 PCOD9134236
Probable space group: C C
;
_chemical_formula_sum "Si O2"
_cell_formula_units_Z 24
_cell_length_a 13.498662
_cell_length_b 7.024863
_cell_length_c 10.935045
_cell_angle_alpha 90.000000
_cell_angle_beta 90.827480
_cell_angle_gamma 90.000000
_cell_volume 1036.821186
_symmetry_space_group_name_H-M "C C"
_symmetry_group_IT_number 9
_symmetry_cell_setting 'monoclinic'
loop_
_space_group_symop_operation_xyz
x,y,z
x,-y,1/2+z
1/2+x,1/2+y,z
1/2+x,1/2-y,1/2+z
loop_
_atom_site_type_symbol
_atom_site_label
_atom_site_fract_x
_atom_site_fract_y
_atom_site_fract_z
Si Si1 0.837360 0.204004 0.043630
Si Si2 0.385228 0.314315 0.801435
Si Si3 0.449965 0.248071 0.310019
Si Si4 0.172137 0.812119 0.349159
Si Si5 0.154788 0.945239 0.088924
Si Si6 0.431997 0.299896 0.051920
O O1 0.896767 0.265785 0.166348
O O2 0.725075 0.268161 0.055719
O O3 0.855088 0.976680 0.043755
O O4 0.881949 0.296012 0.923487
O O5 0.436458 0.520369 0.803537
O O6 0.266648 0.318170 0.820991
O O7 0.427321 0.204614 0.919210
O O8 0.565612 0.210683 0.334503
O O9 0.414455 0.184822 0.175494
O O10 0.171628 0.968017 0.236278
O O11 0.179485 0.896877 0.486473
O O12 0.040754 0.890682 0.067917
#
# Coordination Sequence:
#
# PCOD9134236 Si02
#       6
#     4   4   4   4   4   4
#     4   9  17  30  51  76 100 128 167 207 244 295
#     4   9  17  30  51  76 100 128 167 207 244 295
#     4   9  17  32  52  74 100 132 166 204 250 294
#     4  10  19  31  52  78 101 132 169 205 247 297
#     4  10  19  31  52  78 101 132 169 205 247 297
#     4   9  17  32  52  74 100 132 166 204 250 294
#
# _framework density 23.147675
#
# number of rings (size 3 to 8) (size 9 to 14) (size 15 to 20)
#    0.000    2.667    3.333    0.000    0.000    1.333 
#    0.000    0.000    7.333    0.000    0.000    0.000 
#    0.000    0.000    0.000    0.000    0.000    0.000 
#
# Total GULP energy -66872.500097 kJ/mol
# GULP energy per Si atom -5572.708341 kJ/mol
# Density = 2.309499 g / cm^3
# Si number density = 23.147675 Si / 1000 Ang^3
#
#
#
# Elastic Constant Matrix: (Units=GPa)
#
#
# Indices 1 2 3 4 5 6 
#
# 1 85.5475 9.7252 9.3506 0.0000 -7.9185 0.0000
# 2 9.7252 64.2882 -8.1969 0.0000 1.9364 0.0000
# 3 9.3506 -8.1969 196.1243 0.0000 -3.1956 0.0000
# 4 0.0000 0.0000 0.0000 -9.1065 0.0000 -7.3960
# 5 -7.9185 1.9364 -3.1956 0.0000 38.5792 0.0000
# 6 0.0000 0.0000 0.0000 -7.3960 0.0000 24.4976
#
#
#
# Elastic Compliance Matrix: (Units=1/GPa)
#
#
# Indices 1 2 3 4 5 6 
#
# 1 0.012222 -0.002006 -0.000625 0.000000 0.002558 0.000000
# 2 -0.002006 0.015988 0.000745 0.000000 -0.001152 0.000000
# 3 -0.000625 0.000745 0.005164 0.000000 0.000262 0.000000
# 4 0.000000 0.000000 0.000000 -0.088188 0.000000 -0.026624
# 5 0.002558 -0.001152 0.000262 0.000000 0.026525 0.000000
# 6 0.000000 0.000000 0.000000 -0.026624 0.000000 0.032782
#
#
# Mechanical properties :
#
#
# Convention : Reuss Voigt Hill
#
# Bulk Modulus (GPa) = 33.77973 40.85754 37.31864
# Shear Modulus (GPa) = 275.73942 33.13280 154.43611
#
# Velocity S-wave (km/s) = 10.92614 3.78744 8.17696
# Velocity P-wave (km/s) = 13.18328 6.06757 10.26193
#
# Compressibility (1/GPa) = 0.02960355
#
# Stress axis : x y z
#
# Youngs Moduli (GPa) = 81.81661 62.54662 193.64797
#
# Poissons Ratio (x) = 0.12545 0.12101
# Poissons Ratio (y) = 0.16410 -0.14428
# Poissons Ratio (z) = 0.05113 -0.04660
#
# Static dielectric constant tensor:
#      x y z
#    x 1.805920 0.000000 -0.001040 
#    y 0.000000 1.859560 0.000000 
#    z -0.001040 0.000000 2.025540 
# 
# From -- ./inp_files/15910.got.cif
#   From: 2010.05.17/outbox.cif.g08.bks.cpg/sg9_8_cif.got.tgz:15910.got - 2010.06.03 20:04:27.
