data_PCOD9134014
_publ_section_title
;
Structure prediction by ZEFSAII (Michael W. Deem and Ramdas Pophale) SiO2 
 PCOD9134014
Probable space group: C C
;
_chemical_formula_sum "Si O2"
_cell_formula_units_Z 32
_cell_length_a 19.030356
_cell_length_b 7.415924
_cell_length_c 13.826535
_cell_angle_alpha 90.000000
_cell_angle_beta 133.114181
_cell_angle_gamma 90.000000
_cell_volume 1424.440521
_symmetry_space_group_name_H-M "C C"
_symmetry_group_IT_number 9
_symmetry_cell_setting 'monoclinic'
loop_
_space_group_symop_operation_xyz
x,y,z
x,-y,1/2+z
1/2+x,1/2+y,z
1/2+x,1/2-y,1/2+z
loop_
_atom_site_type_symbol
_atom_site_label
_atom_site_fract_x
_atom_site_fract_y
_atom_site_fract_z
Si Si1 0.613930 0.340546 0.883970
Si Si2 0.509909 0.664948 0.674367
Si Si3 0.912903 0.813225 0.758126
Si Si4 0.327184 0.828218 0.590048
Si Si5 0.259831 0.959943 0.188556
Si Si6 0.203665 0.279898 0.800646
Si Si7 0.303243 0.774832 0.976274
Si Si8 0.869120 0.029359 0.888899
O O1 0.517883 0.243530 0.828762
O O2 0.572144 0.517194 0.791251
O O3 0.676161 0.387226 0.037670
O O4 0.689039 0.247648 0.881765
O O5 0.589600 0.796745 0.702836
O O6 0.446148 0.572299 0.530707
O O7 0.434015 0.758623 0.673584
O O8 0.854649 0.662498 0.762186
O O9 0.855366 0.849463 0.605499
O O10 0.910207 0.990625 0.821831
O O11 0.288884 0.853608 0.663148
O O12 0.325525 0.026869 0.537803
O O13 0.251632 0.723213 0.451642
O O14 0.224051 0.910096 0.261966
O O15 0.265249 0.429246 0.801405
O O16 0.349307 0.723483 0.917769
#
# Coordination Sequence:
#
# PCOD9134014 Si02
#       8
#     4   4   4   4   4   4   4   4
#     4  10  18  34  58  80 115 158 192 237 295 349
#     4  11  19  35  59  84 116 155 198 238 300 350
#     4   9  18  35  56  85 112 155 190 234 295 353
#     4   9  20  36  56  86 115 154 195 241 293 350
#     4   9  19  35  58  80 116 153 195 235 293 353
#     4  10  19  37  57  84 115 159 192 238 296 355
#     4  10  20  38  58  88 121 155 197 245 298 349
#     4  10  21  34  60  87 114 153 197 248 292 353
#
# _framework density 22.464962
#
# number of rings (size 3 to 8) (size 9 to 14) (size 15 to 20)
#    0.000    2.500    3.750    0.750    0.000    2.000 
#    2.250    0.000    0.000    0.000    0.000    0.000 
#    0.000    0.000    0.000    0.000    0.000    0.000 
#
# Total GULP energy -89215.007902 kJ/mol
# GULP energy per Si atom -5575.937994 kJ/mol
# Density = 2.241383 g / cm^3
# Si number density = 22.464962 Si / 1000 Ang^3
#
#
#
# Elastic Constant Matrix: (Units=GPa)
#
#
# Indices 1 2 3 4 5 6 
#
# 1 105.2960 2.6238 46.8378 0.0000 21.4572 0.0000
# 2 2.6238 22.2510 6.3002 0.0000 2.2569 0.0000
# 3 46.8378 6.3002 79.9559 0.0000 8.7759 0.0000
# 4 0.0000 0.0000 0.0000 25.0932 0.0000 2.0421
# 5 21.4572 2.2569 8.7759 0.0000 55.7948 0.0000
# 6 0.0000 0.0000 0.0000 2.0421 0.0000 41.1270
#
#
#
# Elastic Compliance Matrix: (Units=1/GPa)
#
#
# Indices 1 2 3 4 5 6 
#
# 1 0.013718 0.000968 -0.007661 0.000000 -0.004110 0.000000
# 2 0.000968 0.046130 -0.004026 0.000000 -0.001605 0.000000
# 3 -0.007661 -0.004026 0.017269 0.000000 0.000393 0.000000
# 4 0.000000 0.000000 0.000000 0.040013 0.000000 -0.001987
# 5 -0.004110 -0.001605 0.000393 0.000000 0.019506 0.000000
# 6 0.000000 0.000000 0.000000 -0.001987 0.000000 0.024414
#
#
# Mechanical properties :
#
#
# Convention : Reuss Voigt Hill
#
# Bulk Modulus (GPa) = 17.95985 35.44742 26.70363
# Shear Modulus (GPa) = 24.86961 34.51909 29.69435
#
# Velocity S-wave (km/s) = 3.33083 3.92417 3.63961
# Velocity P-wave (km/s) = 4.77541 6.02871 5.43829
#
# Compressibility (1/GPa) = 0.05567976
#
# Stress axis : x y z
#
# Youngs Moduli (GPa) = 72.89515 21.67771 57.90726
#
# Poissons Ratio (x) = -0.02099 0.44365
# Poissons Ratio (y) = -0.07060 0.23314
# Poissons Ratio (z) = 0.55848 0.08728
#
# Static dielectric constant tensor:
#      x y z
#    x 1.870170 0.000000 -0.033610 
#    y 0.000000 1.962080 0.000000 
#    z -0.033610 0.000000 1.833800 
# 
# From -- ./inp_files/25586.got.cif
#   From: 2010.05.17/outbox.cif.g08.bks.cpg/sg9_13_cif.got.tgz:25586.got - 2010.06.03 20:04:27.
