data_PCOD9134819
_publ_section_title
;
Structure prediction by ZEFSAII (Michael W. Deem and Ramdas Pophale) SiO2 
 PCOD9134819
Probable space group: C C
;
_chemical_formula_sum "Si O2"
_cell_formula_units_Z 24
_cell_length_a 7.439233
_cell_length_b 11.733596
_cell_length_c 13.129488
_cell_angle_alpha 90.000000
_cell_angle_beta 126.428653
_cell_angle_gamma 90.000000
_cell_volume 922.115785
_symmetry_space_group_name_H-M "C C"
_symmetry_group_IT_number 9
_symmetry_cell_setting 'monoclinic'
loop_
_space_group_symop_operation_xyz
x,y,z
x,-y,1/2+z
1/2+x,1/2+y,z
1/2+x,1/2-y,1/2+z
loop_
_atom_site_type_symbol
_atom_site_label
_atom_site_fract_x
_atom_site_fract_y
_atom_site_fract_z
Si Si1 0.702910 0.753945 0.182950
Si Si2 0.670395 0.646838 0.358001
Si Si3 0.259753 0.861585 0.103366
Si Si4 0.402378 0.182417 0.051163
Si Si5 0.984047 0.609525 0.874008
Si Si6 0.269925 0.488623 0.639964
O O1 0.828404 0.693867 0.320115
O O2 0.446112 0.766513 0.133880
O O3 0.735922 0.691134 0.087984
O O4 0.762335 0.884132 0.178228
O O5 0.730759 0.582184 0.483187
O O6 0.366708 0.931566 0.232098
O O7 0.508824 0.563201 0.243103
O O8 0.079333 0.733558 0.873700
O O9 0.040142 0.800200 0.074868
O O10 0.320720 0.142145 0.912636
O O11 0.600510 0.093795 0.144851
O O12 0.170747 0.530852 0.991758
#
# Coordination Sequence:
#
# PCOD9134819 Si02
#       6
#     4   4   4   4   4   4
#     4  11  22  42  68 103 121 177 227 261 332 397
#     4  10  19  43  67  90 142 167 206 287 326 374
#     4  10  20  43  64  92 139 169 205 281 326 377
#     4   9  20  40  67  93 130 170 215 276 321 382
#     4   8  16  39  66  84 131 173 199 271 328 363
#     4  10  21  43  68  96 129 174 220 270 325 391
#
# _framework density 26.027100000000001
#
# number of rings (size 3 to 8) (size 9 to 14) (size 15 to 20)
#    1.000    1.333    3.333    0.000    0.000    1.333 
#   18.000    0.000    0.000    0.000    0.000    0.000 
#    0.000    0.000    0.000    0.000    0.000    0.000 
#
# Total GULP energy -66880.953980 kJ/mol
# GULP energy per Si atom -5573.412832 kJ/mol
# Density = 2.596786 g / cm^3
# Si number density = 26.027100 Si / 1000 Ang^3
#
#
#
# Elastic Constant Matrix: (Units=GPa)
#
#
# Indices 1 2 3 4 5 6 
#
# 1 82.9465 9.9832 58.2010 0.0000 -37.5479 0.0000
# 2 9.9832 97.1928 58.8641 0.0000 0.8469 0.0000
# 3 58.2010 58.8641 256.4700 0.0000 -41.2566 0.0000
# 4 0.0000 0.0000 0.0000 19.1094 0.0000 -10.7534
# 5 -37.5479 0.8469 -41.2566 0.0000 46.9627 0.0000
# 6 0.0000 0.0000 0.0000 -10.7534 0.0000 38.7251
#
#
#
# Elastic Compliance Matrix: (Units=1/GPa)
#
#
# Indices 1 2 3 4 5 6 
#
# 1 0.020057 -0.000949 -0.002040 0.000000 0.014262 0.000000
# 2 -0.000949 0.012384 -0.003243 0.000000 -0.003831 0.000000
# 3 -0.002040 -0.003243 0.005652 0.000000 0.003393 0.000000
# 4 0.000000 0.000000 0.000000 0.062022 0.000000 0.017223
# 5 0.014262 -0.003831 0.003393 0.000000 0.035746 0.000000
# 6 0.000000 0.000000 0.000000 0.017223 0.000000 0.030606
#
#
# Mechanical properties :
#
#
# Convention : Reuss Voigt Hill
#
# Bulk Modulus (GPa) = 39.01788 76.74509 57.88149
# Shear Modulus (GPa) = 26.67036 41.59682 34.13359
#
# Velocity S-wave (km/s) = 3.20459 4.00210 3.62534
# Velocity P-wave (km/s) = 5.35876 7.13487 6.30962
#
# Compressibility (1/GPa) = 0.02562927
#
# Stress axis : x y z
#
# Youngs Moduli (GPa) = 49.85739 80.74961 176.92365
#
# Poissons Ratio (x) = 0.07665 0.36085
# Poissons Ratio (y) = 0.04732 0.57381
# Poissons Ratio (z) = 0.10169 0.26189
#
# Static dielectric constant tensor:
#      x y z
#    x 2.049820 0.000000 0.080600 
#    y 0.000000 2.070770 0.000000 
#    z 0.080600 0.000000 2.271610 
# 
# From -- ./inp_files/22493.got.cif
#   From: 2010.05.17/outbox.cif.g08.bks.cpg/sg9_12_cif.got.tgz:22493.got - 2010.06.03 20:04:27.
