data_PCOD9134308
_publ_section_title
;
Structure prediction by ZEFSAII (Michael W. Deem and Ramdas Pophale) SiO2 
 PCOD9134308
Probable space group: C C
;
_chemical_formula_sum "Si O2"
_cell_formula_units_Z 24
_cell_length_a 15.623834
_cell_length_b 10.317074
_cell_length_c 5.579793
_cell_angle_alpha 90.000000
_cell_angle_beta 99.861330
_cell_angle_gamma 90.000000
_cell_volume 886.130601
_symmetry_space_group_name_H-M "C C"
_symmetry_group_IT_number 9
_symmetry_cell_setting 'monoclinic'
loop_
_space_group_symop_operation_xyz
x,y,z
x,-y,1/2+z
1/2+x,1/2+y,z
1/2+x,1/2-y,1/2+z
loop_
_atom_site_type_symbol
_atom_site_label
_atom_site_fract_x
_atom_site_fract_y
_atom_site_fract_z
Si Si1 0.048160 0.572770 0.179570
Si Si2 0.805000 0.543555 0.830403
Si Si3 0.207036 0.720979 0.136216
Si Si4 0.117629 0.094989 0.278115
Si Si5 0.009183 0.839538 0.328859
Si Si6 0.323101 0.422762 0.366619
O O1 0.031201 0.495103 0.416556
O O2 0.152451 0.607063 0.228609
O O3 0.998301 0.710727 0.167012
O O4 0.847399 0.504810 0.596799
O O5 0.778218 0.695345 0.814266
O O6 0.711967 0.466205 0.772030
O O7 0.133300 0.822749 0.021860
O O8 0.250365 0.679138 0.907061
O O9 0.044538 0.982929 0.267637
O O10 0.084341 0.190850 0.058573
O O11 0.917642 0.859033 0.413849
O O12 0.317937 0.516683 0.598767
#
# Coordination Sequence:
#
# PCOD9134308 Si02
#       6
#     4   4   4   4   4   4
#     4  12  26  43  69 101 147 195 247 304 372 451
#     4  10  19  33  61 100 125 168 235 293 340 402
#     4  11  23  44  69 111 149 189 247 312 379 447
#     4  11  19  40  79 109 136 190 261 313 352 442
#     4  12  22  45  77 111 144 199 263 314 371 452
#     4  12  29  47  73 110 161 199 243 320 396 452
#
# _framework density 27.084047000000002
#
# number of rings (size 3 to 8) (size 9 to 14) (size 15 to 20)
#    0.000    0.667    6.667    2.000    0.000    6.667 
#    0.000    3.333    0.000    0.000    0.000    0.000 
#    0.000    0.000    0.000    0.000    0.000    0.000 
#
# Total GULP energy -67083.152364 kJ/mol
# GULP energy per Si atom -5590.262697 kJ/mol
# Density = 2.702240 g / cm^3
# Si number density = 27.084047 Si / 1000 Ang^3
#
#
#
# Elastic Constant Matrix: (Units=GPa)
#
#
# Indices 1 2 3 4 5 6 
#
# 1 91.9656 47.0967 36.3865 0.0000 -19.5416 0.0000
# 2 47.0967 119.5284 67.5268 0.0000 -18.2957 0.0000
# 3 36.3865 67.5268 179.0731 0.0000 -9.3812 0.0000
# 4 0.0000 0.0000 0.0000 65.2308 0.0000 -12.6024
# 5 -19.5416 -18.2957 -9.3812 0.0000 45.4496 0.0000
# 6 0.0000 0.0000 0.0000 -12.6024 0.0000 24.4134
#
#
#
# Elastic Compliance Matrix: (Units=1/GPa)
#
#
# Indices 1 2 3 4 5 6 
#
# 1 0.014467 -0.004473 -0.001032 0.000000 0.004206 0.000000
# 2 -0.004473 0.012591 -0.003715 0.000000 0.002379 0.000000
# 3 -0.001032 -0.003715 0.007171 0.000000 -0.000459 0.000000
# 4 0.000000 0.000000 0.000000 0.017028 0.000000 0.008790
# 5 0.004206 0.002379 -0.000459 0.000000 0.024674 0.000000
# 6 0.000000 0.000000 0.000000 0.008790 0.000000 0.045499
#
#
# Mechanical properties :
#
#
# Convention : Reuss Voigt Hill
#
# Bulk Modulus (GPa) = 63.33667 76.95413 70.14540
# Shear Modulus (GPa) = 34.45128 42.98923 38.72025
#
# Velocity S-wave (km/s) = 3.57040 3.98836 3.78515
# Velocity P-wave (km/s) = 6.35870 7.04869 6.71257
#
# Compressibility (1/GPa) = 0.01578864
#
# Stress axis : x y z
#
# Youngs Moduli (GPa) = 69.12470 79.41998 139.45513
#
# Poissons Ratio (x) = 0.35525 0.14398
# Poissons Ratio (y) = 0.30920 0.51801
# Poissons Ratio (z) = 0.07137 0.29501
#
# Static dielectric constant tensor:
#      x y z
#    x 2.089960 0.000000 -0.030310 
#    y 0.000000 2.196820 0.000000 
#    z -0.030310 0.000000 2.247490 
# 
# From -- ./inp_files/2843.got.cif
#   From: 2010.05.17/outbox.cif.g08.bks.cpg/sg9_2_cif.got.tgz:2843.got - 2010.06.03 20:04:27.
