data_PCOD9134947
_publ_section_title
;
Structure prediction by ZEFSAII (Michael W. Deem and Ramdas Pophale) SiO2 
 PCOD9134947
Probable space group: C C
;
_chemical_formula_sum "Si O2"
_cell_formula_units_Z 28
_cell_length_a 11.229677
_cell_length_b 22.949008
_cell_length_c 5.195225
_cell_angle_alpha 90.000000
_cell_angle_beta 73.709016
_cell_angle_gamma 90.000000
_cell_volume 1285.105143
_symmetry_space_group_name_H-M "C C"
_symmetry_group_IT_number 9
_symmetry_cell_setting 'monoclinic'
loop_
_space_group_symop_operation_xyz
x,y,z
x,-y,1/2+z
1/2+x,1/2+y,z
1/2+x,1/2-y,1/2+z
loop_
_atom_site_type_symbol
_atom_site_label
_atom_site_fract_x
_atom_site_fract_y
_atom_site_fract_z
Si Si1 0.475220 0.528398 0.349070
Si Si2 0.188565 0.517485 0.107381
Si Si3 0.210667 0.636493 0.399438
Si Si4 0.834720 0.827229 0.313609
Si Si5 0.052420 0.159476 0.344118
Si Si6 0.477674 0.213041 0.688745
Si Si7 0.321251 0.801968 0.772895
O O1 0.529870 0.511234 0.590573
O O2 0.331024 0.504661 0.464407
O O3 0.503285 0.596335 0.273885
O O4 0.129793 0.476217 0.361814
O O5 0.181043 0.576912 0.271798
O O6 0.274483 0.629427 0.640004
O O7 0.093677 0.676773 0.517139
O O8 0.298513 0.664561 0.128290
O O9 0.783043 0.765338 0.251552
O O10 0.979679 0.831278 0.159797
O O11 0.199598 0.159811 0.300778
O O12 0.015730 0.218953 0.211860
O O13 0.375265 0.201680 0.528634
O O14 0.426461 0.188831 0.992491
#
# Coordination Sequence:
#
# PCOD9134947 Si02
#       7
#     4   4   4   4   4   4   4
#     4  10  21  38  62  97 128 170 223 278 349 396
#     4  10  20  35  59  93 125 161 213 274 338 388
#     4  12  22  41  65  95 137 170 223 284 339 404
#     4  11  22  37  62  95 126 175 217 274 348 389
#     4  11  24  44  68  98 147 179 228 296 342 417
#     4  11  26  42  65  97 138 189 225 271 350 415
#     4  11  25  41  61  95 135 180 231 265 342 425
#
# _framework density 21.7881
#
# number of rings (size 3 to 8) (size 9 to 14) (size 15 to 20)
#    0.000    1.143    1.429    6.857    2.000    4.571 
#    0.000    0.000    0.000    5.143    0.000    0.000 
#    0.000    0.000    0.000    0.000    0.000    0.000 
#
# Total GULP energy -78012.904976 kJ/mol
# GULP energy per Si atom -5572.350355 kJ/mol
# Density = 2.173851 g / cm^3
# Si number density = 21.788100 Si / 1000 Ang^3
#
#
#
# Elastic Constant Matrix: (Units=GPa)
#
#
# Indices 1 2 3 4 5 6 
#
# 1 57.6791 17.8802 29.3219 0.0000 -1.3577 0.0000
# 2 17.8802 100.7077 33.8705 0.0000 -23.0726 0.0000
# 3 29.3219 33.8705 145.9136 0.0000 8.5440 0.0000
# 4 0.0000 0.0000 0.0000 36.3698 0.0000 -3.0830
# 5 -1.3577 -23.0726 8.5440 0.0000 25.8925 0.0000
# 6 0.0000 0.0000 0.0000 -3.0830 0.0000 17.9362
#
#
#
# Elastic Compliance Matrix: (Units=1/GPa)
#
#
# Indices 1 2 3 4 5 6 
#
# 1 0.019815 -0.002339 -0.003444 0.000000 0.000092 0.000000
# 2 -0.002339 0.014956 -0.003849 0.000000 0.014474 0.000000
# 3 -0.003444 -0.003849 0.008821 0.000000 -0.006521 0.000000
# 4 0.000000 0.000000 0.000000 0.027902 0.000000 0.004796
# 5 0.000092 0.014474 -0.006521 0.000000 0.053676 0.000000
# 6 0.000000 0.000000 0.000000 0.004796 0.000000 0.056578
#
#
# Mechanical properties :
#
#
# Convention : Reuss Voigt Hill
#
# Bulk Modulus (GPa) = 41.10602 51.82729 46.46665
# Shear Modulus (GPa) = 23.90955 30.92156 27.41555
#
# Velocity S-wave (km/s) = 3.31625 3.77131 3.55107
# Velocity P-wave (km/s) = 5.79401 6.54235 6.17952
#
# Compressibility (1/GPa) = 0.02432734
#
# Stress axis : x y z
#
# Youngs Moduli (GPa) = 50.46556 66.86412 113.36692
#
# Poissons Ratio (x) = 0.15637 0.39049
# Poissons Ratio (y) = 0.11802 0.43637
# Poissons Ratio (z) = 0.17383 0.25737
#
# Static dielectric constant tensor:
#      x y z
#    x 1.882210 0.000000 0.067620 
#    y 0.000000 1.919050 0.000000 
#    z 0.067620 0.000000 1.870030 
# 
# From -- ./inp_files/1925.got.cif
#   From: 2010.05.17/outbox.cif.g08.bks.cpg/sg9_1_cif.got.tgz:1925.got - 2010.06.03 20:04:27.
