data_PCOD9134072
_publ_section_title
;
Structure prediction by ZEFSAII (Michael W. Deem and Ramdas Pophale) SiO2 
 PCOD9134072
Probable space group: C C
;
_chemical_formula_sum "Si O2"
_cell_formula_units_Z 32
_cell_length_a 8.971836
_cell_length_b 19.890673
_cell_length_c 9.185377
_cell_angle_alpha 90.000000
_cell_angle_beta 88.894372
_cell_angle_gamma 90.000000
_cell_volume 1638.879135
_symmetry_space_group_name_H-M "C C"
_symmetry_group_IT_number 9
_symmetry_cell_setting 'monoclinic'
loop_
_space_group_symop_operation_xyz
x,y,z
x,-y,1/2+z
1/2+x,1/2+y,z
1/2+x,1/2-y,1/2+z
loop_
_atom_site_type_symbol
_atom_site_label
_atom_site_fract_x
_atom_site_fract_y
_atom_site_fract_z
Si Si1 0.891570 0.221733 0.489830
Si Si2 0.360387 0.356802 0.269324
Si Si3 0.427142 0.928010 0.370956
Si Si4 0.652801 0.338096 0.440093
Si Si5 0.428360 0.359843 0.704187
Si Si6 0.062614 0.475809 0.077626
Si Si7 0.148615 0.678336 0.009489
Si Si8 0.276952 0.484954 0.811745
O O1 0.846309 0.163812 0.602979
O O2 0.753535 0.271771 0.460264
O O3 0.944564 0.189576 0.338660
O O4 0.031744 0.263806 0.549868
O O5 0.523749 0.337615 0.322469
O O6 0.246646 0.310387 0.362643
O O7 0.324252 0.435768 0.306429
O O8 0.266851 0.896195 0.392283
O O9 0.480858 0.929363 0.200917
O O10 0.543113 0.882526 0.459785
O O11 0.442246 0.996387 0.464386
O O12 0.563437 0.353762 0.589684
O O13 0.273694 0.339147 0.625912
O O14 0.407980 0.435514 0.763138
O O15 0.147301 0.522974 0.193254
O O16 0.200815 0.461951 0.964367
#
# Coordination Sequence:
#
# PCOD9134072 Si02
#       8
#     4   4   4   4   4   4   4   4
#     4  11  23  38  63  89 119 167 218 240 310 381
#     4  11  21  40  65  89 127 161 204 267 305 363
#     4  10  20  37  59  86 124 160 199 254 302 370
#     4  10  24  41  57  90 130 162 195 262 325 346
#     4  11  22  39  63  92 123 159 209 262 307 369
#     4  10  18  35  61  90 116 163 209 241 307 370
#     4  10  20  38  59  81 124 165 200 256 301 359
#     4  11  20  36  63  97 115 161 212 256 303 374
#
# _framework density 19.525538000000001
#
# number of rings (size 3 to 8) (size 9 to 14) (size 15 to 20)
#    0.000    1.500    3.750    3.000    0.000    1.000 
#    0.000    2.500    2.750    0.000    0.000    0.000 
#    0.000    0.000    0.000    0.000    0.000    0.000 
#
# Total GULP energy -89067.609333 kJ/mol
# GULP energy per Si atom -5566.725583 kJ/mol
# Density = 1.948110 g / cm^3
# Si number density = 19.525538 Si / 1000 Ang^3
#
#
#
# Elastic Constant Matrix: (Units=GPa)
#
#
# Indices 1 2 3 4 5 6 
#
# 1 92.1647 36.7509 19.1981 0.0000 -10.2527 0.0000
# 2 36.7509 82.7542 39.6782 0.0000 -17.8271 0.0000
# 3 19.1981 39.6782 117.2390 0.0000 -7.9755 0.0000
# 4 0.0000 0.0000 0.0000 25.0078 0.0000 -5.2313
# 5 -10.2527 -17.8271 -7.9755 0.0000 16.4788 0.0000
# 6 0.0000 0.0000 0.0000 -5.2313 0.0000 16.9561
#
#
#
# Elastic Compliance Matrix: (Units=1/GPa)
#
#
# Indices 1 2 3 4 5 6 
#
# 1 0.013266 -0.005252 -0.000227 0.000000 0.002462 0.000000
# 2 -0.005252 0.020273 -0.004892 0.000000 0.016296 0.000000
# 3 -0.000227 -0.004892 0.010188 0.000000 -0.000503 0.000000
# 4 0.000000 0.000000 0.000000 0.042746 0.000000 0.013188
# 5 0.002462 0.016296 -0.000503 0.000000 0.079601 0.000000
# 6 0.000000 0.000000 0.000000 0.013188 0.000000 0.063045
#
#
# Mechanical properties :
#
#
# Convention : Reuss Voigt Hill
#
# Bulk Modulus (GPa) = 43.50997 53.71247 48.61122
# Shear Modulus (GPa) = 19.41571 24.79058 22.10315
#
# Velocity S-wave (km/s) = 3.15679 3.56708 3.36819
# Velocity P-wave (km/s) = 5.96818 6.67338 6.33060
#
# Compressibility (1/GPa) = 0.02298324
#
# Stress axis : x y z
#
# Youngs Moduli (GPa) = 75.38326 49.32761 98.15097
#
# Poissons Ratio (x) = 0.25906 0.02231
# Poissons Ratio (y) = 0.39590 0.48020
# Poissons Ratio (z) = 0.01714 0.24133
#
# Static dielectric constant tensor:
#      x y z
#    x 1.674860 0.000000 -0.011580 
#    y 0.000000 1.759260 0.000000 
#    z -0.011580 0.000000 1.707380 
# 
# From -- ./inp_files/5626.got.cif
#   From: 2010.05.17/outbox.cif.g08.bks.cpg/sg9_3_cif.got.tgz:5626.got - 2010.06.03 20:04:27.
