data_PCOD9134731
_publ_section_title
;
Structure prediction by ZEFSAII (Michael W. Deem and Ramdas Pophale) SiO2 
 PCOD9134731
Probable space group: C C
;
_chemical_formula_sum "Si O2"
_cell_formula_units_Z 28
_cell_length_a 9.615746
_cell_length_b 11.352712
_cell_length_c 22.947529
_cell_angle_alpha 90.000000
_cell_angle_beta 152.347861
_cell_angle_gamma 90.000000
_cell_volume 1162.605140
_symmetry_space_group_name_H-M "C C"
_symmetry_group_IT_number 9
_symmetry_cell_setting 'monoclinic'
loop_
_space_group_symop_operation_xyz
x,y,z
x,-y,1/2+z
1/2+x,1/2+y,z
1/2+x,1/2-y,1/2+z
loop_
_atom_site_type_symbol
_atom_site_label
_atom_site_fract_x
_atom_site_fract_y
_atom_site_fract_z
Si Si1 0.297030 0.597435 0.796490
Si Si2 0.984610 0.387797 0.358342
Si Si3 0.345583 0.156634 0.275209
Si Si4 0.873569 0.478023 0.551378
Si Si5 0.134583 0.131780 0.078335
Si Si6 0.138657 0.657005 0.043599
Si Si7 0.210647 0.125526 0.646248
O O1 0.453697 0.723907 0.846277
O O2 0.082710 0.571163 0.661949
O O3 0.062336 0.607387 0.761535
O O4 0.543847 0.498253 0.901770
O O5 0.296355 0.320692 0.456417
O O6 0.959853 0.368104 0.418133
O O7 0.973735 0.529840 0.341245
O O8 0.719813 0.341611 0.217447
O O9 0.355875 0.180714 0.209623
O O10 0.991242 0.150474 0.159808
O O11 0.780690 0.388610 0.569773
O O12 0.059828 0.430839 0.566301
O O13 0.078339 0.000777 0.083906
O O14 0.087022 0.783866 0.053663
#
# Coordination Sequence:
#
# PCOD9134731 Si02
#       7
#     4   4   4   4   4   4   4
#     4  10  22  43  64  93 132 167 214 272 330 389
#     4  10  19  40  66  84 125 170 214 266 315 387
#     4   9  21  42  62  89 123 174 215 262 325 392
#     4  11  23  42  63  97 129 167 214 274 332 383
#     4   9  19  39  63  89 118 167 215 265 308 395
#     4  10  23  39  58  96 127 164 212 269 330 375
#     4   9  19  41  62  90 124 165 218 256 320 391
#
# _framework density 24.083843000000002
#
# number of rings (size 3 to 8) (size 9 to 14) (size 15 to 20)
#    0.000    2.286    1.429    0.000    4.000    0.000 
#   15.429    0.000    0.000    0.000    0.000    0.000 
#    0.000    0.000    0.000    0.000    0.000    0.000 
#
# Total GULP energy -78064.325694 kJ/mol
# GULP energy per Si atom -5576.023264 kJ/mol
# Density = 2.402903 g / cm^3
# Si number density = 24.083843 Si / 1000 Ang^3
#
#
#
# Elastic Constant Matrix: (Units=GPa)
#
#
# Indices 1 2 3 4 5 6 
#
# 1 120.0029 7.9802 34.9585 -0.0007 -33.5997 -0.0004
# 2 7.9802 48.3732 31.4984 -0.0005 -11.2375 -0.0003
# 3 34.9585 31.4984 110.0753 0.0007 -21.8257 -0.0011
# 4 -0.0007 -0.0005 0.0007 21.7646 -0.0003 -4.5844
# 5 -33.5997 -11.2375 -21.8257 -0.0003 53.3183 -0.0007
# 6 -0.0004 -0.0003 -0.0011 -4.5844 -0.0007 24.9135
#
#
#
# Elastic Compliance Matrix: (Units=1/GPa)
#
#
# Indices 1 2 3 4 5 6 
#
# 1 0.010660 0.001301 -0.002581 0.000001 0.005936 0.000000
# 2 0.001301 0.025898 -0.007160 0.000001 0.003347 0.000000
# 3 -0.002581 -0.007160 0.012333 -0.000001 0.001913 0.000000
# 4 0.000001 0.000001 -0.000001 0.047799 0.000001 0.008796
# 5 0.005936 0.003347 0.001913 0.000001 0.023984 0.000001
# 6 0.000000 0.000000 0.000000 0.008796 0.000001 0.041757
#
#
# Mechanical properties :
#
#
# Convention : Reuss Voigt Hill
#
# Bulk Modulus (GPa) = 31.24011 47.48062 39.36036
# Shear Modulus (GPa) = 26.31829 33.60024 29.95926
#
# Velocity S-wave (km/s) = 3.30930 3.73920 3.53080
# Velocity P-wave (km/s) = 5.25372 6.19675 5.74462
#
# Compressibility (1/GPa) = 0.03201013
#
# Stress axis : x y z
#
# Youngs Moduli (GPa) = 93.80525 38.61302 81.08612
#
# Poissons Ratio (x) = -0.05023 0.20928
# Poissons Ratio (y) = -0.12202 0.58060
# Poissons Ratio (z) = 0.24210 0.27648
#
# Static dielectric constant tensor:
#      x y z
#    x 1.909480 0.000000 -0.002730 
#    y 0.000000 1.966970 0.000000 
#    z -0.002730 0.000000 2.049930 
# 
# From -- ./inp_files/14232.got.cif
#   From: 2010.05.17/outbox.cif.g08.bks.cpg/sg9_8_cif.got.tgz:14232.got - 2010.06.03 20:04:27.
