data_PCOD9134241
_publ_section_title
;
Structure prediction by ZEFSAII (Michael W. Deem and Ramdas Pophale) SiO2 
 PCOD9134241
Probable space group: C C
;
_chemical_formula_sum "Si O2"
_cell_formula_units_Z 32
_cell_length_a 12.259086
_cell_length_b 28.710772
_cell_length_c 5.224487
_cell_angle_alpha 90.000000
_cell_angle_beta 82.956784
_cell_angle_gamma 90.000000
_cell_volume 1824.975248
_symmetry_space_group_name_H-M "C C"
_symmetry_group_IT_number 9
_symmetry_cell_setting 'monoclinic'
loop_
_space_group_symop_operation_xyz
x,y,z
x,-y,1/2+z
1/2+x,1/2+y,z
1/2+x,1/2-y,1/2+z
loop_
_atom_site_type_symbol
_atom_site_label
_atom_site_fract_x
_atom_site_fract_y
_atom_site_fract_z
Si Si1 0.362430 0.125608 0.155230
Si Si2 0.779790 0.325678 0.195761
Si Si3 0.110871 0.371811 0.419869
Si Si4 0.340758 0.983488 0.767116
Si Si5 0.192710 0.323549 0.879109
Si Si6 0.059786 0.231024 0.758795
Si Si7 0.413440 0.267904 0.793312
Si Si8 0.588585 0.022972 0.738988
O O1 0.324047 0.152952 0.418492
O O2 0.361300 0.070811 0.220464
O O3 0.290081 0.138365 0.928225
O O4 0.486162 0.138740 0.040426
O O5 0.656885 0.306448 0.198549
O O6 0.854816 0.281442 0.252280
O O7 0.181883 0.360634 0.651554
O O8 0.109881 0.425421 0.330488
O O9 0.148377 0.342324 0.162641
O O10 0.280562 0.006068 0.546363
O O11 0.457040 0.012020 0.757490
O O12 0.118775 0.279775 0.810799
O O13 0.316019 0.304596 0.870455
O O14 0.990370 0.235469 0.519409
O O15 0.982644 0.219220 0.021633
O O16 0.631547 0.012121 0.444221
#
# Coordination Sequence:
#
# PCOD9134241 Si02
#       8
#     4   4   4   4   4   4   4   4
#     4  12  21  33  54  79 119 148 181 221 261 333
#     4  11  24  35  55  86 103 144 201 222 262 343
#     4  12  21  33  54  79 119 148 181 221 261 333
#     4  10  19  32  47  73 110 159 167 200 276 335
#     4  11  24  35  55  86 103 144 201 222 262 343
#     4  11  22  41  57  74 113 147 181 236 289 305
#     4  11  22  41  57  74 113 147 181 236 289 305
#     4  10  19  32  47  73 110 159 167 200 276 335
#
# _framework density 17.534483999999999
#
# number of rings (size 3 to 8) (size 9 to 14) (size 15 to 20)
#    0.000    1.000    2.500    7.500    3.500    4.000 
#    0.000    0.000    0.000    0.000    0.000    0.000 
#    0.000   70.000    0.000    0.000    0.000    0.000 
#
# Total GULP energy -89358.743697 kJ/mol
# GULP energy per Si atom -5584.921481 kJ/mol
# Density = 1.749458 g / cm^3
# Si number density = 17.534484 Si / 1000 Ang^3
#
#
#
# Elastic Constant Matrix: (Units=GPa)
#
#
# Indices 1 2 3 4 5 6 
#
# 1 81.6488 34.6384 45.3002 0.0000 0.9479 0.0000
# 2 34.6384 73.6753 35.1201 0.0000 -11.2954 0.0000
# 3 45.3002 35.1201 161.2162 0.0000 6.6925 0.0000
# 4 0.0000 0.0000 0.0000 28.3884 0.0000 3.4872
# 5 0.9479 -11.2954 6.6925 0.0000 17.4961 0.0000
# 6 0.0000 0.0000 0.0000 3.4872 0.0000 14.2071
#
#
#
# Elastic Compliance Matrix: (Units=1/GPa)
#
#
# Indices 1 2 3 4 5 6 
#
# 1 0.017059 -0.007260 -0.003027 0.000000 -0.004453 0.000000
# 2 -0.007260 0.020764 -0.003106 0.000000 0.014987 0.000000
# 3 -0.003027 -0.003106 0.007932 0.000000 -0.004875 0.000000
# 4 0.000000 0.000000 0.000000 0.036321 0.000000 -0.008915
# 5 -0.004453 0.014987 -0.004875 0.000000 0.068937 0.000000
# 6 0.000000 0.000000 0.000000 -0.008915 0.000000 0.072576
#
#
# Mechanical properties :
#
#
# Convention : Reuss Voigt Hill
#
# Bulk Modulus (GPa) = 52.71364 60.73974 56.72669
# Shear Modulus (GPa) = 19.47822 25.45042 22.46432
#
# Velocity S-wave (km/s) = 3.33656 3.81392 3.58320
# Velocity P-wave (km/s) = 6.70609 7.35595 7.03852
#
# Compressibility (1/GPa) = 0.01897042
#
# Stress axis : x y z
#
# Youngs Moduli (GPa) = 58.62148 48.15943 126.06698
#
# Poissons Ratio (x) = 0.34964 0.38159
# Poissons Ratio (y) = 0.42559 0.39151
# Poissons Ratio (z) = 0.17744 0.14956
#
# Static dielectric constant tensor:
#      x y z
#    x 1.588290 0.000000 0.015480 
#    y 0.000000 1.611630 0.000000 
#    z 0.015480 0.000000 1.657890 
# 
# From -- ./inp_files/1964.got.cif
#   From: 2010.05.17/outbox.cif.g08.bks.cpg/sg9_1_cif.got.tgz:1964.got - 2010.06.03 20:04:27.
