data_PCOD9134704
_publ_section_title
;
Structure prediction by ZEFSAII (Michael W. Deem and Ramdas Pophale) SiO2 
 PCOD9134704
Probable space group: C C
;
_chemical_formula_sum "Si O2"
_cell_formula_units_Z 32
_cell_length_a 13.183609
_cell_length_b 17.064610
_cell_length_c 8.594198
_cell_angle_alpha 90.000000
_cell_angle_beta 137.810748
_cell_angle_gamma 90.000000
_cell_volume 1298.478708
_symmetry_space_group_name_H-M "C C"
_symmetry_group_IT_number 9
_symmetry_cell_setting 'monoclinic'
loop_
_space_group_symop_operation_xyz
x,y,z
x,-y,1/2+z
1/2+x,1/2+y,z
1/2+x,1/2-y,1/2+z
loop_
_atom_site_type_symbol
_atom_site_label
_atom_site_fract_x
_atom_site_fract_y
_atom_site_fract_z
Si Si1 0.241250 0.134886 0.320690
Si Si2 0.335322 0.287110 0.011689
Si Si3 0.561902 0.578638 0.838233
Si Si4 0.175305 0.305325 0.337731
Si Si5 0.632334 0.580203 0.509819
Si Si6 0.854147 0.470985 0.473394
Si Si7 0.450222 0.718087 0.314819
Si Si8 0.045740 0.658491 0.358025
O O1 0.259977 0.224668 0.382644
O O2 0.127569 0.108062 0.326128
O O3 0.364997 0.064990 0.467747
O O4 0.156812 0.131788 0.063001
O O5 0.419794 0.371127 0.126051
O O6 0.412987 0.223040 0.211506
O O7 0.363469 0.252255 0.870618
O O8 0.167363 0.305416 0.876512
O O9 0.533696 0.498656 0.903152
O O10 0.689215 0.550460 0.860224
O O11 0.321719 0.339084 0.591217
O O12 0.045461 0.279083 0.314757
O O13 0.116457 0.344697 0.112221
O O14 0.807951 0.560081 0.749083
O O15 0.573342 0.657891 0.523312
O O16 0.977952 0.421801 0.707376
#
# Coordination Sequence:
#
# PCOD9134704 Si02
#       8
#     4   4   4   4   4   4   4   4
#     4   9  20  38  66  95 125 171 222 272 332 403
#     4  12  24  42  65  98 137 180 229 285 346 410
#     4  10  19  39  70  94 125 173 226 278 335 409
#     4  11  24  42  66  97 135 177 226 280 344 405
#     4   9  20  39  69  94 126 171 228 274 335 413
#     4  10  21  41  67  98 126 171 227 283 336 408
#     4  11  24  43  64  96 130 182 225 284 338 412
#     4  12  26  40  67 102 138 175 227 286 346 406
#
# _framework density 24.644223
#
# number of rings (size 3 to 8) (size 9 to 14) (size 15 to 20)
#    0.000    1.500    2.500    2.250    7.000    0.000 
#    0.000    1.250    5.500    0.000    0.000    0.000 
#    0.000    0.000    0.000    0.000    0.000    0.000 
#
# Total GULP energy -89151.826108 kJ/mol
# GULP energy per Si atom -5571.989132 kJ/mol
# Density = 2.458813 g / cm^3
# Si number density = 24.644223 Si / 1000 Ang^3
#
#
#
# Elastic Constant Matrix: (Units=GPa)
#
#
# Indices 1 2 3 4 5 6 
#
# 1 107.6868 13.0521 29.5679 0.0000 6.8482 0.0000
# 2 13.0521 78.8118 24.1647 0.0000 22.7811 0.0000
# 3 29.5679 24.1647 103.6000 0.0000 8.6842 0.0000
# 4 0.0000 0.0000 0.0000 40.7904 0.0000 9.5682
# 5 6.8482 22.7811 8.6842 0.0000 31.6663 0.0000
# 6 0.0000 0.0000 0.0000 9.5682 0.0000 17.9495
#
#
#
# Elastic Compliance Matrix: (Units=1/GPa)
#
#
# Indices 1 2 3 4 5 6 
#
# 1 0.010157 -0.000553 -0.002681 0.000000 -0.001064 0.000000
# 2 -0.000553 0.016907 -0.002842 0.000000 -0.011265 0.000000
# 3 -0.002681 -0.002842 0.011116 0.000000 -0.000424 0.000000
# 4 0.000000 0.000000 0.000000 0.028019 0.000000 -0.014936
# 5 -0.001064 -0.011265 -0.000424 0.000000 0.040030 0.000000
# 6 0.000000 0.000000 0.000000 -0.014936 0.000000 0.063673
#
#
# Mechanical properties :
#
#
# Convention : Reuss Voigt Hill
#
# Bulk Modulus (GPa) = 38.41702 47.07424 42.74563
# Shear Modulus (GPa) = 26.21517 32.96885 29.59201
#
# Velocity S-wave (km/s) = 3.26505 3.66155 3.46897
# Velocity P-wave (km/s) = 5.46228 6.08432 5.78167
#
# Compressibility (1/GPa) = 0.02603013
#
# Stress axis : x y z
#
# Youngs Moduli (GPa) = 98.45540 59.14580 89.96042
#
# Poissons Ratio (x) = 0.03269 0.24116
# Poissons Ratio (y) = 0.05441 0.25564
# Poissons Ratio (z) = 0.26393 0.16807
#
# Static dielectric constant tensor:
#      x y z
#    x 2.133000 0.000000 -0.150990 
#    y 0.000000 1.956110 0.000000 
#    z -0.150990 0.000000 2.122850 
# 
# From -- ./inp_files/9928.got.cif
#   From: 2010.05.17/outbox.cif.g08.bks.cpg/sg9_5_cif.got.tgz:9928.got - 2010.06.03 20:04:27.
