data_PCOD9134474
_publ_section_title
;
Structure prediction by ZEFSAII (Michael W. Deem and Ramdas Pophale) SiO2 
 PCOD9134474
Probable space group: C C
;
_chemical_formula_sum "Si O2"
_cell_formula_units_Z 32
_cell_length_a 17.761124
_cell_length_b 9.497262
_cell_length_c 19.669661
_cell_angle_alpha 90.000000
_cell_angle_beta 23.533847
_cell_angle_gamma 90.000000
_cell_volume 1324.814230
_symmetry_space_group_name_H-M "C C"
_symmetry_group_IT_number 9
_symmetry_cell_setting 'monoclinic'
loop_
_space_group_symop_operation_xyz
x,y,z
x,-y,1/2+z
1/2+x,1/2+y,z
1/2+x,1/2-y,1/2+z
loop_
_atom_site_type_symbol
_atom_site_label
_atom_site_fract_x
_atom_site_fract_y
_atom_site_fract_z
Si Si1 0.541150 0.567413 0.937490
Si Si2 0.467691 0.283698 0.072656
Si Si3 0.734000 0.927775 0.378918
Si Si4 0.936669 0.664431 0.610115
Si Si5 0.900019 0.628795 0.800713
Si Si6 0.062889 0.933297 0.679822
Si Si7 0.373153 0.859664 0.514941
Si Si8 0.208149 0.556829 0.637931
O O1 0.564495 0.413998 0.953290
O O2 0.739183 0.614679 0.741521
O O3 0.309870 0.357744 0.247329
O O4 0.366394 0.552046 0.030223
O O5 0.591059 0.191741 0.022127
O O6 0.395401 0.173615 0.075775
O O7 0.483042 0.682832 0.042261
O O8 0.621655 0.067574 0.449717
O O9 0.902695 0.959056 0.290436
O O10 0.896002 0.643263 0.723767
O O11 0.954091 0.786031 0.779356
O O12 0.071194 0.532750 0.687308
O O13 0.707826 0.583599 0.996255
O O14 0.198703 0.952666 0.632155
O O15 0.320307 0.702508 0.532409
O O16 0.561557 0.914105 0.321749
#
# Coordination Sequence:
#
# PCOD9134474 Si02
#       8
#     4   4   4   4   4   4   4   4
#     4  11  23  41  65  96 135 173 220 276 336 397
#     4  11  22  40  65  96 132 173 222 280 333 395
#     4  12  25  41  65  98 134 173 223 280 339 396
#     4  12  24  40  66  98 131 174 224 279 333 399
#     4  10  19  36  64  98 131 171 223 272 325 396
#     4  10  20  36  62  96 133 172 219 275 328 389
#     4   9  19  36  61  92 128 169 217 264 322 391
#     4   9  20  38  62  94 132 171 218 278 328 387
#
# _framework density 24.154329000000001
#
# number of rings (size 3 to 8) (size 9 to 14) (size 15 to 20)
#    0.000    1.500    0.000    6.750    0.000    3.000 
#    0.000    0.000    0.000   22.500    0.000    7.000 
#    0.000    0.000    0.000    0.000    0.000    0.000 
#
# Total GULP energy -89488.818877 kJ/mol
# GULP energy per Si atom -5593.051180 kJ/mol
# Density = 2.409935 g / cm^3
# Si number density = 24.154329 Si / 1000 Ang^3
#
#
#
# Elastic Constant Matrix: (Units=GPa)
#
#
# Indices 1 2 3 4 5 6 
#
# 1 123.6414 52.6336 71.5064 0.0005 -22.7682 0.0000
# 2 52.6336 88.5017 48.5204 -0.0048 -18.6685 0.0005
# 3 71.5064 48.5204 139.3313 -0.0064 -26.4840 0.0010
# 4 0.0005 -0.0048 -0.0064 45.9008 0.0010 -16.6102
# 5 -22.7682 -18.6685 -26.4840 0.0010 43.8651 0.0000
# 6 0.0000 0.0005 0.0010 -16.6102 0.0000 30.7548
#
#
#
# Elastic Compliance Matrix: (Units=1/GPa)
#
#
# Indices 1 2 3 4 5 6 
#
# 1 0.013264 -0.004880 -0.004738 -0.000002 0.001947 -0.000001
# 2 -0.004880 0.016224 -0.002614 0.000002 0.002793 0.000001
# 3 -0.004738 -0.002614 0.011116 0.000001 0.003140 0.000000
# 4 -0.000002 0.000002 0.000001 0.027078 0.000000 0.014625
# 5 0.001947 0.002793 0.003140 0.000000 0.026892 0.000000
# 6 -0.000001 0.000001 0.000000 0.014625 0.000000 0.040414
#
#
# Mechanical properties :
#
#
# Convention : Reuss Voigt Hill
#
# Bulk Modulus (GPa) = 61.95983 77.42170 69.69077
# Shear Modulus (GPa) = 30.33397 36.02509 33.17953
#
# Velocity S-wave (km/s) = 3.54763 3.86613 3.71030
# Velocity P-wave (km/s) = 6.51830 7.21469 6.87532
#
# Compressibility (1/GPa) = 0.01613949
#
# Stress axis : x y z
#
# Youngs Moduli (GPa) = 75.39278 61.63692 89.96307
#
# Poissons Ratio (x) = 0.30080 0.42621
# Poissons Ratio (y) = 0.36793 0.23519
# Poissons Ratio (z) = 0.35718 0.16114
#
# Static dielectric constant tensor:
#      x y z
#    x 2.004260 0.000000 -0.029480 
#    y 0.000000 1.931180 0.000000 
#    z -0.029480 0.000000 2.024140 
# 
# From -- ./inp_files/9428.got.cif
#   From: 2010.05.17/outbox.cif.g08.bks.cpg/sg9_5_cif.got.tgz:9428.got - 2010.06.03 20:04:27.
