data_PCOD9134653
_publ_section_title
;
Structure prediction by ZEFSAII (Michael W. Deem and Ramdas Pophale) SiO2 
 PCOD9134653
Probable space group: C C
;
_chemical_formula_sum "Si O2"
_cell_formula_units_Z 28
_cell_length_a 9.511179
_cell_length_b 13.572972
_cell_length_c 10.051930
_cell_angle_alpha 90.000000
_cell_angle_beta 88.295014
_cell_angle_gamma 90.000000
_cell_volume 1297.079060
_symmetry_space_group_name_H-M "C C"
_symmetry_group_IT_number 9
_symmetry_cell_setting 'monoclinic'
loop_
_space_group_symop_operation_xyz
x,y,z
x,-y,1/2+z
1/2+x,1/2+y,z
1/2+x,1/2-y,1/2+z
loop_
_atom_site_type_symbol
_atom_site_label
_atom_site_fract_x
_atom_site_fract_y
_atom_site_fract_z
Si Si1 0.691830 0.925011 0.253150
Si Si2 0.539070 0.307803 0.401125
Si Si3 0.073443 0.119041 0.454549
Si Si4 0.266458 0.691333 0.505752
Si Si5 0.750060 0.197338 0.012469
Si Si6 0.101255 0.381623 0.776881
Si Si7 0.505440 0.508726 0.710163
O O1 0.700476 0.875489 0.396231
O O2 0.835348 0.984655 0.210555
O O3 0.567956 0.005431 0.245401
O O4 0.697333 0.837708 0.146718
O O5 0.693278 0.290284 0.456303
O O6 0.417565 0.319482 0.512825
O O7 0.497409 0.203908 0.329444
O O8 0.540525 0.392641 0.293507
O O9 0.932891 0.182560 0.494560
O O10 0.066512 0.028423 0.561068
O O11 0.202165 0.192108 0.477187
O O12 0.058434 0.078524 0.304639
O O13 0.206062 0.612224 0.401171
O O14 0.677839 0.167664 0.150737
#
# Coordination Sequence:
#
# PCOD9134653 Si02
#       7
#     4   4   4   4   4   4   4
#     4  10  20  35  62  89 107 155 199 243 272 358
#     4   9  21  39  57  84 117 154 184 250 280 351
#     4  11  21  38  59  90 113 159 195 244 279 350
#     4   9  20  36  59  85 118 143 203 233 292 331
#     4  11  23  37  63  85 120 150 195 237 307 333
#     4  10  19  39  60  84 114 151 193 243 281 341
#     4  10  20  36  60  85 119 148 201 236 287 334
#
# _framework density 21.586964999999999
#
# number of rings (size 3 to 8) (size 9 to 14) (size 15 to 20)
#    0.857    1.143    2.857    0.857    6.000    2.286 
#    0.000    2.857    0.000    0.000    0.000    0.000 
#    0.000    0.000    0.000    0.000    0.000    0.000 
#
# Total GULP energy -77995.520630 kJ/mol
# GULP energy per Si atom -5571.108616 kJ/mol
# Density = 2.153783 g / cm^3
# Si number density = 21.586965 Si / 1000 Ang^3
#
#
#
# Elastic Constant Matrix: (Units=GPa)
#
#
# Indices 1 2 3 4 5 6 
#
# 1 28.6643 9.0961 12.1477 0.0000 1.4362 0.0000
# 2 9.0961 57.3053 -4.0959 0.0000 2.0253 0.0000
# 3 12.1477 -4.0959 91.9267 0.0000 -5.7832 0.0000
# 4 0.0000 0.0000 0.0000 33.3560 0.0000 8.9296
# 5 1.4362 2.0253 -5.7832 0.0000 23.4688 0.0000
# 6 0.0000 0.0000 0.0000 8.9296 0.0000 16.8045
#
#
#
# Elastic Compliance Matrix: (Units=1/GPa)
#
#
# Indices 1 2 3 4 5 6 
#
# 1 0.039563 -0.006574 -0.005726 0.000000 -0.003265 0.000000
# 2 -0.006574 0.018640 0.001649 0.000000 -0.000800 0.000000
# 3 -0.005726 0.001649 0.011906 0.000000 0.003142 0.000000
# 4 0.000000 0.000000 0.000000 0.034952 0.000000 -0.018572
# 5 -0.003265 -0.000800 0.003142 0.000000 0.043653 0.000000
# 6 0.000000 0.000000 0.000000 -0.018572 0.000000 0.069377
#
#
# Mechanical properties :
#
#
# Convention : Reuss Voigt Hill
#
# Bulk Modulus (GPa) = 20.48903 23.57689 22.03296
# Shear Modulus (GPa) = 19.55711 25.44243 22.49977
#
# Velocity S-wave (km/s) = 3.01320 3.43680 3.23195
# Velocity P-wave (km/s) = 4.64949 5.16666 4.91488
#
# Compressibility (1/GPa) = 0.04880661
#
# Stress axis : x y z
#
# Youngs Moduli (GPa) = 25.27616 53.64819 83.99070
#
# Poissons Ratio (x) = 0.35267 0.48096
# Poissons Ratio (y) = 0.16616 -0.13849
# Poissons Ratio (z) = 0.14474 -0.08846
#
# Static dielectric constant tensor:
#      x y z
#    x 1.758800 0.000000 0.019460 
#    y 0.000000 1.828140 0.000000 
#    z 0.019460 0.000000 1.790240 
# 
# From -- ./inp_files/16012.got.cif
#   From: 2010.05.17/outbox.cif.g08.bks.cpg/sg9_9_cif.got.tgz:16012.got - 2010.06.03 20:04:27.
