data_PCOD9134145
_publ_section_title
;
Structure prediction by ZEFSAII (Michael W. Deem and Ramdas Pophale) SiO2 
 PCOD9134145
Probable space group: C C
;
_chemical_formula_sum "Si O2"
_cell_formula_units_Z 28
_cell_length_a 16.305949
_cell_length_b 14.120407
_cell_length_c 7.420533
_cell_angle_alpha 90.000000
_cell_angle_beta 140.734713
_cell_angle_gamma 90.000000
_cell_volume 1081.363411
_symmetry_space_group_name_H-M "C C"
_symmetry_group_IT_number 9
_symmetry_cell_setting 'monoclinic'
loop_
_space_group_symop_operation_xyz
x,y,z
x,-y,1/2+z
1/2+x,1/2+y,z
1/2+x,1/2-y,1/2+z
loop_
_atom_site_type_symbol
_atom_site_label
_atom_site_fract_x
_atom_site_fract_y
_atom_site_fract_z
Si Si1 0.429660 0.095996 0.689360
Si Si2 0.650337 0.871864 0.827168
Si Si3 0.607136 0.348382 0.219147
Si Si4 0.931843 0.126587 0.893086
Si Si5 0.169439 0.017309 0.154850
Si Si6 0.056175 0.667968 0.561651
Si Si7 0.846364 0.191842 0.140299
O O1 0.307017 0.029013 0.485389
O O2 0.470103 0.108256 0.551031
O O3 0.376879 0.197664 0.666513
O O4 0.555241 0.078997 0.024731
O O5 0.656643 0.758544 0.800392
O O6 0.797909 0.906170 0.072561
O O7 0.586633 0.874859 0.917979
O O8 0.649789 0.404543 0.111766
O O9 0.662783 0.408695 0.479393
O O10 0.450598 0.344558 0.961381
O O11 0.887449 0.143066 0.022600
O O12 0.045356 0.051601 0.059401
O O13 0.989010 0.228759 0.927584
O O14 0.193909 0.679339 0.899056
#
# Coordination Sequence:
#
# PCOD9134145 Si02
#       7
#     4   4   4   4   4   4   4
#     4  10  22  38  66  98 131 171 219 284 328 387
#     4  10  22  41  69 100 126 170 223 276 342 380
#     4  11  23  40  62  92 134 176 215 266 338 404
#     4  10  19  38  66  94 127 162 218 284 317 395
#     4  12  23  43  62  96 135 173 222 266 340 404
#     4  10  18  37  67  98 131 156 230 282 322 389
#     4   9  19  37  62  98 118 170 219 276 331 377
#
# _framework density 25.893238
#
# number of rings (size 3 to 8) (size 9 to 14) (size 15 to 20)
#    0.000    1.714    2.857    2.571    2.000    0.000 
#   10.286    0.000    6.286    0.000    0.000    0.000 
#    0.000    0.000    0.000    0.000    0.000    0.000 
#
# Total GULP energy -78440.311562 kJ/mol
# GULP energy per Si atom -5602.879397 kJ/mol
# Density = 2.583430 g / cm^3
# Si number density = 25.893238 Si / 1000 Ang^3
#
#
#
# Elastic Constant Matrix: (Units=GPa)
#
#
# Indices 1 2 3 4 5 6 
#
# 1 93.5303 31.3127 41.9427 0.0000 19.1171 0.0000
# 2 31.3127 91.4003 26.7374 0.0000 1.8394 0.0000
# 3 41.9427 26.7374 204.0781 0.0000 25.2149 0.0000
# 4 0.0000 0.0000 0.0000 27.3975 0.0000 4.2359
# 5 19.1171 1.8394 25.2149 0.0000 43.5700 0.0000
# 6 0.0000 0.0000 0.0000 4.2359 0.0000 26.5835
#
#
#
# Elastic Compliance Matrix: (Units=1/GPa)
#
#
# Indices 1 2 3 4 5 6 
#
# 1 0.013846 -0.004149 -0.001694 0.000000 -0.004920 0.000000
# 2 -0.004149 0.012627 -0.001035 0.000000 0.001886 0.000000
# 3 -0.001694 -0.001035 0.005694 0.000000 -0.002508 0.000000
# 4 0.000000 0.000000 0.000000 0.037422 0.000000 -0.005963
# 5 -0.004920 0.001886 -0.002508 0.000000 0.026482 0.000000
# 6 0.000000 0.000000 0.000000 -0.005963 0.000000 0.038567
#
#
# Mechanical properties :
#
#
# Convention : Reuss Voigt Hill
#
# Bulk Modulus (GPa) = 54.31514 65.44382 59.87948
# Shear Modulus (GPa) = 32.35611 38.77793 35.56702
#
# Velocity S-wave (km/s) = 3.53880 3.87409 3.71024
# Velocity P-wave (km/s) = 6.14163 6.73356 6.44439
#
# Compressibility (1/GPa) = 0.01841107
#
# Stress axis : x y z
#
# Youngs Moduli (GPa) = 72.22298 79.19567 175.63173
#
# Poissons Ratio (x) = 0.32857 0.29757
# Poissons Ratio (y) = 0.29964 0.18172
# Poissons Ratio (z) = 0.12237 0.08194
#
# Static dielectric constant tensor:
#      x y z
#    x 2.038960 0.000000 -0.075960 
#    y 0.000000 1.963930 0.000000 
#    z -0.075960 0.000000 2.052440 
# 
# From -- ./inp_files/10979.got.cif
#   From: 2010.05.17/outbox.cif.g08.bks.cpg/sg9_6_cif.got.tgz:10979.got - 2010.06.03 20:04:27.
