data_PCOD9134101
_publ_section_title
;
Structure prediction by ZEFSAII (Michael W. Deem and Ramdas Pophale) SiO2 
 PCOD9134101
Probable space group: C C
;
_chemical_formula_sum "Si O2"
_cell_formula_units_Z 32
_cell_length_a 8.181256
_cell_length_b 17.325836
_cell_length_c 12.318386
_cell_angle_alpha 90.000000
_cell_angle_beta 66.269489
_cell_angle_gamma 90.000000
_cell_volume 1598.460355
_symmetry_space_group_name_H-M "C C"
_symmetry_group_IT_number 9
_symmetry_cell_setting 'monoclinic'
loop_
_space_group_symop_operation_xyz
x,y,z
x,-y,1/2+z
1/2+x,1/2+y,z
1/2+x,1/2-y,1/2+z
loop_
_atom_site_type_symbol
_atom_site_label
_atom_site_fract_x
_atom_site_fract_y
_atom_site_fract_z
Si Si1 0.248910 0.206916 0.778310
Si Si2 0.511876 0.189718 0.107837
Si Si3 0.414095 0.624476 0.231648
Si Si4 0.843587 0.959258 0.301056
Si Si5 0.203265 0.162927 0.334660
Si Si6 0.038029 0.664797 0.870849
Si Si7 0.420805 0.633516 0.983901
Si Si8 0.112340 0.858818 0.100230
O O1 0.299563 0.296900 0.766360
O O2 0.399979 0.167472 0.810555
O O3 0.246499 0.170236 0.658729
O O4 0.056715 0.190032 0.884317
O O5 0.402466 0.155530 0.236109
O O6 0.490007 0.282004 0.120003
O O7 0.437497 0.160275 0.013095
O O8 0.720982 0.168286 0.048466
O O9 0.305229 0.547741 0.288566
O O10 0.568401 0.628257 0.281396
O O11 0.483214 0.618366 0.089413
O O12 0.675482 0.904566 0.324380
O O13 0.903302 0.939991 0.408702
O O14 0.000429 0.928808 0.179859
O O15 0.145283 0.253716 0.351215
O O16 0.185668 0.129174 0.460011
#
# Coordination Sequence:
#
# PCOD9134101 Si02
#       8
#     4   4   4   4   4   4   4   4
#     4  10  21  40  65  94 119 167 223 261 313 379
#     4  10  18  36  64  86 119 165 216 259 303 372
#     4  11  23  39  66  99 126 167 209 272 321 381
#     4  10  22  40  63  92 131 167 199 263 338 374
#     4  10  21  36  61  96 120 167 223 254 310 386
#     4   9  19  37  62  90 123 164 209 264 311 381
#     4  10  22  40  66  85 128 170 211 262 312 383
#     4  10  20  36  61  90 124 169 208 261 316 382
#
# _framework density 20.019262999999999
#
# number of rings (size 3 to 8) (size 9 to 14) (size 15 to 20)
#    0.000    2.000    2.500    0.750    3.500    0.000 
#    0.000    2.500   13.750    0.000    0.000    0.000 
#    0.000    0.000    0.000    0.000    0.000    0.000 
#
# Total GULP energy -89262.898823 kJ/mol
# GULP energy per Si atom -5578.931176 kJ/mol
# Density = 1.997370 g / cm^3
# Si number density = 20.019263 Si / 1000 Ang^3
#
#
#
# Elastic Constant Matrix: (Units=GPa)
#
#
# Indices 1 2 3 4 5 6 
#
# 1 96.7400 22.7215 59.6267 0.0000 24.8197 0.0000
# 2 22.7215 52.0532 15.3288 0.0000 15.2472 0.0000
# 3 59.6267 15.3288 154.9318 0.0000 30.9432 0.0000
# 4 0.0000 0.0000 0.0000 13.0725 0.0000 0.4725
# 5 24.8197 15.2472 30.9432 0.0000 34.2362 0.0000
# 6 0.0000 0.0000 0.0000 0.4725 0.0000 16.8571
#
#
#
# Elastic Compliance Matrix: (Units=1/GPa)
#
#
# Indices 1 2 3 4 5 6 
#
# 1 0.015368 -0.003809 -0.004456 0.000000 -0.005418 0.000000
# 2 -0.003809 0.023047 0.000835 0.000000 -0.008257 0.000000
# 3 -0.004456 0.000835 0.009171 0.000000 -0.005431 0.000000
# 4 0.000000 0.000000 0.000000 0.076574 0.000000 -0.002146
# 5 -0.005418 -0.008257 -0.005431 0.000000 0.041722 0.000000
# 6 0.000000 0.000000 0.000000 -0.002146 0.000000 0.059382
#
#
# Mechanical properties :
#
#
# Convention : Reuss Voigt Hill
#
# Bulk Modulus (GPa) = 30.55674 55.45323 43.00499
# Shear Modulus (GPa) = 19.91772 26.56967 23.24370
#
# Velocity S-wave (km/s) = 3.15767 3.64704 3.41114
# Velocity P-wave (km/s) = 5.34708 6.74497 6.08629
#
# Compressibility (1/GPa) = 0.03272600
#
# Stress axis : x y z
#
# Youngs Moduli (GPa) = 65.07109 43.39042 109.03613
#
# Poissons Ratio (x) = 0.16528 0.48582
# Poissons Ratio (y) = 0.24787 -0.09103
# Poissons Ratio (z) = 0.28993 -0.03623
#
# Static dielectric constant tensor:
#      x y z
#    x 1.725080 0.000000 0.026350 
#    y 0.000000 1.688330 0.000000 
#    z 0.026350 0.000000 1.737610 
# 
# From -- ./inp_files/14811.got.cif
#   From: 2010.05.17/outbox.cif.g08.bks.cpg/sg9_8_cif.got.tgz:14811.got - 2010.06.03 20:04:27.
