data_PCOD9134465
_publ_section_title
;
Structure prediction by ZEFSAII (Michael W. Deem and Ramdas Pophale) SiO2 
 PCOD9134465
Probable space group: C C
;
_chemical_formula_sum "Si O2"
_cell_formula_units_Z 32
_cell_length_a 15.692944
_cell_length_b 5.626417
_cell_length_c 18.920584
_cell_angle_alpha 90.000000
_cell_angle_beta 44.685332
_cell_angle_gamma 90.000000
_cell_volume 1174.782832
_symmetry_space_group_name_H-M "C C"
_symmetry_group_IT_number 9
_symmetry_cell_setting 'monoclinic'
loop_
_space_group_symop_operation_xyz
x,y,z
x,-y,1/2+z
1/2+x,1/2+y,z
1/2+x,1/2-y,1/2+z
loop_
_atom_site_type_symbol
_atom_site_label
_atom_site_fract_x
_atom_site_fract_y
_atom_site_fract_z
Si Si1 0.070810 0.555835 0.766420
Si Si2 0.735876 0.969979 0.801306
Si Si3 0.303507 0.066418 0.653005
Si Si4 0.198220 0.013514 0.471216
Si Si5 0.531509 0.543316 0.808791
Si Si6 0.528945 0.319104 0.471282
Si Si7 0.882540 0.365572 0.739829
Si Si8 0.161418 0.485608 0.069349
O O1 0.137700 0.575602 0.802319
O O2 0.994995 0.309173 0.808305
O O3 0.176196 0.531288 0.645552
O O4 0.987335 0.788453 0.809779
O O5 0.847283 0.092282 0.775725
O O6 0.791188 0.764080 0.721358
O O7 0.638025 0.871316 0.914532
O O8 0.171460 0.033438 0.699656
O O9 0.407910 0.165645 0.543327
O O10 0.340098 0.852391 0.682087
O O11 0.203150 0.771061 0.514848
O O12 0.064038 0.000237 0.512902
O O13 0.289611 0.015031 0.350093
O O14 0.208945 0.265877 0.507351
O O15 0.533360 0.555794 0.892724
O O16 0.014215 0.480013 0.656375
#
# Coordination Sequence:
#
# PCOD9134465 Si02
#       8
#     4   4   4   4   4   4   4   4
#     4  10  21  45  63  88 130 177 211 259 335 385
#     4  10  21  41  65  93 135 165 219 281 329 382
#     4  10  19  36  62  99 122 166 208 276 330 387
#     4  12  24  42  64  97 135 170 221 272 332 392
#     4  10  21  41  66  90 131 165 212 277 320 384
#     4  10  19  38  64 102 130 162 226 279 338 381
#     4  12  23  41  67  96 132 169 220 282 327 388
#     4  12  28  42  67  95 135 182 217 266 333 411
#
# _framework density 27.239077000000002
#
# number of rings (size 3 to 8) (size 9 to 14) (size 15 to 20)
#    0.000    1.500    5.000    2.250    0.000    1.000 
#    4.500   10.000    0.000    0.000    0.000    0.000 
#    0.000    0.000    0.000    0.000    0.000    0.000 
#
# Total GULP energy -89244.102219 kJ/mol
# GULP energy per Si atom -5577.756389 kJ/mol
# Density = 2.717708 g / cm^3
# Si number density = 27.239077 Si / 1000 Ang^3
#
#
#
# Elastic Constant Matrix: (Units=GPa)
#
#
# Indices 1 2 3 4 5 6 
#
# 1 43.5333 22.5207 11.3629 0.0027 -6.6420 0.0007
# 2 22.5207 194.7263 52.5900 -0.0094 16.8915 -0.0132
# 3 11.3629 52.5900 106.3084 0.0005 -7.4362 0.0010
# 4 0.0027 -0.0094 0.0005 32.2789 -0.0006 13.3226
# 5 -6.6420 16.8915 -7.4362 -0.0006 53.7187 0.0003
# 6 0.0007 -0.0132 0.0010 13.3226 0.0003 36.8859
#
#
#
# Elastic Compliance Matrix: (Units=1/GPa)
#
#
# Indices 1 2 3 4 5 6 
#
# 1 0.025386 -0.003026 -0.000940 -0.000003 0.003960 -0.000001
# 2 -0.003026 0.006581 -0.003134 0.000001 -0.002877 0.000002
# 3 -0.000940 -0.003134 0.011227 0.000000 0.002423 -0.000001
# 4 -0.000003 0.000001 0.000000 0.036407 0.000000 -0.013150
# 5 0.003960 -0.002877 0.002423 0.000000 0.020345 -0.000001
# 6 -0.000001 0.000002 -0.000001 -0.013150 -0.000001 0.031860
#
#
# Mechanical properties :
#
#
# Convention : Reuss Voigt Hill
#
# Bulk Modulus (GPa) = 34.48764 57.50169 45.99466
# Shear Modulus (GPa) = 32.11938 41.78299 36.95118
#
# Velocity S-wave (km/s) = 3.43762 3.92080 3.68713
# Velocity P-wave (km/s) = 5.33338 6.45389 5.92020
#
# Compressibility (1/GPa) = 0.02899589
#
# Stress axis : x y z
#
# Youngs Moduli (GPa) = 39.39233 151.94760 89.07359
#
# Poissons Ratio (x) = 0.45975 0.08369
# Poissons Ratio (y) = 0.11919 0.27912
# Poissons Ratio (z) = 0.03701 0.47613
#
# Static dielectric constant tensor:
#      x y z
#    x 2.313510 0.000000 0.032520 
#    y 0.000000 2.332150 0.000000 
#    z 0.032520 0.000000 2.121390 
# 
# From -- ./inp_files/34227.got.cif
#   From: 2010.05.17/outbox.cif.g08.bks.cpg/sg9_18_cif.got.tgz:34227.got - 2010.06.03 20:04:27.
