data_PCOD9134576
_publ_section_title
;
Structure prediction by ZEFSAII (Michael W. Deem and Ramdas Pophale) SiO2 
 PCOD9134576
Probable space group: C C
;
_chemical_formula_sum "Si O2"
_cell_formula_units_Z 28
_cell_length_a 9.575525
_cell_length_b 17.159980
_cell_length_c 8.879918
_cell_angle_alpha 90.000000
_cell_angle_beta 91.825079
_cell_angle_gamma 90.000000
_cell_volume 1458.370801
_symmetry_space_group_name_H-M "C C"
_symmetry_group_IT_number 9
_symmetry_cell_setting 'monoclinic'
loop_
_space_group_symop_operation_xyz
x,y,z
x,-y,1/2+z
1/2+x,1/2+y,z
1/2+x,1/2-y,1/2+z
loop_
_atom_site_type_symbol
_atom_site_label
_atom_site_fract_x
_atom_site_fract_y
_atom_site_fract_z
Si Si1 0.822340 0.745578 0.737720
Si Si2 0.757698 0.490826 0.934958
Si Si3 0.627467 0.602023 0.704133
Si Si4 0.873703 0.803689 0.068023
Si Si5 0.582100 0.146275 0.706844
Si Si6 0.963645 0.527957 0.177519
Si Si7 0.592219 0.166947 0.063874
O O1 0.722408 0.671877 0.773814
O O2 0.733359 0.789721 0.610778
O O3 0.961400 0.709210 0.673069
O O4 0.854885 0.797739 0.885807
O O5 0.641840 0.534301 0.829927
O O6 0.873357 0.460019 0.823356
O O7 0.697695 0.429843 0.052349
O O8 0.852552 0.546704 0.041518
O O9 0.478179 0.632897 0.645538
O O10 0.723336 0.823559 0.133760
O O11 0.959707 0.722747 0.099166
O O12 0.524392 0.059667 0.664924
O O13 0.594864 0.146859 0.888442
O O14 0.084137 0.589925 0.163516
#
# Coordination Sequence:
#
# PCOD9134576 Si02
#       7
#     4   4   4   4   4   4   4
#     4  10  21  40  65  88 127 166 218 254 321 385
#     4  10  19  37  68  88 126 166 214 260 318 382
#     4  10  21  42  62  96 123 169 214 264 315 390
#     4  10  24  41  62  90 134 163 211 269 319 378
#     4  11  22  42  62  93 129 165 215 265 317 384
#     4  11  20  38  67  96 121 168 217 267 316 384
#     4  10  23  40  62  95 124 167 215 261 320 385
#
# _framework density 19.199508000000002
#
# number of rings (size 3 to 8) (size 9 to 14) (size 15 to 20)
#    0.000    1.714    4.286    0.857    2.000    5.714 
#    5.143    1.429    0.000    0.000    0.000    0.000 
#    0.000    0.000    0.000    0.000    0.000    0.000 
#
# Total GULP energy -77979.599520 kJ/mol
# GULP energy per Si atom -5569.971394 kJ/mol
# Density = 1.915581 g / cm^3
# Si number density = 19.199508 Si / 1000 Ang^3
#
#
#
# Elastic Constant Matrix: (Units=GPa)
#
#
# Indices 1 2 3 4 5 6 
#
# 1 125.5681 40.8972 24.1499 0.0000 7.8267 0.0000
# 2 40.8972 72.2903 35.4174 0.0000 7.6744 0.0000
# 3 24.1499 35.4174 75.0483 0.0000 12.2688 0.0000
# 4 0.0000 0.0000 0.0000 22.4736 0.0000 10.0294
# 5 7.8267 7.6744 12.2688 0.0000 26.0556 0.0000
# 6 0.0000 0.0000 0.0000 10.0294 0.0000 23.9549
#
#
#
# Elastic Compliance Matrix: (Units=1/GPa)
#
#
# Indices 1 2 3 4 5 6 
#
# 1 0.009824 -0.005175 -0.000526 0.000000 -0.001179 0.000000
# 2 -0.005175 0.020767 -0.008006 0.000000 -0.000793 0.000000
# 3 -0.000526 -0.008006 0.018267 0.000000 -0.006085 0.000000
# 4 0.000000 0.000000 0.000000 0.054721 0.000000 -0.022910
# 5 -0.001179 -0.000793 -0.006085 0.000000 0.041832 0.000000
# 6 0.000000 0.000000 0.000000 -0.022910 0.000000 0.051337
#
#
# Mechanical properties :
#
#
# Convention : Reuss Voigt Hill
#
# Bulk Modulus (GPa) = 46.63255 52.64840 49.64048
# Shear Modulus (GPa) = 21.61597 25.99297 23.80447
#
# Velocity S-wave (km/s) = 3.35902 3.68344 3.52497
# Velocity P-wave (km/s) = 6.27576 6.75067 6.51755
#
# Compressibility (1/GPa) = 0.02144425
#
# Stress axis : x y z
#
# Youngs Moduli (GPa) = 101.79251 48.15315 54.74305
#
# Poissons Ratio (x) = 0.24918 0.02882
# Poissons Ratio (y) = 0.52674 0.43826
# Poissons Ratio (z) = 0.05359 0.38551
#
# Static dielectric constant tensor:
#      x y z
#    x 1.668890 0.000000 0.012720 
#    y 0.000000 1.712600 0.000000 
#    z 0.012720 0.000000 1.690950 
# 
# From -- ./inp_files/5236.got.cif
#   From: 2010.05.17/outbox.cif.g08.bks.cpg/sg9_3_cif.got.tgz:5236.got - 2010.06.03 20:04:27.
