data_PCOD9134783
_publ_section_title
;
Structure prediction by ZEFSAII (Michael W. Deem and Ramdas Pophale) SiO2 
 PCOD9134783
Probable space group: C C
;
_chemical_formula_sum "Si O2"
_cell_formula_units_Z 32
_cell_length_a 20.916564
_cell_length_b 11.475993
_cell_length_c 5.182199
_cell_angle_alpha 90.000000
_cell_angle_beta 82.096594
_cell_angle_gamma 90.000000
_cell_volume 1232.110761
_symmetry_space_group_name_H-M "C C"
_symmetry_group_IT_number 9
_symmetry_cell_setting 'monoclinic'
loop_
_space_group_symop_operation_xyz
x,y,z
x,-y,1/2+z
1/2+x,1/2+y,z
1/2+x,1/2-y,1/2+z
loop_
_atom_site_type_symbol
_atom_site_label
_atom_site_fract_x
_atom_site_fract_y
_atom_site_fract_z
Si Si1 0.503190 0.662276 0.105700
Si Si2 0.534340 0.921155 0.073342
Si Si3 0.152031 0.869561 0.474900
Si Si4 0.314645 0.569430 0.421350
Si Si5 0.676757 0.075875 0.613005
Si Si6 0.433512 0.319720 0.145897
Si Si7 0.212802 0.869571 0.939414
Si Si8 0.864119 0.580135 0.299382
O O1 0.496034 0.802351 0.093915
O O2 0.575210 0.622453 0.990320
O O3 0.491329 0.647204 0.417216
O O4 0.453270 0.621916 0.909169
O O5 0.524269 0.004911 0.321801
O O6 0.607963 0.875758 0.063715
O O7 0.188785 0.812320 0.215593
O O8 0.185186 0.997883 0.477016
O O9 0.172372 0.813196 0.732872
O O10 0.315912 0.457757 0.616743
O O11 0.246745 0.627895 0.519993
O O12 0.373763 0.361120 0.004663
O O13 0.676859 0.036016 0.911508
O O14 0.412140 0.186797 0.214667
O O15 0.289185 0.875202 0.847930
O O16 0.872420 0.514811 0.567700
#
# Coordination Sequence:
#
# PCOD9134783 Si02
#       8
#     4   4   4   4   4   4   4   4
#     4  12  26  44  59  96 142 174 236 268 328 422
#     4  10  21  39  65  90 121 169 216 273 329 385
#     4  10  20  39  65  92 136 159 212 290 329 413
#     4  10  21  44  67  90 127 167 220 277 326 392
#     4   8  16  33  60  88 111 143 202 260 323 371
#     4  12  28  44  62 100 136 188 235 264 338 424
#     4  10  19  41  68 102 125 161 225 278 364 392
#     4  12  23  44  72 100 142 173 234 300 349 415
#
# _framework density 25.971691
#
# number of rings (size 3 to 8) (size 9 to 14) (size 15 to 20)
#    0.000    1.500    2.500    3.000    0.000    4.000 
#   13.500    6.250    0.000    0.000    0.000    0.000 
#    0.000    0.000    0.000    0.000    0.000    0.000 
#
# Total GULP energy -89441.592956 kJ/mol
# GULP energy per Si atom -5590.099560 kJ/mol
# Density = 2.591258 g / cm^3
# Si number density = 25.971691 Si / 1000 Ang^3
#
#
#
# Elastic Constant Matrix: (Units=GPa)
#
#
# Indices 1 2 3 4 5 6 
#
# 1 108.6024 15.9521 33.1143 0.0000 11.3315 0.0000
# 2 15.9521 52.9037 14.3453 0.0000 -3.6647 0.0000
# 3 33.1143 14.3453 171.4604 0.0000 18.3967 0.0000
# 4 0.0000 0.0000 0.0000 44.5027 0.0000 -14.1181
# 5 11.3315 -3.6647 18.3967 0.0000 39.6329 0.0000
# 6 0.0000 0.0000 0.0000 -14.1181 0.0000 67.1365
#
#
#
# Elastic Compliance Matrix: (Units=1/GPa)
#
#
# Indices 1 2 3 4 5 6 
#
# 1 0.010350 -0.002894 -0.001485 0.000000 -0.002538 0.000000
# 2 -0.002894 0.020423 -0.001517 0.000000 0.003420 0.000000
# 3 -0.001485 -0.001517 0.006541 0.000000 -0.002752 0.000000
# 4 0.000000 0.000000 0.000000 0.024077 0.000000 0.005063
# 5 -0.002538 0.003420 -0.002752 0.000000 0.027551 0.000000
# 6 0.000000 0.000000 0.000000 0.005063 0.000000 0.015960
#
#
# Mechanical properties :
#
#
# Convention : Reuss Voigt Hill
#
# Bulk Modulus (GPa) = 39.17912 51.08777 45.13344
# Shear Modulus (GPa) = 39.93577 48.22474 44.08025
#
# Velocity S-wave (km/s) = 3.92556 4.31376 4.12423
# Velocity P-wave (km/s) = 5.97200 6.67268 6.33204
#
# Compressibility (1/GPa) = 0.02552380
#
# Stress axis : x y z
#
# Youngs Moduli (GPa) = 96.61387 48.96401 152.87863
#
# Poissons Ratio (x) = 0.14171 0.22696
# Poissons Ratio (y) = 0.27962 0.23187
# Poissons Ratio (z) = 0.14343 0.07426
#
# Static dielectric constant tensor:
#      x y z
#    x 2.030940 0.000000 -0.024370 
#    y 0.000000 1.370600 0.000000 
#    z -0.024370 0.000000 2.115920 
# 
# From -- ./inp_files/3162.got.cif
#   From: 2010.05.17/outbox.cif.g08.bks.cpg/sg9_2_cif.got.tgz:3162.got - 2010.06.03 20:04:27.
