data_PCOD9134767
_publ_section_title
;
Structure prediction by ZEFSAII (Michael W. Deem and Ramdas Pophale) SiO2 
 PCOD9134767
Probable space group: C C
;
_chemical_formula_sum "Si O2"
_cell_formula_units_Z 32
_cell_length_a 22.617327
_cell_length_b 9.284029
_cell_length_c 14.465092
_cell_angle_alpha 90.000000
_cell_angle_beta 147.070371
_cell_angle_gamma 90.000000
_cell_volume 1651.145161
_symmetry_space_group_name_H-M "C C"
_symmetry_group_IT_number 9
_symmetry_cell_setting 'monoclinic'
loop_
_space_group_symop_operation_xyz
x,y,z
x,-y,1/2+z
1/2+x,1/2+y,z
1/2+x,1/2-y,1/2+z
loop_
_atom_site_type_symbol
_atom_site_label
_atom_site_fract_x
_atom_site_fract_y
_atom_site_fract_z
Si Si1 0.342450 0.512655 0.448010
Si Si2 0.583424 0.808065 0.258433
Si Si3 0.141822 0.370417 0.793091
Si Si4 0.720106 0.622597 0.029583
Si Si5 0.515131 0.634696 0.533608
Si Si6 0.523858 0.588211 0.329966
Si Si7 0.848774 0.291515 0.875660
Si Si8 0.724333 0.441424 0.866800
O O1 0.245525 0.605292 0.362897
O O2 0.413395 0.590182 0.462626
O O3 0.423534 0.473361 0.638864
O O4 0.304232 0.362873 0.351817
O O5 0.555154 0.737620 0.320164
O O6 0.680840 0.711049 0.347072
O O7 0.610190 0.975011 0.291626
O O8 0.478266 0.782550 0.055614
O O9 0.169018 0.260829 0.911620
O O10 0.050344 0.294309 0.610516
O O11 0.624252 0.523187 0.947382
O O12 0.772851 0.528413 0.016617
O O13 0.804193 0.670553 0.217211
O O14 0.496999 0.613237 0.401303
O O15 0.617973 0.532207 0.695964
O O16 0.805385 0.411576 0.890074
#
# Coordination Sequence:
#
# PCOD9134767 Si02
#       8
#     4   4   4   4   4   4   4   4
#     4  11  23  41  66  92 129 170 208 260 319 372
#     4  10  22  42  60  92 128 160 207 266 310 367
#     4  11  24  41  63  97 129 159 216 269 300 379
#     4  10  22  40  66  93 121 169 211 257 315 376
#     4  11  22  43  65  91 130 168 210 257 318 375
#     4  10  21  44  66  88 128 174 202 256 327 376
#     4  11  21  40  67  91 124 170 210 251 323 375
#     4  10  19  41  63  88 129 162 206 258 312 378
#
# _framework density 19.380488
#
# number of rings (size 3 to 8) (size 9 to 14) (size 15 to 20)
#    0.000    1.500    7.500    0.000    1.750    3.000 
#    4.500    0.000    0.000    0.000    0.000    0.000 
#    0.000    0.000    0.000    0.000    0.000    0.000 
#
# Total GULP energy -89355.378534 kJ/mol
# GULP energy per Si atom -5584.711158 kJ/mol
# Density = 1.933638 g / cm^3
# Si number density = 19.380488 Si / 1000 Ang^3
#
#
#
# Elastic Constant Matrix: (Units=GPa)
#
#
# Indices 1 2 3 4 5 6 
#
# 1 110.9257 35.8120 51.8304 0.0000 -31.0295 0.0000
# 2 35.8120 114.6507 30.7136 0.0000 -16.8002 0.0000
# 3 51.8304 30.7136 72.4857 0.0000 -33.6610 0.0000
# 4 0.0000 0.0000 0.0000 23.2917 0.0000 -0.9425
# 5 -31.0295 -16.8002 -33.6610 0.0000 34.4327 0.0000
# 6 0.0000 0.0000 0.0000 -0.9425 0.0000 17.7244
#
#
#
# Elastic Compliance Matrix: (Units=1/GPa)
#
#
# Indices 1 2 3 4 5 6 
#
# 1 0.014359 -0.001830 -0.007138 0.000000 0.005069 0.000000
# 2 -0.001830 0.010105 -0.002655 0.000000 0.000686 0.000000
# 3 -0.007138 -0.002655 0.030101 0.000000 0.021699 0.000000
# 4 0.000000 0.000000 0.000000 0.043026 0.000000 0.002288
# 5 0.005069 0.000686 0.021699 0.000000 0.055157 0.000000
# 6 0.000000 0.000000 0.000000 0.002288 0.000000 0.056541
#
#
# Mechanical properties :
#
#
# Convention : Reuss Voigt Hill
#
# Bulk Modulus (GPa) = 31.92825 59.41933 45.67379
# Shear Modulus (GPa) = 20.57820 27.07019 23.82420
#
# Velocity S-wave (km/s) = 3.26206 3.74140 3.50992
# Velocity P-wave (km/s) = 5.54060 7.02780 6.32804
#
# Compressibility (1/GPa) = 0.03132023
#
# Stress axis : x y z
#
# Youngs Moduli (GPa) = 69.64224 98.95603 33.22153
#
# Poissons Ratio (x) = 0.18111 0.23713
# Poissons Ratio (y) = 0.12746 0.08819
# Poissons Ratio (z) = 0.49710 0.26268
#
# Static dielectric constant tensor:
#      x y z
#    x 1.665240 0.000000 0.012720 
#    y 0.000000 1.694080 0.000000 
#    z 0.012720 0.000000 1.667470 
# 
# From -- ./inp_files/17833.got.cif
#   From: 2010.05.17/outbox.cif.g08.bks.cpg/sg9_9_cif.got.tgz:17833.got - 2010.06.03 20:04:27.
