data_PCOD9134811
_publ_section_title
;
Structure prediction by ZEFSAII (Michael W. Deem and Ramdas Pophale) SiO2 
 PCOD9134811
Probable space group: C C
;
_chemical_formula_sum "Si O2"
_cell_formula_units_Z 28
_cell_length_a 7.234601
_cell_length_b 12.170811
_cell_length_c 16.460465
_cell_angle_alpha 90.000000
_cell_angle_beta 58.787811
_cell_angle_gamma 90.000000
_cell_volume 1239.570793
_symmetry_space_group_name_H-M "C C"
_symmetry_group_IT_number 9
_symmetry_cell_setting 'monoclinic'
loop_
_space_group_symop_operation_xyz
x,y,z
x,-y,1/2+z
1/2+x,1/2+y,z
1/2+x,1/2-y,1/2+z
loop_
_atom_site_type_symbol
_atom_site_label
_atom_site_fract_x
_atom_site_fract_y
_atom_site_fract_z
Si Si1 0.585250 0.061702 0.714350
Si Si2 0.672151 0.498859 0.242813
Si Si3 0.678814 0.748610 0.982339
Si Si4 0.697175 0.270682 0.153158
Si Si5 0.261221 0.007470 0.907047
Si Si6 0.983863 0.838287 0.053326
Si Si7 0.369121 0.693712 0.268403
O O1 0.433809 0.996749 0.685076
O O2 0.509357 0.020166 0.820317
O O3 0.827224 0.070917 0.630121
O O4 0.492794 0.188112 0.734526
O O5 0.617876 0.384462 0.212060
O O6 0.632893 0.494003 0.349459
O O7 0.544848 0.598431 0.233248
O O8 0.695569 0.617354 0.968555
O O9 0.737875 0.800030 0.881828
O O10 0.440865 0.780925 0.064810
O O11 0.852083 0.786673 0.009499
O O12 0.718748 0.187200 0.223008
O O13 0.548100 0.253695 0.109212
O O14 0.193695 0.900750 0.971576
#
# Coordination Sequence:
#
# PCOD9134811 Si02
#       7
#     4   4   4   4   4   4   4
#     4   8  19  41  64 100 139 180 234 291 349 425
#     4   9  18  41  68  97 136 181 236 290 348 424
#     4  11  20  47  65  96 146 183 230 309 344 425
#     4  11  25  40  63 112 137 183 247 287 352 442
#     4   9  21  40  72 101 129 189 240 280 364 423
#     4  12  22  43  71 100 148 183 241 296 355 431
#     4  10  19  42  73  92 149 187 224 311 356 410
#
# _framework density 22.588464999999999
#
# number of rings (size 3 to 8) (size 9 to 14) (size 15 to 20)
#    0.857    1.143    5.714    0.000    2.000    0.000 
#   10.286    1.429    0.000    0.000    0.000    0.000 
#    0.000    0.000    0.000    0.000    0.000    0.000 
#
# Total GULP energy -78149.076316 kJ/mol
# GULP energy per Si atom -5582.076880 kJ/mol
# Density = 2.253705 g / cm^3
# Si number density = 22.588465 Si / 1000 Ang^3
#
#
#
# Elastic Constant Matrix: (Units=GPa)
#
#
# Indices 1 2 3 4 5 6 
#
# 1 121.1212 40.7318 48.3135 0.0000 31.5542 0.0000
# 2 40.7318 108.8040 35.0908 0.0000 2.2506 0.0000
# 3 48.3135 35.0908 109.0318 0.0000 20.0883 0.0000
# 4 0.0000 0.0000 0.0000 25.1287 0.0000 0.4961
# 5 31.5542 2.2506 20.0883 0.0000 27.5866 0.0000
# 6 0.0000 0.0000 0.0000 0.4961 0.0000 40.0618
#
#
#
# Elastic Compliance Matrix: (Units=1/GPa)
#
#
# Indices 1 2 3 4 5 6 
#
# 1 0.014403 -0.004343 -0.002326 0.000000 -0.014426 0.000000
# 2 -0.004343 0.011644 -0.002960 0.000000 0.006174 0.000000
# 3 -0.002326 -0.002960 0.012266 0.000000 -0.006030 0.000000
# 4 0.000000 0.000000 0.000000 0.039805 0.000000 -0.000493
# 5 -0.014426 0.006174 -0.006030 0.000000 0.056637 0.000000
# 6 0.000000 0.000000 0.000000 -0.000493 0.000000 0.024968
#
#
# Mechanical properties :
#
#
# Convention : Reuss Voigt Hill
#
# Bulk Modulus (GPa) = 52.48524 65.24770 58.86647
# Shear Modulus (GPa) = 26.97835 32.87680 29.92758
#
# Velocity S-wave (km/s) = 3.45967 3.81920 3.64387
# Velocity P-wave (km/s) = 6.26458 6.95676 6.61972
#
# Compressibility (1/GPa) = 0.01905297
#
# Stress axis : x y z
#
# Youngs Moduli (GPa) = 69.43011 85.88250 81.52489
#
# Poissons Ratio (x) = 0.37300 0.18966
# Poissons Ratio (y) = 0.30155 0.24134
# Poissons Ratio (z) = 0.16153 0.25424
#
# Static dielectric constant tensor:
#      x y z
#    x 1.855210 0.000000 0.015590 
#    y 0.000000 1.846470 0.000000 
#    z 0.015590 0.000000 1.840590 
# 
# From -- ./inp_files/35215.got.cif
#   From: 2010.05.17/outbox.cif.g08.bks.cpg/sg9_18_cif.got.tgz:35215.got - 2010.06.03 20:04:27.
