data_PCOD9134785
_publ_section_title
;
Structure prediction by ZEFSAII (Michael W. Deem and Ramdas Pophale) SiO2 
 PCOD9134785
Probable space group: C C
;
_chemical_formula_sum "Si O2"
_cell_formula_units_Z 28
_cell_length_a 12.021508
_cell_length_b 7.260411
_cell_length_c 13.682102
_cell_angle_alpha 90.000000
_cell_angle_beta 122.249612
_cell_angle_gamma 90.000000
_cell_volume 1009.962975
_symmetry_space_group_name_H-M "C C"
_symmetry_group_IT_number 9
_symmetry_cell_setting 'monoclinic'
loop_
_space_group_symop_operation_xyz
x,y,z
x,-y,1/2+z
1/2+x,1/2+y,z
1/2+x,1/2-y,1/2+z
loop_
_atom_site_type_symbol
_atom_site_label
_atom_site_fract_x
_atom_site_fract_y
_atom_site_fract_z
Si Si1 0.310420 0.557370 0.609990
Si Si2 0.272742 0.948921 0.491573
Si Si3 0.547562 0.924537 0.568162
Si Si4 0.269880 0.588173 0.885229
Si Si5 0.496764 0.927722 0.319301
Si Si6 0.239062 0.805293 0.267075
Si Si7 0.999131 0.854818 0.359245
O O1 0.307957 0.753990 0.557756
O O2 0.178088 0.545553 0.612936
O O3 0.300624 0.418720 0.515126
O O4 0.431381 0.536933 0.738886
O O5 0.422972 0.022855 0.560057
O O6 0.236330 0.939658 0.358409
O O7 0.122824 0.966960 0.460142
O O8 0.510089 0.872108 0.439858
O O9 0.602466 0.747015 0.651462
O O10 0.279071 0.386369 0.839408
O O11 0.385092 0.689129 0.883198
O O12 0.117466 0.650650 0.812776
O O13 0.343356 0.876914 0.234248
O O14 0.529781 0.147654 0.334994
#
# Coordination Sequence:
#
# PCOD9134785 Si02
#       7
#     4   4   4   4   4   4   4
#     4  10  21  40  68  94 134 172 223 277 329 397
#     4  10  21  37  67  96 129 175 221 269 337 397
#     4  10  19  41  69  88 133 178 217 275 330 395
#     4  10  22  43  68  93 138 172 223 283 332 403
#     4  10  23  43  65 101 137 165 232 286 325 408
#     4  10  19  42  69  90 133 184 211 277 344 385
#     4  12  21  42  74  96 136 182 219 287 341 387
#
# _framework density 27.723790999999999
#
# number of rings (size 3 to 8) (size 9 to 14) (size 15 to 20)
#    0.000    1.714    5.714    0.857    0.000    0.000 
#    5.143   12.857    0.000    0.000    0.000    0.000 
#    0.000    0.000    0.000    0.000    0.000    0.000 
#
# Total GULP energy -78176.856918 kJ/mol
# GULP energy per Si atom -5584.061208 kJ/mol
# Density = 2.766069 g / cm^3
# Si number density = 27.723791 Si / 1000 Ang^3
#
#
#
# Elastic Constant Matrix: (Units=GPa)
#
#
# Indices 1 2 3 4 5 6 
#
# 1 222.4234 40.5957 46.4654 0.0000 21.5099 0.0000
# 2 40.5957 56.5081 -12.5364 0.0000 10.5327 0.0000
# 3 46.4654 -12.5364 115.6466 0.0000 31.5130 0.0000
# 4 0.0000 0.0000 0.0000 19.6011 0.0000 2.3161
# 5 21.5099 10.5327 31.5130 0.0000 57.6174 0.0000
# 6 0.0000 0.0000 0.0000 2.3161 0.0000 42.8498
#
#
#
# Elastic Compliance Matrix: (Units=1/GPa)
#
#
# Indices 1 2 3 4 5 6 
#
# 1 0.006030 -0.005080 -0.003071 0.000000 0.000357 0.000000
# 2 -0.005080 0.023818 0.006220 0.000000 -0.005859 0.000000
# 3 -0.003071 0.006220 0.012401 0.000000 -0.006773 0.000000
# 4 0.000000 0.000000 0.000000 0.051346 0.000000 -0.002775
# 5 0.000357 -0.005859 -0.006773 0.000000 0.021998 0.000000
# 6 0.000000 0.000000 0.000000 -0.002775 0.000000 0.023487
#
#
# Mechanical properties :
#
#
# Convention : Reuss Voigt Hill
#
# Bulk Modulus (GPa) = 26.05077 60.40305 43.22691
# Shear Modulus (GPa) = 32.10541 45.35055 38.72798
#
# Velocity S-wave (km/s) = 3.40670 4.04889 3.74160
# Velocity P-wave (km/s) = 4.98909 6.61005 5.85593
#
# Compressibility (1/GPa) = 0.03838658
#
# Stress axis : x y z
#
# Youngs Moduli (GPa) = 165.83640 41.98526 80.64125
#
# Poissons Ratio (x) = 0.21328 0.24763
# Poissons Ratio (y) = 0.84241 -0.50155
# Poissons Ratio (z) = 0.50924 -0.26113
#
# Static dielectric constant tensor:
#      x y z
#    x 2.231320 0.000000 0.019520 
#    y 0.000000 2.224300 0.000000 
#    z 0.019520 0.000000 2.224080 
# 
# From -- ./inp_files/24308.got.cif
#   From: 2010.05.17/outbox.cif.g08.bks.cpg/sg9_13_cif.got.tgz:24308.got - 2010.06.03 20:04:27.
