data_PCOD9134635
_publ_section_title
;
Structure prediction by ZEFSAII (Michael W. Deem and Ramdas Pophale) SiO2 
 PCOD9134635
Probable space group: C C
;
_chemical_formula_sum "Si O2"
_cell_formula_units_Z 20
_cell_length_a 9.827990
_cell_length_b 13.090329
_cell_length_c 5.112421
_cell_angle_alpha 90.000000
_cell_angle_beta 92.655436
_cell_angle_gamma 90.000000
_cell_volume 657.015003
_symmetry_space_group_name_H-M "C C"
_symmetry_group_IT_number 9
_symmetry_cell_setting 'monoclinic'
loop_
_space_group_symop_operation_xyz
x,y,z
x,-y,1/2+z
1/2+x,1/2+y,z
1/2+x,1/2-y,1/2+z
loop_
_atom_site_type_symbol
_atom_site_label
_atom_site_fract_x
_atom_site_fract_y
_atom_site_fract_z
Si Si1 0.914670 0.036240 0.822360
Si Si2 0.505196 0.246262 0.515541
Si Si3 0.217139 0.944540 0.876856
Si Si4 0.256928 0.754544 0.266763
Si Si5 0.067270 0.569689 0.157366
O O1 0.947363 0.847596 0.375523
O O2 0.056442 0.971925 0.810195
O O3 0.839906 0.023077 0.545243
O O4 0.420193 0.240996 0.774967
O O5 0.667862 0.263298 0.523131
O O6 0.475887 0.150021 0.325826
O O7 0.274277 0.971475 0.592540
O O8 0.218199 0.843645 0.057030
O O9 0.196189 0.648607 0.153610
O O10 0.059157 0.473895 0.360753
#
# Coordination Sequence:
#
# PCOD9134635 Si02
#       5
#     4   4   4   4   4
#     4  10  19  38  67  96 127 165 227 277 329 388
#     4  10  23  43  68 101 137 179 230 283 341 412
#     4  10  19  38  67  96 127 165 227 277 329 388
#     4  10  23  43  68 101 137 179 230 283 341 412
#     4  10  24  46  66  98 144 184 222 282 356 406
#
# _framework density 30.440707
#
# number of rings (size 3 to 8) (size 9 to 14) (size 15 to 20)
#    1.200    0.800    4.000    0.000    0.000    9.600 
#    0.000    4.000    0.000    0.000    0.000    0.000 
#    0.000    0.000    0.000    0.000    0.000    0.000 
#
# Total GULP energy -55887.220192 kJ/mol
# GULP energy per Si atom -5588.722019 kJ/mol
# Density = 3.037142 g / cm^3
# Si number density = 30.440707 Si / 1000 Ang^3
#
#
#
# Elastic Constant Matrix: (Units=GPa)
#
#
# Indices 1 2 3 4 5 6 
#
# 1 129.6871 5.6196 40.0819 0.0000 -53.2405 0.0000
# 2 5.6196 160.9713 14.2813 0.0000 18.4944 0.0000
# 3 40.0819 14.2813 208.6656 0.0000 -14.8886 0.0000
# 4 0.0000 0.0000 0.0000 33.8653 0.0000 -0.1547
# 5 -53.2405 18.4944 -14.8886 0.0000 67.3045 0.0000
# 6 0.0000 0.0000 0.0000 -0.1547 0.0000 49.4777
#
#
#
# Elastic Compliance Matrix: (Units=1/GPa)
#
#
# Indices 1 2 3 4 5 6 
#
# 1 0.012250 -0.001407 -0.001562 0.000000 0.009731 0.000000
# 2 -0.001407 0.006645 -0.000401 0.000000 -0.003028 0.000000
# 3 -0.001562 -0.000401 0.005120 0.000000 0.000007 0.000000
# 4 0.000000 0.000000 0.000000 0.029529 0.000000 0.000092
# 5 0.009731 -0.003028 0.000007 0.000000 0.023389 0.000000
# 6 0.000000 0.000000 0.000000 0.000092 0.000000 0.020211
#
#
# Mechanical properties :
#
#
# Convention : Reuss Voigt Hill
#
# Bulk Modulus (GPa) = 57.88762 68.80995 63.34878
# Shear Modulus (GPa) = 45.60290 59.41891 52.51091
#
# Velocity S-wave (km/s) = 3.87471 4.42289 4.15784
# Velocity P-wave (km/s) = 6.25105 6.98113 6.62616
#
# Compressibility (1/GPa) = 0.01727485
#
# Stress axis : x y z
#
# Youngs Moduli (GPa) = 81.63577 150.49404 195.29844
#
# Poissons Ratio (x) = 0.21175 0.30513
# Poissons Ratio (y) = 0.11486 0.07822
# Poissons Ratio (z) = 0.12754 0.06028
#
# Static dielectric constant tensor:
#      x y z
#    x 2.620470 0.000000 -0.126850 
#    y 0.000000 2.341280 0.000000 
#    z -0.126850 0.000000 2.468590 
# 
# From -- ./inp_files/1531.got.cif
#   From: 2010.05.17/outbox.cif.g08.bks.cpg/sg9_1_cif.got.tgz:1531.got - 2010.06.03 20:04:27.
