data_PCOD9134402
_publ_section_title
;
Structure prediction by ZEFSAII (Michael W. Deem and Ramdas Pophale) SiO2 
 PCOD9134402
Probable space group: C C
;
_chemical_formula_sum "Si O2"
_cell_formula_units_Z 28
_cell_length_a 10.942103
_cell_length_b 8.830558
_cell_length_c 23.534989
_cell_angle_alpha 90.000000
_cell_angle_beta 150.076339
_cell_angle_gamma 90.000000
_cell_volume 1134.407718
_symmetry_space_group_name_H-M "C C"
_symmetry_group_IT_number 9
_symmetry_cell_setting 'monoclinic'
loop_
_space_group_symop_operation_xyz
x,y,z
x,-y,1/2+z
1/2+x,1/2+y,z
1/2+x,1/2-y,1/2+z
loop_
_atom_site_type_symbol
_atom_site_label
_atom_site_fract_x
_atom_site_fract_y
_atom_site_fract_z
Si Si1 0.228970 0.234984 0.093500
Si Si2 0.887328 0.251425 0.065033
Si Si3 0.466224 0.748498 0.307393
Si Si4 0.553254 0.843297 0.901732
Si Si5 0.826401 0.980056 0.411108
Si Si6 0.261528 0.542972 0.759659
Si Si7 0.096487 0.043601 0.709093
O O1 0.071803 0.270826 0.085839
O O2 0.481021 0.329041 0.203667
O O3 0.186535 0.305006 0.013687
O O4 0.107108 0.067942 0.034996
O O5 0.990256 0.391304 0.142332
O O6 0.933405 0.093681 0.116939
O O7 0.622062 0.253385 0.929460
O O8 0.358103 0.582453 0.254743
O O9 0.667502 0.822487 0.347642
O O10 0.235152 0.860195 0.216049
O O11 0.714289 0.920910 0.916942
O O12 0.440090 0.687016 0.833216
O O13 0.327839 0.952193 0.827284
O O14 0.776041 0.034955 0.327556
#
# Coordination Sequence:
#
# PCOD9134402 Si02
#       7
#     4   4   4   4   4   4   4
#     4  10  19  35  64  91 120 164 214 261 313 378
#     4  10  23  41  60  93 133 165 213 268 317 379
#     4  10  22  41  63  92 126 164 214 262 313 378
#     4   9  20  40  62  89 127 167 210 261 321 378
#     4   9  20  41  63  90 129 166 212 266 315 379
#     4  10  22  39  63  94 128 166 212 264 316 377
#     4  10  20  37  63  91 123 168 209 256 321 375
#
# _framework density 24.682483999999999
#
# number of rings (size 3 to 8) (size 9 to 14) (size 15 to 20)
#    0.000    2.286    0.000    2.571    0.000   10.286 
#    0.000   14.286    0.000    0.000    0.000    0.000 
#    0.000    0.000    0.000    0.000    0.000    0.000 
#
# Total GULP energy -77973.566616 kJ/mol
# GULP energy per Si atom -5569.540473 kJ/mol
# Density = 2.462631 g / cm^3
# Si number density = 24.682484 Si / 1000 Ang^3
#
#
#
# Elastic Constant Matrix: (Units=GPa)
#
#
# Indices 1 2 3 4 5 6 
#
# 1 105.0680 34.7854 20.4171 0.0000 9.7297 0.0001
# 2 34.7854 122.3979 31.4407 0.0000 33.9823 0.0000
# 3 20.4171 31.4407 60.0232 -0.0003 4.1335 -0.0002
# 4 0.0000 0.0000 -0.0003 16.4727 0.0000 23.8129
# 5 9.7297 33.9823 4.1335 0.0000 35.1326 0.0000
# 6 0.0001 0.0000 -0.0002 23.8129 0.0000 47.8296
#
#
#
# Elastic Compliance Matrix: (Units=1/GPa)
#
#
# Indices 1 2 3 4 5 6 
#
# 1 0.010799 -0.002317 -0.002428 0.000000 -0.000464 0.000000
# 2 -0.002317 0.013504 -0.005475 0.000000 -0.011777 0.000000
# 3 -0.002428 -0.005475 0.020106 0.000001 0.003602 0.000000
# 4 0.000000 0.000000 0.000001 0.216594 0.000000 -0.107836
# 5 -0.000464 -0.011777 0.003602 0.000000 0.039559 0.000000
# 6 0.000000 0.000000 0.000000 -0.107836 0.000000 0.074596
#
#
# Mechanical properties :
#
#
# Convention : Reuss Voigt Hill
#
# Bulk Modulus (GPa) = 41.71725 51.19728 46.45726
# Shear Modulus (GPa) = 12.38888 33.27669 22.83279
#
# Velocity S-wave (km/s) = 2.24281 3.67575 3.04478
# Velocity P-wave (km/s) = 4.86263 6.22915 5.58782
#
# Compressibility (1/GPa) = 0.02397090
#
# Stress axis : x y z
#
# Youngs Moduli (GPa) = 92.59742 74.05021 49.73702
#
# Poissons Ratio (x) = 0.17154 0.12076
# Poissons Ratio (y) = 0.21451 0.27230
# Poissons Ratio (z) = 0.22483 0.40540
#
# Static dielectric constant tensor:
#      x y z
#    x 1.945040 0.000000 0.012750 
#    y 0.000000 2.018100 0.000000 
#    z 0.012750 0.000000 2.142820 
# 
# From -- ./inp_files/24107.got.cif
#   From: 2010.05.17/outbox.cif.g08.bks.cpg/sg9_13_cif.got.tgz:24107.got - 2010.06.03 20:04:27.
