data_PCOD9134403
_publ_section_title
;
Structure prediction by ZEFSAII (Michael W. Deem and Ramdas Pophale) SiO2 
 PCOD9134403
Probable space group: C C
;
_chemical_formula_sum "Si O2"
_cell_formula_units_Z 28
_cell_length_a 13.576229
_cell_length_b 17.005621
_cell_length_c 9.861010
_cell_angle_alpha 90.000000
_cell_angle_beta 145.707856
_cell_angle_gamma 90.000000
_cell_volume 1282.684184
_symmetry_space_group_name_H-M "C C"
_symmetry_group_IT_number 9
_symmetry_cell_setting 'monoclinic'
loop_
_space_group_symop_operation_xyz
x,y,z
x,-y,1/2+z
1/2+x,1/2+y,z
1/2+x,1/2-y,1/2+z
loop_
_atom_site_type_symbol
_atom_site_label
_atom_site_fract_x
_atom_site_fract_y
_atom_site_fract_z
Si Si1 0.194390 0.552548 0.857160
Si Si2 0.704983 0.828725 0.573980
Si Si3 0.507571 0.834287 0.845295
Si Si4 0.833777 0.057248 0.749825
Si Si5 0.119354 0.840711 0.434719
Si Si6 0.953122 0.417912 0.494629
Si Si7 0.109764 0.839222 0.095988
O O1 0.348537 0.535078 0.923742
O O2 0.025397 0.504409 0.611172
O O3 0.165761 0.641762 0.876070
O O4 0.253545 0.507548 0.060485
O O5 0.574625 0.878775 0.519742
O O6 0.677450 0.738973 0.593776
O O7 0.908859 0.848280 0.827830
O O8 0.321867 0.852195 0.701307
O O9 0.543726 0.742454 0.896269
O O10 0.485080 0.863918 0.664196
O O11 0.678473 0.878808 0.089169
O O12 0.999610 0.093474 0.865258
O O13 0.108810 0.834083 0.258812
O O14 0.750183 0.407892 0.224819
#
# Coordination Sequence:
#
# PCOD9134403 Si02
#       7
#     4   4   4   4   4   4   4
#     4  11  25  45  68  91 142 181 218 276 353 394
#     4  12  21  41  69 102 132 178 233 289 323 406
#     4  10  19  35  64  96 124 164 219 270 331 389
#     4  11  24  44  64  93 132 179 213 278 336 409
#     4  11  19  36  66  99 126 166 222 278 323 403
#     4  10  21  41  66  97 133 177 224 280 339 415
#     4  11  21  38  73 104 127 177 239 275 337 408
#
# _framework density 21.829225000000001
#
# number of rings (size 3 to 8) (size 9 to 14) (size 15 to 20)
#    0.000    1.143    5.714    2.571    0.000    0.000 
#    5.143    4.286    0.000    0.000    0.000    0.000 
#    0.000    0.000    0.000    0.000    0.000    0.000 
#
# Total GULP energy -78136.373900 kJ/mol
# GULP energy per Si atom -5581.169564 kJ/mol
# Density = 2.177954 g / cm^3
# Si number density = 21.829225 Si / 1000 Ang^3
#
#
#
# Elastic Constant Matrix: (Units=GPa)
#
#
# Indices 1 2 3 4 5 6 
#
# 1 117.7795 42.0020 46.4827 0.0000 16.5836 0.0000
# 2 42.0020 64.6106 18.2600 0.0000 5.5792 0.0000
# 3 46.4827 18.2600 66.6893 0.0000 30.5381 0.0000
# 4 0.0000 0.0000 0.0000 13.4810 0.0000 -4.2857
# 5 16.5836 5.5792 30.5381 0.0000 49.6274 0.0000
# 6 0.0000 0.0000 0.0000 -4.2857 0.0000 31.6762
#
#
#
# Elastic Compliance Matrix: (Units=1/GPa)
#
#
# Indices 1 2 3 4 5 6 
#
# 1 0.014146 -0.006885 -0.008583 0.000000 0.001328 0.000000
# 2 -0.006885 0.020188 -0.001034 0.000000 0.000668 0.000000
# 3 -0.008583 -0.001034 0.027699 0.000000 -0.014060 0.000000
# 4 0.000000 0.000000 0.000000 0.077513 0.000000 0.010487
# 5 0.001328 0.000668 -0.014060 0.000000 0.028283 0.000000
# 6 0.000000 0.000000 0.000000 0.010487 0.000000 0.032988
#
#
# Mechanical properties :
#
#
# Convention : Reuss Voigt Hill
#
# Bulk Modulus (GPa) = 34.44977 51.39653 42.92315
# Shear Modulus (GPa) = 20.53409 28.44591 24.49000
#
# Velocity S-wave (km/s) = 3.07036 3.61378 3.35310
# Velocity P-wave (km/s) = 5.32778 6.40379 5.89040
#
# Compressibility (1/GPa) = 0.02902777
#
# Stress axis : x y z
#
# Youngs Moduli (GPa) = 70.69105 49.53472 36.10264
#
# Poissons Ratio (x) = 0.34105 0.30987
# Poissons Ratio (y) = 0.48671 0.03734
# Poissons Ratio (z) = 0.60674 0.05124
#
# Static dielectric constant tensor:
#      x y z
#    x 1.871760 0.000000 -0.106610 
#    y 0.000000 1.851250 0.000000 
#    z -0.106610 0.000000 1.899690 
# 
# From -- ./inp_files/8398.got.cif
#   From: 2010.05.17/outbox.cif.g08.bks.cpg/sg9_5_cif.got.tgz:8398.got - 2010.06.03 20:04:27.
