data_PCOD9134801
_publ_section_title
;
Structure prediction by ZEFSAII (Michael W. Deem and Ramdas Pophale) SiO2 
 PCOD9134801
Probable space group: C C
;
_chemical_formula_sum "Si O2"
_cell_formula_units_Z 28
_cell_length_a 7.611544
_cell_length_b 11.246156
_cell_length_c 13.812544
_cell_angle_alpha 90.000000
_cell_angle_beta 65.891106
_cell_angle_gamma 90.000000
_cell_volume 1079.225677
_symmetry_space_group_name_H-M "C C"
_symmetry_group_IT_number 9
_symmetry_cell_setting 'monoclinic'
loop_
_space_group_symop_operation_xyz
x,y,z
x,-y,1/2+z
1/2+x,1/2+y,z
1/2+x,1/2-y,1/2+z
loop_
_atom_site_type_symbol
_atom_site_label
_atom_site_fract_x
_atom_site_fract_y
_atom_site_fract_z
Si Si1 0.390620 0.237123 0.729970
Si Si2 0.063775 0.345042 0.671094
Si Si3 0.955797 0.577259 0.396852
Si Si4 0.891425 0.014503 0.273752
Si Si5 0.795790 0.842051 0.124772
Si Si6 0.404277 0.177997 0.934926
Si Si7 0.302413 0.662245 0.933607
O O1 0.222349 0.265609 0.693429
O O2 0.498150 0.363641 0.727689
O O3 0.566471 0.153253 0.663913
O O4 0.319059 0.192861 0.848757
O O5 0.190630 0.392198 0.551477
O O6 0.957198 0.420762 0.778341
O O7 0.901381 0.263607 0.660502
O O8 0.857432 0.461655 0.468162
O O9 0.877451 0.706468 0.443843
O O10 0.183988 0.560815 0.360234
O O11 0.862551 0.952873 0.175305
O O12 0.950950 0.923952 0.344835
O O13 0.856948 0.795792 0.005654
O O14 0.637047 0.179468 0.888497
#
# Coordination Sequence:
#
# PCOD9134801 Si02
#       7
#     4   4   4   4   4   4   4
#     4  11  23  43  64 102 133 179 232 288 334 415
#     4  10  23  40  69  98 132 182 229 273 349 404
#     4  10  19  42  66  98 140 170 234 285 325 422
#     4  10  22  41  69  97 141 178 231 281 349 409
#     4  11  22  47  64  96 144 180 223 292 340 410
#     4  10  23  42  68  99 138 185 229 282 355 400
#     4  10  20  43  66  98 140 182 222 287 348 406
#
# _framework density 25.944527999999998
#
# number of rings (size 3 to 8) (size 9 to 14) (size 15 to 20)
#    0.000    1.714    4.286    0.000    0.000    6.857 
#   12.857    0.000    0.000    0.000    0.000    0.000 
#    0.000    0.000    0.000    0.000    0.000    0.000 
#
# Total GULP energy -77998.523664 kJ/mol
# GULP energy per Si atom -5571.323119 kJ/mol
# Density = 2.588548 g / cm^3
# Si number density = 25.944528 Si / 1000 Ang^3
#
#
#
# Elastic Constant Matrix: (Units=GPa)
#
#
# Indices 1 2 3 4 5 6 
#
# 1 91.4606 -8.0556 2.1954 0.0000 22.0166 0.0000
# 2 -8.0556 101.2396 13.6631 0.0000 -12.7583 0.0000
# 3 2.1954 13.6631 92.2291 0.0000 9.1397 0.0000
# 4 0.0000 0.0000 0.0000 41.8648 0.0000 4.1258
# 5 22.0166 -12.7583 9.1397 0.0000 27.4191 0.0000
# 6 0.0000 0.0000 0.0000 4.1258 0.0000 34.8924
#
#
#
# Elastic Compliance Matrix: (Units=1/GPa)
#
#
# Indices 1 2 3 4 5 6 
#
# 1 0.013629 -0.000479 0.000882 0.000000 -0.011461 0.000000
# 2 -0.000479 0.010921 -0.002222 0.000000 0.006207 0.000000
# 3 0.000882 -0.002222 0.011710 0.000000 -0.005645 0.000000
# 4 0.000000 0.000000 0.000000 0.024168 0.000000 -0.002858
# 5 -0.011461 0.006207 -0.005645 0.000000 0.050443 0.000000
# 6 0.000000 0.000000 0.000000 -0.002858 0.000000 0.028997
#
#
# Mechanical properties :
#
#
# Convention : Reuss Voigt Hill
#
# Bulk Modulus (GPa) = 30.65207 33.39278 32.02242
# Shear Modulus (GPa) = 32.38745 39.31037 35.84891
#
# Velocity S-wave (km/s) = 3.53701 3.89674 3.72123
# Velocity P-wave (km/s) = 5.34048 5.75716 5.55273
#
# Compressibility (1/GPa) = 0.03262422
#
# Stress axis : x y z
#
# Youngs Moduli (GPa) = 73.37221 91.56269 85.39609
#
# Poissons Ratio (x) = 0.04385 -0.07534
# Poissons Ratio (y) = 0.03514 0.18972
# Poissons Ratio (z) = -0.06473 0.20342
#
# Static dielectric constant tensor:
#      x y z
#    x 2.002700 0.000000 -0.066770 
#    y 0.000000 2.216590 0.000000 
#    z -0.066770 0.000000 2.162580 
# 
# From -- ./inp_files/22561.got.cif
#   From: 2010.05.17/outbox.cif.g08.bks.cpg/sg9_12_cif.got.tgz:22561.got - 2010.06.03 20:04:27.
