data_PCOD9134519
_publ_section_title
;
Structure prediction by ZEFSAII (Michael W. Deem and Ramdas Pophale) SiO2 
 PCOD9134519
Probable space group: C C
;
_chemical_formula_sum "Si O2"
_cell_formula_units_Z 32
_cell_length_a 11.454771
_cell_length_b 17.565765
_cell_length_c 8.681562
_cell_angle_alpha 90.000000
_cell_angle_beta 121.456488
_cell_angle_gamma 90.000000
_cell_volume 1490.112563
_symmetry_space_group_name_H-M "C C"
_symmetry_group_IT_number 9
_symmetry_cell_setting 'monoclinic'
loop_
_space_group_symop_operation_xyz
x,y,z
x,-y,1/2+z
1/2+x,1/2+y,z
1/2+x,1/2-y,1/2+z
loop_
_atom_site_type_symbol
_atom_site_label
_atom_site_fract_x
_atom_site_fract_y
_atom_site_fract_z
Si Si1 0.384410 0.882299 0.028040
Si Si2 0.955042 0.681444 0.875551
Si Si3 0.039131 0.540422 0.104386
Si Si4 0.598636 0.419487 0.991687
Si Si5 0.650094 0.273058 0.213002
Si Si6 0.953275 0.970913 0.595534
Si Si7 0.778440 0.935002 0.189192
Si Si8 0.057368 0.660565 0.391534
O O1 0.451301 0.821852 0.190690
O O2 0.460218 0.963158 0.084516
O O3 0.236551 0.900730 0.993614
O O4 0.413700 0.847756 0.880594
O O5 0.814752 0.721272 0.835223
O O6 0.955058 0.593584 0.930338
O O7 0.091194 0.716669 0.041201
O O8 0.182051 0.510183 0.136824
O O9 0.059722 0.593062 0.266689
O O10 0.491321 0.424914 0.776313
O O11 0.592855 0.353106 0.114196
O O12 0.579582 0.496487 0.079232
O O13 0.587248 0.238986 0.325724
O O14 0.858640 0.929253 0.405336
O O15 0.875531 0.044759 0.612486
O O16 0.681178 0.863543 0.089054
#
# Coordination Sequence:
#
# PCOD9134519 Si02
#       8
#     4   4   4   4   4   4   4   4
#     4  10  21  39  65 101 127 167 232 283 338 393
#     4  10  23  42  67  94 132 185 222 278 346 402
#     4  10  20  36  67  97 131 169 222 291 330 393
#     4  10  24  41  66  95 141 177 217 285 346 412
#     4  10  24  45  63  93 134 190 223 267 343 419
#     4  10  22  38  64 105 131 174 220 278 358 395
#     4  10  19  37  62 103 132 168 226 279 336 403
#     4  10  21  38  66  94 130 176 228 273 333 405
#
# _framework density 21.474888
#
# number of rings (size 3 to 8) (size 9 to 14) (size 15 to 20)
#    0.000    2.000    1.250    1.500    8.750    1.000 
#    0.000    7.500    0.000    0.000    0.000    0.000 
#    0.000    0.000    0.000    0.000    0.000    0.000 
#
# Total GULP energy -89196.614606 kJ/mol
# GULP energy per Si atom -5574.788413 kJ/mol
# Density = 2.142601 g / cm^3
# Si number density = 21.474888 Si / 1000 Ang^3
#
#
#
# Elastic Constant Matrix: (Units=GPa)
#
#
# Indices 1 2 3 4 5 6 
#
# 1 120.5781 37.0076 22.2377 0.0000 -11.7957 0.0000
# 2 37.0076 56.2650 23.0027 0.0000 0.9948 0.0000
# 3 22.2377 23.0027 84.1938 0.0000 -1.7591 0.0000
# 4 0.0000 0.0000 0.0000 32.4493 0.0000 -3.5406
# 5 -11.7957 0.9948 -1.7591 0.0000 21.1499 0.0000
# 6 0.0000 0.0000 0.0000 -3.5406 0.0000 16.7328
#
#
#
# Elastic Compliance Matrix: (Units=1/GPa)
#
#
# Indices 1 2 3 4 5 6 
#
# 1 0.011306 -0.007191 -0.000884 0.000000 0.006571 0.000000
# 2 -0.007191 0.024623 -0.004945 0.000000 -0.005580 0.000000
# 3 -0.000884 -0.004945 0.013480 0.000000 0.000861 0.000000
# 4 0.000000 0.000000 0.000000 0.031546 0.000000 0.006675
# 5 0.006571 -0.005580 0.000861 0.000000 0.051280 0.000000
# 6 0.000000 0.000000 0.000000 0.006675 0.000000 0.061175
#
#
# Mechanical properties :
#
#
# Convention : Reuss Voigt Hill
#
# Bulk Modulus (GPa) = 42.79142 47.28141 45.03642
# Shear Modulus (GPa) = 22.00316 25.98565 23.99441
#
# Velocity S-wave (km/s) = 3.20441 3.48235 3.34627
# Velocity P-wave (km/s) = 5.80177 6.18335 5.99560
#
# Compressibility (1/GPa) = 0.02336917
#
# Stress axis : x y z
#
# Youngs Moduli (GPa) = 88.44584 40.61223 74.18508
#
# Poissons Ratio (x) = 0.29205 0.06560
# Poissons Ratio (y) = 0.63604 0.36681
# Poissons Ratio (z) = 0.07821 0.20081
#
# Static dielectric constant tensor:
#      x y z
#    x 1.831320 0.000000 0.013000 
#    y 0.000000 1.792290 0.000000 
#    z 0.013000 0.000000 1.827120 
# 
# From -- ./inp_files/8018.got.cif
#   From: 2010.05.17/outbox.cif.g08.bks.cpg/sg9_5_cif.got.tgz:8018.got - 2010.06.03 20:04:27.
