data_PCOD9134485
_publ_section_title
;
Structure prediction by ZEFSAII (Michael W. Deem and Ramdas Pophale) SiO2 
 PCOD9134485
Probable space group: C C
;
_chemical_formula_sum "Si O2"
_cell_formula_units_Z 32
_cell_length_a 16.273600
_cell_length_b 9.496348
_cell_length_c 10.016622
_cell_angle_alpha 90.000000
_cell_angle_beta 57.927041
_cell_angle_gamma 90.000000
_cell_volume 1311.704389
_symmetry_space_group_name_H-M "C C"
_symmetry_group_IT_number 9
_symmetry_cell_setting 'monoclinic'
loop_
_space_group_symop_operation_xyz
x,y,z
x,-y,1/2+z
1/2+x,1/2+y,z
1/2+x,1/2-y,1/2+z
loop_
_atom_site_type_symbol
_atom_site_label
_atom_site_fract_x
_atom_site_fract_y
_atom_site_fract_z
Si Si1 0.651590 0.152731 0.656260
Si Si2 0.486986 0.944806 0.473043
Si Si3 0.226601 0.890893 0.745248
Si Si4 0.148481 0.813115 0.246380
Si Si5 0.369697 0.033557 0.804045
Si Si6 0.044600 0.819943 0.079536
Si Si7 0.510996 0.365354 0.619993
Si Si8 0.282823 0.318318 0.817459
O O1 0.591346 0.055443 0.809865
O O2 0.733014 0.244518 0.662259
O O3 0.570053 0.266347 0.673172
O O4 0.712206 0.095783 0.477283
O O5 0.412200 0.971966 0.415805
O O6 0.483256 0.791018 0.547596
O O7 0.459019 0.048358 0.619516
O O8 0.204941 0.035611 0.680860
O O9 0.309532 0.910847 0.783990
O O10 0.128793 0.866587 0.909230
O O11 0.092971 0.752776 0.167393
O O12 0.228931 0.702964 0.225098
O O13 0.069571 0.838175 0.431991
O O14 0.290802 0.157441 0.864918
O O15 0.009957 0.970451 0.162439
O O16 0.395894 0.346366 0.707543
#
# Coordination Sequence:
#
# PCOD9134485 Si02
#       8
#     4   4   4   4   4   4   4   4
#     4  10  19  40  64 104 137 180 226 290 351 406
#     4  11  25  42  69 100 141 181 228 292 359 401
#     4   9  19  33  65  95 129 165 234 286 327 397
#     4   9  19  34  58  97 130 171 229 284 328 401
#     4  11  23  40  69 105 136 182 241 287 343 424
#     4  10  21  40  65  98 134 174 226 294 348 406
#     4  10  19  36  68  98 135 180 230 283 346 418
#     4  10  21  35  68  99 134 183 230 278 346 419
#
# _framework density 24.39574
#
# number of rings (size 3 to 8) (size 9 to 14) (size 15 to 20)
#    0.000    2.000    2.500    1.500    3.500    1.000 
#    0.000    0.000   11.000    0.000    0.000    0.000 
#    0.000    0.000    0.000    0.000    0.000    0.000 
#
# Total GULP energy -89214.071700 kJ/mol
# GULP energy per Si atom -5575.879481 kJ/mol
# Density = 2.434021 g / cm^3
# Si number density = 24.395740 Si / 1000 Ang^3
#
#
#
# Elastic Constant Matrix: (Units=GPa)
#
#
# Indices 1 2 3 4 5 6 
#
# 1 140.4235 32.0346 30.0566 0.0000 12.6525 0.0000
# 2 32.0346 37.2852 3.4360 0.0000 2.3388 0.0000
# 3 30.0566 3.4360 71.8599 0.0000 13.3468 0.0000
# 4 0.0000 0.0000 0.0000 24.8782 0.0000 -4.3634
# 5 12.6525 2.3388 13.3468 0.0000 57.5184 0.0000
# 6 0.0000 0.0000 0.0000 -4.3634 0.0000 36.1030
#
#
#
# Elastic Compliance Matrix: (Units=1/GPa)
#
#
# Indices 1 2 3 4 5 6 
#
# 1 0.009799 -0.008031 -0.003527 0.000000 -0.001011 0.000000
# 2 -0.008031 0.033559 0.001755 0.000000 -0.000005 0.000000
# 3 -0.003527 0.001755 0.015860 0.000000 -0.002976 0.000000
# 4 0.000000 0.000000 0.000000 0.041066 0.000000 0.004963
# 5 -0.001011 -0.000005 -0.002976 0.000000 0.018299 0.000000
# 6 0.000000 0.000000 0.000000 0.004963 0.000000 0.028298
#
#
# Mechanical properties :
#
#
# Convention : Reuss Voigt Hill
#
# Bulk Modulus (GPa) = 25.24415 42.29142 33.76778
# Shear Modulus (GPa) = 27.82548 35.96934 31.89741
#
# Velocity S-wave (km/s) = 3.38092 3.84397 3.61986
# Velocity P-wave (km/s) = 5.06074 6.08890 5.59847
#
# Compressibility (1/GPa) = 0.03961314
#
# Stress axis : x y z
#
# Youngs Moduli (GPa) = 102.04689 29.79831 63.05184
#
# Poissons Ratio (x) = 0.23931 0.22239
# Poissons Ratio (y) = 0.81954 -0.11069
# Poissons Ratio (z) = 0.35993 -0.05231
#
# Static dielectric constant tensor:
#      x y z
#    x 2.012760 0.000000 0.009200 
#    y 0.000000 2.092650 0.000000 
#    z 0.009200 0.000000 1.991010 
# 
# From -- ./inp_files/9084.got.cif
#   From: 2010.05.17/outbox.cif.g08.bks.cpg/sg9_5_cif.got.tgz:9084.got - 2010.06.03 20:04:27.
