data_PCOD9134770
_publ_section_title
;
Structure prediction by ZEFSAII (Michael W. Deem and Ramdas Pophale) SiO2 
 PCOD9134770
Probable space group: C C
;
_chemical_formula_sum "Si O2"
_cell_formula_units_Z 32
_cell_length_a 15.488932
_cell_length_b 6.364528
_cell_length_c 14.764118
_cell_angle_alpha 90.000000
_cell_angle_beta 77.207217
_cell_angle_gamma 90.000000
_cell_volume 1419.314843
_symmetry_space_group_name_H-M "C C"
_symmetry_group_IT_number 9
_symmetry_cell_setting 'monoclinic'
loop_
_space_group_symop_operation_xyz
x,y,z
x,-y,1/2+z
1/2+x,1/2+y,z
1/2+x,1/2-y,1/2+z
loop_
_atom_site_type_symbol
_atom_site_label
_atom_site_fract_x
_atom_site_fract_y
_atom_site_fract_z
Si Si1 0.100120 0.048707 0.221050
Si Si2 0.113664 0.407939 0.972559
Si Si3 0.791958 0.919668 0.019811
Si Si4 0.032083 0.784446 0.086502
Si Si5 0.352819 0.140657 0.178680
Si Si6 0.209018 0.362577 0.292277
Si Si7 0.485566 0.540693 0.922543
Si Si8 0.765058 0.243311 0.175272
O O1 0.143040 0.275023 0.229933
O O2 0.073220 0.986872 0.126567
O O3 0.027740 0.009786 0.315378
O O4 0.179199 0.880949 0.216080
O O5 0.209376 0.319919 0.984637
O O6 0.148824 0.571843 0.888500
O O7 0.039026 0.250244 0.947938
O O8 0.076168 0.558352 0.059966
O O9 0.819333 0.756640 0.093723
O O10 0.878313 0.009031 0.946226
O O11 0.759787 0.127791 0.080829
O O12 0.948690 0.731825 0.169197
O O13 0.008991 0.866420 0.992428
O O14 0.286060 0.188382 0.276936
O O15 0.348970 0.894214 0.160608
O O16 0.264465 0.563186 0.249082
#
# Coordination Sequence:
#
# PCOD9134770 Si02
#       8
#     4   4   4   4   4   4   4   4
#     4  11  22  40  67  96 137 177 230 283 348 416
#     4  12  23  40  68  96 134 183 230 283 360 412
#     4  10  23  40  65  97 133 176 226 284 347 418
#     4  11  24  42  69  98 133 185 224 283 358 409
#     4   9  22  41  65  94 132 168 227 287 338 414
#     4  10  22  39  63  96 130 175 228 280 338 420
#     4  11  25  43  65 100 140 175 232 294 337 427
#     4  10  19  41  64  91 129 171 219 282 342 406
#
# _framework density 22.546088000000001
#
# number of rings (size 3 to 8) (size 9 to 14) (size 15 to 20)
#    0.000    1.500    3.750    0.750    7.000    0.000 
#    0.000    0.000    5.500    0.000    0.000    0.000 
#    0.000    0.000    0.000    0.000    0.000    0.000 
#
# Total GULP energy -89081.892445 kJ/mol
# GULP energy per Si atom -5567.618278 kJ/mol
# Density = 2.249477 g / cm^3
# Si number density = 22.546088 Si / 1000 Ang^3
#
#
#
# Elastic Constant Matrix: (Units=GPa)
#
#
# Indices 1 2 3 4 5 6 
#
# 1 68.5314 14.5572 22.7681 0.0000 -20.5404 0.0000
# 2 14.5572 67.1223 10.8962 0.0000 -7.2757 0.0000
# 3 22.7681 10.8962 70.7306 0.0000 -25.7973 0.0000
# 4 0.0000 0.0000 0.0000 19.0352 0.0000 -3.3391
# 5 -20.5404 -7.2757 -25.7973 0.0000 34.0481 0.0000
# 6 0.0000 0.0000 0.0000 -3.3391 0.0000 32.2315
#
#
#
# Elastic Compliance Matrix: (Units=1/GPa)
#
#
# Indices 1 2 3 4 5 6 
#
# 1 0.018600 -0.002693 -0.002335 0.000000 0.008876 0.000000
# 2 -0.002693 0.015774 -0.001280 0.000000 0.000776 0.000000
# 3 -0.002335 -0.001280 0.020000 0.000000 0.013472 0.000000
# 4 0.000000 0.000000 0.000000 0.053506 0.000000 0.005543
# 5 0.008876 0.000776 0.013472 0.000000 0.045098 0.000000
# 6 0.000000 0.000000 0.000000 0.005543 0.000000 0.031600
#
#
# Mechanical properties :
#
#
# Convention : Reuss Voigt Hill
#
# Bulk Modulus (GPa) = 23.94697 33.64747 28.79722
# Shear Modulus (GPa) = 23.68386 27.60715 25.64550
#
# Velocity S-wave (km/s) = 3.24460 3.50305 3.37630
# Velocity P-wave (km/s) = 4.96800 5.59625 5.29146
#
# Compressibility (1/GPa) = 0.04175894
#
# Stress axis : x y z
#
# Youngs Moduli (GPa) = 53.76327 63.39499 49.99898
#
# Poissons Ratio (x) = 0.17070 0.11675
# Poissons Ratio (y) = 0.14477 0.06400
# Poissons Ratio (z) = 0.12554 0.08115
#
# Static dielectric constant tensor:
#      x y z
#    x 1.931050 0.000000 -0.003490 
#    y 0.000000 1.844700 0.000000 
#    z -0.003490 0.000000 1.872980 
# 
# From -- ./inp_files/26459.got.cif
#   From: 2010.05.17/outbox.cif.g08.bks.cpg/sg9_14_cif.got.tgz:26459.got - 2010.06.03 20:04:27.
