data_PCOD9134171
_publ_section_title
;
Structure prediction by ZEFSAII (Michael W. Deem and Ramdas Pophale) SiO2 
 PCOD9134171
Probable space group: C C
;
_chemical_formula_sum "Si O2"
_cell_formula_units_Z 32
_cell_length_a 12.352062
_cell_length_b 10.665306
_cell_length_c 11.404778
_cell_angle_alpha 90.000000
_cell_angle_beta 74.278848
_cell_angle_gamma 90.000000
_cell_volume 1446.244662
_symmetry_space_group_name_H-M "C C"
_symmetry_group_IT_number 9
_symmetry_cell_setting 'monoclinic'
loop_
_space_group_symop_operation_xyz
x,y,z
x,-y,1/2+z
1/2+x,1/2+y,z
1/2+x,1/2-y,1/2+z
loop_
_atom_site_type_symbol
_atom_site_label
_atom_site_fract_x
_atom_site_fract_y
_atom_site_fract_z
Si Si1 0.570120 0.632681 0.182710
Si Si2 0.170562 0.327832 0.580551
Si Si3 0.250671 0.578102 0.435283
Si Si4 0.920458 0.765901 0.513598
Si Si5 0.035560 0.687220 0.904597
Si Si6 0.825009 0.271697 0.603708
Si Si7 0.555503 0.906390 0.838923
Si Si8 0.924211 0.909053 0.271245
O O1 0.524721 0.705864 0.310974
O O2 0.704932 0.658134 0.146677
O O3 0.532724 0.486207 0.194780
O O4 0.504069 0.697179 0.093650
O O5 0.194839 0.468022 0.527653
O O6 0.289853 0.274818 0.587373
O O7 0.125191 0.265348 0.475050
O O8 0.078044 0.341101 0.708531
O O9 0.309268 0.664173 0.511376
O O10 0.154078 0.646678 0.392592
O O11 0.329716 0.516087 0.314767
O O12 0.940316 0.861384 0.399180
O O13 0.945622 0.634889 0.441336
O O14 0.068982 0.556667 0.831299
O O15 0.927412 0.652973 0.015503
O O16 0.869353 0.198722 0.706304
#
# Coordination Sequence:
#
# PCOD9134171 Si02
#       8
#     4   4   4   4   4   4   4   4
#     4  12  24  43  73 103 141 183 240 298 353 431
#     4  10  22  41  69  95 129 186 231 284 344 428
#     4  10  18  38  67  95 128 174 234 277 341 420
#     4  11  24  42  68 105 132 178 241 289 353 430
#     4  11  26  43  67 101 140 181 231 292 356 430
#     4  12  23  44  67 107 141 184 235 289 366 428
#     4  11  22  42  66  99 135 177 230 287 355 424
#     4  11  23  43  71  99 140 189 238 292 356 437
#
# _framework density 22.126270999999999
#
# number of rings (size 3 to 8) (size 9 to 14) (size 15 to 20)
#    0.000    1.000    2.500    6.750    1.750    0.000 
#    4.500    2.500    0.000    0.000    0.000    0.000 
#    0.000    0.000    0.000    0.000    0.000    0.000 
#
# Total GULP energy -89287.968177 kJ/mol
# GULP energy per Si atom -5580.498011 kJ/mol
# Density = 2.207591 g / cm^3
# Si number density = 22.126271 Si / 1000 Ang^3
#
#
#
# Elastic Constant Matrix: (Units=GPa)
#
#
# Indices 1 2 3 4 5 6 
#
# 1 123.4536 27.7262 54.2659 0.0000 2.9495 0.0000
# 2 27.7262 34.5418 13.3056 0.0000 6.1245 0.0000
# 3 54.2659 13.3056 90.4725 0.0000 2.7973 0.0000
# 4 0.0000 0.0000 0.0000 34.9962 0.0000 -8.5912
# 5 2.9495 6.1245 2.7973 0.0000 41.9320 0.0000
# 6 0.0000 0.0000 0.0000 -8.5912 0.0000 33.0023
#
#
#
# Elastic Compliance Matrix: (Units=1/GPa)
#
#
# Indices 1 2 3 4 5 6 
#
# 1 0.012687 -0.007807 -0.006482 0.000000 0.000680 0.000000
# 2 -0.007807 0.036246 -0.000502 0.000000 -0.004711 0.000000
# 3 -0.006482 -0.000502 0.015030 0.000000 -0.000473 0.000000
# 4 0.000000 0.000000 0.000000 0.030525 0.000000 0.007946
# 5 0.000680 -0.004711 -0.000473 0.000000 0.024520 0.000000
# 6 0.000000 0.000000 0.000000 0.007946 0.000000 0.032369
#
#
# Mechanical properties :
#
#
# Convention : Reuss Voigt Hill
#
# Bulk Modulus (GPa) = 29.08756 48.78477 38.93616
# Shear Modulus (GPa) = 25.98478 32.19746 29.09112
#
# Velocity S-wave (km/s) = 3.43065 3.81881 3.62992
# Velocity P-wave (km/s) = 5.37282 6.44520 5.93329
#
# Compressibility (1/GPa) = 0.03437896
#
# Stress axis : x y z
#
# Youngs Moduli (GPa) = 78.82210 27.58936 66.53447
#
# Poissons Ratio (x) = 0.21539 0.43131
# Poissons Ratio (y) = 0.61537 0.03341
# Poissons Ratio (z) = 0.51096 0.01386
#
# Static dielectric constant tensor:
#      x y z
#    x 1.908250 0.000000 -0.057340 
#    y 0.000000 1.859640 0.000000 
#    z -0.057340 0.000000 1.832740 
# 
# From -- ./inp_files/16165.got.cif
#   From: 2010.05.17/outbox.cif.g08.bks.cpg/sg9_9_cif.got.tgz:16165.got - 2010.06.03 20:04:27.
