data_PCOD9134893
_publ_section_title
;
Structure prediction by ZEFSAII (Michael W. Deem and Ramdas Pophale) SiO2 
 PCOD9134893
Probable space group: C C
;
_chemical_formula_sum "Si O2"
_cell_formula_units_Z 32
_cell_length_a 25.873383
_cell_length_b 13.479113
_cell_length_c 8.654098
_cell_angle_alpha 90.000000
_cell_angle_beta 31.135711
_cell_angle_gamma 90.000000
_cell_volume 1560.569421
_symmetry_space_group_name_H-M "C C"
_symmetry_group_IT_number 9
_symmetry_cell_setting 'monoclinic'
loop_
_space_group_symop_operation_xyz
x,y,z
x,-y,1/2+z
1/2+x,1/2+y,z
1/2+x,1/2-y,1/2+z
loop_
_atom_site_type_symbol
_atom_site_label
_atom_site_fract_x
_atom_site_fract_y
_atom_site_fract_z
Si Si1 0.163190 0.325558 0.095970
Si Si2 0.275687 0.129746 0.926054
Si Si3 0.913517 0.873052 0.213614
Si Si4 0.842486 0.035947 0.194282
Si Si5 0.185231 0.003379 0.396180
Si Si6 0.092753 0.183264 0.032463
Si Si7 0.006987 0.149903 0.924380
Si Si8 0.964836 0.303190 0.776036
O O1 0.143482 0.280756 0.975129
O O2 0.055186 0.348821 0.447183
O O3 0.219646 0.234998 0.041962
O O4 0.236501 0.419209 0.917292
O O5 0.387910 0.134940 0.574763
O O6 0.221041 0.051277 0.956651
O O7 0.260983 0.084454 0.132941
O O8 0.912381 0.947068 0.364235
O O9 0.896151 0.766306 0.338693
O O10 0.844835 0.926853 0.261840
O O11 0.016945 0.853326 0.861202
O O12 0.895320 0.107318 0.186136
O O13 0.082873 0.061778 0.689064
O O14 0.168046 0.909011 0.327011
O O15 0.033821 0.192290 0.023295
O O16 0.017784 0.231004 0.763388
#
# Coordination Sequence:
#
# PCOD9134893 Si02
#       8
#     4   4   4   4   4   4   4   4
#     4  10  21  39  60  86 128 165 199 256 317 372
#     4  11  21  40  60  94 122 162 206 252 314 366
#     4  10  20  34  58  89 120 160 196 255 308 366
#     4  11  21  35  58  93 127 160 202 255 323 365
#     4  11  21  33  62  91 125 157 204 254 308 369
#     4  10  21  34  57  92 123 157 206 258 313 362
#     4  11  19  33  58  96 119 158 202 263 310 362
#     4  10  22  40  63  87 128 163 201 257 317 372
#
# _framework density 20.505334000000001
#
# number of rings (size 3 to 8) (size 9 to 14) (size 15 to 20)
#    0.000    1.500    6.250    0.750    3.500    0.000 
#    0.000    7.500    0.000    0.000    0.000    0.000 
#    0.000    0.000    0.000    0.000    0.000    0.000 
#
# Total GULP energy -89153.146555 kJ/mol
# GULP energy per Si atom -5572.071660 kJ/mol
# Density = 2.045866 g / cm^3
# Si number density = 20.505334 Si / 1000 Ang^3
#
#
#
# Elastic Constant Matrix: (Units=GPa)
#
#
# Indices 1 2 3 4 5 6 
#
# 1 67.9488 20.7112 17.6393 0.0000 -7.2233 0.0000
# 2 20.7112 39.6659 19.3920 0.0000 -8.1757 0.0000
# 3 17.6393 19.3920 80.7966 0.0000 -11.4415 0.0000
# 4 0.0000 0.0000 0.0000 16.8815 0.0000 -7.5401
# 5 -7.2233 -8.1757 -11.4415 0.0000 23.1293 0.0000
# 6 0.0000 0.0000 0.0000 -7.5401 0.0000 35.4375
#
#
#
# Elastic Compliance Matrix: (Units=1/GPa)
#
#
# Indices 1 2 3 4 5 6 
#
# 1 0.017821 -0.008097 -0.001682 0.000000 0.001871 0.000000
# 2 -0.008097 0.033404 -0.005308 0.000000 0.006654 0.000000
# 3 -0.001682 -0.005308 0.014708 0.000000 0.004874 0.000000
# 4 0.000000 0.000000 0.000000 0.065457 0.000000 0.013927
# 5 0.001871 0.006654 0.004874 0.000000 0.048583 0.000000
# 6 0.000000 0.000000 0.000000 0.013927 0.000000 0.031182
#
#
# Mechanical properties :
#
#
# Convention : Reuss Voigt Hill
#
# Bulk Modulus (GPa) = 27.96421 33.76626 30.86523
# Shear Modulus (GPa) = 19.74350 23.80091 21.77220
#
# Velocity S-wave (km/s) = 3.10634 3.41063 3.26204
# Velocity P-wave (km/s) = 5.15102 5.65797 5.41043
#
# Compressibility (1/GPa) = 0.03576000
#
# Stress axis : x y z
#
# Youngs Moduli (GPa) = 56.11504 29.93614 67.98956
#
# Poissons Ratio (x) = 0.24239 0.11438
# Poissons Ratio (y) = 0.45435 0.36086
# Poissons Ratio (z) = 0.09440 0.15889
#
# Static dielectric constant tensor:
#      x y z
#    x 1.765110 0.000000 0.021610 
#    y 0.000000 1.765690 0.000000 
#    z 0.021610 0.000000 1.783420 
# 
# From -- ./inp_files/12537.got.cif
#   From: 2010.05.17/outbox.cif.g08.bks.cpg/sg9_7_cif.got.tgz:12537.got - 2010.06.03 20:04:27.
