data_PCOD9134111
_publ_section_title
;
Structure prediction by ZEFSAII (Michael W. Deem and Ramdas Pophale) SiO2 
 PCOD9134111
Probable space group: C C
;
_chemical_formula_sum "Si O2"
_cell_formula_units_Z 20
_cell_length_a 7.751771
_cell_length_b 24.687921
_cell_length_c 7.653500
_cell_angle_alpha 90.000000
_cell_angle_beta 143.529874
_cell_angle_gamma 90.000000
_cell_volume 870.616619
_symmetry_space_group_name_H-M "C C"
_symmetry_group_IT_number 9
_symmetry_cell_setting 'monoclinic'
loop_
_space_group_symop_operation_xyz
x,y,z
x,-y,1/2+z
1/2+x,1/2+y,z
1/2+x,1/2-y,1/2+z
loop_
_atom_site_type_symbol
_atom_site_label
_atom_site_fract_x
_atom_site_fract_y
_atom_site_fract_z
Si Si1 0.152600 0.556657 0.001690
Si Si2 0.046771 0.970819 0.132476
Si Si3 0.527717 0.785877 0.841167
Si Si4 0.230963 0.889220 0.582395
Si Si5 0.590494 0.137731 0.672460
O O1 0.371008 0.523732 0.051664
O O2 0.324816 0.559741 0.323008
O O3 0.070366 0.614077 0.848540
O O4 0.853289 0.524221 0.783029
O O5 0.134493 0.934545 0.369700
O O6 0.435331 0.841347 0.670790
O O7 0.346950 0.737055 0.614175
O O8 0.466788 0.805704 0.994471
O O9 0.929374 0.863043 0.400876
O O10 0.418593 0.904514 0.906362
#
# Coordination Sequence:
#
# PCOD9134111 Si02
#       5
#     4   4   4   4   4
#     4  12  26  43  64  93 134 178 219 265 322 385
#     4  12  26  43  64  93 134 178 219 265 322 385
#     4  10  18  36  68  96 120 160 218 270 314 380
#     4  10  21  39  65  93 128 161 220 262 320 377
#     4  10  21  39  65  93 128 161 220 262 320 377
#
# _framework density 22.972223
#
# number of rings (size 3 to 8) (size 9 to 14) (size 15 to 20)
#    1.200    0.000    2.000    4.800    0.000    3.200 
#    0.000    0.000    0.000    7.200    0.000    0.000 
#    0.000    0.000    0.000    0.000    0.000    0.000 
#
# Total GULP energy -55715.991956 kJ/mol
# GULP energy per Si atom -5571.599196 kJ/mol
# Density = 2.291994 g / cm^3
# Si number density = 22.972223 Si / 1000 Ang^3
#
#
#
# Elastic Constant Matrix: (Units=GPa)
#
#
# Indices 1 2 3 4 5 6 
#
# 1 52.5590 -3.9913 23.8502 0.0000 17.1719 0.0000
# 2 -3.9913 24.1185 10.2183 0.0000 6.3495 0.0000
# 3 23.8502 10.2183 169.9925 0.0000 -1.8400 0.0000
# 4 0.0000 0.0000 0.0000 45.6278 0.0000 -4.1264
# 5 17.1719 6.3495 -1.8400 0.0000 46.9522 0.0000
# 6 0.0000 0.0000 0.0000 -4.1264 0.0000 15.0203
#
#
#
# Elastic Compliance Matrix: (Units=1/GPa)
#
#
# Indices 1 2 3 4 5 6 
#
# 1 0.024980 0.008642 -0.004137 0.000000 -0.010467 0.000000
# 2 0.008642 0.047208 -0.004155 0.000000 -0.009708 0.000000
# 3 -0.004137 -0.004155 0.006738 0.000000 0.002339 0.000000
# 4 0.000000 0.000000 0.000000 0.022475 0.000000 0.006174
# 5 -0.010467 -0.009708 0.002339 0.000000 0.026531 0.000000
# 6 0.000000 0.000000 0.000000 0.006174 0.000000 0.068273
#
#
# Mechanical properties :
#
#
# Convention : Reuss Voigt Hill
#
# Bulk Modulus (GPa) = 12.55885 34.09160 23.32523
# Shear Modulus (GPa) = 22.51771 35.95957 29.23864
#
# Velocity S-wave (km/s) = 3.13423 3.96074 3.57148
# Velocity P-wave (km/s) = 4.31007 5.98241 5.21373
#
# Compressibility (1/GPa) = 0.07962512
#
# Stress axis : x y z
#
# Youngs Moduli (GPa) = 40.03259 21.18269 148.40753
#
# Poissons Ratio (x) = -0.18307 0.61403
# Poissons Ratio (y) = -0.34597 0.61668
# Poissons Ratio (z) = 0.16563 0.08802
#
# Static dielectric constant tensor:
#      x y z
#    x 1.909580 0.000000 -0.003870 
#    y 0.000000 1.943190 0.000000 
#    z -0.003870 0.000000 1.845850 
# 
# From -- ./inp_files/994.got.cif
#   From: 2010.05.17/outbox.cif.g08.bks.cpg/sg9_1_cif.got.tgz:994.got - 2010.06.03 20:04:27.
