data_PCOD9134486
_publ_section_title
;
Structure prediction by ZEFSAII (Michael W. Deem and Ramdas Pophale) SiO2 
 PCOD9134486
Probable space group: C C
;
_chemical_formula_sum "Si O2"
_cell_formula_units_Z 28
_cell_length_a 16.526827
_cell_length_b 8.658190
_cell_length_c 8.934005
_cell_angle_alpha 90.000000
_cell_angle_beta 121.016696
_cell_angle_gamma 90.000000
_cell_volume 1095.600731
_symmetry_space_group_name_H-M "C C"
_symmetry_group_IT_number 9
_symmetry_cell_setting 'monoclinic'
loop_
_space_group_symop_operation_xyz
x,y,z
x,-y,1/2+z
1/2+x,1/2+y,z
1/2+x,1/2-y,1/2+z
loop_
_atom_site_type_symbol
_atom_site_label
_atom_site_fract_x
_atom_site_fract_y
_atom_site_fract_z
Si Si1 0.591140 0.227451 0.470540
Si Si2 0.179577 0.820816 0.072035
Si Si3 0.311569 0.203999 0.199959
Si Si4 0.290716 0.006137 0.929365
Si Si5 0.140306 0.539691 0.231439
Si Si6 0.850374 0.987053 0.436983
Si Si7 0.479500 0.546922 0.336571
O O1 0.697096 0.300682 0.578673
O O2 0.585770 0.130891 0.309993
O O3 0.518341 0.369956 0.399513
O O4 0.591396 0.111130 0.613301
O O5 0.169487 0.646210 0.117160
O O6 0.209560 0.910111 0.253585
O O7 0.249943 0.880185 0.008989
O O8 0.076485 0.863175 0.918373
O O9 0.347874 0.087088 0.360772
O O10 0.333940 0.369890 0.283665
O O11 0.343235 0.138313 0.072211
O O12 0.245882 0.512576 0.397863
O O13 0.915374 0.109978 0.412053
O O14 0.918058 0.930880 0.631135
#
# Coordination Sequence:
#
# PCOD9134486 Si02
#       7
#     4   4   4   4   4   4   4
#     4  11  23  41  67  95 135 174 234 272 330 410
#     4  11  21  38  71  94 128 176 234 263 336 406
#     4  10  21  40  63  98 129 178 227 273 327 412
#     4  10  19  36  69  95 126 168 238 274 313 396
#     4  11  24  42  68  97 128 181 237 275 324 412
#     4  11  26  41  67  98 142 169 224 286 354 391
#     4  12  24  44  67 101 138 176 218 287 352 401
#
# _framework density 25.556757000000001
#
# number of rings (size 3 to 8) (size 9 to 14) (size 15 to 20)
#    0.000    1.143    4.286    3.429    6.000    0.000 
#    0.000    2.857    0.000    0.000    0.000    0.000 
#    0.000    0.000    0.000    0.000    0.000    0.000 
#
# Total GULP energy -78259.749899 kJ/mol
# GULP energy per Si atom -5589.982136 kJ/mol
# Density = 2.549859 g / cm^3
# Si number density = 25.556757 Si / 1000 Ang^3
#
#
#
# Elastic Constant Matrix: (Units=GPa)
#
#
# Indices 1 2 3 4 5 6 
#
# 1 68.4939 7.4715 46.2065 0.0000 4.0643 0.0000
# 2 7.4715 93.7423 44.0342 0.0000 -3.0759 0.0000
# 3 46.2065 44.0342 154.9796 0.0000 -7.1528 0.0000
# 4 0.0000 0.0000 0.0000 44.7067 0.0000 -21.8211
# 5 4.0643 -3.0759 -7.1528 0.0000 44.2269 0.0000
# 6 0.0000 0.0000 0.0000 -21.8211 0.0000 20.8822
#
#
#
# Elastic Compliance Matrix: (Units=1/GPa)
#
#
# Indices 1 2 3 4 5 6 
#
# 1 0.018702 0.001269 -0.006057 0.000000 -0.002610 0.000000
# 2 0.001269 0.012400 -0.003896 0.000000 0.000116 0.000000
# 3 -0.006057 -0.003896 0.009449 0.000000 0.001814 0.000000
# 4 0.000000 0.000000 0.000000 0.045653 0.000000 0.047706
# 5 -0.002610 0.000116 0.001814 0.000000 0.023152 0.000000
# 6 0.000000 0.000000 0.000000 0.047706 0.000000 0.097738
#
#
# Mechanical properties :
#
#
# Convention : Reuss Voigt Hill
#
# Bulk Modulus (GPa) = 43.13479 56.96002 50.04740
# Shear Modulus (GPa) = 21.53395 36.59673 29.06534
#
# Velocity S-wave (km/s) = 2.90589 3.78825 3.37603
# Velocity P-wave (km/s) = 5.30788 6.43976 5.90102
#
# Compressibility (1/GPa) = 0.02318314
#
# Stress axis : x y z
#
# Youngs Moduli (GPa) = 53.46900 80.64227 105.82999
#
# Poissons Ratio (x) = -0.10233 0.64102
# Poissons Ratio (y) = -0.06785 0.41235
# Poissons Ratio (z) = 0.32386 0.31421
#
# Static dielectric constant tensor:
#      x y z
#    x 2.108340 0.000000 -0.006980 
#    y 0.000000 2.149230 0.000000 
#    z -0.006980 0.000000 1.995020 
# 
# From -- ./inp_files/11301.got.cif
#   From: 2010.05.17/outbox.cif.g08.bks.cpg/sg9_6_cif.got.tgz:11301.got - 2010.06.03 20:04:27.
