data_PCOD9134867
_publ_section_title
;
Structure prediction by ZEFSAII (Michael W. Deem and Ramdas Pophale) SiO2 
 PCOD9134867
Probable space group: C C
;
_chemical_formula_sum "Si O2"
_cell_formula_units_Z 28
_cell_length_a 11.178561
_cell_length_b 19.723693
_cell_length_c 5.299746
_cell_angle_alpha 90.000000
_cell_angle_beta 102.175178
_cell_angle_gamma 90.000000
_cell_volume 1142.218590
_symmetry_space_group_name_H-M "C C"
_symmetry_group_IT_number 9
_symmetry_cell_setting 'monoclinic'
loop_
_space_group_symop_operation_xyz
x,y,z
x,-y,1/2+z
1/2+x,1/2+y,z
1/2+x,1/2-y,1/2+z
loop_
_atom_site_type_symbol
_atom_site_label
_atom_site_fract_x
_atom_site_fract_y
_atom_site_fract_z
Si Si1 0.500000 0.974693 0.555630
Si Si2 0.390078 0.159980 0.917377
Si Si3 0.745868 0.069027 0.358479
Si Si4 0.150622 0.155878 0.067377
Si Si5 0.378950 0.386998 0.399215
Si Si6 0.275605 0.754811 0.969889
Si Si7 0.095675 0.298258 0.802889
O O1 0.479624 0.902702 0.407764
O O2 0.642640 0.983351 0.702225
O O3 0.445493 0.023512 0.315349
O O4 0.256255 0.132108 0.924428
O O5 0.376897 0.220805 0.717338
O O6 0.452768 0.191682 0.193644
O O7 0.838792 0.068016 0.638696
O O8 0.657121 0.131286 0.403777
O O9 0.820573 0.088670 0.138105
O O10 0.122611 0.234649 0.986923
O O11 0.025403 0.115920 0.997844
O O12 0.221740 0.172489 0.354791
O O13 0.331414 0.309180 0.343144
O O14 0.161932 0.721628 0.071116
#
# Coordination Sequence:
#
# PCOD9134867 Si02
#       7
#     4   4   4   4   4   4   4
#     4  11  25  47  74  94 115 159 223 289 330 355
#     4  10  23  37  60  91 130 166 215 262 314 372
#     4  10  22  41  61  91 121 158 213 267 312 361
#     4  11  21  32  56  88 134 172 201 234 311 396
#     4  11  22  36  60  92 134 173 201 243 305 395
#     4  10  20  33  55  90 132 177 208 242 300 390
#     4   9  19  34  52  86 126 169 203 249 296 377
#
# _framework density 24.513698000000002
#
# number of rings (size 3 to 8) (size 9 to 14) (size 15 to 20)
#    0.000    1.714    1.429    2.571   10.000    0.000 
#    0.000    0.000    0.000    5.143    0.000    0.000 
#    0.000    0.000    0.000    0.000    0.000    0.000 
#
# Total GULP energy -78008.065479 kJ/mol
# GULP energy per Si atom -5572.004677 kJ/mol
# Density = 2.445790 g / cm^3
# Si number density = 24.513698 Si / 1000 Ang^3
#
#
#
# Elastic Constant Matrix: (Units=GPa)
#
#
# Indices 1 2 3 4 5 6 
#
# 1 84.9820 2.0877 35.4683 0.0000 19.3148 0.0000
# 2 2.0877 59.5978 13.9278 0.0000 6.4658 0.0000
# 3 35.4683 13.9278 106.9048 0.0000 4.8951 0.0000
# 4 0.0000 0.0000 0.0000 23.3634 0.0000 13.7547
# 5 19.3148 6.4658 4.8951 0.0000 32.5826 0.0000
# 6 0.0000 0.0000 0.0000 13.7547 0.0000 36.5123
#
#
#
# Elastic Compliance Matrix: (Units=1/GPa)
#
#
# Indices 1 2 3 4 5 6 
#
# 1 0.015882 0.001601 -0.005067 0.000000 -0.008971 0.000000
# 2 0.001601 0.017788 -0.002662 0.000000 -0.004079 0.000000
# 3 -0.005067 -0.002662 0.011298 0.000000 0.001834 0.000000
# 4 0.000000 0.000000 0.000000 0.055000 0.000000 -0.020719
# 5 -0.008971 -0.004079 0.001834 0.000000 0.036543 0.000000
# 6 0.000000 0.000000 0.000000 -0.020719 0.000000 0.035193
#
#
# Mechanical properties :
#
#
# Convention : Reuss Voigt Hill
#
# Bulk Modulus (GPa) = 30.57003 39.38360 34.97681
# Shear Modulus (GPa) = 25.65912 31.82505 28.74209
#
# Velocity S-wave (km/s) = 3.23882 3.60704 3.42788
# Velocity P-wave (km/s) = 5.14629 5.78347 5.47416
#
# Compressibility (1/GPa) = 0.03271178
#
# Stress axis : x y z
#
# Youngs Moduli (GPa) = 62.96623 56.21877 88.51138
#
# Poissons Ratio (x) = -0.09001 0.44848
# Poissons Ratio (y) = -0.10081 0.23560
# Poissons Ratio (z) = 0.31904 0.14964
#
# Static dielectric constant tensor:
#      x y z
#    x 1.990360 0.000000 -0.041910 
#    y 0.000000 1.964950 0.000000 
#    z -0.041910 0.000000 2.072280 
# 
# From -- ./inp_files/1764.got.cif
#   From: 2010.05.17/outbox.cif.g08.bks.cpg/sg9_1_cif.got.tgz:1764.got - 2010.06.03 20:04:27.
