data_PCOD9134152
_publ_section_title
;
Structure prediction by ZEFSAII (Michael W. Deem and Ramdas Pophale) SiO2 
 PCOD9134152
Probable space group: C C
;
_chemical_formula_sum "Si O2"
_cell_formula_units_Z 32
_cell_length_a 19.275315
_cell_length_b 7.711537
_cell_length_c 9.875869
_cell_angle_alpha 90.000000
_cell_angle_beta 67.477876
_cell_angle_gamma 90.000000
_cell_volume 1356.012200
_symmetry_space_group_name_H-M "C C"
_symmetry_group_IT_number 9
_symmetry_cell_setting 'monoclinic'
loop_
_space_group_symop_operation_xyz
x,y,z
x,-y,1/2+z
1/2+x,1/2+y,z
1/2+x,1/2-y,1/2+z
loop_
_atom_site_type_symbol
_atom_site_label
_atom_site_fract_x
_atom_site_fract_y
_atom_site_fract_z
Si Si1 0.689970 0.952989 0.166100
Si Si2 0.508418 0.799536 0.681840
Si Si3 0.046176 0.844832 0.423950
Si Si4 0.759039 0.829362 0.852515
Si Si5 0.428510 0.544364 0.210268
Si Si6 0.174202 0.204283 0.492307
Si Si7 0.699305 0.503410 0.732383
Si Si8 0.538858 0.176610 0.690314
O O1 0.716148 0.030270 0.289029
O O2 0.690106 0.124061 0.067623
O O3 0.605321 0.878902 0.238434
O O4 0.737119 0.829665 0.028547
O O5 0.441951 0.659951 0.720004
O O6 0.582379 0.715577 0.555570
O O7 0.498248 0.002882 0.662776
O O8 0.528444 0.794502 0.825016
O O9 0.968167 0.919499 0.536146
O O10 0.109690 0.965984 0.317610
O O11 0.081898 0.756945 0.528964
O O12 0.845127 0.889725 0.780778
O O13 0.744163 0.650656 0.782947
O O14 0.479817 0.671406 0.268007
O O15 0.209437 0.168634 0.317465
O O16 0.205196 0.051897 0.569499
#
# Coordination Sequence:
#
# PCOD9134152 Si02
#       8
#     4   4   4   4   4   4   4   4
#     4  10  22  40  62  89 123 164 205 260 305 379
#     4  10  19  38  62  87 123 154 207 258 313 359
#     4   9  19  38  58  87 122 154 204 262 294 374
#     4  11  23  39  61  87 128 160 203 257 322 365
#     4  10  22  40  60  91 124 165 200 259 318 376
#     4   9  19  35  61  89 110 154 203 254 299 360
#     4  10  18  38  59  84 119 156 199 254 304 365
#     4   9  20  40  63  88 117 161 215 248 305 374
#
# _framework density 23.598609
#
# number of rings (size 3 to 8) (size 9 to 14) (size 15 to 20)
#    0.750    1.500    2.500    0.750    1.750    1.000 
#    6.750    0.000    0.000    0.000    0.000    0.000 
#    0.000    0.000    0.000    0.000    0.000    0.000 
#
# Total GULP energy -89104.770633 kJ/mol
# GULP energy per Si atom -5569.048165 kJ/mol
# Density = 2.354490 g / cm^3
# Si number density = 23.598609 Si / 1000 Ang^3
#
#
#
# Elastic Constant Matrix: (Units=GPa)
#
#
# Indices 1 2 3 4 5 6 
#
# 1 76.8258 7.4955 22.0804 0.0000 -2.2534 0.0000
# 2 7.4955 97.8755 -12.9661 0.0000 2.6264 0.0000
# 3 22.0804 -12.9661 84.4919 0.0000 18.7986 0.0000
# 4 0.0000 0.0000 0.0000 27.8570 0.0000 4.1391
# 5 -2.2534 2.6264 18.7986 0.0000 25.4145 0.0000
# 6 0.0000 0.0000 0.0000 4.1391 0.0000 22.3000
#
#
#
# Elastic Compliance Matrix: (Units=1/GPa)
#
#
# Indices 1 2 3 4 5 6 
#
# 1 0.014944 -0.002016 -0.005453 0.000000 0.005567 0.000000
# 2 -0.002016 0.010859 0.002972 0.000000 -0.003499 0.000000
# 3 -0.005453 0.002972 0.016629 0.000000 -0.013091 0.000000
# 4 0.000000 0.000000 0.000000 0.036916 0.000000 -0.006852
# 5 0.005567 -0.003499 -0.013091 0.000000 0.049886 0.000000
# 6 0.000000 0.000000 0.000000 -0.006852 0.000000 0.046115
#
#
# Mechanical properties :
#
#
# Convention : Reuss Voigt Hill
#
# Bulk Modulus (GPa) = 29.90721 32.49032 31.19876
# Shear Modulus (GPa) = 25.57682 31.28653 28.43167
#
# Velocity S-wave (km/s) = 3.29572 3.64507 3.47479
# Velocity P-wave (km/s) = 5.21375 5.61366 5.41740
#
# Compressibility (1/GPa) = 0.03343675
#
# Stress axis : x y z
#
# Youngs Moduli (GPa) = 66.91743 92.08894 60.13503
#
# Poissons Ratio (x) = 0.18567 0.32793
# Poissons Ratio (y) = 0.13492 -0.17871
# Poissons Ratio (z) = 0.36492 -0.27368
#
# Static dielectric constant tensor:
#      x y z
#    x 1.881730 0.000000 0.043610 
#    y 0.000000 2.073420 0.000000 
#    z 0.043610 0.000000 1.912010 
# 
# From -- ./inp_files/19037.got.cif
#   From: 2010.05.17/outbox.cif.g08.bks.cpg/sg9_10_cif.got.tgz:19037.got - 2010.06.03 20:04:27.
