data_PCOD9134344
_publ_section_title
;
Structure prediction by ZEFSAII (Michael W. Deem and Ramdas Pophale) SiO2 
 PCOD9134344
Probable space group: C C
;
_chemical_formula_sum "Si O2"
_cell_formula_units_Z 32
_cell_length_a 22.833665
_cell_length_b 9.736212
_cell_length_c 9.027275
_cell_angle_alpha 90.000000
_cell_angle_beta 119.692355
_cell_angle_gamma 90.000000
_cell_volume 1743.375543
_symmetry_space_group_name_H-M "C C"
_symmetry_group_IT_number 9
_symmetry_cell_setting 'monoclinic'
loop_
_space_group_symop_operation_xyz
x,y,z
x,-y,1/2+z
1/2+x,1/2+y,z
1/2+x,1/2-y,1/2+z
loop_
_atom_site_type_symbol
_atom_site_label
_atom_site_fract_x
_atom_site_fract_y
_atom_site_fract_z
Si Si1 0.113410 0.123438 0.089160
Si Si2 0.303575 0.109013 0.559846
Si Si3 0.670870 0.877552 0.693242
Si Si4 0.701107 0.159014 0.887716
Si Si5 0.895412 0.500283 0.417871
Si Si6 0.008647 0.325347 0.968384
Si Si7 0.535518 0.064570 0.187436
Si Si8 0.181177 0.102596 0.855330
O O1 0.154051 0.235395 0.237653
O O2 0.131204 0.977305 0.181333
O O3 0.142542 0.129177 0.960296
O O4 0.035637 0.171401 0.998337
O O5 0.360725 0.071942 0.512967
O O6 0.243313 0.998653 0.466425
O O7 0.271078 0.257930 0.494396
O O8 0.339175 0.082707 0.760276
O O9 0.674977 0.871184 0.521283
O O10 0.594415 0.873416 0.661643
O O11 0.704295 0.742643 0.806849
O O12 0.702378 0.017514 0.797892
O O13 0.959069 0.403741 0.539644
O O14 0.931338 0.375840 0.869661
O O15 0.035373 0.402024 0.149965
O O16 0.042437 0.396142 0.866525
#
# Coordination Sequence:
#
# PCOD9134344 Si02
#       8
#     4   4   4   4   4   4   4   4
#     4  11  21  39  55  89 121 150 195 246 307 347
#     4  11  21  38  56  89 118 156 200 236 288 358
#     4  12  21  38  60  91 119 154 196 249 309 352
#     4  11  23  35  60  86 121 154 196 249 293 353
#     4  10  19  35  61  86 115 156 198 242 282 350
#     4  10  19  35  59  89 114 149 200 249 293 344
#     4  10  19  34  60  91 111 148 195 255 287 348
#     4  11  23  36  59  85 127 157 188 246 305 358
#
# _framework density 18.355195999999999
#
# number of rings (size 3 to 8) (size 9 to 14) (size 15 to 20)
#    0.750    0.500    3.750    5.250    0.000    0.000 
#    0.000    0.000    0.000    7.500    0.000    0.000 
#    0.000    0.000    0.000    0.000    0.000    0.000 
#
# Total GULP energy -89129.084659 kJ/mol
# GULP energy per Si atom -5570.567791 kJ/mol
# Density = 1.831342 g / cm^3
# Si number density = 18.355196 Si / 1000 Ang^3
#
#
#
# Elastic Constant Matrix: (Units=GPa)
#
#
# Indices 1 2 3 4 5 6 
#
# 1 58.7024 11.4558 10.7431 0.0000 -4.0802 0.0000
# 2 11.4558 90.0416 23.7601 0.0000 2.1293 0.0000
# 3 10.7431 23.7601 61.1143 0.0000 -9.4486 0.0000
# 4 0.0000 0.0000 0.0000 31.0515 0.0000 1.0155
# 5 -4.0802 2.1293 -9.4486 0.0000 38.6052 0.0000
# 6 0.0000 0.0000 0.0000 1.0155 0.0000 26.7090
#
#
#
# Elastic Compliance Matrix: (Units=1/GPa)
#
#
# Indices 1 2 3 4 5 6 
#
# 1 0.017882 -0.001714 -0.002256 0.000000 0.001432 0.000000
# 2 -0.001714 0.012680 -0.004952 0.000000 -0.002093 0.000000
# 3 -0.002256 -0.004952 0.019425 0.000000 0.004789 0.000000
# 4 0.000000 0.000000 0.000000 0.032245 0.000000 -0.001226
# 5 0.001432 -0.002093 0.004789 0.000000 0.027342 0.000000
# 6 0.000000 0.000000 0.000000 -0.001226 0.000000 0.037487
#
#
# Mechanical properties :
#
#
# Convention : Reuss Voigt Hill
#
# Bulk Modulus (GPa) = 31.10992 33.53070 32.32031
# Shear Modulus (GPa) = 28.47075 30.19977 29.33526
#
# Velocity S-wave (km/s) = 3.94267 4.06063 4.00209
# Velocity P-wave (km/s) = 6.14100 6.34762 6.24516
#
# Compressibility (1/GPa) = 0.03214409
#
# Stress axis : x y z
#
# Youngs Moduli (GPa) = 55.92251 78.86274 51.48006
#
# Poissons Ratio (x) = 0.13515 0.11612
# Poissons Ratio (y) = 0.09584 0.25494
# Poissons Ratio (z) = 0.12614 0.39054
#
# Static dielectric constant tensor:
#      x y z
#    x 1.657950 0.000000 0.020480 
#    y 0.000000 1.635330 0.000000 
#    z 0.020480 0.000000 1.660510 
# 
# From -- ./inp_files/12074.got.cif
#   From: 2010.05.17/outbox.cif.g08.bks.cpg/sg9_7_cif.got.tgz:12074.got - 2010.06.03 20:04:27.
