data_PCOD9134386
_publ_section_title
;
Structure prediction by ZEFSAII (Michael W. Deem and Ramdas Pophale) SiO2 
 PCOD9134386
Probable space group: C C
;
_chemical_formula_sum "Si O2"
_cell_formula_units_Z 32
_cell_length_a 20.134592
_cell_length_b 11.572071
_cell_length_c 7.724201
_cell_angle_alpha 90.000000
_cell_angle_beta 135.217553
_cell_angle_gamma 90.000000
_cell_volume 1267.760428
_symmetry_space_group_name_H-M "C C"
_symmetry_group_IT_number 9
_symmetry_cell_setting 'monoclinic'
loop_
_space_group_symop_operation_xyz
x,y,z
x,-y,1/2+z
1/2+x,1/2+y,z
1/2+x,1/2-y,1/2+z
loop_
_atom_site_type_symbol
_atom_site_label
_atom_site_fract_x
_atom_site_fract_y
_atom_site_fract_z
Si Si1 0.983910 0.203070 0.488430
Si Si2 0.378763 0.678472 0.935210
Si Si3 0.716481 0.043680 0.828670
Si Si4 0.821188 0.617721 0.079709
Si Si5 0.285132 0.330955 0.795154
Si Si6 0.022284 0.614858 0.340678
Si Si7 0.639196 0.532378 0.908847
Si Si8 0.053659 0.147312 0.084015
O O1 0.942329 0.212333 0.219755
O O2 0.894957 0.160140 0.441192
O O3 0.017283 0.322133 0.644072
O O4 0.067073 0.110312 0.660593
O O5 0.446664 0.608968 0.928485
O O6 0.290424 0.608683 0.841329
O O7 0.346873 0.792646 0.778859
O O8 0.613516 0.040131 0.550308
O O9 0.754558 0.912905 0.897372
O O10 0.726283 0.118266 0.023319
O O11 0.919325 0.563925 0.193260
O O12 0.779633 0.699321 0.850507
O O13 0.742600 0.539881 0.021324
O O14 0.040653 0.721355 0.507571
O O15 0.608009 0.399768 0.849373
O O16 0.616108 0.590698 0.048739
#
# Coordination Sequence:
#
# PCOD9134386 Si02
#       8
#     4   4   4   4   4   4   4   4
#     4   9  19  35  59  89 120 153 197 249 304 351
#     4  10  19  35  60  90 120 153 195 252 303 352
#     4  11  21  37  63  92 123 158 198 247 306 360
#     4  10  22  40  60  85 121 159 202 248 296 356
#     4  10  22  37  59  91 122 156 199 251 303 360
#     4   9  21  41  60  88 120 156 202 249 294 361
#     4  11  21  37  59  87 120 159 197 248 302 355
#     4  10  21  34  56  86 118 150 196 244 296 351
#
# _framework density 25.241361999999999
#
# number of rings (size 3 to 8) (size 9 to 14) (size 15 to 20)
#    0.000    2.000    0.000    4.500    0.000   10.000 
#    0.000    3.750    0.000    3.000    0.000    0.000 
#    0.000    0.000    0.000    0.000    0.000    0.000 
#
# Total GULP energy -89392.170445 kJ/mol
# GULP energy per Si atom -5587.010653 kJ/mol
# Density = 2.518391 g / cm^3
# Si number density = 25.241362 Si / 1000 Ang^3
#
#
#
# Elastic Constant Matrix: (Units=GPa)
#
#
# Indices 1 2 3 4 5 6 
#
# 1 128.3577 27.6678 50.1437 0.0000 18.1542 0.0000
# 2 27.6678 23.3263 21.7587 0.0000 12.2139 0.0000
# 3 50.1437 21.7587 145.3034 0.0000 10.6577 0.0000
# 4 0.0000 0.0000 0.0000 23.6950 0.0000 13.6746
# 5 18.1542 12.2139 10.6577 0.0000 42.5753 0.0000
# 6 0.0000 0.0000 0.0000 13.6746 0.0000 24.8496
#
#
#
# Elastic Compliance Matrix: (Units=1/GPa)
#
#
# Indices 1 2 3 4 5 6 
#
# 1 0.011062 -0.010495 -0.002160 0.000000 -0.001165 0.000000
# 2 -0.010495 0.067527 -0.005498 0.000000 -0.013520 0.000000
# 3 -0.002160 -0.005498 0.008422 0.000000 0.000390 0.000000
# 4 0.000000 0.000000 0.000000 0.061843 0.000000 -0.034032
# 5 -0.001165 -0.013520 0.000390 0.000000 0.027766 0.000000
# 6 0.000000 0.000000 0.000000 -0.034032 0.000000 0.058970
#
#
# Mechanical properties :
#
#
# Convention : Reuss Voigt Hill
#
# Bulk Modulus (GPa) = 19.72258 55.12531 37.42395
# Shear Modulus (GPa) = 17.31305 31.38512 24.34908
#
# Velocity S-wave (km/s) = 2.62181 3.53001 3.10925
# Velocity P-wave (km/s) = 4.12259 6.20495 5.26769
#
# Compressibility (1/GPa) = 0.05070330
#
# Stress axis : x y z
#
# Youngs Moduli (GPa) = 90.40152 14.80883 118.73118
#
# Poissons Ratio (x) = 0.15543 0.25649
# Poissons Ratio (y) = 0.94881 0.65282
# Poissons Ratio (z) = 0.19529 0.08142
#
# Static dielectric constant tensor:
#      x y z
#    x 2.017840 0.000000 -0.045930 
#    y 0.000000 1.963690 0.000000 
#    z -0.045930 0.000000 2.104660 
# 
# From -- ./inp_files/11748.got.cif
#   From: 2010.05.17/outbox.cif.g08.bks.cpg/sg9_6_cif.got.tgz:11748.got - 2010.06.03 20:04:27.
