data_PCOD9134096
_publ_section_title
;
Structure prediction by ZEFSAII (Michael W. Deem and Ramdas Pophale) SiO2 
 PCOD9134096
Probable space group: C C
;
_chemical_formula_sum "Si O2"
_cell_formula_units_Z 32
_cell_length_a 13.110231
_cell_length_b 10.678479
_cell_length_c 13.424782
_cell_angle_alpha 90.000000
_cell_angle_beta 43.629313
_cell_angle_gamma 90.000000
_cell_volume 1296.790279
_symmetry_space_group_name_H-M "C C"
_symmetry_group_IT_number 9
_symmetry_cell_setting 'monoclinic'
loop_
_space_group_symop_operation_xyz
x,y,z
x,-y,1/2+z
1/2+x,1/2+y,z
1/2+x,1/2-y,1/2+z
loop_
_atom_site_type_symbol
_atom_site_label
_atom_site_fract_x
_atom_site_fract_y
_atom_site_fract_z
Si Si1 0.310830 0.608465 0.205100
Si Si2 0.763481 0.307777 0.587049
Si Si3 0.639723 0.607560 0.363949
Si Si4 0.411876 0.440812 0.422752
Si Si5 0.848806 0.622248 0.659141
Si Si6 0.994784 0.504332 0.888806
Si Si7 0.075342 0.035503 0.623794
Si Si8 0.118209 0.561550 0.599187
O O1 0.284693 0.751500 0.251971
O O2 0.431156 0.539602 0.186228
O O3 0.162932 0.528595 0.299241
O O4 0.383088 0.631139 0.044808
O O5 0.718450 0.295005 0.735078
O O6 0.931225 0.359417 0.465759
O O7 0.680847 0.423285 0.587898
O O8 0.703159 0.184803 0.577405
O O9 0.487263 0.567646 0.415749
O O10 0.741457 0.485488 0.273891
O O11 0.623877 0.617371 0.494005
O O12 0.522354 0.391092 0.260343
O O13 0.251596 0.465692 0.488694
O O14 0.882618 0.595261 0.518378
O O15 0.012461 0.600037 0.585899
O O16 0.007949 0.507544 0.760865
#
# Coordination Sequence:
#
# PCOD9134096 Si02
#       8
#     4   4   4   4   4   4   4   4
#     4  10  21  37  62  96 123 164 205 261 314 370
#     4  10  21  37  62  96 123 164 205 261 314 370
#     4   9  21  36  56  94 128 158 200 259 320 365
#     4   9  21  36  56  94 128 158 200 259 320 365
#     4  11  22  39  69  94 122 161 218 261 313 369
#     4  10  24  38  58  98 136 154 202 272 316 368
#     4  10  18  36  62  88 124 160 206 260 306 370
#     4  11  22  39  69  94 122 161 218 261 313 369
#
# _framework density 24.676311999999999
#
# number of rings (size 3 to 8) (size 9 to 14) (size 15 to 20)
#    0.000    2.000    1.250    1.500    7.000    2.000 
#    0.000    0.000    2.750   16.500    0.000    0.000 
#    0.000    0.000    0.000    0.000    0.000    0.000 
#
# Total GULP energy -89298.011685 kJ/mol
# GULP energy per Si atom -5581.125730 kJ/mol
# Density = 2.462015 g / cm^3
# Si number density = 24.676312 Si / 1000 Ang^3
#
#
#
# Elastic Constant Matrix: (Units=GPa)
#
#
# Indices 1 2 3 4 5 6 
#
# 1 71.3138 3.0466 25.4292 0.0000 8.3969 0.0000
# 2 3.0466 13.2317 -11.1838 0.0000 -9.8839 0.0000
# 3 25.4292 -11.1838 140.8321 0.0000 25.3320 0.0000
# 4 0.0000 0.0000 0.0000 16.9458 0.0000 -9.7771
# 5 8.3969 -9.8839 25.3320 0.0000 41.1543 0.0000
# 6 0.0000 0.0000 0.0000 -9.7771 0.0000 20.1847
#
#
#
# Elastic Compliance Matrix: (Units=1/GPa)
#
#
# Indices 1 2 3 4 5 6 
#
# 1 0.015856 -0.008767 -0.002922 0.000000 -0.003542 0.000000
# 2 -0.008767 0.098741 0.005439 0.000000 0.022155 0.000000
# 3 -0.002922 0.005439 0.008679 0.000000 -0.003440 0.000000
# 4 0.000000 0.000000 0.000000 0.081900 0.000000 0.039671
# 5 -0.003542 0.022155 -0.003440 0.000000 0.032460 0.000000
# 6 0.000000 0.000000 0.000000 0.039671 0.000000 0.068758
#
#
# Mechanical properties :
#
#
# Convention : Reuss Voigt Hill
#
# Bulk Modulus (GPa) = 9.02712 28.88464 18.95588
# Shear Modulus (GPa) = 14.05208 29.52934 21.79071
#
# Velocity S-wave (km/s) = 2.38892 3.46304 2.97486
# Velocity P-wave (km/s) = 3.35788 5.26508 4.41568
#
# Compressibility (1/GPa) = 0.11077733
#
# Stress axis : x y z
#
# Youngs Moduli (GPa) = 63.06733 10.12746 115.22173
#
# Poissons Ratio (x) = 0.08878 0.33669
# Poissons Ratio (y) = 0.55288 -0.62670
# Poissons Ratio (z) = 0.18429 -0.05508
#
# Static dielectric constant tensor:
#      x y z
#    x 2.005810 0.000000 0.001970 
#    y 0.000000 1.954470 0.000000 
#    z 0.001970 0.000000 2.043460 
# 
# From -- ./inp_files/25864.got.cif
#   From: 2010.05.17/outbox.cif.g08.bks.cpg/sg9_13_cif.got.tgz:25864.got - 2010.06.03 20:04:27.
