data_PCOD9134987
_publ_section_title
;
Structure prediction by ZEFSAII (Michael W. Deem and Ramdas Pophale) SiO2 
 PCOD9134987
Probable space group: C C
;
_chemical_formula_sum "Si O2"
_cell_formula_units_Z 24
_cell_length_a 8.885525
_cell_length_b 13.388769
_cell_length_c 16.615920
_cell_angle_alpha 90.000000
_cell_angle_beta 27.356786
_cell_angle_gamma 90.000000
_cell_volume 908.368449
_symmetry_space_group_name_H-M "C C"
_symmetry_group_IT_number 9
_symmetry_cell_setting 'monoclinic'
loop_
_space_group_symop_operation_xyz
x,y,z
x,-y,1/2+z
1/2+x,1/2+y,z
1/2+x,1/2-y,1/2+z
loop_
_atom_site_type_symbol
_atom_site_label
_atom_site_fract_x
_atom_site_fract_y
_atom_site_fract_z
Si Si1 0.362180 0.568824 0.116240
Si Si2 0.851200 0.294374 0.110398
Si Si3 0.965752 0.925070 0.393779
Si Si4 0.217311 0.829366 0.885534
Si Si5 0.887414 0.927783 0.781432
Si Si6 0.328455 0.797601 0.667474
O O1 0.501246 0.683971 0.050504
O O2 0.419340 0.527668 0.177696
O O3 0.971979 0.587038 0.293613
O O4 0.469947 0.523883 0.979310
O O5 0.786685 0.360170 0.220898
O O6 0.476867 0.266710 0.262701
O O7 0.061894 0.359981 0.948592
O O8 0.651745 0.853269 0.547163
O O9 0.907702 0.994231 0.344548
O O10 0.088257 0.818789 0.855865
O O11 0.940025 0.809005 0.082817
O O12 0.188711 0.854676 0.657051
#
# Coordination Sequence:
#
# PCOD9134987 Si02
#       6
#     4   4   4   4   4   4
#     4   9  20  40  65  83 118 171 202 237 306 370
#     4   9  19  39  64  86 117 167 201 241 305 372
#     4  10  21  42  59  85 128 165 196 247 313 366
#     4   8  18  37  60  79 120 158 195 240 300 354
#     4  12  22  34  64  96 121 155 207 261 295 353
#     4  10  20  36  56  89 116 148 201 254 289 347
#
# _framework density 26.420998000000001
#
# number of rings (size 3 to 8) (size 9 to 14) (size 15 to 20)
#    1.000    1.333    0.000    3.000    2.333    0.000 
#    0.000   13.333    0.000    0.000    0.000    0.000 
#    0.000    0.000    0.000    0.000    0.000    0.000 
#
# Total GULP energy -66959.667763 kJ/mol
# GULP energy per Si atom -5579.972314 kJ/mol
# Density = 2.636086 g / cm^3
# Si number density = 26.420998 Si / 1000 Ang^3
#
#
#
# Elastic Constant Matrix: (Units=GPa)
#
#
# Indices 1 2 3 4 5 6 
#
# 1 138.9908 22.7005 52.8015 0.0043 52.3009 -0.0176
# 2 22.7005 43.7186 18.5787 -0.0043 16.1134 -0.0180
# 3 52.8015 18.5787 86.5087 -0.0464 32.1078 -0.0753
# 4 0.0043 -0.0043 -0.0464 34.1688 -0.0033 0.0407
# 5 52.3009 16.1134 32.1078 -0.0033 61.2586 0.0402
# 6 -0.0176 -0.0180 -0.0753 0.0407 0.0402 14.0341
#
#
#
# Elastic Compliance Matrix: (Units=1/GPa)
#
#
# Indices 1 2 3 4 5 6 
#
# 1 0.011854 -0.001638 -0.004081 -0.000008 -0.007551 0.000013
# 2 -0.001638 0.026538 -0.003262 -0.000001 -0.003872 0.000026
# 3 -0.004081 -0.003262 0.016313 0.000022 -0.004208 0.000090
# 4 -0.000008 -0.000001 0.000022 0.029267 -0.000003 -0.000085
# 5 -0.007551 -0.003872 -0.004208 -0.000003 0.025995 -0.000111
# 6 0.000013 0.000026 0.000090 -0.000085 -0.000111 0.071256
#
#
# Mechanical properties :
#
#
# Convention : Reuss Voigt Hill
#
# Bulk Modulus (GPa) = 27.21681 50.81997 39.01839
# Shear Modulus (GPa) = 23.64835 33.56811 28.60823
#
# Velocity S-wave (km/s) = 2.99500 3.56829 3.29414
# Velocity P-wave (km/s) = 4.72055 6.02107 5.41003
#
# Compressibility (1/GPa) = 0.03674199
#
# Stress axis : x y z
#
# Youngs Moduli (GPa) = 84.36142 37.68248 61.30142
#
# Poissons Ratio (x) = 0.06172 0.25016
# Poissons Ratio (y) = 0.13816 0.19999
# Poissons Ratio (z) = 0.34427 0.12294
#
# Static dielectric constant tensor:
#      x y z
#    x 2.076780 -0.000020 0.052820 
#    y -0.000020 2.216460 0.000000 
#    z 0.052820 0.000000 2.176400 
# 
# From -- ./inp_files/5091.got.cif
#   From: 2010.05.17/outbox.cif.g08.bks.cpg/sg9_3_cif.got.tgz:5091.got - 2010.06.03 20:04:27.
