data_PCOD9134283
_publ_section_title
;
Structure prediction by ZEFSAII (Michael W. Deem and Ramdas Pophale) SiO2 
 PCOD9134283
Probable space group: C C
;
_chemical_formula_sum "Si O2"
_cell_formula_units_Z 32
_cell_length_a 16.894538
_cell_length_b 9.787820
_cell_length_c 8.869981
_cell_angle_alpha 90.000000
_cell_angle_beta 118.220285
_cell_angle_gamma 90.000000
_cell_volume 1292.403054
_symmetry_space_group_name_H-M "C C"
_symmetry_group_IT_number 9
_symmetry_cell_setting 'monoclinic'
loop_
_space_group_symop_operation_xyz
x,y,z
x,-y,1/2+z
1/2+x,1/2+y,z
1/2+x,1/2-y,1/2+z
loop_
_atom_site_type_symbol
_atom_site_label
_atom_site_fract_x
_atom_site_fract_y
_atom_site_fract_z
Si Si1 0.545670 0.695299 0.966310
Si Si2 0.869122 0.447155 0.078411
Si Si3 0.377611 0.343776 0.701575
Si Si4 0.702247 0.824381 0.694279
Si Si5 0.053726 0.546309 0.271058
Si Si6 0.222953 0.841756 0.506767
Si Si7 0.570874 0.722190 0.342186
Si Si8 0.849281 0.792887 0.343170
O O1 0.563999 0.848390 0.918319
O O2 0.621055 0.614108 0.944966
O O3 0.441022 0.664135 0.842814
O O4 0.569026 0.681645 0.164082
O O5 0.875275 0.322390 0.202679
O O6 0.867632 0.361198 0.922647
O O7 0.782708 0.526854 0.047892
O O8 0.949538 0.554379 0.132834
O O9 0.292564 0.399126 0.717050
O O10 0.483899 0.358574 0.830469
O O11 0.351217 0.375109 0.502790
O O12 0.732378 0.730287 0.856810
O O13 0.658272 0.728045 0.525654
O O14 0.624523 0.915171 0.704572
O O15 0.059581 0.387856 0.318777
O O16 0.261887 0.733246 0.664840
#
# Coordination Sequence:
#
# PCOD9134283 Si02
#       8
#     4   4   4   4   4   4   4   4
#     4  10  19  33  53  88 110 152 178 238 283 335
#     4   9  20  34  61  83 115 144 183 244 285 335
#     4   8  20  35  57  86 108 152 184 234 289 326
#     4  11  23  31  53  95 115 148 185 246 284 340
#     4  10  19  34  58  87 113 145 186 241 293 330
#     4  11  22  31  54  85 119 144 191 229 287 337
#     4  10  20  36  57  79 119 146 192 233 288 337
#     4   9  19  36  57  79 113 149 185 235 283 330
#
# _framework density 24.760076999999999
#
# number of rings (size 3 to 8) (size 9 to 14) (size 15 to 20)
#    0.750    1.500    2.500    1.500    3.500    0.000 
#    0.000    0.000    0.000    0.000   19.500    0.000 
#    0.000    0.000    0.000    0.000    0.000    0.000 
#
# Total GULP energy -89208.151564 kJ/mol
# GULP energy per Si atom -5575.509473 kJ/mol
# Density = 2.470372 g / cm^3
# Si number density = 24.760077 Si / 1000 Ang^3
#
#
#
# Elastic Constant Matrix: (Units=GPa)
#
#
# Indices 1 2 3 4 5 6 
#
# 1 136.8677 2.5598 -1.2359 0.0000 -3.7352 0.0000
# 2 2.5598 40.9104 -18.4562 0.0000 0.2071 0.0000
# 3 -1.2359 -18.4562 82.1320 0.0000 8.3524 0.0000
# 4 0.0000 0.0000 0.0000 6.1358 0.0000 1.7888
# 5 -3.7352 0.2071 8.3524 0.0000 23.0124 0.0000
# 6 0.0000 0.0000 0.0000 1.7888 0.0000 28.4574
#
#
#
# Elastic Compliance Matrix: (Units=1/GPa)
#
#
# Indices 1 2 3 4 5 6 
#
# 1 0.007349 -0.000527 -0.000135 0.000000 0.001246 0.000000
# 2 -0.000527 0.027385 0.006416 0.000000 -0.002661 0.000000
# 3 -0.000135 0.006416 0.014146 0.000000 -0.005214 0.000000
# 4 0.000000 0.000000 0.000000 0.166019 0.000000 -0.010436
# 5 0.001246 -0.002661 -0.005214 0.000000 0.045573 0.000000
# 6 0.000000 0.000000 0.000000 -0.010436 0.000000 0.035796
#
#
# Mechanical properties :
#
#
# Convention : Reuss Voigt Hill
#
# Bulk Modulus (GPa) = 16.55921 25.07173 20.81547
# Shear Modulus (GPa) = 16.39946 29.99061 23.19504
#
# Velocity S-wave (km/s) = 2.57638 3.48408 3.06403
# Velocity P-wave (km/s) = 3.94369 5.13156 4.57633
#
# Compressibility (1/GPa) = 0.06038936
#
# Stress axis : x y z
#
# Youngs Moduli (GPa) = 136.07331 36.51659 70.69351
#
# Poissons Ratio (x) = 0.01924 0.00951
# Poissons Ratio (y) = 0.07169 -0.45360
# Poissons Ratio (z) = 0.01831 -0.23431
#
# Static dielectric constant tensor:
#      x y z
#    x 2.022530 0.000000 0.071780 
#    y 0.000000 2.013780 0.000000 
#    z 0.071780 0.000000 2.024760 
# 
# From -- ./inp_files/7963.got.cif
#   From: 2010.05.17/outbox.cif.g08.bks.cpg/sg9_4_cif.got.tgz:7963.got - 2010.06.03 20:04:27.
