data_PCOD9134533
_publ_section_title
;
Structure prediction by ZEFSAII (Michael W. Deem and Ramdas Pophale) SiO2 
 PCOD9134533
Probable space group: C C
;
_chemical_formula_sum "Si O2"
_cell_formula_units_Z 28
_cell_length_a 19.492569
_cell_length_b 8.213318
_cell_length_c 15.626370
_cell_angle_alpha 90.000000
_cell_angle_beta 149.741187
_cell_angle_gamma 90.000000
_cell_volume 1260.654497
_symmetry_space_group_name_H-M "C C"
_symmetry_group_IT_number 9
_symmetry_cell_setting 'monoclinic'
loop_
_space_group_symop_operation_xyz
x,y,z
x,-y,1/2+z
1/2+x,1/2+y,z
1/2+x,1/2-y,1/2+z
loop_
_atom_site_type_symbol
_atom_site_label
_atom_site_fract_x
_atom_site_fract_y
_atom_site_fract_z
Si Si1 0.633670 0.697948 0.317360
Si Si2 0.924804 0.132203 0.425256
Si Si3 0.289112 0.043657 0.097295
Si Si4 0.699885 0.369551 0.164587
Si Si5 0.320951 0.361982 0.207536
Si Si6 0.088386 0.415559 0.426745
Si Si7 0.848487 0.828383 0.424396
O O1 0.690000 0.531422 0.419445
O O2 0.649864 0.838967 0.406427
O O3 0.720936 0.745250 0.329253
O O4 0.477552 0.698535 0.122548
O O5 0.851195 0.305879 0.350050
O O6 0.085329 0.101567 0.613085
O O7 0.896820 0.036772 0.303608
O O8 0.839442 0.022299 0.399946
O O9 0.215886 0.005865 0.109297
O O10 0.428634 0.941666 0.244962
O O11 0.333311 0.232647 0.145187
O O12 0.626173 0.215847 0.039190
O O13 0.365227 0.274169 0.343720
O O14 0.164241 0.419106 0.034924
#
# Coordination Sequence:
#
# PCOD9134533 Si02
#       7
#     4   4   4   4   4   4   4
#     4  11  23  45  67  90 138 176 212 257 346 394
#     4   9  21  38  64  92 131 159 217 263 324 365
#     4  11  22  37  68  96 126 173 218 264 322 392
#     4  10  19  37  62  96 120 168 212 270 302 383
#     4   9  24  38  69  94 127 159 230 268 313 375
#     4  10  21  41  64  95 124 175 219 262 319 395
#     4  10  24  42  66  97 126 176 208 274 322 386
#
# _framework density 22.210685000000002
#
# number of rings (size 3 to 8) (size 9 to 14) (size 15 to 20)
#    0.857    1.143    2.857    0.000    6.000    0.000 
#    0.000    1.429    0.000    0.000    0.000    0.000 
#    0.000    0.000    0.000    0.000    0.000    0.000 
#
# Total GULP energy -77936.175667 kJ/mol
# GULP energy per Si atom -5566.869691 kJ/mol
# Density = 2.216013 g / cm^3
# Si number density = 22.210685 Si / 1000 Ang^3
#
#
#
# Elastic Constant Matrix: (Units=GPa)
#
#
# Indices 1 2 3 4 5 6 
#
# 1 9.3676 -0.6303 5.1592 0.0000 -2.0250 0.0000
# 2 -0.6303 54.6044 4.3451 0.0000 -7.7741 0.0000
# 3 5.1592 4.3451 78.0380 0.0000 4.8727 0.0000
# 4 0.0000 0.0000 0.0000 22.4002 0.0000 -3.0206
# 5 -2.0250 -7.7741 4.8727 0.0000 28.8952 0.0000
# 6 0.0000 0.0000 0.0000 -3.0206 0.0000 20.5092
#
#
#
# Elastic Compliance Matrix: (Units=1/GPa)
#
#
# Indices 1 2 3 4 5 6 
#
# 1 0.113817 0.003448 -0.008361 0.000000 0.010314 0.000000
# 2 0.003448 0.019299 -0.001659 0.000000 0.005714 0.000000
# 3 -0.008361 -0.001659 0.013668 0.000000 -0.003337 0.000000
# 4 0.000000 0.000000 0.000000 0.045547 0.000000 0.006708
# 5 0.010314 0.005714 -0.003337 0.000000 0.037431 0.000000
# 6 0.000000 0.000000 0.000000 0.006708 0.000000 0.049747
#
#
# Mechanical properties :
#
#
# Convention : Reuss Voigt Hill
#
# Bulk Modulus (GPa) = 7.48282 17.75089 12.61686
# Shear Modulus (GPa) = 14.82802 23.23664 19.03233
#
# Velocity S-wave (km/s) = 2.58661 3.23800 2.93046
# Velocity P-wave (km/s) = 3.50672 4.68923 4.14041
#
# Compressibility (1/GPa) = 0.13363943
#
# Stress axis : x y z
#
# Youngs Moduli (GPa) = 8.78600 51.81662 73.16483
#
# Poissons Ratio (x) = -0.17864 0.61171
# Poissons Ratio (y) = -0.03029 0.12140
# Poissons Ratio (z) = 0.07346 0.08598
#
# Static dielectric constant tensor:
#      x y z
#    x 1.900430 0.000000 0.036620 
#    y 0.000000 1.876980 0.000000 
#    z 0.036620 0.000000 1.846580 
# 
# From -- ./inp_files/11248.got.cif
#   From: 2010.05.17/outbox.cif.g08.bks.cpg/sg9_6_cif.got.tgz:11248.got - 2010.06.03 20:04:27.
