data_PCOD9134470
_publ_section_title
;
Structure prediction by ZEFSAII (Michael W. Deem and Ramdas Pophale) SiO2 
 PCOD9134470
Probable space group: C C
;
_chemical_formula_sum "Si O2"
_cell_formula_units_Z 32
_cell_length_a 13.684346
_cell_length_b 17.188739
_cell_length_c 5.521685
_cell_angle_alpha 90.000000
_cell_angle_beta 102.037254
_cell_angle_gamma 90.000000
_cell_volume 1270.234685
_symmetry_space_group_name_H-M "C C"
_symmetry_group_IT_number 9
_symmetry_cell_setting 'monoclinic'
loop_
_space_group_symop_operation_xyz
x,y,z
x,-y,1/2+z
1/2+x,1/2+y,z
1/2+x,1/2-y,1/2+z
loop_
_atom_site_type_symbol
_atom_site_label
_atom_site_fract_x
_atom_site_fract_y
_atom_site_fract_z
Si Si1 0.663360 0.294176 0.769380
Si Si2 0.315426 0.808063 0.224987
Si Si3 0.370076 0.535998 0.864665
Si Si4 0.998428 0.691253 0.483562
Si Si5 0.852701 0.206126 0.632904
Si Si6 0.364989 0.037528 0.932699
Si Si7 0.110110 0.961717 0.537465
Si Si8 0.088482 0.523737 0.483399
O O1 0.568559 0.238487 0.702413
O O2 0.755143 0.248675 0.692140
O O3 0.637736 0.374028 0.623119
O O4 0.705694 0.311052 0.058145
O O5 0.397175 0.832937 0.068125
O O6 0.340271 0.722877 0.340951
O O7 0.336335 0.872785 0.436849
O O8 0.337107 0.478954 0.626159
O O9 0.350342 0.620550 0.738660
O O10 0.490312 0.530438 0.955800
O O11 0.955859 0.751215 0.263395
O O12 0.057507 0.614057 0.435414
O O13 0.330127 0.003391 0.658652
O O14 0.484756 0.024292 0.971566
O O15 0.143865 0.986854 0.286609
O O16 0.139259 0.489228 0.270421
#
# Coordination Sequence:
#
# PCOD9134470 Si02
#       8
#     4   4   4   4   4   4   4   4
#     4  11  27  44  65 110 142 183 237 297 364 430
#     4  11  25  40  69  99 140 188 229 288 364 426
#     4  10  23  45  78 100 133 191 251 295 356 420
#     4  11  23  44  69  94 143 187 229 293 356 430
#     4  11  25  45  70 104 141 186 237 296 362 428
#     4  10  19  36  63  96 134 175 224 270 338 427
#     4  10  23  45  71 104 142 189 238 299 362 432
#     4  10  19  37  63  97 129 177 231 270 336 421
#
# _framework density 25.192198000000001
#
# number of rings (size 3 to 8) (size 9 to 14) (size 15 to 20)
#    0.000    1.500    3.750    1.500    7.000    3.000 
#    0.000    1.250    0.000    0.000    0.000    0.000 
#    0.000    0.000    0.000    0.000    0.000    0.000 
#
# Total GULP energy -89514.514674 kJ/mol
# GULP energy per Si atom -5594.657167 kJ/mol
# Density = 2.513486 g / cm^3
# Si number density = 25.192198 Si / 1000 Ang^3
#
#
#
# Elastic Constant Matrix: (Units=GPa)
#
#
# Indices 1 2 3 4 5 6 
#
# 1 66.0906 -6.3607 35.7917 0.0000 8.3914 0.0000
# 2 -6.3607 138.3599 66.9919 0.0000 11.7799 0.0000
# 3 35.7917 66.9919 155.4646 0.0000 10.9606 0.0000
# 4 0.0000 0.0000 0.0000 48.2507 0.0000 7.3123
# 5 8.3914 11.7799 10.9606 0.0000 48.1275 0.0000
# 6 0.0000 0.0000 0.0000 7.3123 0.0000 18.6441
#
#
#
# Elastic Compliance Matrix: (Units=1/GPa)
#
#
# Indices 1 2 3 4 5 6 
#
# 1 0.019088 0.003988 -0.005904 0.000000 -0.002960 0.000000
# 2 0.003988 0.010055 -0.005111 0.000000 -0.001993 0.000000
# 3 -0.005904 -0.005111 0.009994 0.000000 0.000004 0.000000
# 4 0.000000 0.000000 0.000000 0.022035 0.000000 -0.008642
# 5 -0.002960 -0.001993 0.000004 0.000000 0.021781 0.000000
# 6 0.000000 0.000000 0.000000 -0.008642 0.000000 0.057026
#
#
# Mechanical properties :
#
#
# Convention : Reuss Voigt Hill
#
# Bulk Modulus (GPa) = 39.86737 61.41788 50.64263
# Shear Modulus (GPa) = 30.78959 40.57061 35.68010
#
# Velocity S-wave (km/s) = 3.49977 4.01739 3.76748
# Velocity P-wave (km/s) = 5.67370 6.77878 6.25071
#
# Compressibility (1/GPa) = 0.02508317
#
# Stress axis : x y z
#
# Youngs Moduli (GPa) = 52.38902 99.45297 100.06407
#
# Poissons Ratio (x) = -0.39666 0.59083
# Poissons Ratio (y) = -0.20895 0.51139
# Poissons Ratio (z) = 0.30933 0.50826
#
# Static dielectric constant tensor:
#      x y z
#    x 1.969870 0.000000 0.005070 
#    y 0.000000 1.976680 0.000000 
#    z 0.005070 0.000000 2.088880 
# 
# From -- ./inp_files/2520.got.cif
#   From: 2010.05.17/outbox.cif.g08.bks.cpg/sg9_2_cif.got.tgz:2520.got - 2010.06.03 20:04:27.
