data_PCOD9134223
_publ_section_title
;
Structure prediction by ZEFSAII (Michael W. Deem and Ramdas Pophale) SiO2 
 PCOD9134223
Probable space group: C C
;
_chemical_formula_sum "Si O2"
_cell_formula_units_Z 32
_cell_length_a 13.535205
_cell_length_b 17.865402
_cell_length_c 5.602069
_cell_angle_alpha 90.000000
_cell_angle_beta 73.190683
_cell_angle_gamma 90.000000
_cell_volume 1296.766135
_symmetry_space_group_name_H-M "C C"
_symmetry_group_IT_number 9
_symmetry_cell_setting 'monoclinic'
loop_
_space_group_symop_operation_xyz
x,y,z
x,-y,1/2+z
1/2+x,1/2+y,z
1/2+x,1/2-y,1/2+z
loop_
_atom_site_type_symbol
_atom_site_label
_atom_site_fract_x
_atom_site_fract_y
_atom_site_fract_z
Si Si1 0.714830 0.563880 0.938270
Si Si2 0.762944 0.708536 0.623585
Si Si3 0.461919 0.147702 0.384052
Si Si4 0.643995 0.807878 0.025615
Si Si5 0.664140 0.967791 0.229702
Si Si6 0.435167 0.062083 0.906787
Si Si7 0.506086 0.469885 0.035952
Si Si8 0.099571 0.820699 0.860641
O O1 0.740110 0.621343 0.707089
O O2 0.820250 0.528189 0.965939
O O3 0.621053 0.508575 0.948721
O O4 0.670960 0.622770 0.160339
O O5 0.878268 0.714301 0.446437
O O6 0.741916 0.762044 0.862031
O O7 0.674695 0.719912 0.491807
O O8 0.581602 0.165004 0.335947
O O9 0.442509 0.109047 0.657268
O O10 0.439934 0.107749 0.148869
O O11 0.669796 0.879355 0.168393
O O12 0.569123 0.747087 0.207137
O O13 0.540275 0.985330 0.331672
O O14 0.704895 0.991432 0.461375
O O15 0.459540 0.498630 0.816302
O O16 0.517597 0.379534 0.026183
#
# Coordination Sequence:
#
# PCOD9134223 Si02
#       8
#     4   4   4   4   4   4   4   4
#     4   9  18  32  49  83 121 160 195 235 286 374
#     4  10  19  36  59  84 120 162 207 251 309 369
#     4  10  21  38  57  87 120 161 205 253 302 379
#     4  10  24  38  61  86 122 163 208 270 316 369
#     4  11  24  40  56  84 117 159 209 257 318 374
#     4  10  20  35  55  81 122 160 196 240 300 376
#     4  10  19  30  47  76 118 151 193 230 279 356
#     4  10  19  33  54  83 116 162 207 242 300 363
#
# _framework density 24.676770000000001
#
# number of rings (size 3 to 8) (size 9 to 14) (size 15 to 20)
#    0.000    2.000    2.500    1.500    5.250    2.000 
#    2.250    0.000    0.000    0.000    0.000    5.250 
#    0.000    0.000    0.000    0.000    0.000    0.000 
#
# Total GULP energy -89247.935284 kJ/mol
# GULP energy per Si atom -5577.995955 kJ/mol
# Density = 2.462060 g / cm^3
# Si number density = 24.676770 Si / 1000 Ang^3
#
#
#
# Elastic Constant Matrix: (Units=GPa)
#
#
# Indices 1 2 3 4 5 6 
#
# 1 35.6203 7.3247 21.6162 0.0000 1.3344 0.0000
# 2 7.3247 124.2092 57.5771 0.0000 -5.2904 0.0000
# 3 21.6162 57.5771 153.4300 0.0000 26.0768 0.0000
# 4 0.0000 0.0000 0.0000 42.7724 0.0000 -1.4334
# 5 1.3344 -5.2904 26.0768 0.0000 14.0171 0.0000
# 6 0.0000 0.0000 0.0000 -1.4334 0.0000 19.2245
#
#
#
# Elastic Compliance Matrix: (Units=1/GPa)
#
#
# Indices 1 2 3 4 5 6 
#
# 1 0.031495 0.001783 -0.006890 0.000000 0.010492 0.000000
# 2 0.001783 0.012777 -0.008535 0.000000 0.020532 0.000000
# 3 -0.006890 -0.008535 0.016273 0.000000 -0.032838 0.000000
# 4 0.000000 0.000000 0.000000 0.023438 0.000000 0.001748
# 5 0.010492 0.020532 -0.032838 0.000000 0.139182 0.000000
# 6 0.000000 0.000000 0.000000 0.001748 0.000000 0.052147
#
#
# Mechanical properties :
#
#
# Convention : Reuss Voigt Hill
#
# Bulk Modulus (GPa) = 30.06542 54.03283 42.04912
# Shear Modulus (GPa) = 15.93968 30.31891 23.12930
#
# Velocity S-wave (km/s) = 2.54429 3.50900 3.06484
# Velocity P-wave (km/s) = 4.56523 6.19364 5.44071
#
# Compressibility (1/GPa) = 0.03326080
#
# Stress axis : x y z
#
# Youngs Moduli (GPa) = 31.75101 78.26637 61.45335
#
# Poissons Ratio (x) = -0.13957 0.42339
# Poissons Ratio (y) = -0.05662 0.52453
# Poissons Ratio (z) = 0.21875 0.66804
#
# Static dielectric constant tensor:
#      x y z
#    x 1.981330 0.000000 -0.020910 
#    y 0.000000 1.994700 0.000000 
#    z -0.020910 0.000000 2.076530 
# 
# From -- ./inp_files/3005.got.cif
#   From: 2010.05.17/outbox.cif.g08.bks.cpg/sg9_2_cif.got.tgz:3005.got - 2010.06.03 20:04:27.
