data_PCOD9134451
_publ_section_title
;
Structure prediction by ZEFSAII (Michael W. Deem and Ramdas Pophale) SiO2 
 PCOD9134451
Probable space group: C C
;
_chemical_formula_sum "Si O2"
_cell_formula_units_Z 32
_cell_length_a 8.678897
_cell_length_b 11.153981
_cell_length_c 17.503250
_cell_angle_alpha 90.000000
_cell_angle_beta 72.199093
_cell_angle_gamma 90.000000
_cell_volume 1613.269397
_symmetry_space_group_name_H-M "C C"
_symmetry_group_IT_number 9
_symmetry_cell_setting 'monoclinic'
loop_
_space_group_symop_operation_xyz
x,y,z
x,-y,1/2+z
1/2+x,1/2+y,z
1/2+x,1/2-y,1/2+z
loop_
_atom_site_type_symbol
_atom_site_label
_atom_site_fract_x
_atom_site_fract_y
_atom_site_fract_z
Si Si1 0.447200 0.805928 0.208090
Si Si2 0.102949 0.137699 0.053193
Si Si3 0.267100 0.428150 0.576544
Si Si4 0.978132 0.743720 0.120328
Si Si5 0.236710 0.019414 0.171465
Si Si6 0.414838 0.590347 0.312641
Si Si7 0.261668 0.573702 0.730755
Si Si8 0.827687 0.157808 0.489615
O O1 0.534059 0.729298 0.128322
O O2 0.362528 0.711285 0.276555
O O3 0.592337 0.863660 0.236541
O O4 0.328776 0.902355 0.187706
O O5 0.173898 0.027567 0.092791
O O6 0.951392 0.098676 0.026397
O O7 0.229074 0.219886 0.989348
O O8 0.273487 0.472583 0.663150
O O9 0.217399 0.544897 0.534759
O O10 0.155873 0.311703 0.590634
O O11 0.865742 0.627581 0.151605
O O12 0.913024 0.837152 0.192880
O O13 0.934647 0.806117 0.046665
O O14 0.086470 0.051777 0.249491
O O15 0.286833 0.488064 0.308074
O O16 0.420622 0.616507 0.400729
#
# Coordination Sequence:
#
# PCOD9134451 Si02
#       8
#     4   4   4   4   4   4   4   4
#     4  11  20  37  60  87 116 150 204 250 295 360
#     4  10  20  37  59  87 115 152 206 246 300 356
#     4  11  20  37  62  90 110 154 207 251 300 354
#     4  10  20  39  65  87 114 158 206 251 295 353
#     4  10  19  36  61  87 114 154 199 248 294 356
#     4  11  24  38  57  90 126 162 193 248 311 353
#     4  11  20  37  59  89 117 148 204 254 292 360
#     4  10  23  41  55  85 132 158 191 254 303 360
#
# _framework density 19.835495999999999
#
# number of rings (size 3 to 8) (size 9 to 14) (size 15 to 20)
#    0.000    1.500    8.750    0.000    1.750    2.000 
#    0.000    1.250    0.000    0.000    0.000    0.000 
#    0.000    0.000    0.000    0.000    0.000    0.000 
#
# Total GULP energy -89208.678249 kJ/mol
# GULP energy per Si atom -5575.542391 kJ/mol
# Density = 1.979035 g / cm^3
# Si number density = 19.835496 Si / 1000 Ang^3
#
#
#
# Elastic Constant Matrix: (Units=GPa)
#
#
# Indices 1 2 3 4 5 6 
#
# 1 66.9432 44.8740 -0.9552 0.0000 -1.7627 0.0000
# 2 44.8740 100.7936 17.2223 0.0000 12.1247 0.0000
# 3 -0.9552 17.2223 43.2920 0.0000 4.1466 0.0000
# 4 0.0000 0.0000 0.0000 17.1659 0.0000 2.2194
# 5 -1.7627 12.1247 4.1466 0.0000 10.5448 0.0000
# 6 0.0000 0.0000 0.0000 2.2194 0.0000 50.7761
#
#
#
# Elastic Compliance Matrix: (Units=1/GPa)
#
#
# Indices 1 2 3 4 5 6 
#
# 1 0.024939 -0.014094 0.004370 0.000000 0.018656 0.000000
# 2 -0.014094 0.019994 -0.006066 0.000000 -0.022961 0.000000
# 3 0.004370 -0.006066 0.025844 0.000000 -0.002458 0.000000
# 4 0.000000 0.000000 0.000000 0.058586 0.000000 -0.002561
# 5 0.018656 -0.022961 -0.002458 0.000000 0.125319 0.000000
# 6 0.000000 0.000000 0.000000 -0.002561 0.000000 0.019806
#
#
# Mechanical properties :
#
#
# Convention : Reuss Voigt Hill
#
# Bulk Modulus (GPa) = 25.51140 37.03455 31.27297
# Shear Modulus (GPa) = 15.66740 25.68990 20.67865
#
# Velocity S-wave (km/s) = 2.81351 3.60272 3.23229
# Velocity P-wave (km/s) = 4.84188 6.00146 5.45258
#
# Compressibility (1/GPa) = 0.03919817
#
# Stress axis : x y z
#
# Youngs Moduli (GPa) = 40.09746 50.01392 38.69388
#
# Poissons Ratio (x) = 0.70490 -0.16910
# Poissons Ratio (y) = 0.56513 0.23471
# Poissons Ratio (z) = -0.17523 0.30338
#
# Static dielectric constant tensor:
#      x y z
#    x 1.776610 0.000000 -0.007210 
#    y 0.000000 1.756190 0.000000 
#    z -0.007210 0.000000 1.661270 
# 
# From -- ./inp_files/29140.got.cif
#   From: 2010.05.17/outbox.cif.g08.bks.cpg/sg9_15_cif.got.tgz:29140.got - 2010.06.03 20:04:27.
