data_PCOD9134692
_publ_section_title
;
Structure prediction by ZEFSAII (Michael W. Deem and Ramdas Pophale) SiO2 
 PCOD9134692
Probable space group: C C
;
_chemical_formula_sum "Si O2"
_cell_formula_units_Z 28
_cell_length_a 10.594309
_cell_length_b 10.489342
_cell_length_c 9.717905
_cell_angle_alpha 90.000000
_cell_angle_beta 94.509942
_cell_angle_gamma 90.000000
_cell_volume 1076.581073
_symmetry_space_group_name_H-M "C C"
_symmetry_group_IT_number 9
_symmetry_cell_setting 'monoclinic'
loop_
_space_group_symop_operation_xyz
x,y,z
x,-y,1/2+z
1/2+x,1/2+y,z
1/2+x,1/2-y,1/2+z
loop_
_atom_site_type_symbol
_atom_site_label
_atom_site_fract_x
_atom_site_fract_y
_atom_site_fract_z
Si Si1 0.675350 0.089682 0.705140
Si Si2 0.754479 0.537016 0.464901
Si Si3 0.544839 0.173007 0.140388
Si Si4 0.677681 0.402457 0.218811
Si Si5 0.914815 0.957468 0.635373
Si Si6 0.890415 0.221179 0.886600
Si Si7 0.020636 0.216473 0.345723
O O1 0.766925 0.137701 0.836492
O O2 0.576461 0.205645 0.719471
O O3 0.584695 0.967674 0.687032
O O4 0.788871 0.044767 0.609983
O O5 0.738477 0.413410 0.371717
O O6 0.759338 0.508306 0.625481
O O7 0.860807 0.640727 0.446845
O O8 0.627547 0.615663 0.407289
O O9 0.671716 0.260198 0.161896
O O10 0.459567 0.234828 0.252921
O O11 0.497805 0.195665 0.979241
O O12 0.537868 0.458673 0.181381
O O13 0.948864 0.873245 0.504642
O O14 0.908091 0.866892 0.770579
#
# Coordination Sequence:
#
# PCOD9134692 Si02
#       7
#     4   4   4   4   4   4   4
#     4  11  23  43  69  99 139 180 225 281 344 406
#     4   9  20  40  62  93 132 168 217 278 333 398
#     4  11  23  43  67  98 134 174 228 283 337 411
#     4  10  19  39  67  96 126 168 224 275 335 400
#     4  11  22  40  75  98 132 183 223 286 344 406
#     4  11  24  43  66  98 136 180 228 279 345 408
#     4   9  23  42  66  98 135 171 229 282 336 411
#
# _framework density 26.008258000000001
#
# number of rings (size 3 to 8) (size 9 to 14) (size 15 to 20)
#    0.000    1.714    1.429    3.429    4.000    3.429 
#    7.714    5.714    0.000    0.000    0.000    0.000 
#    0.000    0.000    0.000    0.000    0.000    0.000 
#
# Total GULP energy -77971.692072 kJ/mol
# GULP energy per Si atom -5569.406577 kJ/mol
# Density = 2.594906 g / cm^3
# Si number density = 26.008258 Si / 1000 Ang^3
#
#
#
# Elastic Constant Matrix: (Units=GPa)
#
#
# Indices 1 2 3 4 5 6 
#
# 1 68.5626 21.8085 40.9029 0.0000 0.0137 0.0000
# 2 21.8085 69.1942 16.0761 0.0000 13.4672 0.0000
# 3 40.9029 16.0761 53.9588 0.0000 -14.9274 0.0000
# 4 0.0000 0.0000 0.0000 28.8744 0.0000 -10.4923
# 5 0.0137 13.4672 -14.9274 0.0000 30.4910 0.0000
# 6 0.0000 0.0000 0.0000 -10.4923 0.0000 5.9284
#
#
#
# Elastic Compliance Matrix: (Units=1/GPa)
#
#
# Indices 1 2 3 4 5 6 
#
# 1 0.030659 -0.001129 -0.026337 0.000000 -0.012409 0.000000
# 2 -0.001129 0.019188 -0.008334 0.000000 -0.012554 0.000000
# 3 -0.026337 -0.008334 0.048582 0.000000 0.027477 0.000000
# 4 0.000000 0.000000 0.000000 0.097045 0.000000 0.171755
# 5 -0.012409 -0.012554 0.027477 0.000000 0.051799 0.000000
# 6 0.000000 0.000000 0.000000 0.171755 0.000000 0.472662
#
#
# Mechanical properties :
#
#
# Convention : Reuss Voigt Hill
#
# Bulk Modulus (GPa) = 37.27457 38.81007 38.04232
# Shear Modulus (GPa) = 6.24628 20.58727 13.41678
#
# Velocity S-wave (km/s) = 1.55141 2.81653 2.27373
# Velocity P-wave (km/s) = 4.19191 5.05289 4.64240
#
# Compressibility (1/GPa) = 0.02682794
#
# Stress axis : x y z
#
# Youngs Moduli (GPa) = 32.61684 52.11708 20.58390
#
# Poissons Ratio (x) = 0.05883 0.54212
# Poissons Ratio (y) = 0.03682 0.17155
# Poissons Ratio (z) = 0.85904 0.43434
#
# Static dielectric constant tensor:
#      x y z
#    x 2.201470 0.000000 -0.184360 
#    y 0.000000 2.091930 0.000000 
#    z -0.184360 0.000000 2.160140 
# 
# From -- ./inp_files/6982.got.cif
#   From: 2010.05.17/outbox.cif.g08.bks.cpg/sg9_4_cif.got.tgz:6982.got - 2010.06.03 20:04:27.
