data_PCOD9134910
_publ_section_title
;
Structure prediction by ZEFSAII (Michael W. Deem and Ramdas Pophale) SiO2 
 PCOD9134910
Probable space group: C C
;
_chemical_formula_sum "Si O2"
_cell_formula_units_Z 32
_cell_length_a 8.791912
_cell_length_b 18.554352
_cell_length_c 19.634846
_cell_angle_alpha 90.000000
_cell_angle_beta 152.163121
_cell_angle_gamma 90.000000
_cell_volume 1495.658704
_symmetry_space_group_name_H-M "C C"
_symmetry_group_IT_number 9
_symmetry_cell_setting 'monoclinic'
loop_
_space_group_symop_operation_xyz
x,y,z
x,-y,1/2+z
1/2+x,1/2+y,z
1/2+x,1/2-y,1/2+z
loop_
_atom_site_type_symbol
_atom_site_label
_atom_site_fract_x
_atom_site_fract_y
_atom_site_fract_z
Si Si1 0.807200 0.876097 0.511770
Si Si2 0.568057 0.438542 0.229338
Si Si3 0.906173 0.065427 0.264989
Si Si4 0.600409 0.480183 0.100327
Si Si5 0.703398 0.506172 0.995349
Si Si6 0.984858 0.146142 0.821736
Si Si7 0.685373 0.795148 0.600224
Si Si8 0.042599 0.656423 0.766782
O O1 0.455835 0.918534 0.381129
O O2 0.819045 0.820655 0.578914
O O3 0.776282 0.840067 0.425053
O O4 0.092795 0.936237 0.622055
O O5 0.517293 0.515158 0.246104
O O6 0.431590 0.442644 0.098869
O O7 0.408016 0.379769 0.215370
O O8 0.571700 0.027904 0.159583
O O9 0.823932 0.144175 0.206239
O O10 0.164831 0.059633 0.428027
O O11 0.495634 0.490075 0.980504
O O12 0.896598 0.424032 0.207497
O O13 0.593586 0.574128 0.906417
O O14 0.708989 0.174814 0.761123
O O15 0.297572 0.196483 0.942420
O O16 0.770146 0.717336 0.662844
#
# Coordination Sequence:
#
# PCOD9134910 Si02
#       8
#     4   4   4   4   4   4   4   4
#     4  10  21  40  60  90 131 163 216 281 322 386
#     4   9  19  34  61  85 118 160 211 269 321 376
#     4  10  20  37  59  92 122 166 214 266 328 393
#     4  11  20  35  62  92 118 168 216 270 323 376
#     4  10  20  34  62  90 121 157 214 270 321 384
#     4   9  19  41  61  86 125 164 210 272 325 385
#     4  10  22  42  62  88 130 179 208 263 347 404
#     4  11  23  41  63  91 131 171 219 273 335 400
#
# _framework density 21.395254999999999
#
# number of rings (size 3 to 8) (size 9 to 14) (size 15 to 20)
#    0.000    2.000    2.500    2.250    1.750    1.000 
#    2.250    3.750    0.000    0.000    0.000    0.000 
#    0.000    0.000    0.000    0.000    0.000    0.000 
#
# Total GULP energy -89085.048629 kJ/mol
# GULP energy per Si atom -5567.815539 kJ/mol
# Density = 2.134656 g / cm^3
# Si number density = 21.395255 Si / 1000 Ang^3
#
#
#
# Elastic Constant Matrix: (Units=GPa)
#
#
# Indices 1 2 3 4 5 6 
#
# 1 133.6858 27.4176 18.3812 -0.0068 -26.7801 0.0005
# 2 27.4176 62.0525 42.0695 -0.0152 -1.3458 0.0015
# 3 18.3812 42.0695 40.4973 -0.0370 -6.4049 -0.0056
# 4 -0.0068 -0.0152 -0.0370 25.8188 -0.0039 3.9255
# 5 -26.7801 -1.3458 -6.4049 -0.0039 29.9090 0.0011
# 6 0.0005 0.0015 -0.0056 3.9255 0.0011 14.9898
#
#
#
# Elastic Compliance Matrix: (Units=1/GPa)
#
#
# Indices 1 2 3 4 5 6 
#
# 1 0.010382 -0.007593 0.004753 0.000007 0.009972 0.000000
# 2 -0.007593 0.063108 -0.064937 -0.000059 -0.017865 -0.000013
# 3 0.004753 -0.064937 0.093367 0.000098 0.021328 0.000013
# 4 0.000007 -0.000059 0.000098 0.040338 0.000030 -0.010564
# 5 0.009972 -0.017865 0.021328 0.000030 0.046127 -0.000002
# 6 0.000000 -0.000013 0.000013 -0.010564 -0.000002 0.069479
#
#
# Mechanical properties :
#
#
# Convention : Reuss Voigt Hill
#
# Bulk Modulus (GPa) = 31.94690 45.77468 38.86079
# Shear Modulus (GPa) = 10.66583 24.03466 17.35025
#
# Velocity S-wave (km/s) = 2.23516 3.35530 2.85079
# Velocity P-wave (km/s) = 4.65032 6.03754 5.38876
#
# Compressibility (1/GPa) = 0.03130194
#
# Stress axis : x y z
#
# Youngs Moduli (GPa) = 96.32501 15.84591 10.71047
#
# Poissons Ratio (x) = 0.12032 -0.05091
# Poissons Ratio (y) = 0.73140 0.69550
# Poissons Ratio (z) = -0.45782 1.02898
#
# Static dielectric constant tensor:
#      x y z
#    x 1.839390 0.000000 0.017630 
#    y 0.000000 1.744380 -0.000010 
#    z 0.017630 -0.000010 1.809680 
# 
# From -- ./inp_files/15084.got.cif
#   From: 2010.05.17/outbox.cif.g08.bks.cpg/sg9_8_cif.got.tgz:15084.got - 2010.06.03 20:04:27.
