data_PCOD9134461
_publ_section_title
;
Structure prediction by ZEFSAII (Michael W. Deem and Ramdas Pophale) SiO2 
 PCOD9134461
Probable space group: C C
;
_chemical_formula_sum "Si O2"
_cell_formula_units_Z 32
_cell_length_a 11.623015
_cell_length_b 8.343629
_cell_length_c 22.266119
_cell_angle_alpha 90.000000
_cell_angle_beta 36.276428
_cell_angle_gamma 90.000000
_cell_volume 1277.633661
_symmetry_space_group_name_H-M "C C"
_symmetry_group_IT_number 9
_symmetry_cell_setting 'monoclinic'
loop_
_space_group_symop_operation_xyz
x,y,z
x,-y,1/2+z
1/2+x,1/2+y,z
1/2+x,1/2-y,1/2+z
loop_
_atom_site_type_symbol
_atom_site_label
_atom_site_fract_x
_atom_site_fract_y
_atom_site_fract_z
Si Si1 0.827520 0.944010 0.470890
Si Si2 0.365997 0.299842 0.118139
Si Si3 0.518772 0.222794 0.920943
Si Si4 0.447696 0.786663 0.024638
Si Si5 0.652616 0.427878 0.531565
Si Si6 0.497026 0.772656 0.211282
Si Si7 0.368833 0.970377 0.169713
Si Si8 0.792276 0.024016 0.854092
O O1 0.962355 0.099606 0.423625
O O2 0.605239 0.006373 0.569366
O O3 0.857306 0.897684 0.389089
O O4 0.855448 0.803918 0.507328
O O5 0.525912 0.410485 0.082690
O O6 0.162613 0.370583 0.177816
O O7 0.302938 0.149066 0.184492
O O8 0.464363 0.236194 0.015108
O O9 0.739623 0.159588 0.827980
O O10 0.382982 0.096940 0.941422
O O11 0.585769 0.931350 0.947706
O O12 0.584983 0.658062 0.999448
O O13 0.315840 0.859210 0.134301
O O14 0.582688 0.323599 0.617857
O O15 0.335554 0.884687 0.247567
O O16 0.423611 0.625099 0.281275
#
# Coordination Sequence:
#
# PCOD9134461 Si02
#       8
#     4   4   4   4   4   4   4   4
#     4  11  20  37  62  88 117 153 202 251 294 357
#     4  11  20  37  65  87 114 153 203 254 301 349
#     4  11  20  37  59  92 118 148 206 250 293 360
#     4  10  19  36  62  87 113 153 200 247 294 356
#     4  10  20  39  64  90 112 158 208 249 291 355
#     4  10  23  41  55  85 131 158 192 251 304 359
#     4  10  20  37  60  89 112 152 206 244 300 358
#     4  11  24  38  57  90 127 161 191 250 309 354
#
# _framework density 25.046303999999999
#
# number of rings (size 3 to 8) (size 9 to 14) (size 15 to 20)
#    0.000    1.500    8.750    0.000    1.750    2.000 
#    0.000    0.000    0.000    0.000    0.000    0.000 
#    0.000    0.000    0.000    0.000    0.000    0.000 
#
# Total GULP energy -89320.946251 kJ/mol
# GULP energy per Si atom -5582.559141 kJ/mol
# Density = 2.498930 g / cm^3
# Si number density = 25.046304 Si / 1000 Ang^3
#
#
#
# Elastic Constant Matrix: (Units=GPa)
#
#
# Indices 1 2 3 4 5 6 
#
# 1 164.9721 90.1226 23.5835 0.0000 18.2200 0.0000
# 2 90.1226 91.2330 7.0972 0.0000 4.3357 0.0000
# 3 23.5835 7.0972 30.6124 0.0000 7.7893 0.0000
# 4 0.0000 0.0000 0.0000 24.7228 0.0000 8.1421
# 5 18.2200 4.3357 7.7893 0.0000 20.6550 0.0000
# 6 0.0000 0.0000 0.0000 8.1421 0.0000 58.4583
#
#
#
# Elastic Compliance Matrix: (Units=1/GPa)
#
#
# Indices 1 2 3 4 5 6 
#
# 1 0.016229 -0.015094 -0.006822 0.000000 -0.008575 0.000000
# 2 -0.015094 0.025243 0.004133 0.000000 0.006457 0.000000
# 3 -0.006822 0.004133 0.039438 0.000000 -0.009723 0.000000
# 4 0.000000 0.000000 0.000000 0.042393 0.000000 -0.005905
# 5 -0.008575 0.006457 -0.009723 0.000000 0.058290 0.000000
# 6 0.000000 0.000000 0.000000 -0.005905 0.000000 0.017929
#
#
# Mechanical properties :
#
#
# Convention : Reuss Voigt Hill
#
# Bulk Modulus (GPa) = 22.05340 58.71377 40.38358
# Shear Modulus (GPa) = 19.98391 31.83484 25.90937
#
# Velocity S-wave (km/s) = 2.82774 3.56903 3.21979
# Velocity P-wave (km/s) = 4.41425 6.36215 5.47552
#
# Compressibility (1/GPa) = 0.04534449
#
# Stress axis : x y z
#
# Youngs Moduli (GPa) = 61.61638 39.61555 25.35647
#
# Poissons Ratio (x) = 0.59795 0.17297
# Poissons Ratio (y) = 0.93002 -0.10479
# Poissons Ratio (z) = 0.42033 -0.16372
#
# Static dielectric constant tensor:
#      x y z
#    x 2.030540 0.000000 -0.028380 
#    y 0.000000 2.052460 0.000000 
#    z -0.028380 0.000000 2.076810 
# 
# From -- ./inp_files/35225.got.cif
#   From: 2010.05.17/outbox.cif.g08.bks.cpg/sg9_18_cif.got.tgz:35225.got - 2010.06.03 20:04:27.
