data_PCOD9134888
_publ_section_title
;
Structure prediction by ZEFSAII (Michael W. Deem and Ramdas Pophale) SiO2 
 PCOD9134888
Probable space group: C C
;
_chemical_formula_sum "Si O2"
_cell_formula_units_Z 28
_cell_length_a 12.119546
_cell_length_b 21.858096
_cell_length_c 13.073217
_cell_angle_alpha 90.000000
_cell_angle_beta 156.436866
_cell_angle_gamma 90.000000
_cell_volume 1384.457922
_symmetry_space_group_name_H-M "C C"
_symmetry_group_IT_number 9
_symmetry_cell_setting 'monoclinic'
loop_
_space_group_symop_operation_xyz
x,y,z
x,-y,1/2+z
1/2+x,1/2+y,z
1/2+x,1/2-y,1/2+z
loop_
_atom_site_type_symbol
_atom_site_label
_atom_site_fract_x
_atom_site_fract_y
_atom_site_fract_z
Si Si1 0.629260 0.584486 0.972460
Si Si2 0.864428 0.423418 0.005062
Si Si3 0.900877 0.284014 0.961925
Si Si4 0.295168 0.478395 0.777608
Si Si5 0.225625 0.455899 0.496088
Si Si6 0.411470 0.583517 0.584276
Si Si7 0.626028 0.159173 0.476516
O O1 0.549138 0.520704 0.954827
O O2 0.672431 0.579370 0.884982
O O3 0.352030 0.625318 0.738414
O O4 0.851008 0.620764 0.224058
O O5 0.053001 0.474921 0.108552
O O6 0.997365 0.425163 0.231469
O O7 0.892242 0.354962 0.985762
O O8 0.538627 0.439130 0.727259
O O9 0.602082 0.254501 0.703932
O O10 0.032260 0.282214 0.958594
O O11 0.196423 0.444375 0.591467
O O12 0.407561 0.435753 0.964090
O O13 0.218464 0.529514 0.470229
O O14 0.279439 0.649916 0.497431
#
# Coordination Sequence:
#
# PCOD9134888 Si02
#       7
#     4   4   4   4   4   4   4
#     4   9  19  32  49  75 114 151 175 215 267 315
#     4  11  23  39  53  82 124 143 185 246 264 333
#     4  12  24  38  62  83 102 149 193 235 298 327
#     4  10  20  34  57  85 118 161 184 204 284 353
#     4  10  22  33  53  82 118 154 188 214 276 335
#     4   8  20  31  53  79 114 157 174 216 271 337
#     4  10  20  37  51  78 114 139 183 232 274 320
#
# _framework density 20.224523999999999
#
# number of rings (size 3 to 8) (size 9 to 14) (size 15 to 20)
#    0.857    1.143    1.429    1.714   12.000    2.286 
#    0.000    0.000    0.000    0.000    0.000    6.000 
#    0.000    0.000    0.000    0.000    0.000    0.000 
#
# Total GULP energy -77950.642302 kJ/mol
# GULP energy per Si atom -5567.903022 kJ/mol
# Density = 2.017849 g / cm^3
# Si number density = 20.224524 Si / 1000 Ang^3
#
#
#
# Elastic Constant Matrix: (Units=GPa)
#
#
# Indices 1 2 3 4 5 6 
#
# 1 66.3328 11.5486 23.3249 -0.0006 -18.2455 -0.0015
# 2 11.5486 43.7020 27.8857 -0.0002 4.4782 -0.0006
# 3 23.3249 27.8857 130.4586 0.0024 0.1729 0.0006
# 4 -0.0006 -0.0002 0.0024 28.2932 -0.0004 -1.4053
# 5 -18.2455 4.4782 0.1729 -0.0004 27.8413 -0.0009
# 6 -0.0015 -0.0006 0.0006 -1.4053 -0.0009 27.6961
#
#
#
# Elastic Compliance Matrix: (Units=1/GPa)
#
#
# Indices 1 2 3 4 5 6 
#
# 1 0.020947 -0.005361 -0.002619 0.000001 0.014606 0.000002
# 2 -0.005361 0.028375 -0.005096 0.000000 -0.008046 0.000000
# 3 -0.002619 -0.005096 0.009224 -0.000001 -0.000954 -0.000001
# 4 0.000001 0.000000 -0.000001 0.035433 0.000001 0.001798
# 5 0.014606 -0.008046 -0.000954 0.000001 0.046790 0.000002
# 6 0.000002 0.000000 -0.000001 0.001798 0.000002 0.036197
#
#
# Mechanical properties :
#
#
# Convention : Reuss Voigt Hill
#
# Bulk Modulus (GPa) = 30.86930 40.66798 35.76864
# Shear Modulus (GPa) = 23.37350 28.61506 25.99428
#
# Velocity S-wave (km/s) = 3.40325 3.76556 3.58898
# Velocity P-wave (km/s) = 5.54430 6.24962 5.90750
#
# Compressibility (1/GPa) = 0.03239464
#
# Stress axis : x y z
#
# Youngs Moduli (GPa) = 47.73888 35.24199 108.41298
#
# Poissons Ratio (x) = 0.18895 0.28389
# Poissons Ratio (y) = 0.25595 0.55247
# Poissons Ratio (z) = 0.12501 0.17959
#
# Static dielectric constant tensor:
#      x y z
#    x 1.836210 0.000000 0.004630 
#    y 0.000000 1.699030 0.000000 
#    z 0.004630 0.000000 1.771980 
# 
# From -- ./inp_files/17202.got.cif
#   From: 2010.05.17/outbox.cif.g08.bks.cpg/sg9_9_cif.got.tgz:17202.got - 2010.06.03 20:04:27.
