data_PCOD9134110
_publ_section_title
;
Structure prediction by ZEFSAII (Michael W. Deem and Ramdas Pophale) SiO2 
 PCOD9134110
Probable space group: C C
;
_chemical_formula_sum "Si O2"
_cell_formula_units_Z 32
_cell_length_a 13.947342
_cell_length_b 19.166815
_cell_length_c 11.790523
_cell_angle_alpha 90.000000
_cell_angle_beta 147.708597
_cell_angle_gamma 90.000000
_cell_volume 1683.833314
_symmetry_space_group_name_H-M "C C"
_symmetry_group_IT_number 9
_symmetry_cell_setting 'monoclinic'
loop_
_space_group_symop_operation_xyz
x,y,z
x,-y,1/2+z
1/2+x,1/2+y,z
1/2+x,1/2-y,1/2+z
loop_
_atom_site_type_symbol
_atom_site_label
_atom_site_fract_x
_atom_site_fract_y
_atom_site_fract_z
Si Si1 0.387320 0.418104 0.346170
Si Si2 0.234786 0.180270 0.702423
Si Si3 0.807755 0.861559 0.026232
Si Si4 0.107928 0.325684 0.191709
Si Si5 0.608000 0.825673 0.461176
Si Si6 0.692128 0.285180 0.410615
Si Si7 0.887370 0.918096 0.865473
Si Si8 0.734716 0.319724 0.704053
O O1 0.304442 0.403799 0.138763
O O2 0.247433 0.385506 0.295357
O O3 0.418589 0.500002 0.387070
O O4 0.571718 0.374560 0.544263
O O5 0.409939 0.157282 0.809217
O O6 0.281296 0.193728 0.880887
O O7 0.168682 0.253759 0.583215
O O8 0.071804 0.125428 0.536237
O O9 0.999586 0.822042 0.218064
O O10 0.670107 0.797974 0.888602
O O11 0.804437 0.903783 0.907056
O O12 0.168621 0.253774 0.191032
O O13 0.106476 0.315287 0.324954
O O14 0.909840 0.342714 0.947559
O O15 0.747545 0.885484 0.636556
O O16 0.781267 0.306283 0.618649
#
# Coordination Sequence:
#
# PCOD9134110 Si02
#       8
#     4   4   4   4   4   4   4   4
#     4  11  26  43  65  96 135 172 211 272 338 390
#     4  11  22  41  68  98 129 170 225 275 324 386
#     4  10  20  38  66  94 118 162 211 266 331 376
#     4  12  24  40  67 100 129 178 224 268 323 398
#     4  12  24  40  67 100 129 178 224 268 323 398
#     4  10  18  36  66  98 114 156 219 278 315 368
#     4  11  26  43  65  96 135 172 211 272 338 390
#     4  11  22  41  68  98 129 170 225 275 324 386
#
# _framework density 19.004258
#
# number of rings (size 3 to 8) (size 9 to 14) (size 15 to 20)
#    0.000    1.000    5.000    2.250    1.750    2.000 
#    0.000    0.000    5.500    0.000    0.000    0.000 
#    0.000    0.000    0.000    0.000    0.000    0.000 
#
# Total GULP energy -89425.103108 kJ/mol
# GULP energy per Si atom -5589.068944 kJ/mol
# Density = 1.896100 g / cm^3
# Si number density = 19.004258 Si / 1000 Ang^3
#
#
#
# Elastic Constant Matrix: (Units=GPa)
#
#
# Indices 1 2 3 4 5 6 
#
# 1 111.2252 26.3710 47.9367 0.0000 -22.3823 0.0000
# 2 26.3710 113.4297 25.0951 0.0000 -1.5987 0.0000
# 3 47.9367 25.0951 85.9701 0.0000 -8.3127 0.0000
# 4 0.0000 0.0000 0.0000 16.4312 0.0000 4.7238
# 5 -22.3823 -1.5987 -8.3127 0.0000 39.4333 0.0000
# 6 0.0000 0.0000 0.0000 4.7238 0.0000 12.5152
#
#
#
# Elastic Compliance Matrix: (Units=1/GPa)
#
#
# Indices 1 2 3 4 5 6 
#
# 1 0.013368 -0.001608 -0.006387 0.000000 0.006176 0.000000
# 2 -0.001608 0.009620 -0.002003 0.000000 -0.000945 0.000000
# 3 -0.006387 -0.002003 0.015741 0.000000 -0.000388 0.000000
# 4 0.000000 0.000000 0.000000 0.068268 0.000000 -0.025767
# 5 0.006176 -0.000945 -0.000388 0.000000 0.028744 0.000000
# 6 0.000000 0.000000 0.000000 -0.025767 0.000000 0.089629
#
#
# Mechanical properties :
#
#
# Convention : Reuss Voigt Hill
#
# Bulk Modulus (GPa) = 53.38451 56.60340 54.99395
# Shear Modulus (GPa) = 19.87214 27.75742 23.81478
#
# Velocity S-wave (km/s) = 3.23719 3.82591 3.54380
# Velocity P-wave (km/s) = 6.49032 7.02610 6.76352
#
# Compressibility (1/GPa) = 0.01873203
#
# Stress axis : x y z
#
# Youngs Moduli (GPa) = 74.80807 103.95444 63.53005
#
# Poissons Ratio (x) = 0.16712 0.40578
# Poissons Ratio (y) = 0.12026 0.12725
# Poissons Ratio (z) = 0.47782 0.20821
#
# Static dielectric constant tensor:
#      x y z
#    x 1.667080 0.000000 0.007370 
#    y 0.000000 1.630850 0.000000 
#    z 0.007370 0.000000 1.673170 
# 
# From -- ./inp_files/18523.got.cif
#   From: 2010.05.17/outbox.cif.g08.bks.cpg/sg9_10_cif.got.tgz:18523.got - 2010.06.03 20:04:27.
