data_PCOD9134207
_publ_section_title
;
Structure prediction by ZEFSAII (Michael W. Deem and Ramdas Pophale) SiO2 
 PCOD9134207
Probable space group: C C
;
_chemical_formula_sum "Si O2"
_cell_formula_units_Z 32
_cell_length_a 12.250928
_cell_length_b 8.043545
_cell_length_c 19.794955
_cell_angle_alpha 90.000000
_cell_angle_beta 40.964471
_cell_angle_gamma 90.000000
_cell_volume 1278.803819
_symmetry_space_group_name_H-M "C C"
_symmetry_group_IT_number 9
_symmetry_cell_setting 'monoclinic'
loop_
_space_group_symop_operation_xyz
x,y,z
x,-y,1/2+z
1/2+x,1/2+y,z
1/2+x,1/2-y,1/2+z
loop_
_atom_site_type_symbol
_atom_site_label
_atom_site_fract_x
_atom_site_fract_y
_atom_site_fract_z
Si Si1 0.244780 0.649679 0.881830
Si Si2 0.932212 0.128083 0.153757
Si Si3 0.378958 0.748211 0.963483
Si Si4 0.995058 0.949067 0.993201
Si Si5 0.446706 0.988103 0.085113
Si Si6 0.671903 0.724893 0.163394
Si Si7 0.566260 0.999655 0.300438
Si Si8 0.524675 0.201234 0.182299
O O1 0.334109 0.666705 0.912391
O O2 0.393699 0.652189 0.758301
O O3 0.135618 0.812850 0.913739
O O4 0.105564 0.511875 0.961599
O O5 0.927878 0.300548 0.114539
O O6 0.740061 0.073162 0.245872
O O7 0.711867 0.258385 0.084454
O O8 0.015869 0.998193 0.062356
O O9 0.496765 0.614696 0.946666
O O10 0.437247 0.932170 0.915105
O O11 0.812118 0.860785 0.072762
O O12 0.281628 0.068333 0.132195
O O13 0.479700 0.097923 0.136845
O O14 0.587627 0.808652 0.269154
O O15 0.536874 0.676999 0.170802
O O16 0.520338 0.084641 0.250259
#
# Coordination Sequence:
#
# PCOD9134207 Si02
#       8
#     4   4   4   4   4   4   4   4
#     4   9  21  37  67  92 125 175 205 268 336 376
#     4  11  21  39  67  94 129 166 212 267 323 390
#     4  10  19  36  65  94 120 170 224 258 316 388
#     4  10  21  39  64  93 125 165 215 264 321 388
#     4  10  21  38  65  93 126 168 212 262 322 393
#     4  10  20  41  61  91 135 167 206 272 327 379
#     4  10  21  37  65  92 127 176 211 265 327 377
#     4  10  18  41  64  89 125 173 211 260 326 379
#
# _framework density 25.023385999999999
#
# number of rings (size 3 to 8) (size 9 to 14) (size 15 to 20)
#    0.000    2.000    3.750    0.750    1.750    1.000 
#    6.750    0.000    8.250    0.000    0.000    0.000 
#    0.000    0.000    0.000    0.000    0.000    0.000 
#
# Total GULP energy -89574.909628 kJ/mol
# GULP energy per Si atom -5598.431852 kJ/mol
# Density = 2.496643 g / cm^3
# Si number density = 25.023386 Si / 1000 Ang^3
#
#
#
# Elastic Constant Matrix: (Units=GPa)
#
#
# Indices 1 2 3 4 5 6 
#
# 1 151.4603 34.5176 7.2897 0.0000 11.8394 0.0000
# 2 34.5176 70.4996 2.7392 0.0000 -0.7071 0.0000
# 3 7.2897 2.7392 67.9091 0.0000 6.9658 0.0000
# 4 0.0000 0.0000 0.0000 7.0374 0.0000 12.7331
# 5 11.8394 -0.7071 6.9658 0.0000 29.9498 0.0000
# 6 0.0000 0.0000 0.0000 12.7331 0.0000 41.8270
#
#
#
# Elastic Compliance Matrix: (Units=1/GPa)
#
#
# Indices 1 2 3 4 5 6 
#
# 1 0.007725 -0.003799 -0.000362 0.000000 -0.003059 0.000000
# 2 -0.003799 0.016082 -0.000444 0.000000 0.001985 0.000000
# 3 -0.000362 -0.000444 0.015130 0.000000 -0.003386 0.000000
# 4 0.000000 0.000000 0.000000 0.316334 0.000000 -0.096299
# 5 -0.003059 0.001985 -0.003386 0.000000 0.035433 0.000000
# 6 0.000000 0.000000 0.000000 -0.096299 0.000000 0.053224
#
#
# Mechanical properties :
#
#
# Convention : Reuss Voigt Hill
#
# Bulk Modulus (GPa) = 33.64151 42.10689 37.87420
# Shear Modulus (GPa) = 10.79807 32.11769 21.45788
#
# Velocity S-wave (km/s) = 2.07956 3.58649 2.93151
# Velocity P-wave (km/s) = 4.38626 5.83216 5.16011
#
# Compressibility (1/GPa) = 0.02972518
#
# Stress axis : x y z
#
# Youngs Moduli (GPa) = 129.45547 62.18308 66.09505
#
# Poissons Ratio (x) = 0.23622 0.02394
# Poissons Ratio (y) = 0.49176 0.02938
# Poissons Ratio (z) = 0.04689 0.02764
#
# Static dielectric constant tensor:
#      x y z
#    x 1.956360 0.000000 0.019130 
#    y 0.000000 2.028000 0.000000 
#    z 0.019130 0.000000 2.019100 
# 
# From -- ./inp_files/35534.got.cif
#   From: 2010.05.17/outbox.cif.g08.bks.cpg/sg9_18_cif.got.tgz:35534.got - 2010.06.03 20:04:27.
