data_PCOD9134253
_publ_section_title
;
Structure prediction by ZEFSAII (Michael W. Deem and Ramdas Pophale) SiO2 
 PCOD9134253
Probable space group: C C
;
_chemical_formula_sum "Si O2"
_cell_formula_units_Z 28
_cell_length_a 32.917117
_cell_length_b 7.555411
_cell_length_c 5.426839
_cell_angle_alpha 90.000000
_cell_angle_beta 62.401155
_cell_angle_gamma 90.000000
_cell_volume 1196.092863
_symmetry_space_group_name_H-M "C C"
_symmetry_group_IT_number 9
_symmetry_cell_setting 'monoclinic'
loop_
_space_group_symop_operation_xyz
x,y,z
x,-y,1/2+z
1/2+x,1/2+y,z
1/2+x,1/2-y,1/2+z
loop_
_atom_site_type_symbol
_atom_site_label
_atom_site_fract_x
_atom_site_fract_y
_atom_site_fract_z
Si Si1 0.707440 0.397687 0.419870
Si Si2 0.397774 0.707251 0.869833
Si Si3 0.934677 0.804072 0.764635
Si Si4 0.016697 0.395251 0.912503
Si Si5 0.112159 0.475905 0.140056
Si Si6 0.804378 0.618451 0.541156
Si Si7 0.600960 0.395937 0.668936
O O1 0.710202 0.446069 0.702402
O O2 0.753686 0.295965 0.217431
O O3 0.655286 0.340075 0.521616
O O4 0.415255 0.503750 0.841383
O O5 0.424921 0.779893 0.557471
O O6 0.408111 0.784460 0.110576
O O7 0.344887 0.740683 0.956935
O O8 0.987682 0.782871 0.540274
O O9 0.004716 0.481919 0.682577
O O10 0.071915 0.376946 0.755470
O O11 0.139096 0.498537 0.314648
O O12 0.081175 0.299377 0.224119
O O13 0.807712 0.519741 0.265154
O O14 0.591707 0.499998 0.445117
#
# Coordination Sequence:
#
# PCOD9134253 Si02
#       7
#     4   4   4   4   4   4   4
#     4   8  16  30  51  82 115 147 185 231 274 336
#     4  10  21  35  55  78 108 150 187 238 275 338
#     4  10  21  37  55  77 108 144 189 228 293 332
#     4  10  21  37  61  78 106 146 185 236 283 341
#     4  10  21  38  62  85 119 153 194 243 292 350
#     4  10  19  32  53  84 113 148 195 230 275 329
#     4  10  19  35  63  90 119 156 195 236 290 350
#
# _framework density 23.409552000000001
#
# number of rings (size 3 to 8) (size 9 to 14) (size 15 to 20)
#    0.000    2.286    0.000    2.571    0.000    3.429 
#    0.000    0.000   81.714    0.000    0.000    0.000 
#    0.000    0.000    0.000    0.000    0.000    0.000 
#
# Total GULP energy -77953.682993 kJ/mol
# GULP energy per Si atom -5568.120214 kJ/mol
# Density = 2.335627 g / cm^3
# Si number density = 23.409552 Si / 1000 Ang^3
#
#
#
# Elastic Constant Matrix: (Units=GPa)
#
#
# Indices 1 2 3 4 5 6 
#
# 1 56.1511 -1.4195 30.4052 0.0000 18.9787 0.0000
# 2 -1.4195 61.2565 23.2346 0.0000 16.9390 0.0000
# 3 30.4052 23.2346 144.3126 0.0000 59.7559 0.0000
# 4 0.0000 0.0000 0.0000 18.4265 0.0000 1.9831
# 5 18.9787 16.9390 59.7559 0.0000 70.3095 0.0000
# 6 0.0000 0.0000 0.0000 1.9831 0.0000 22.7854
#
#
#
# Elastic Compliance Matrix: (Units=1/GPa)
#
#
# Indices 1 2 3 4 5 6 
#
# 1 0.020880 0.002721 -0.003444 0.000000 -0.003364 0.000000
# 2 0.002721 0.018104 -0.002126 0.000000 -0.003289 0.000000
# 3 -0.003444 -0.002126 0.011419 0.000000 -0.008263 0.000000
# 4 0.000000 0.000000 0.000000 0.054783 0.000000 -0.004768
# 5 -0.003364 -0.003289 -0.008263 0.000000 0.022946 0.000000
# 6 0.000000 0.000000 0.000000 -0.004768 0.000000 0.044303
#
#
# Mechanical properties :
#
#
# Convention : Reuss Voigt Hill
#
# Bulk Modulus (GPa) = 22.36966 40.68453 31.52710
# Shear Modulus (GPa) = 25.90210 36.27092 31.08651
#
# Velocity S-wave (km/s) = 3.32998 3.94052 3.64805
# Velocity P-wave (km/s) = 4.93574 6.17420 5.58938
#
# Compressibility (1/GPa) = 0.04470340
#
# Stress axis : x y z
#
# Youngs Moduli (GPa) = 47.89275 55.23715 87.57504
#
# Poissons Ratio (x) = -0.15028 0.30162
# Poissons Ratio (y) = -0.13030 0.18619
# Poissons Ratio (z) = 0.16495 0.11744
#
# Static dielectric constant tensor:
#      x y z
#    x 1.985260 0.000000 0.009390 
#    y 0.000000 1.906180 0.000000 
#    z 0.009390 0.000000 1.964120 
# 
# From -- ./inp_files/3377.got.cif
#   From: 2010.05.17/outbox.cif.g08.bks.cpg/sg9_2_cif.got.tgz:3377.got - 2010.06.03 20:04:27.
