data_PCOD9134247
_publ_section_title
;
Structure prediction by ZEFSAII (Michael W. Deem and Ramdas Pophale) SiO2 
 PCOD9134247
Probable space group: C C
;
_chemical_formula_sum "Si O2"
_cell_formula_units_Z 32
_cell_length_a 16.163819
_cell_length_b 15.548153
_cell_length_c 13.720975
_cell_angle_alpha 90.000000
_cell_angle_beta 32.074931
_cell_angle_gamma 90.000000
_cell_volume 1831.154893
_symmetry_space_group_name_H-M "C C"
_symmetry_group_IT_number 9
_symmetry_cell_setting 'monoclinic'
loop_
_space_group_symop_operation_xyz
x,y,z
x,-y,1/2+z
1/2+x,1/2+y,z
1/2+x,1/2-y,1/2+z
loop_
_atom_site_type_symbol
_atom_site_label
_atom_site_fract_x
_atom_site_fract_y
_atom_site_fract_z
Si Si1 0.737530 0.693375 0.422820
Si Si2 0.261200 0.358387 0.638778
Si Si3 0.230761 0.323102 0.263943
Si Si4 0.399024 0.499038 0.129961
Si Si5 0.875521 0.648153 0.087819
Si Si6 0.900099 0.318089 0.968739
Si Si7 0.198873 0.015396 0.700430
Si Si8 0.476033 0.569373 0.754905
O O1 0.716289 0.784559 0.389003
O O2 0.823964 0.637968 0.252952
O O3 0.838669 0.695587 0.419313
O O4 0.571964 0.649423 0.612143
O O5 0.287334 0.427210 0.698656
O O6 0.352578 0.269953 0.569475
O O7 0.343926 0.398573 0.460719
O O8 0.082958 0.335619 0.794284
O O9 0.338721 0.406026 0.154152
O O10 0.303603 0.241685 0.134852
O O11 0.060189 0.346701 0.397786
O O12 0.411108 0.489534 0.233750
O O13 0.568865 0.514540 0.914510
O O14 0.800967 0.570118 0.104512
O O15 0.805740 0.400320 0.101468
O O16 0.103501 0.022205 0.694999
#
# Coordination Sequence:
#
# PCOD9134247 Si02
#       8
#     4   4   4   4   4   4   4   4
#     4   9  20  32  55  86 113 141 178 236 283 325
#     4  11  24  36  58  83 115 150 185 238 279 335
#     4  10  20  30  56  83 113 147 179 227 285 332
#     4  11  20  37  55  83 114 149 187 229 285 332
#     4  10  19  32  51  84 114 143 179 223 285 330
#     4  11  22  38  55  85 117 141 193 227 287 333
#     4  10  21  37  56  81 114 151 184 234 280 336
#     4  10  20  36  58  83 114 150 189 232 282 331
#
# _framework density 17.47531
#
# number of rings (size 3 to 8) (size 9 to 14) (size 15 to 20)
#    0.750    1.000    1.250    5.250    5.250    0.000 
#    0.000    0.000    0.000    9.000    0.000    0.000 
#    0.000    0.000    0.000    0.000    0.000    0.000 
#
# Total GULP energy -89258.503588 kJ/mol
# GULP energy per Si atom -5578.656474 kJ/mol
# Density = 1.743554 g / cm^3
# Si number density = 17.475310 Si / 1000 Ang^3
#
#
#
# Elastic Constant Matrix: (Units=GPa)
#
#
# Indices 1 2 3 4 5 6 
#
# 1 69.8782 62.4926 38.6365 -0.0002 -20.3361 0.0001
# 2 62.4926 134.2592 40.4592 -0.0001 -6.5143 0.0001
# 3 38.6365 40.4592 83.7164 -0.0001 -21.3025 0.0001
# 4 -0.0002 -0.0001 -0.0001 33.3517 0.0001 -5.1372
# 5 -20.3361 -6.5143 -21.3025 0.0001 25.2812 -0.0001
# 6 0.0001 0.0001 0.0001 -5.1372 -0.0001 29.1635
#
#
#
# Elastic Compliance Matrix: (Units=1/GPa)
#
#
# Indices 1 2 3 4 5 6 
#
# 1 0.035623 -0.014319 -0.004032 0.000000 0.021567 0.000000
# 2 -0.014319 0.014529 -0.003044 0.000000 -0.010340 0.000000
# 3 -0.004032 -0.003044 0.018142 0.000000 0.011259 0.000000
# 4 0.000000 0.000000 0.000000 0.030820 0.000000 0.005429
# 5 0.021567 -0.010340 0.011259 0.000000 0.063727 0.000000
# 6 0.000000 0.000000 0.000000 0.005429 0.000000 0.035246
#
#
# Mechanical properties :
#
#
# Convention : Reuss Voigt Hill
#
# Bulk Modulus (GPa) = 39.21148 63.44783 51.32966
# Shear Modulus (GPa) = 20.04988 27.31031 23.68009
#
# Velocity S-wave (km/s) = 3.39089 3.95751 3.68511
# Velocity P-wave (km/s) = 6.14962 7.56759 6.89515
#
# Compressibility (1/GPa) = 0.02550274
#
# Stress axis : x y z
#
# Youngs Moduli (GPa) = 28.07212 68.82725 55.12035
#
# Poissons Ratio (x) = 0.98557 0.22224
# Poissons Ratio (y) = 0.40198 0.16779
# Poissons Ratio (z) = 0.11318 0.20952
#
# Static dielectric constant tensor:
#      x y z
#    x 1.593050 0.000000 -0.000170 
#    y 0.000000 1.604680 0.000000 
#    z -0.000170 0.000000 1.592500 
# 
# From -- ./inp_files/26885.got.cif
#   From: 2010.05.17/outbox.cif.g08.bks.cpg/sg9_14_cif.got.tgz:26885.got - 2010.06.03 20:04:27.
