data_PCOD9134727
_publ_section_title
;
Structure prediction by ZEFSAII (Michael W. Deem and Ramdas Pophale) SiO2 
 PCOD9134727
Probable space group: C C
;
_chemical_formula_sum "Si O2"
_cell_formula_units_Z 24
_cell_length_a 14.995696
_cell_length_b 12.373262
_cell_length_c 9.703968
_cell_angle_alpha 90.000000
_cell_angle_beta 143.104836
_cell_angle_gamma 90.000000
_cell_volume 1080.952673
_symmetry_space_group_name_H-M "C C"
_symmetry_group_IT_number 9
_symmetry_cell_setting 'monoclinic'
loop_
_space_group_symop_operation_xyz
x,y,z
x,-y,1/2+z
1/2+x,1/2+y,z
1/2+x,1/2-y,1/2+z
loop_
_atom_site_type_symbol
_atom_site_label
_atom_site_fract_x
_atom_site_fract_y
_atom_site_fract_z
Si Si1 0.790050 0.816543 0.645850
Si Si2 0.412024 0.628321 0.829302
Si Si3 0.507497 0.469349 0.734019
Si Si4 0.839791 0.597210 0.644542
Si Si5 0.636310 0.013459 0.576930
Si Si6 0.013986 0.327624 0.120410
O O1 0.860244 0.701262 0.770197
O O2 0.727742 0.901731 0.679331
O O3 0.640640 0.780496 0.377720
O O4 0.904648 0.883090 0.690970
O O5 0.476323 0.553440 0.034716
O O6 0.467196 0.746528 0.941750
O O7 0.464249 0.583703 0.747538
O O8 0.236280 0.603673 0.624863
O O9 0.681549 0.454075 0.973193
O O10 0.867365 0.645992 0.525998
O O11 0.973618 0.513305 0.820551
O O12 0.598386 0.064538 0.676444
#
# Coordination Sequence:
#
# PCOD9134727 Si02
#       6
#     4   4   4   4   4   4
#     4  10  19  40  65  92 123 171 228 265 326 401
#     4  11  23  40  67  95 136 175 222 271 334 394
#     4  11  22  38  64 101 127 169 219 280 321 394
#     4  11  21  36  66  96 123 169 227 267 323 401
#     4  10  23  36  64  96 132 163 224 283 315 388
#     4  11  20  40  68  92 123 179 226 266 331 404
#
# _framework density 22.202635999999998
#
# number of rings (size 3 to 8) (size 9 to 14) (size 15 to 20)
#    0.000    1.333    5.000    1.000    2.333    0.000 
#    0.000    0.000   22.000    0.000    0.000    0.000 
#    0.000    0.000    0.000    0.000    0.000    0.000 
#
# Total GULP energy -66906.799430 kJ/mol
# GULP energy per Si atom -5575.566619 kJ/mol
# Density = 2.215210 g / cm^3
# Si number density = 22.202636 Si / 1000 Ang^3
#
#
#
# Elastic Constant Matrix: (Units=GPa)
#
#
# Indices 1 2 3 4 5 6 
#
# 1 92.2751 25.2596 20.8329 0.0000 31.6317 0.0000
# 2 25.2596 61.3143 34.6413 0.0000 12.7746 0.0000
# 3 20.8329 34.6413 80.8199 0.0000 31.8279 0.0000
# 4 0.0000 0.0000 0.0000 36.7434 0.0000 -6.9443
# 5 31.6317 12.7746 31.8279 0.0000 41.4053 0.0000
# 6 0.0000 0.0000 0.0000 -6.9443 0.0000 36.3124
#
#
#
# Elastic Compliance Matrix: (Units=1/GPa)
#
#
# Indices 1 2 3 4 5 6 
#
# 1 0.016221 -0.005950 0.003623 0.000000 -0.013342 0.000000
# 2 -0.005950 0.023715 -0.010813 0.000000 0.005541 0.000000
# 3 0.003623 -0.010813 0.022732 0.000000 -0.016905 0.000000
# 4 0.000000 0.000000 0.000000 0.028236 0.000000 0.005400
# 5 -0.013342 0.005541 -0.016905 0.000000 0.045629 0.000000
# 6 0.000000 0.000000 0.000000 0.005400 0.000000 0.028571
#
#
# Mechanical properties :
#
#
# Convention : Reuss Voigt Hill
#
# Bulk Modulus (GPa) = 27.48155 43.98631 35.73393
# Shear Modulus (GPa) = 24.56816 33.13727 28.85271
#
# Velocity S-wave (km/s) = 3.33008 3.86747 3.60879
# Velocity P-wave (km/s) = 5.21444 6.30852 5.78739
#
# Compressibility (1/GPa) = 0.03638805
#
# Stress axis : x y z
#
# Youngs Moduli (GPa) = 61.64676 42.16653 43.99162
#
# Poissons Ratio (x) = 0.25089 -0.15938
# Poissons Ratio (y) = 0.36680 0.47569
# Poissons Ratio (z) = -0.22335 0.45596
#
# Static dielectric constant tensor:
#      x y z
#    x 1.835870 0.000000 -0.024050 
#    y 0.000000 1.924640 0.000000 
#    z -0.024050 0.000000 1.850880 
# 
# From -- ./inp_files/6844.got.cif
#   From: 2010.05.17/outbox.cif.g08.bks.cpg/sg9_4_cif.got.tgz:6844.got - 2010.06.03 20:04:27.
