data_PCOD9134841
_publ_section_title
;
Structure prediction by ZEFSAII (Michael W. Deem and Ramdas Pophale) SiO2 
 PCOD9134841
Probable space group: C C
;
_chemical_formula_sum "Si O2"
_cell_formula_units_Z 32
_cell_length_a 20.311975
_cell_length_b 15.546025
_cell_length_c 9.107600
_cell_angle_alpha 90.000000
_cell_angle_beta 151.082003
_cell_angle_gamma 90.000000
_cell_volume 1390.667968
_symmetry_space_group_name_H-M "C C"
_symmetry_group_IT_number 9
_symmetry_cell_setting 'monoclinic'
loop_
_space_group_symop_operation_xyz
x,y,z
x,-y,1/2+z
1/2+x,1/2+y,z
1/2+x,1/2-y,1/2+z
loop_
_atom_site_type_symbol
_atom_site_label
_atom_site_fract_x
_atom_site_fract_y
_atom_site_fract_z
Si Si1 0.239860 0.804391 0.761130
Si Si2 0.324500 0.153617 0.738838
Si Si3 0.786303 0.893632 0.446225
Si Si4 0.571326 0.653114 0.425878
Si Si5 0.229038 0.553457 0.158041
Si Si6 0.889657 0.771010 0.325260
Si Si7 0.942718 0.189578 0.615875
Si Si8 0.105512 0.663862 0.158567
O O1 0.355250 0.809369 0.861513
O O2 0.101517 0.821997 0.404070
O O3 0.261931 0.856758 0.953484
O O4 0.251097 0.704757 0.837243
O O5 0.221042 0.121605 0.664293
O O6 0.347724 0.255138 0.822778
O O7 0.484073 0.131317 0.026732
O O8 0.721531 0.927023 0.471342
O O9 0.952930 0.900081 0.777546
O O10 0.736130 0.955908 0.220191
O O11 0.580505 0.741563 0.537198
O O12 0.499204 0.675178 0.129565
O O13 0.370675 0.598499 0.486224
O O14 0.121149 0.601190 0.050857
O O15 0.941414 0.755543 0.263844
O O16 0.749095 0.822016 0.019861
#
# Coordination Sequence:
#
# PCOD9134841 Si02
#       8
#     4   4   4   4   4   4   4   4
#     4  11  21  35  60  92 125 161 208 259 311 369
#     4  12  20  36  63  97 130 158 216 274 314 364
#     4  11  25  41  63  93 129 167 214 261 316 385
#     4  11  21  37  62  96 129 163 211 268 316 370
#     4  11  25  41  63  93 129 167 214 261 316 385
#     4  10  20  30  57  91 122 154 206 246 318 352
#     4  11  21  35  60  92 125 161 208 259 311 369
#     4  11  21  37  62  96 129 163 211 268 316 370
#
# _framework density 23.010525000000001
#
# number of rings (size 3 to 8) (size 9 to 14) (size 15 to 20)
#    0.000    1.000    8.750    0.000    7.000    0.000 
#    0.000    0.000    0.000    7.500    0.000    0.000 
#    0.000    0.000    0.000    0.000    0.000    0.000 
#
# Total GULP energy -89176.688145 kJ/mol
# GULP energy per Si atom -5573.543009 kJ/mol
# Density = 2.295815 g / cm^3
# Si number density = 23.010525 Si / 1000 Ang^3
#
#
#
# Elastic Constant Matrix: (Units=GPa)
#
#
# Indices 1 2 3 4 5 6 
#
# 1 102.2108 -0.4579 5.4671 0.0000 13.8132 0.0000
# 2 -0.4579 27.4616 -5.6032 0.0000 -6.9050 0.0000
# 3 5.4671 -5.6032 82.1222 0.0000 -1.2763 0.0000
# 4 0.0000 0.0000 0.0000 18.4187 0.0000 -2.3086
# 5 13.8132 -6.9050 -1.2763 0.0000 51.7387 0.0000
# 6 0.0000 0.0000 0.0000 -2.3086 0.0000 17.4949
#
#
#
# Elastic Compliance Matrix: (Units=1/GPa)
#
#
# Indices 1 2 3 4 5 6 
#
# 1 0.010205 -0.000701 -0.000771 0.000000 -0.002837 0.000000
# 2 -0.000701 0.038312 0.002744 0.000000 0.005368 0.000000
# 3 -0.000771 0.002744 0.012429 0.000000 0.000879 0.000000
# 4 0.000000 0.000000 0.000000 0.055206 0.000000 0.007285
# 5 -0.002837 0.005368 0.000879 0.000000 0.020823 0.000000
# 6 0.000000 0.000000 0.000000 0.007285 0.000000 0.058121
#
#
# Mechanical properties :
#
#
# Convention : Reuss Voigt Hill
#
# Bulk Modulus (GPa) = 15.75018 23.40072 19.57545
# Shear Modulus (GPa) = 23.39554 31.68971 27.54263
#
# Velocity S-wave (km/s) = 3.19208 3.71507 3.46346
# Velocity P-wave (km/s) = 4.52167 5.34733 4.95174
#
# Compressibility (1/GPa) = 0.06349135
#
# Stress axis : x y z
#
# Youngs Moduli (GPa) = 97.98886 26.10125 80.45564
#
# Poissons Ratio (x) = 0.01829 0.06205
# Poissons Ratio (y) = 0.06865 -0.22078
# Poissons Ratio (z) = 0.07558 -0.07163
#
# Static dielectric constant tensor:
#      x y z
#    x 1.990310 0.000000 0.014780 
#    y 0.000000 1.842980 0.000000 
#    z 0.014780 0.000000 1.881380 
# 
# From -- ./inp_files/11848.got.cif
#   From: 2010.05.17/outbox.cif.g08.bks.cpg/sg9_6_cif.got.tgz:11848.got - 2010.06.03 20:04:27.
