data_PCOD9134758
_publ_section_title
;
Structure prediction by ZEFSAII (Michael W. Deem and Ramdas Pophale) SiO2 
 PCOD9134758
Probable space group: C C
;
_chemical_formula_sum "Si O2"
_cell_formula_units_Z 20
_cell_length_a 7.770182
_cell_length_b 21.562532
_cell_length_c 5.469743
_cell_angle_alpha 90.000000
_cell_angle_beta 121.145893
_cell_angle_gamma 90.000000
_cell_volume 784.326854
_symmetry_space_group_name_H-M "C C"
_symmetry_group_IT_number 9
_symmetry_cell_setting 'monoclinic'
loop_
_space_group_symop_operation_xyz
x,y,z
x,-y,1/2+z
1/2+x,1/2+y,z
1/2+x,1/2-y,1/2+z
loop_
_atom_site_type_symbol
_atom_site_label
_atom_site_fract_x
_atom_site_fract_y
_atom_site_fract_z
Si Si1 0.766800 0.148411 0.240620
Si Si2 0.071438 0.513020 0.071752
Si Si3 0.512738 0.534644 0.895122
Si Si4 0.141431 0.841033 0.717030
Si Si5 0.091945 0.300430 0.110366
O O1 0.662169 0.081550 0.144708
O O2 0.716139 0.176350 0.466437
O O3 0.003185 0.144680 0.352032
O O4 0.678745 0.186567 0.944570
O O5 0.958635 0.499713 0.238577
O O6 0.265913 0.467033 0.216600
O O7 0.563402 0.494742 0.172735
O O8 0.594685 0.603193 0.998675
O O9 0.075533 0.773600 0.571556
O O10 0.376497 0.834162 0.941582
#
# Coordination Sequence:
#
# PCOD9134758 Si02
#       5
#     4   4   4   4   4
#     4  12  27  50  75 108 154 189 249 305 367 436
#     4  10  19  40  74 103 137 196 232 288 381 416
#     4  10  22  40  74 104 136 201 231 292 380 417
#     4  12  27  51  78 105 160 186 253 305 368 439
#     4  12  31  45  77 116 139 206 245 300 372 442
#
# _framework density 25.499573999999999
#
# number of rings (size 3 to 8) (size 9 to 14) (size 15 to 20)
#    0.000    0.800    6.000    1.200    5.600    4.800 
#    0.000    6.000    0.000    0.000    0.000    0.000 
#    0.000    0.000    0.000    0.000    0.000    0.000 
#
# Total GULP energy -56085.403165 kJ/mol
# GULP energy per Si atom -5608.540317 kJ/mol
# Density = 2.544154 g / cm^3
# Si number density = 25.499574 Si / 1000 Ang^3
#
#
#
# Elastic Constant Matrix: (Units=GPa)
#
#
# Indices 1 2 3 4 5 6 
#
# 1 159.4682 11.5300 71.9222 0.0000 -28.2691 0.0000
# 2 11.5300 150.2521 60.6154 0.0000 -30.0307 0.0000
# 3 71.9222 60.6154 170.0358 0.0000 -32.8900 0.0000
# 4 0.0000 0.0000 0.0000 37.4525 0.0000 -14.3361
# 5 -28.2691 -30.0307 -32.8900 0.0000 53.9283 0.0000
# 6 0.0000 0.0000 0.0000 -14.3361 0.0000 10.2012
#
#
#
# Elastic Compliance Matrix: (Units=1/GPa)
#
#
# Indices 1 2 3 4 5 6 
#
# 1 0.008228 0.001329 -0.003374 0.000000 0.002995 0.000000
# 2 0.001329 0.008438 -0.002864 0.000000 0.003648 0.000000
# 3 -0.003374 -0.002864 0.008706 0.000000 0.001946 0.000000
# 4 0.000000 0.000000 0.000000 0.057785 0.000000 0.081207
# 5 0.002995 0.003648 0.001946 0.000000 0.023331 0.000000
# 6 0.000000 0.000000 0.000000 0.081207 0.000000 0.212151
#
#
# Mechanical properties :
#
#
# Convention : Reuss Voigt Hill
#
# Bulk Modulus (GPa) = 64.30382 85.32127 74.81255
# Shear Modulus (GPa) = 14.98606 42.69562 28.84084
#
# Velocity S-wave (km/s) = 2.42688 4.09634 3.36673
# Velocity P-wave (km/s) = 5.75546 7.47702 6.67200
#
# Compressibility (1/GPa) = 0.01555117
#
# Stress axis : x y z
#
# Youngs Moduli (GPa) = 121.54243 118.50722 114.86458
#
# Poissons Ratio (x) = -0.15744 0.38761
# Poissons Ratio (y) = -0.16147 0.32901
# Poissons Ratio (z) = 0.41014 0.33945
#
# Static dielectric constant tensor:
#      x y z
#    x 2.010280 0.000000 0.034000 
#    y 0.000000 1.980250 0.000000 
#    z 0.034000 0.000000 2.028140 
# 
# From -- ./inp_files/583.got.cif
#   From: 2010.05.17/outbox.cif.g08.bks.cpg/sg9_1_cif.got.tgz:583.got - 2010.06.03 20:04:27.
