data_PCOD9134254
_publ_section_title
;
Structure prediction by ZEFSAII (Michael W. Deem and Ramdas Pophale) SiO2 
 PCOD9134254
Probable space group: C C
;
_chemical_formula_sum "Si O2"
_cell_formula_units_Z 28
_cell_length_a 29.792806
_cell_length_b 7.183963
_cell_length_c 5.493949
_cell_angle_alpha 90.000000
_cell_angle_beta 69.309850
_cell_angle_gamma 90.000000
_cell_volume 1100.034060
_symmetry_space_group_name_H-M "C C"
_symmetry_group_IT_number 9
_symmetry_cell_setting 'monoclinic'
loop_
_space_group_symop_operation_xyz
x,y,z
x,-y,1/2+z
1/2+x,1/2+y,z
1/2+x,1/2-y,1/2+z
loop_
_atom_site_type_symbol
_atom_site_label
_atom_site_fract_x
_atom_site_fract_y
_atom_site_fract_z
Si Si1 0.930120 0.205521 0.944520
Si Si2 0.270693 0.533510 0.627264
Si Si3 0.343316 0.903951 0.963547
Si Si4 0.069438 0.622893 0.632822
Si Si5 0.736415 0.541668 0.182900
Si Si6 0.165359 0.597077 0.307173
Si Si7 0.968294 0.784070 0.872284
O O1 0.874493 0.227880 0.982676
O O2 0.957243 0.295053 0.661532
O O3 0.949376 0.995766 0.928014
O O4 0.941395 0.292721 0.185251
O O5 0.297138 0.489246 0.328953
O O6 0.252969 0.745330 0.645926
O O7 0.223219 0.399463 0.718489
O O8 0.355685 0.955117 0.662452
O O9 0.285341 0.916983 0.085329
O O10 0.066712 0.484013 0.400629
O O11 0.121428 0.721447 0.487924
O O12 0.024447 0.760186 0.713091
O O13 0.709777 0.502889 0.484697
O O14 0.157874 0.562791 0.033458
#
# Coordination Sequence:
#
# PCOD9134254 Si02
#       7
#     4   4   4   4   4   4   4
#     4  10  21  37  55  80 113 150 196 241 295 337
#     4  10  19  35  63  94 122 156 200 246 298 365
#     4  10  21  37  61  78 114 152 195 238 291 356
#     4  10  19  32  53  88 111 151 197 236 282 347
#     4  10  21  38  62  90 121 162 199 247 302 363
#     4   8  16  30  51  86 113 147 187 229 281 343
#     4  10  21  35  55  82 112 152 194 247 285 339
#
# _framework density 25.453755999999998
#
# number of rings (size 3 to 8) (size 9 to 14) (size 15 to 20)
#    0.000    2.286    0.000    2.571    0.000    3.429 
#    0.000    0.000   75.429    0.000  200.571    0.000 
#    0.000    0.000    0.000    0.000    0.000    0.000 
#
# Total GULP energy -78019.493814 kJ/mol
# GULP energy per Si atom -5572.820987 kJ/mol
# Density = 2.539582 g / cm^3
# Si number density = 25.453756 Si / 1000 Ang^3
#
#
#
# Elastic Constant Matrix: (Units=GPa)
#
#
# Indices 1 2 3 4 5 6 
#
# 1 105.4780 33.9338 50.8572 0.0000 -4.6010 0.0000
# 2 33.9338 91.9222 31.2477 0.0000 -3.8422 0.0000
# 3 50.8572 31.2477 208.6390 0.0000 48.7084 0.0000
# 4 0.0000 0.0000 0.0000 21.6153 0.0000 -7.7198
# 5 -4.6010 -3.8422 48.7084 0.0000 73.5933 0.0000
# 6 0.0000 0.0000 0.0000 -7.7198 0.0000 33.8066
#
#
#
# Elastic Compliance Matrix: (Units=1/GPa)
#
#
# Indices 1 2 3 4 5 6 
#
# 1 0.012149 -0.003330 -0.003074 0.000000 0.002620 0.000000
# 2 -0.003330 0.012643 -0.001404 0.000000 0.001381 0.000000
# 3 -0.003074 -0.001404 0.006877 0.000000 -0.004817 0.000000
# 4 0.000000 0.000000 0.000000 0.050371 0.000000 0.011502
# 5 0.002620 0.001381 -0.004817 0.000000 0.017013 0.000000
# 6 0.000000 0.000000 0.000000 0.011502 0.000000 0.032207
#
#
# Mechanical properties :
#
#
# Convention : Reuss Voigt Hill
#
# Bulk Modulus (GPa) = 62.29900 70.90185 66.60042
# Shear Modulus (GPa) = 32.84550 45.13641 38.99096
#
# Velocity S-wave (km/s) = 3.59611 4.21559 3.91811
# Velocity P-wave (km/s) = 6.46306 7.18405 6.83307
#
# Compressibility (1/GPa) = 0.01605162
#
# Stress axis : x y z
#
# Youngs Moduli (GPa) = 82.31382 79.09367 145.40551
#
# Poissons Ratio (x) = 0.26340 0.44702
# Poissons Ratio (y) = 0.27412 0.20419
# Poissons Ratio (z) = 0.25306 0.11107
#
# Static dielectric constant tensor:
#      x y z
#    x 2.078280 0.000000 0.023220 
#    y 0.000000 2.038960 0.000000 
#    z 0.023220 0.000000 2.071850 
# 
# From -- ./inp_files/3383.got.cif
#   From: 2010.05.17/outbox.cif.g08.bks.cpg/sg9_2_cif.got.tgz:3383.got - 2010.06.03 20:04:27.
