data_PCOD9134302
_publ_section_title
;
Structure prediction by ZEFSAII (Michael W. Deem and Ramdas Pophale) SiO2 
 PCOD9134302
Probable space group: C C
;
_chemical_formula_sum "Si O2"
_cell_formula_units_Z 32
_cell_length_a 7.279695
_cell_length_b 11.732589
_cell_length_c 20.171894
_cell_angle_alpha 90.000000
_cell_angle_beta 129.485266
_cell_angle_gamma 90.000000
_cell_volume 1329.694319
_symmetry_space_group_name_H-M "C C"
_symmetry_group_IT_number 9
_symmetry_cell_setting 'monoclinic'
loop_
_space_group_symop_operation_xyz
x,y,z
x,-y,1/2+z
1/2+x,1/2+y,z
1/2+x,1/2-y,1/2+z
loop_
_atom_site_type_symbol
_atom_site_label
_atom_site_fract_x
_atom_site_fract_y
_atom_site_fract_z
Si Si1 0.050060 0.551808 0.541420
Si Si2 0.276086 0.552622 0.219149
Si Si3 0.535892 0.396362 0.991973
Si Si4 0.250466 0.977648 0.658497
Si Si5 0.563246 0.302650 0.528811
Si Si6 0.019551 0.339186 0.445391
Si Si7 0.893294 0.315071 0.273166
Si Si8 0.393632 0.426446 0.368735
O O1 0.232775 0.494009 0.635183
O O2 0.000612 0.462095 0.472526
O O3 0.797323 0.584921 0.518067
O O4 0.138243 0.673383 0.536895
O O5 0.328587 0.688557 0.231646
O O6 0.444310 0.477887 0.307198
O O7 0.019638 0.528098 0.193428
O O8 0.487913 0.264221 0.988767
O O9 0.346181 0.458485 0.901052
O O10 0.566097 0.460948 0.066905
O O11 0.176492 0.847873 0.624405
O O12 0.262945 0.068251 0.720415
O O13 0.285508 0.321085 0.479062
O O14 0.587274 0.367056 0.462795
O O15 0.864699 0.312441 0.345514
O O16 0.168530 0.341694 0.315445
#
# Coordination Sequence:
#
# PCOD9134302 Si02
#       8
#     4   4   4   4   4   4   4   4
#     4  10  21  35  56  89 113 151 199 233 288 350
#     4  10  19  35  59  82 114 151 194 240 290 341
#     4   9  17  36  59  80 111 151 191 235 287 337
#     4   9  19  34  56  81 111 152 195 237 283 344
#     4   9  20  38  56  80 119 154 194 238 286 344
#     4  10  19  35  58  81 118 150 190 241 284 341
#     4  10  19  33  58  86 111 150 198 233 291 347
#     4   9  18  36  60  81 111 153 191 237 287 340
#
# _framework density 24.065681000000001
#
# number of rings (size 3 to 8) (size 9 to 14) (size 15 to 20)
#    0.000    2.500    1.250    0.750    0.000    2.000 
#    2.250   10.000    0.000    0.000    0.000    0.000 
#    0.000    0.000    0.000    0.000    0.000    0.000 
#
# Total GULP energy -89108.117807 kJ/mol
# GULP energy per Si atom -5569.257363 kJ/mol
# Density = 2.401091 g / cm^3
# Si number density = 24.065681 Si / 1000 Ang^3
#
#
#
# Elastic Constant Matrix: (Units=GPa)
#
#
# Indices 1 2 3 4 5 6 
#
# 1 44.6034 18.9350 4.2535 0.0000 13.8919 0.0000
# 2 18.9350 194.0757 48.0535 0.0000 -3.5549 0.0000
# 3 4.2535 48.0535 96.7654 0.0000 -3.7987 0.0000
# 4 0.0000 0.0000 0.0000 34.5712 0.0000 -9.0622
# 5 13.8919 -3.5549 -3.7987 0.0000 12.7134 0.0000
# 6 0.0000 0.0000 0.0000 -9.0622 0.0000 30.8153
#
#
#
# Elastic Compliance Matrix: (Units=1/GPa)
#
#
# Indices 1 2 3 4 5 6 
#
# 1 0.037551 -0.004129 -0.001271 0.000000 -0.042566 0.000000
# 2 -0.004129 0.006337 -0.002751 0.000000 0.005461 0.000000
# 3 -0.001271 -0.002751 0.011920 0.000000 0.004182 0.000000
# 4 0.000000 0.000000 0.000000 0.031342 0.000000 0.009217
# 5 -0.042566 0.005461 0.004182 0.000000 0.127946 0.000000
# 6 0.000000 0.000000 0.000000 0.009217 0.000000 0.035162
#
#
# Mechanical properties :
#
#
# Convention : Reuss Voigt Hill
#
# Bulk Modulus (GPa) = 25.31237 53.10316 39.20776
# Shear Modulus (GPa) = 17.87450 33.23346 25.55398
#
# Velocity S-wave (km/s) = 2.72828 3.72014 3.26213
# Velocity P-wave (km/s) = 4.52389 6.36918 5.52413
#
# Compressibility (1/GPa) = 0.03950638
#
# Stress axis : x y z
#
# Youngs Moduli (GPa) = 26.63040 157.81377 83.88974
#
# Poissons Ratio (x) = 0.65154 0.10666
# Poissons Ratio (y) = 0.10994 0.23077
# Poissons Ratio (z) = 0.03386 0.43413
#
# Static dielectric constant tensor:
#      x y z
#    x 1.989440 0.000000 0.016140 
#    y 0.000000 1.982470 0.000000 
#    z 0.016140 0.000000 2.043450 
# 
# From -- ./inp_files/24638.got.cif
#   From: 2010.05.17/outbox.cif.g08.bks.cpg/sg9_13_cif.got.tgz:24638.got - 2010.06.03 20:04:27.
