data_PCOD9134995
_publ_section_title
;
Structure prediction by ZEFSAII (Michael W. Deem and Ramdas Pophale) SiO2 
 PCOD9134995
Probable space group: C C
;
_chemical_formula_sum "Si O2"
_cell_formula_units_Z 32
_cell_length_a 14.562351
_cell_length_b 16.211290
_cell_length_c 10.189363
_cell_angle_alpha 90.000000
_cell_angle_beta 144.574323
_cell_angle_gamma 90.000000
_cell_volume 1394.309724
_symmetry_space_group_name_H-M "C C"
_symmetry_group_IT_number 9
_symmetry_cell_setting 'monoclinic'
loop_
_space_group_symop_operation_xyz
x,y,z
x,-y,1/2+z
1/2+x,1/2+y,z
1/2+x,1/2-y,1/2+z
loop_
_atom_site_type_symbol
_atom_site_label
_atom_site_fract_x
_atom_site_fract_y
_atom_site_fract_z
Si Si1 0.943880 0.867446 0.647920
Si Si2 0.482623 0.180833 0.417591
Si Si3 0.667215 0.787237 0.480692
Si Si4 0.565913 0.083744 0.281404
Si Si5 0.825482 0.848087 0.238339
Si Si6 0.193782 0.965087 0.052128
Si Si7 0.852688 0.561053 0.451768
Si Si8 0.412969 0.176851 0.888630
O O1 0.775625 0.838528 0.508818
O O2 0.923841 0.887283 0.471415
O O3 0.075543 0.793330 0.815765
O O4 0.013375 0.941176 0.815984
O O5 0.464747 0.104135 0.294986
O O6 0.670194 0.190151 0.628620
O O7 0.411956 0.266800 0.287481
O O8 0.418037 0.150407 0.483033
O O9 0.530103 0.833223 0.401043
O O10 0.805159 0.756670 0.743012
O O11 0.746749 0.091276 0.540167
O O12 0.523964 0.161966 0.141474
O O13 0.504658 0.001511 0.138816
O O14 0.282207 0.894160 0.238191
O O15 0.231614 0.040388 0.191686
O O16 0.268336 0.954556 0.992669
#
# Coordination Sequence:
#
# PCOD9134995 Si02
#       8
#     4   4   4   4   4   4   4   4
#     4  10  20  36  58  90 121 155 205 255 315 372
#     4  10  23  37  66  91 127 163 211 264 315 383
#     4   9  19  33  54  89 119 156 192 256 312 376
#     4   9  22  39  61  91 122 166 212 256 322 385
#     4  10  22  37  61  97 121 162 204 273 318 372
#     4  10  22  37  66  80 119 159 217 249 306 379
#     4  11  21  45  63  93 117 178 210 258 319 394
#     4   9  19  32  59  85 118 159 197 251 309 375
#
# _framework density 22.950424999999999
#
# number of rings (size 3 to 8) (size 9 to 14) (size 15 to 20)
#    0.750    1.500    1.250    0.750   10.500    0.000 
#    0.000    1.250    8.250    0.000    0.000    0.000 
#    0.000    0.000    0.000    0.000    0.000    0.000 
#
# Total GULP energy -89071.632201 kJ/mol
# GULP energy per Si atom -5566.977013 kJ/mol
# Density = 2.289819 g / cm^3
# Si number density = 22.950425 Si / 1000 Ang^3
#
#
#
# Elastic Constant Matrix: (Units=GPa)
#
#
# Indices 1 2 3 4 5 6 
#
# 1 51.6490 -3.9889 12.8990 0.0000 5.1815 0.0000
# 2 -3.9889 28.4511 24.6272 0.0000 5.3287 0.0000
# 3 12.8990 24.6272 133.9799 0.0000 -6.3964 0.0000
# 4 0.0000 0.0000 0.0000 32.6161 0.0000 3.7666
# 5 5.1815 5.3287 -6.3964 0.0000 35.9323 0.0000
# 6 0.0000 0.0000 0.0000 3.7666 0.0000 22.4490
#
#
#
# Elastic Compliance Matrix: (Units=1/GPa)
#
#
# Indices 1 2 3 4 5 6 
#
# 1 0.021257 0.006935 -0.003547 0.000000 -0.004725 0.000000
# 2 0.006935 0.046244 -0.009625 0.000000 -0.009571 0.000000
# 3 -0.003547 -0.009625 0.009750 0.000000 0.003674 0.000000
# 4 0.000000 0.000000 0.000000 0.031265 0.000000 -0.005246
# 5 -0.004725 -0.009571 0.003674 0.000000 0.030585 0.000000
# 6 0.000000 0.000000 0.000000 -0.005246 0.000000 0.045426
#
#
# Mechanical properties :
#
#
# Convention : Reuss Voigt Hill
#
# Bulk Modulus (GPa) = 15.43724 31.23940 23.33832
# Shear Modulus (GPa) = 22.87354 30.23566 26.55460
#
# Velocity S-wave (km/s) = 3.16040 3.63358 3.40522
# Velocity P-wave (km/s) = 4.47867 5.58974 5.06476
#
# Compressibility (1/GPa) = 0.06477841
#
# Stress axis : x y z
#
# Youngs Moduli (GPa) = 47.04342 21.62420 102.56495
#
# Poissons Ratio (x) = -0.14997 0.36379
# Poissons Ratio (y) = -0.32627 0.98719
# Poissons Ratio (z) = 0.16686 0.20813
#
# Static dielectric constant tensor:
#      x y z
#    x 1.900970 0.000000 -0.037830 
#    y 0.000000 1.901550 0.000000 
#    z -0.037830 0.000000 1.924300 
# 
# From -- ./inp_files/19449.got.cif
#   From: 2010.05.17/outbox.cif.g08.bks.cpg/sg9_10_cif.got.tgz:19449.got - 2010.06.03 20:04:27.
