data_PCOD9134467
_publ_section_title
;
Structure prediction by ZEFSAII (Michael W. Deem and Ramdas Pophale) SiO2 
 PCOD9134467
Probable space group: C C
;
_chemical_formula_sum "Si O2"
_cell_formula_units_Z 32
_cell_length_a 14.473429
_cell_length_b 5.112395
_cell_length_c 31.933080
_cell_angle_alpha 90.000000
_cell_angle_beta 143.924367
_cell_angle_gamma 90.000000
_cell_volume 1391.372131
_symmetry_space_group_name_H-M "C C"
_symmetry_group_IT_number 9
_symmetry_cell_setting 'monoclinic'
loop_
_space_group_symop_operation_xyz
x,y,z
x,-y,1/2+z
1/2+x,1/2+y,z
1/2+x,1/2-y,1/2+z
loop_
_atom_site_type_symbol
_atom_site_label
_atom_site_fract_x
_atom_site_fract_y
_atom_site_fract_z
Si Si1 0.300680 0.982477 0.853680
Si Si2 0.409843 0.696542 0.132788
Si Si3 0.049678 0.702655 0.894189
Si Si4 0.508211 0.196532 0.217276
Si Si5 0.617362 0.517547 0.996385
Si Si6 0.075657 0.417609 0.316165
Si Si7 0.842375 0.082376 0.533892
Si Si8 0.368357 0.702641 0.455871
O O1 0.435081 0.971249 0.867948
O O2 0.182745 0.200426 0.791414
O O3 0.387195 0.073346 0.928050
O O4 0.187049 0.750076 0.826210
O O5 0.420265 0.457111 0.169340
O O6 0.235311 0.799614 0.058655
O O7 0.462776 0.567750 0.107979
O O8 0.497799 0.957113 0.180727
O O9 0.018262 0.756252 0.834116
O O10 0.030850 0.926662 0.922016
O O11 0.230593 0.625057 0.969204
O O12 0.455263 0.067730 0.242078
O O13 0.730980 0.749966 0.023849
O O14 0.482960 0.528760 0.982117
O O15 0.187444 0.625045 0.380853
O O16 0.899765 0.256252 0.515942
#
# Coordination Sequence:
#
# PCOD9134467 Si02
#       8
#     4   4   4   4   4   4   4   4
#     4  10  19  36  63  88 126 159 196 263 306 377
#     4  11  22  40  64  82 119 168 209 246 305 360
#     4   9  20  34  59 102 117 154 204 250 324 368
#     4  11  22  40  64  82 119 168 209 246 305 360
#     4  10  19  36  63  88 126 159 196 263 306 377
#     4  10  19  36  63  88 126 159 196 263 306 377
#     4  10  19  36  63  88 126 159 196 263 306 377
#     4   9  20  34  59 102 117 154 204 250 324 368
#
# _framework density 22.998878000000001
#
# number of rings (size 3 to 8) (size 9 to 14) (size 15 to 20)
#    0.000    2.000    2.500    1.500    0.000    0.000 
#    0.000    1.250   11.000    0.000    0.000    0.000 
#    0.000    0.000    0.000    0.000    0.000    0.000 
#
# Total GULP energy -89073.944142 kJ/mol
# GULP energy per Si atom -5567.121509 kJ/mol
# Density = 2.294653 g / cm^3
# Si number density = 22.998878 Si / 1000 Ang^3
#
#
#
# Elastic Constant Matrix: (Units=GPa)
#
#
# Indices 1 2 3 4 5 6 
#
# 1 56.1659 12.7581 26.9232 0.0000 -9.3762 0.0015
# 2 12.7581 113.1872 50.2020 -0.0045 -9.1260 0.0021
# 3 26.9232 50.2020 116.5586 -0.0038 -28.2147 0.0011
# 4 0.0000 -0.0045 -0.0038 45.4189 -0.0002 8.6843
# 5 -9.3762 -9.1260 -28.2147 -0.0002 16.7947 -0.0002
# 6 0.0015 0.0021 0.0011 8.6843 -0.0002 6.4865
#
#
#
# Elastic Compliance Matrix: (Units=1/GPa)
#
#
# Indices 1 2 3 4 5 6 
#
# 1 0.020374 -0.000456 -0.003061 0.000001 0.005984 -0.000005
# 2 -0.000456 0.011042 -0.005494 0.000001 -0.003484 -0.000005
# 3 -0.003061 -0.005494 0.017724 0.000001 0.025082 -0.000002
# 4 0.000001 0.000001 0.000001 0.029593 0.000004 -0.039620
# 5 0.005984 -0.003484 0.025082 0.000004 0.103128 -0.000007
# 6 -0.000005 -0.000005 -0.000002 -0.039620 -0.000007 0.207211
#
#
# Mechanical properties :
#
#
# Convention : Reuss Voigt Hill
#
# Bulk Modulus (GPa) = 32.13564 51.74206 41.93885
# Shear Modulus (GPa) = 11.97701 26.80857 19.39279
#
# Velocity S-wave (km/s) = 2.28450 3.41786 2.90695
# Velocity P-wave (km/s) = 4.57839 6.17432 5.43525
#
# Compressibility (1/GPa) = 0.03111810
#
# Stress axis : x y z
#
# Youngs Moduli (GPa) = 49.08126 90.56224 56.42052
#
# Poissons Ratio (x) = 0.04133 0.17270
# Poissons Ratio (y) = 0.02240 0.30997
# Poissons Ratio (z) = 0.15024 0.49753
#
# Static dielectric constant tensor:
#      x y z
#    x 2.011220 0.000000 -0.016250 
#    y 0.000000 2.056260 0.000000 
#    z -0.016250 0.000000 1.896950 
# 
# From -- ./inp_files/32125.got.cif
#   From: 2010.05.17/outbox.cif.g08.bks.cpg/sg9_17_cif.got.tgz:32125.got - 2010.06.03 20:04:27.
