data_PCOD9134497
_publ_section_title
;
Structure prediction by ZEFSAII (Michael W. Deem and Ramdas Pophale) SiO2 
 PCOD9134497
Probable space group: C C
;
_chemical_formula_sum "Si O2"
_cell_formula_units_Z 32
_cell_length_a 11.305948
_cell_length_b 9.641285
_cell_length_c 23.445846
_cell_angle_alpha 90.000000
_cell_angle_beta 150.509299
_cell_angle_gamma 90.000000
_cell_volume 1258.119897
_symmetry_space_group_name_H-M "C C"
_symmetry_group_IT_number 9
_symmetry_cell_setting 'monoclinic'
loop_
_space_group_symop_operation_xyz
x,y,z
x,-y,1/2+z
1/2+x,1/2+y,z
1/2+x,1/2-y,1/2+z
loop_
_atom_site_type_symbol
_atom_site_label
_atom_site_fract_x
_atom_site_fract_y
_atom_site_fract_z
Si Si1 0.108940 0.792040 0.172360
Si Si2 0.404089 0.793148 0.486224
Si Si3 0.031579 0.707977 0.919379
Si Si4 0.080515 0.599635 0.462406
Si Si5 0.895007 0.229888 0.781361
Si Si6 0.410718 0.991019 0.213085
Si Si7 0.935323 0.676833 0.524563
Si Si8 0.427287 0.479786 0.464588
O O1 0.257993 0.755423 0.290444
O O2 0.293514 0.877751 0.208268
O O3 0.022353 0.668328 0.095214
O O4 0.862676 0.865794 0.087869
O O5 0.576908 0.799458 0.505496
O O6 0.365866 0.623887 0.471906
O O7 0.138601 0.852828 0.368746
O O8 0.056570 0.544262 0.918587
O O9 0.185464 0.823577 0.952829
O O10 0.942237 0.714156 0.365627
O O11 0.972886 0.595360 0.481300
O O12 0.890893 0.364781 0.738782
O O13 0.649847 0.157800 0.659797
O O14 0.696944 0.965203 0.325497
O O15 0.219129 0.002855 0.080266
O O16 0.923130 0.838272 0.498493
#
# Coordination Sequence:
#
# PCOD9134497 Si02
#       8
#     4   4   4   4   4   4   4   4
#     4  10  19  37  58  90 117 158 209 248 308 370
#     4   9  20  35  61  86 120 162 203 252 316 371
#     4  12  22  38  61  91 127 165 201 255 314 374
#     4  11  23  38  64  93 119 164 208 255 314 375
#     4   9  17  37  58  85 116 152 205 259 302 365
#     4   9  14  29  58  82 111 145 198 253 298 357
#     4  11  22  37  62  91 120 155 214 256 304 375
#     4   9  17  33  54  84 112 153 200 252 298 367
#
# _framework density 25.434777
#
# number of rings (size 3 to 8) (size 9 to 14) (size 15 to 20)
#    0.000    2.000    2.500    4.500    0.000    1.000 
#    0.000    2.500    2.750    0.000    0.000    0.000 
#    0.000    0.000    0.000    0.000    0.000    0.000 
#
# Total GULP energy -89084.487576 kJ/mol
# GULP energy per Si atom -5567.780474 kJ/mol
# Density = 2.537689 g / cm^3
# Si number density = 25.434777 Si / 1000 Ang^3
#
#
#
# Elastic Constant Matrix: (Units=GPa)
#
#
# Indices 1 2 3 4 5 6 
#
# 1 96.9114 13.4559 51.8020 0.0012 -5.7080 0.0004
# 2 13.4559 53.8581 11.4214 0.0001 6.8747 0.0000
# 3 51.8020 11.4214 217.4172 0.0016 29.8739 0.0011
# 4 0.0012 0.0001 0.0016 1.2844 0.0024 -8.7174
# 5 -5.7080 6.8747 29.8739 0.0024 17.5775 0.0009
# 6 0.0004 0.0000 0.0011 -8.7174 0.0009 33.6793
#
#
#
# Elastic Compliance Matrix: (Units=1/GPa)
#
#
# Indices 1 2 3 4 5 6 
#
# 1 0.014817 -0.004571 -0.005476 0.000052 0.015906 0.000013
# 2 -0.004571 0.020953 0.001720 -0.000036 -0.012603 -0.000009
# 3 -0.005476 0.001720 0.008024 -0.000036 -0.016089 -0.000009
# 4 0.000052 -0.000036 -0.000036 -1.028828 0.000249 -0.266296
# 5 0.015906 -0.012603 -0.016089 0.000249 0.094328 0.000062
# 6 0.000013 -0.000009 -0.000009 -0.266296 0.000062 -0.039235
#
#
# Mechanical properties :
#
#
# Convention : Reuss Voigt Hill
#
# Bulk Modulus (GPa) = 36.84410 57.94949 47.39679
# Shear Modulus (GPa) = -5.52951 29.94208 12.20628
#
# Velocity S-wave (km/s) = -1.47605 3.43477 2.19305
# Velocity P-wave (km/s) = 3.40767 6.20993 5.00876
#
# Compressibility (1/GPa) = 0.02714139
#
# Stress axis : x y z
#
# Youngs Moduli (GPa) = 67.48954 47.72536 124.62014
#
# Poissons Ratio (x) = 0.21815 0.68238
# Poissons Ratio (y) = 0.30849 -0.21435
# Poissons Ratio (z) = 0.36955 -0.08209
#
# Static dielectric constant tensor:
#      x y z
#    x 2.076750 0.000000 -0.014790 
#    y 0.000000 2.078240 0.000000 
#    z -0.014790 0.000000 2.078500 
# 
# From -- ./inp_files/16423.got.cif
#   From: 2010.05.17/outbox.cif.g08.bks.cpg/sg9_9_cif.got.tgz:16423.got - 2010.06.03 20:04:27.
