data_PCOD9134225
_publ_section_title
;
Structure prediction by ZEFSAII (Michael W. Deem and Ramdas Pophale) SiO2 
 PCOD9134225
Probable space group: C C
;
_chemical_formula_sum "Si O2"
_cell_formula_units_Z 32
_cell_length_a 19.272420
_cell_length_b 8.578796
_cell_length_c 7.661126
_cell_angle_alpha 90.000000
_cell_angle_beta 67.940852
_cell_angle_gamma 90.000000
_cell_volume 1173.923103
_symmetry_space_group_name_H-M "C C"
_symmetry_group_IT_number 9
_symmetry_cell_setting 'monoclinic'
loop_
_space_group_symop_operation_xyz
x,y,z
x,-y,1/2+z
1/2+x,1/2+y,z
1/2+x,1/2-y,1/2+z
loop_
_atom_site_type_symbol
_atom_site_label
_atom_site_fract_x
_atom_site_fract_y
_atom_site_fract_z
Si Si1 0.231710 0.160617 0.486960
Si Si2 0.897105 0.339875 0.751076
Si Si3 0.784453 0.160618 0.286663
Si Si4 0.584080 0.596146 0.751560
Si Si5 0.432083 0.596146 0.022062
Si Si6 0.099258 0.319338 0.435322
Si Si7 0.119058 0.660124 0.522547
Si Si8 0.916905 0.319339 0.338300
O O1 0.308508 0.117445 0.322123
O O2 0.258082 0.249999 0.636812
O O3 0.166181 0.036166 0.607372
O O4 0.184910 0.274615 0.405839
O O5 0.909412 0.207765 0.883193
O O6 0.926042 0.294813 0.533765
O O7 0.931786 0.500997 0.785745
O O8 0.707656 0.117445 0.451499
O O9 0.831253 0.274616 0.367784
O O10 0.849982 0.036167 0.166251
O O11 0.508082 0.513253 0.886812
O O12 0.606751 0.707766 0.890428
O O13 0.455891 0.707681 0.160333
O O14 0.560272 0.707679 0.613288
O O15 0.084377 0.499002 0.487879
O O16 0.090122 0.294813 0.239857
#
# Coordination Sequence:
#
# PCOD9134225 Si02
#       8
#     4   4   4   4   4   4   4   4
#     4   8  17  32  47  66  93 122 154 193 223 272
#     4  11  17  33  47  69  96 121 159 190 228 272
#     4   8  17  32  47  66  93 122 154 193 223 272
#     4   9  20  32  44  69  99 124 153 184 234 277
#     4   9  20  32  44  69  99 124 153 184 234 277
#     4  10  19  30  49  71  92 125 156 186 234 270
#     4  11  17  33  47  69  96 121 159 190 228 272
#     4  10  19  30  49  71  92 125 156 186 234 270
#
# _framework density 27.259022999999999
#
# number of rings (size 3 to 8) (size 9 to 14) (size 15 to 20)
#    1.500    1.000    2.500    0.750    0.000    2.000 
#    0.000    0.000    0.000    0.000    0.000   15.750 
#    0.000    0.000    0.000    0.000    0.000    0.000 
#
# Total GULP energy -89380.787802 kJ/mol
# GULP energy per Si atom -5586.299238 kJ/mol
# Density = 2.719698 g / cm^3
# Si number density = 27.259023 Si / 1000 Ang^3
#
#
#
# Elastic Constant Matrix: (Units=GPa)
#
#
# Indices 1 2 3 4 5 6 
#
# 1 137.8110 31.4622 79.0642 0.0000 5.3492 0.0000
# 2 31.4622 70.4014 31.8859 0.0000 13.2913 0.0000
# 3 79.0642 31.8859 203.5737 0.0000 -3.9365 0.0000
# 4 0.0000 0.0000 0.0000 21.8991 0.0000 11.6148
# 5 5.3492 13.2913 -3.9365 0.0000 105.9246 0.0000
# 6 0.0000 0.0000 0.0000 11.6148 0.0000 23.4067
#
#
#
# Elastic Compliance Matrix: (Units=1/GPa)
#
#
# Indices 1 2 3 4 5 6 
#
# 1 0.009856 -0.002817 -0.003392 0.000000 -0.000270 0.000000
# 2 -0.002817 0.016534 -0.001534 0.000000 -0.001989 0.000000
# 3 -0.003392 -0.001534 0.006481 0.000000 0.000605 0.000000
# 4 0.000000 0.000000 0.000000 0.061975 0.000000 -0.030753
# 5 -0.000270 -0.001989 0.000605 0.000000 0.009726 0.000000
# 6 0.000000 0.000000 0.000000 -0.030753 0.000000 0.057983
#
#
# Mechanical properties :
#
#
# Convention : Reuss Voigt Hill
#
# Bulk Modulus (GPa) = 57.52127 77.40120 67.46124
# Shear Modulus (GPa) = 27.19813 48.20431 37.70122
#
# Velocity S-wave (km/s) = 3.16217 4.20977 3.72300
# Velocity P-wave (km/s) = 5.87197 7.21706 6.57898
#
# Compressibility (1/GPa) = 0.01738487
#
# Stress axis : x y z
#
# Youngs Moduli (GPa) = 101.46169 60.48269 154.28545
#
# Poissons Ratio (x) = 0.17040 0.52331
# Poissons Ratio (y) = 0.28586 0.23666
# Poissons Ratio (z) = 0.34414 0.09278
#
# Static dielectric constant tensor:
#      x y z
#    x 2.128600 0.000000 -0.118190 
#    y 0.000000 2.116940 0.000000 
#    z -0.118190 0.000000 2.112950 
# 
# From -- ./inp_files/9416.got.cif
#   From: 2010.05.17/outbox.cif.g08.bks.cpg/sg9_5_cif.got.tgz:9416.got - 2010.06.03 20:04:27.
