data_PCOD9134815
_publ_section_title
;
Structure prediction by ZEFSAII (Michael W. Deem and Ramdas Pophale) SiO2 
 PCOD9134815
Probable space group: C C
;
_chemical_formula_sum "Si O2"
_cell_formula_units_Z 28
_cell_length_a 11.906542
_cell_length_b 7.991356
_cell_length_c 25.120952
_cell_angle_alpha 90.000000
_cell_angle_beta 151.145562
_cell_angle_gamma 90.000000
_cell_volume 1153.498378
_symmetry_space_group_name_H-M "C C"
_symmetry_group_IT_number 9
_symmetry_cell_setting 'monoclinic'
loop_
_space_group_symop_operation_xyz
x,y,z
x,-y,1/2+z
1/2+x,1/2+y,z
1/2+x,1/2-y,1/2+z
loop_
_atom_site_type_symbol
_atom_site_label
_atom_site_fract_x
_atom_site_fract_y
_atom_site_fract_z
Si Si1 0.569180 0.729411 0.845640
Si Si2 0.302837 0.081857 0.744076
Si Si3 0.770079 0.800108 0.464764
Si Si4 0.774144 0.378235 0.541232
Si Si5 0.840091 0.011419 0.601863
Si Si6 0.151817 0.509789 0.631310
Si Si7 0.526777 0.404777 0.018169
O O1 0.385437 0.608677 0.742272
O O2 0.442005 0.907460 0.796278
O O3 0.624947 0.654897 0.926587
O O4 0.822634 0.768277 0.925592
O O5 0.499151 0.219457 0.838198
O O6 0.168214 0.109506 0.632423
O O7 0.116847 0.040841 0.713065
O O8 0.936325 0.639852 0.534580
O O9 0.781212 0.903994 0.524941
O O10 0.880102 0.923837 0.466829
O O11 0.750842 0.202964 0.562523
O O12 0.695257 0.541669 0.540477
O O13 0.041436 0.399756 0.632741
O O14 0.727460 0.928245 0.606714
#
# Coordination Sequence:
#
# PCOD9134815 Si02
#       7
#     4   4   4   4   4   4   4
#     4  11  23  47  66 104 141 176 231 279 340 415
#     4  10  19  42  77  93 130 192 220 270 351 402
#     4  10  21  43  70  99 135 186 225 271 350 409
#     4  12  25  43  69 106 138 174 234 281 335 406
#     4  11  22  46  67  98 143 177 226 282 333 412
#     4  12  27  42  68 108 137 177 231 282 341 404
#     4  10  21  43  73  94 134 188 219 275 344 404
#
# _framework density 24.273982
#
# number of rings (size 3 to 8) (size 9 to 14) (size 15 to 20)
#    0.000    1.143    8.571    0.000    0.000    8.000 
#    0.000    2.857    0.000    0.000    0.000    0.000 
#    0.000    0.000    0.000    0.000    0.000    0.000 
#
# Total GULP energy -78255.104416 kJ/mol
# GULP energy per Si atom -5589.650315 kJ/mol
# Density = 2.421873 g / cm^3
# Si number density = 24.273982 Si / 1000 Ang^3
#
#
#
# Elastic Constant Matrix: (Units=GPa)
#
#
# Indices 1 2 3 4 5 6 
#
# 1 158.0855 26.1022 38.7607 0.0000 32.0370 0.0000
# 2 26.1022 66.2986 27.2524 0.0000 9.6026 0.0000
# 3 38.7607 27.2524 144.4055 0.0001 32.7879 0.0000
# 4 0.0000 0.0000 0.0001 37.2882 0.0000 18.1111
# 5 32.0370 9.6026 32.7879 0.0000 22.1442 0.0000
# 6 0.0000 0.0000 0.0000 18.1111 0.0000 47.6067
#
#
#
# Elastic Compliance Matrix: (Units=1/GPa)
#
#
# Indices 1 2 3 4 5 6 
#
# 1 0.009261 -0.002054 0.001117 0.000000 -0.014162 0.000000
# 2 -0.002054 0.017022 -0.002501 0.000000 -0.000707 0.000000
# 3 0.001117 -0.002501 0.010873 0.000000 -0.016632 0.000000
# 4 0.000000 0.000000 0.000000 0.032897 0.000000 -0.012515
# 5 -0.014162 -0.000707 -0.016632 0.000000 0.090580 0.000000
# 6 0.000000 0.000000 0.000000 -0.012515 0.000000 0.025767
#
#
# Mechanical properties :
#
#
# Convention : Reuss Voigt Hill
#
# Bulk Modulus (GPa) = 33.02309 61.44667 47.23488
# Shear Modulus (GPa) = 24.58595 39.85277 32.21936
#
# Velocity S-wave (km/s) = 3.18599 4.05630 3.64719
# Velocity P-wave (km/s) = 5.21228 6.87799 6.10224
#
# Compressibility (1/GPa) = 0.03028185
#
# Stress axis : x y z
#
# Youngs Moduli (GPa) = 107.98093 58.74641 91.96889
#
# Poissons Ratio (x) = 0.12068 -0.10277
# Poissons Ratio (y) = 0.22182 0.22997
# Poissons Ratio (z) = -0.12066 0.14690
#
# Static dielectric constant tensor:
#      x y z
#    x 1.924690 0.000000 -0.010290 
#    y 0.000000 2.027330 0.000000 
#    z -0.010290 0.000000 1.927580 
# 
# From -- ./inp_files/36540.got.cif
#   From: 2010.05.17/outbox.cif.g08.bks.cpg/sg9_19_cif.got.tgz:36540.got - 2010.06.03 20:04:27.
