data_PCOD9134821
_publ_section_title
;
Structure prediction by ZEFSAII (Michael W. Deem and Ramdas Pophale) SiO2 
 PCOD9134821
Probable space group: C C
;
_chemical_formula_sum "Si O2"
_cell_formula_units_Z 32
_cell_length_a 10.516362
_cell_length_b 10.898855
_cell_length_c 14.795710
_cell_angle_alpha 90.000000
_cell_angle_beta 131.082437
_cell_angle_gamma 90.000000
_cell_volume 1278.256770
_symmetry_space_group_name_H-M "C C"
_symmetry_group_IT_number 9
_symmetry_cell_setting 'monoclinic'
loop_
_space_group_symop_operation_xyz
x,y,z
x,-y,1/2+z
1/2+x,1/2+y,z
1/2+x,1/2-y,1/2+z
loop_
_atom_site_type_symbol
_atom_site_label
_atom_site_fract_x
_atom_site_fract_y
_atom_site_fract_z
Si Si1 0.318440 0.427587 0.268610
Si Si2 0.200700 0.936082 0.506958
Si Si3 0.169883 0.677880 0.535425
Si Si4 0.669097 0.975581 0.861494
Si Si5 0.352821 0.921014 0.385192
Si Si6 0.719420 0.822073 0.504844
Si Si7 0.825307 0.362145 0.189392
Si Si8 0.281351 0.189026 0.363673
O O1 0.516083 0.424889 0.377506
O O2 0.239061 0.533802 0.293629
O O3 0.249531 0.299212 0.279524
O O4 0.267706 0.420599 0.141188
O O5 0.248784 0.811347 0.580748
O O6 0.320636 0.932989 0.476012
O O7 0.203370 0.050528 0.574815
O O8 0.156245 0.638318 0.423384
O O9 0.980049 0.690441 0.482964
O O10 0.790639 0.069708 0.974253
O O11 0.493668 0.052018 0.771487
O O12 0.548561 0.878296 0.467678
O O13 0.272842 0.837871 0.268360
O O14 0.276135 0.054126 0.319694
O O15 0.834387 0.761104 0.634566
O O16 0.683255 0.717693 0.410773
#
# Coordination Sequence:
#
# PCOD9134821 Si02
#       8
#     4   4   4   4   4   4   4   4
#     4  10  24  41  68 104 128 188 237 292 349 427
#     4  11  26  41  67 102 141 183 231 294 365 423
#     4  11  22  44  68  97 141 182 234 293 363 424
#     4  10  23  43  71  98 134 183 242 290 358 428
#     4  11  23  43  67  98 138 185 226 286 360 420
#     4  10  21  39  67 101 126 173 239 273 340 428
#     4  11  22  44  70  96 140 182 228 295 366 423
#     4  10  19  43  68  92 136 176 233 279 343 427
#
# _framework density 25.034094
#
# number of rings (size 3 to 8) (size 9 to 14) (size 15 to 20)
#    0.000    1.500    3.750    1.500    1.750    3.000 
#    6.750    2.500    0.000    0.000    0.000    0.000 
#    0.000    0.000    0.000    0.000    0.000    0.000 
#
# Total GULP energy -89226.388061 kJ/mol
# GULP energy per Si atom -5576.649254 kJ/mol
# Density = 2.497712 g / cm^3
# Si number density = 25.034094 Si / 1000 Ang^3
#
#
#
# Elastic Constant Matrix: (Units=GPa)
#
#
# Indices 1 2 3 4 5 6 
#
# 1 68.4321 2.0249 -1.0236 0.0000 -11.7192 0.0000
# 2 2.0249 65.6249 2.5222 0.0000 1.0715 0.0000
# 3 -1.0236 2.5222 88.0930 0.0000 -13.1838 0.0000
# 4 0.0000 0.0000 0.0000 27.3893 0.0000 -12.6858
# 5 -11.7192 1.0715 -13.1838 0.0000 23.4622 0.0000
# 6 0.0000 0.0000 0.0000 -12.6858 0.0000 33.3481
#
#
#
# Elastic Compliance Matrix: (Units=1/GPa)
#
#
# Indices 1 2 3 4 5 6 
#
# 1 0.016198 -0.000706 0.001555 0.000000 0.008997 0.000000
# 2 -0.000706 0.015308 -0.000659 0.000000 -0.001422 0.000000
# 3 0.001555 -0.000659 0.012566 0.000000 0.007868 0.000000
# 4 0.000000 0.000000 0.000000 0.044319 0.000000 0.016859
# 5 0.008997 -0.001422 0.007868 0.000000 0.051602 0.000000
# 6 0.000000 0.000000 0.000000 0.016859 0.000000 0.036400
#
#
# Mechanical properties :
#
#
# Convention : Reuss Voigt Hill
#
# Bulk Modulus (GPa) = 22.49692 25.46633 23.98162
# Shear Modulus (GPa) = 26.20103 31.41500 28.80801
#
# Velocity S-wave (km/s) = 3.23865 3.54628 3.39595
# Velocity P-wave (km/s) = 4.79491 5.19258 4.99770
#
# Compressibility (1/GPa) = 0.04445052
#
# Stress axis : x y z
#
# Youngs Moduli (GPa) = 61.73637 65.32321 79.57937
#
# Poissons Ratio (x) = 0.04615 -0.12373
# Poissons Ratio (y) = 0.04361 0.05247
# Poissons Ratio (z) = -0.09599 0.04307
#
# Static dielectric constant tensor:
#      x y z
#    x 2.047280 0.000000 -0.036330 
#    y 0.000000 2.067920 0.000000 
#    z -0.036330 0.000000 2.016270 
# 
# From -- ./inp_files/16429.got.cif
#   From: 2010.05.17/outbox.cif.g08.bks.cpg/sg9_9_cif.got.tgz:16429.got - 2010.06.03 20:04:27.
