data_PCOD9134301
_publ_section_title
;
Structure prediction by ZEFSAII (Michael W. Deem and Ramdas Pophale) SiO2 
 PCOD9134301
Probable space group: C C
;
_chemical_formula_sum "Si O2"
_cell_formula_units_Z 32
_cell_length_a 9.178031
_cell_length_b 23.997569
_cell_length_c 5.636153
_cell_angle_alpha 90.000000
_cell_angle_beta 100.484559
_cell_angle_gamma 90.000000
_cell_volume 1220.639282
_symmetry_space_group_name_H-M "C C"
_symmetry_group_IT_number 9
_symmetry_cell_setting 'monoclinic'
loop_
_space_group_symop_operation_xyz
x,y,z
x,-y,1/2+z
1/2+x,1/2+y,z
1/2+x,1/2-y,1/2+z
loop_
_atom_site_type_symbol
_atom_site_label
_atom_site_fract_x
_atom_site_fract_y
_atom_site_fract_z
Si Si1 0.819910 0.390560 0.234580
Si Si2 0.127696 0.655986 0.804937
Si Si3 0.995750 0.142267 0.179421
Si Si4 0.017650 0.178842 0.683439
Si Si5 0.332316 0.889549 0.738308
Si Si6 0.107379 0.695267 0.303426
Si Si7 0.179823 0.473368 0.215185
Si Si8 0.511382 0.485309 0.797165
O O1 0.660447 0.361528 0.196473
O O2 0.840573 0.421004 0.491025
O O3 0.946041 0.342091 0.269309
O O4 0.835533 0.421400 0.988650
O O5 0.177152 0.689394 0.586278
O O6 0.149795 0.590672 0.762154
O O7 0.181275 0.674832 0.079665
O O8 0.954363 0.178217 0.397331
O O9 0.175796 0.143465 0.198583
O O10 0.966545 0.078827 0.249529
O O11 0.938872 0.155565 0.898006
O O12 0.063163 0.241292 0.755481
O O13 0.466499 0.846203 0.780039
O O14 0.129530 0.508158 0.434834
O O15 0.358027 0.480648 0.258849
O O16 0.586506 0.503948 0.573535
#
# Coordination Sequence:
#
# PCOD9134301 Si02
#       8
#     4   4   4   4   4   4   4   4
#     4   8  16  30  52  75 109 147 184 221 285 328
#     4  10  19  35  60  81 113 159 187 246 297 346
#     4  10  19  35  60  81 113 159 187 246 297 346
#     4  10  19  33  58  85 120 154 193 236 292 356
#     4   8  16  30  52  75 109 147 184 221 285 328
#     4  10  19  33  58  85 120 154 193 236 292 356
#     4  10  21  38  63  81 115 149 204 248 305 348
#     4  10  21  38  63  81 115 149 204 248 305 348
#
# _framework density 26.215769999999999
#
# number of rings (size 3 to 8) (size 9 to 14) (size 15 to 20)
#    0.000    2.500    0.000    2.250    0.000    0.000 
#    0.000    0.000   99.000   40.500    0.000    0.000 
#    0.000    0.000    0.000    0.000    0.000    0.000 
#
# Total GULP energy -89412.272007 kJ/mol
# GULP energy per Si atom -5588.267000 kJ/mol
# Density = 2.615610 g / cm^3
# Si number density = 26.215770 Si / 1000 Ang^3
#
#
#
# Elastic Constant Matrix: (Units=GPa)
#
#
# Indices 1 2 3 4 5 6 
#
# 1 75.6684 -7.7315 31.5348 0.0000 -7.1009 0.0000
# 2 -7.7315 118.3698 57.6688 0.0000 -12.2754 0.0000
# 3 31.5348 57.6688 362.2606 0.0000 -21.9027 0.0000
# 4 0.0000 0.0000 0.0000 -11.0728 0.0000 21.3506
# 5 -7.1009 -12.2754 -21.9027 0.0000 47.1456 0.0000
# 6 0.0000 0.0000 0.0000 21.3506 0.0000 -12.1851
#
#
#
# Elastic Compliance Matrix: (Units=1/GPa)
#
#
# Indices 1 2 3 4 5 6 
#
# 1 0.014169 0.001812 -0.001404 0.000000 0.001954 0.000000
# 2 0.001812 0.009534 -0.001552 0.000000 0.002034 0.000000
# 3 -0.001404 -0.001552 0.003182 0.000000 0.000863 0.000000
# 4 0.000000 0.000000 0.000000 0.037969 0.000000 0.066529
# 5 0.001954 0.002034 0.000863 0.000000 0.022435 0.000000
# 6 0.000000 0.000000 0.000000 0.066529 0.000000 0.034503
#
#
# Mechanical properties :
#
#
# Convention : Reuss Voigt Hill
#
# Bulk Modulus (GPa) = 40.65653 79.91587 60.28620
# Shear Modulus (GPa) = 37.79879 36.43265 37.11572
#
# Velocity S-wave (km/s) = 3.80127 3.73194 3.76676
# Velocity P-wave (km/s) = 5.89985 7.00856 6.47797
#
# Compressibility (1/GPa) = 0.02459630
#
# Stress axis : x y z
#
# Youngs Moduli (GPa) = 70.57634 104.89077 314.27467
#
# Poissons Ratio (x) = -0.19006 0.44116
# Poissons Ratio (y) = -0.12788 0.48789
# Poissons Ratio (z) = 0.09907 0.16284
#
# Static dielectric constant tensor:
#      x y z
#    x 2.145090 0.000000 0.041490 
#    y 0.000000 1.922620 0.000000 
#    z 0.041490 0.000000 2.162420 
# 
# From -- ./inp_files/1795.got.cif
#   From: 2010.05.17/outbox.cif.g08.bks.cpg/sg9_1_cif.got.tgz:1795.got - 2010.06.03 20:04:27.
