data_PCOD9134892
_publ_section_title
;
Structure prediction by ZEFSAII (Michael W. Deem and Ramdas Pophale) SiO2 
 PCOD9134892
Probable space group: C C
;
_chemical_formula_sum "Si O2"
_cell_formula_units_Z 32
_cell_length_a 30.518192
_cell_length_b 10.918413
_cell_length_c 9.144675
_cell_angle_alpha 90.000000
_cell_angle_beta 26.596273
_cell_angle_gamma 90.000000
_cell_volume 1364.189129
_symmetry_space_group_name_H-M "C C"
_symmetry_group_IT_number 9
_symmetry_cell_setting 'monoclinic'
loop_
_space_group_symop_operation_xyz
x,y,z
x,-y,1/2+z
1/2+x,1/2+y,z
1/2+x,1/2-y,1/2+z
loop_
_atom_site_type_symbol
_atom_site_label
_atom_site_fract_x
_atom_site_fract_y
_atom_site_fract_z
Si Si1 0.721060 0.347310 0.180230
Si Si2 0.658459 0.550316 0.171621
Si Si3 0.596974 0.007917 0.707371
Si Si4 0.674284 0.232083 0.843853
Si Si5 0.525825 0.356815 0.482220
Si Si6 0.541440 0.165044 0.637425
Si Si7 0.309191 0.373548 0.553906
Si Si8 0.872605 0.894239 0.690694
O O1 0.733538 0.454417 0.023691
O O2 0.680998 0.421895 0.437853
O O3 0.638261 0.248606 0.379200
O O4 0.804760 0.260255 0.995450
O O5 0.656453 0.679180 0.260657
O O6 0.554569 0.479727 0.481279
O O7 0.619957 0.898013 0.523748
O O8 0.561856 0.940577 0.957325
O O9 0.523020 0.100148 0.846796
O O10 0.699771 0.078744 0.425962
O O11 0.787669 0.196769 0.504116
O O12 0.630014 0.304937 0.112940
O O13 0.476673 0.262481 0.741919
O O14 0.465505 0.367618 0.514242
O O15 0.369817 0.378768 0.523973
O O16 0.342795 0.469375 0.330690
#
# Coordination Sequence:
#
# PCOD9134892 Si02
#       8
#     4   4   4   4   4   4   4   4
#     4  10  20  34  58  88 123 163 219 254 321 389
#     4  11  20  36  60  89 121 172 210 260 318 390
#     4   9  17  33  58  88 117 156 213 253 312 382
#     4  10  20  37  62  89 123 174 204 261 328 381
#     4  10  23  39  62  94 130 167 221 270 325 389
#     4   9  19  33  58  86 119 160 205 265 311 378
#     4  10  20  36  58  96 123 163 212 274 324 379
#     4  11  23  38  66  94 132 165 220 277 325 390
#
# _framework density 23.457158
#
# number of rings (size 3 to 8) (size 9 to 14) (size 15 to 20)
#    0.000    2.000    2.500    2.250    3.500    1.000 
#    0.000    0.000   11.000    0.000    0.000    0.000 
#    0.000    0.000    0.000    0.000    0.000    0.000 
#
# Total GULP energy -89248.897726 kJ/mol
# GULP energy per Si atom -5578.056108 kJ/mol
# Density = 2.340377 g / cm^3
# Si number density = 23.457158 Si / 1000 Ang^3
#
#
#
# Elastic Constant Matrix: (Units=GPa)
#
#
# Indices 1 2 3 4 5 6 
#
# 1 157.5946 74.8283 9.7789 0.0000 12.4795 0.0000
# 2 74.8283 110.0249 22.6098 0.0000 -5.1164 0.0000
# 3 9.7789 22.6098 27.0635 0.0000 4.2159 0.0000
# 4 0.0000 0.0000 0.0000 14.5000 0.0000 19.4645
# 5 12.4795 -5.1164 4.2159 0.0000 18.0550 0.0000
# 6 0.0000 0.0000 0.0000 19.4645 0.0000 67.5415
#
#
#
# Elastic Compliance Matrix: (Units=1/GPa)
#
#
# Indices 1 2 3 4 5 6 
#
# 1 0.011454 -0.009509 0.005664 0.000000 -0.011934 0.000000
# 2 -0.009509 0.019409 -0.015213 0.000000 0.015625 0.000000
# 3 0.005664 -0.015213 0.050740 0.000000 -0.020074 0.000000
# 4 0.000000 0.000000 0.000000 0.112478 0.000000 -0.032415
# 5 -0.011934 0.015625 -0.020074 0.000000 0.072750 0.000000
# 6 0.000000 0.000000 0.000000 -0.032415 0.000000 0.024147
#
#
# Mechanical properties :
#
#
# Convention : Reuss Voigt Hill
#
# Bulk Modulus (GPa) = 22.99490 56.56856 39.78173
# Shear Modulus (GPa) = 14.55234 32.51704 23.53469
#
# Velocity S-wave (km/s) = 2.49344 3.72725 3.17094
# Velocity P-wave (km/s) = 4.25604 6.53385 5.51385
#
# Compressibility (1/GPa) = 0.04348791
#
# Stress axis : x y z
#
# Youngs Moduli (GPa) = 87.30683 51.52370 19.70843
#
# Poissons Ratio (x) = 0.48993 -0.11164
# Poissons Ratio (y) = 0.83018 0.29982
# Poissons Ratio (z) = -0.49454 0.78381
#
# Static dielectric constant tensor:
#      x y z
#    x 1.917670 0.000000 -0.025600 
#    y 0.000000 1.928150 0.000000 
#    z -0.025600 0.000000 1.938800 
# 
# From -- ./inp_files/11598.got.cif
#   From: 2010.05.17/outbox.cif.g08.bks.cpg/sg9_6_cif.got.tgz:11598.got - 2010.06.03 20:04:27.
