data_PCOD9134361
_publ_section_title
;
Structure prediction by ZEFSAII (Michael W. Deem and Ramdas Pophale) SiO2 
 PCOD9134361
Probable space group: C C
;
_chemical_formula_sum "Si O2"
_cell_formula_units_Z 32
_cell_length_a 7.985103
_cell_length_b 17.206295
_cell_length_c 12.482717
_cell_angle_alpha 90.000000
_cell_angle_beta 67.890413
_cell_angle_gamma 90.000000
_cell_volume 1588.935767
_symmetry_space_group_name_H-M "C C"
_symmetry_group_IT_number 9
_symmetry_cell_setting 'monoclinic'
loop_
_space_group_symop_operation_xyz
x,y,z
x,-y,1/2+z
1/2+x,1/2+y,z
1/2+x,1/2-y,1/2+z
loop_
_atom_site_type_symbol
_atom_site_label
_atom_site_fract_x
_atom_site_fract_y
_atom_site_fract_z
Si Si1 0.980040 0.640991 0.706390
Si Si2 0.701575 0.403752 0.996266
Si Si3 0.797866 0.260683 0.858682
Si Si4 0.451359 0.997472 0.587074
Si Si5 0.093460 0.046926 0.294101
Si Si6 0.491412 0.853475 0.454015
Si Si7 0.654507 0.693140 0.163862
Si Si8 0.558697 0.376219 0.252008
O O1 0.053266 0.570225 0.615629
O O2 0.764963 0.637603 0.738765
O O3 0.012942 0.626219 0.824014
O O4 0.052763 0.726892 0.662093
O O5 0.830649 0.334241 0.925353
O O6 0.594880 0.431545 0.917840
O O7 0.825100 0.469359 0.021339
O O8 0.567855 0.374522 0.121026
O O9 0.607635 0.223921 0.941204
O O10 0.773480 0.287656 0.741606
O O11 0.937630 0.190991 0.828627
O O12 0.304422 0.966965 0.709070
O O13 0.554785 0.924320 0.513899
O O14 0.035103 0.119762 0.234075
O O15 0.002528 0.963885 0.296037
O O16 0.285900 0.835123 0.537914
#
# Coordination Sequence:
#
# PCOD9134361 Si02
#       8
#     4   4   4   4   4   4   4   4
#     4   9  19  32  53  80 101 128 171 214 249 293
#     4   9  17  33  52  71 100 138 164 202 256 299
#     4  10  20  34  52  76 103 135 169 203 250 307
#     4   9  17  31  52  76 100 130 168 206 251 299
#     4   8  16  31  53  73  98 135 169 200 251 306
#     4  10  19  35  54  72 101 138 168 206 250 298
#     4   9  18  34  55  74  98 135 174 203 247 305
#     4  10  20  34  51  78 105 129 169 212 250 299
#
# _framework density 20.139265000000002
#
# number of rings (size 3 to 8) (size 9 to 14) (size 15 to 20)
#    0.000    3.000    0.000    2.250    0.000    2.000 
#    0.000    7.500    0.000    0.000    0.000    0.000 
#    0.000    0.000    0.000    0.000    0.000    0.000 
#
# Total GULP energy -89174.813968 kJ/mol
# GULP energy per Si atom -5573.425873 kJ/mol
# Density = 2.009343 g / cm^3
# Si number density = 20.139265 Si / 1000 Ang^3
#
#
#
# Elastic Constant Matrix: (Units=GPa)
#
#
# Indices 1 2 3 4 5 6 
#
# 1 6.9942 9.3292 1.9810 0.0000 2.3880 0.0000
# 2 9.3292 133.6781 30.8187 0.0000 3.4621 0.0000
# 3 1.9810 30.8187 67.3792 0.0000 6.1069 0.0000
# 4 0.0000 0.0000 0.0000 21.6532 0.0000 8.9989
# 5 2.3880 3.4621 6.1069 0.0000 9.2729 0.0000
# 6 0.0000 0.0000 0.0000 8.9989 0.0000 23.3115
#
#
#
# Elastic Compliance Matrix: (Units=1/GPa)
#
#
# Indices 1 2 3 4 5 6 
#
# 1 0.172215 -0.011892 0.004246 0.000000 -0.042706 0.000000
# 2 -0.011892 0.009187 -0.004062 0.000000 0.002307 0.000000
# 3 0.004246 -0.004062 0.017586 0.000000 -0.011158 0.000000
# 4 0.000000 0.000000 0.000000 0.055008 0.000000 -0.021234
# 5 -0.042706 0.002307 -0.011158 0.000000 0.125326 0.000000
# 6 0.000000 0.000000 0.000000 -0.021234 0.000000 0.051094
#
#
# Mechanical properties :
#
#
# Convention : Reuss Voigt Hill
#
# Bulk Modulus (GPa) = 5.69561 32.47883 19.08722
# Shear Modulus (GPa) = 9.75889 21.90902 15.83396
#
# Velocity S-wave (km/s) = 2.20368 3.30187 2.80701
# Velocity P-wave (km/s) = 3.05110 5.54063 4.47257
#
# Compressibility (1/GPa) = 0.17557378
#
# Stress axis : x y z
#
# Youngs Moduli (GPa) = 5.80671 108.84726 56.86465
#
# Poissons Ratio (x) = 1.29436 -0.24147
# Poissons Ratio (y) = 0.06905 0.23096
# Poissons Ratio (z) = -0.02466 0.44210
#
# Static dielectric constant tensor:
#      x y z
#    x 1.710680 0.000000 -0.004380 
#    y 0.000000 1.758640 0.000000 
#    z -0.004380 0.000000 1.719230 
# 
# From -- ./inp_files/14575.got.cif
#   From: 2010.05.17/outbox.cif.g08.bks.cpg/sg9_8_cif.got.tgz:14575.got - 2010.06.03 20:04:27.
