data_PCOD9134323
_publ_section_title
;
Structure prediction by ZEFSAII (Michael W. Deem and Ramdas Pophale) SiO2 
 PCOD9134323
Probable space group: C C
;
_chemical_formula_sum "Si O2"
_cell_formula_units_Z 32
_cell_length_a 11.044702
_cell_length_b 8.664558
_cell_length_c 17.884877
_cell_angle_alpha 90.000000
_cell_angle_beta 48.176052
_cell_angle_gamma 90.000000
_cell_volume 1275.433064
_symmetry_space_group_name_H-M "C C"
_symmetry_group_IT_number 9
_symmetry_cell_setting 'monoclinic'
loop_
_space_group_symop_operation_xyz
x,y,z
x,-y,1/2+z
1/2+x,1/2+y,z
1/2+x,1/2-y,1/2+z
loop_
_atom_site_type_symbol
_atom_site_label
_atom_site_fract_x
_atom_site_fract_y
_atom_site_fract_z
Si Si1 0.788320 0.551198 0.599420
Si Si2 0.977636 0.420470 0.648179
Si Si3 0.487135 0.782595 0.487498
Si Si4 0.106135 0.429814 0.286314
Si Si5 0.834092 0.208398 0.339717
Si Si6 0.916745 0.890369 0.220875
Si Si7 0.012452 0.737631 0.395598
Si Si8 0.813996 0.026654 0.492965
O O1 0.848136 0.533511 0.660901
O O2 0.817185 0.378169 0.556373
O O3 0.611383 0.604796 0.650677
O O4 0.915995 0.657824 0.503740
O O5 0.044433 0.325137 0.546752
O O6 0.894614 0.296657 0.736031
O O7 0.147411 0.491330 0.605277
O O8 0.590311 0.859400 0.378569
O O9 0.453597 0.606971 0.484209
O O10 0.299611 0.418996 0.196547
O O11 0.986683 0.321219 0.288450
O O12 0.043563 0.604216 0.321759
O O13 0.687105 0.284404 0.355722
O O14 0.875564 0.047088 0.282806
O O15 0.774631 0.151662 0.445380
O O16 0.901534 0.880304 0.418812
#
# Coordination Sequence:
#
# PCOD9134323 Si02
#       8
#     4   4   4   4   4   4   4   4
#     4   9  18  36  55  86 114 147 194 240 289 340
#     4  10  19  34  56  85 116 147 190 245 288 337
#     4   8  20  37  56  84 111 152 198 235 282 343
#     4   9  19  37  60  82 115 161 192 235 294 343
#     4  10  21  38  58  82 120 157 194 238 295 348
#     4  11  19  34  63  84 118 161 189 237 303 343
#     4  10  19  35  60  87 106 149 202 239 281 346
#     4  11  19  37  62  86 110 148 199 243 284 342
#
# _framework density 25.089518999999999
#
# number of rings (size 3 to 8) (size 9 to 14) (size 15 to 20)
#    0.750    1.500    2.500    1.500    0.000    1.000 
#    2.250    2.500   16.500    0.000    0.000    0.000 
#    0.000    0.000    0.000    0.000    0.000    0.000 
#
# Total GULP energy -89176.720477 kJ/mol
# GULP energy per Si atom -5573.545030 kJ/mol
# Density = 2.503241 g / cm^3
# Si number density = 25.089519 Si / 1000 Ang^3
#
#
#
# Elastic Constant Matrix: (Units=GPa)
#
#
# Indices 1 2 3 4 5 6 
#
# 1 127.1031 47.2341 34.5955 0.0000 -38.9882 0.0000
# 2 47.2341 89.7819 16.4314 0.0000 -13.5040 0.0000
# 3 34.5955 16.4314 51.8899 0.0000 -20.0735 0.0000
# 4 0.0000 0.0000 0.0000 34.5045 0.0000 -0.4785
# 5 -38.9882 -13.5040 -20.0735 0.0000 38.2551 0.0000
# 6 0.0000 0.0000 0.0000 -0.4785 0.0000 53.2434
#
#
#
# Elastic Compliance Matrix: (Units=1/GPa)
#
#
# Indices 1 2 3 4 5 6 
#
# 1 0.013990 -0.005109 -0.003628 0.000000 0.010551 0.000000
# 2 -0.005109 0.013928 -0.001401 0.000000 -0.001026 0.000000
# 3 -0.003628 -0.001401 0.025737 0.000000 0.009313 0.000000
# 4 0.000000 0.000000 0.000000 0.028985 0.000000 0.000260
# 5 0.010551 -0.001026 0.009313 0.000000 0.041418 0.000000
# 6 0.000000 0.000000 0.000000 0.000260 0.000000 0.018784
#
#
# Mechanical properties :
#
#
# Convention : Reuss Voigt Hill
#
# Bulk Modulus (GPa) = 29.95890 51.69963 40.82927
# Shear Modulus (GPa) = 28.69520 36.56820 32.63170
#
# Velocity S-wave (km/s) = 3.38555 3.82188 3.61031
# Velocity P-wave (km/s) = 5.22009 6.33454 5.80413
#
# Compressibility (1/GPa) = 0.03337906
#
# Stress axis : x y z
#
# Youngs Moduli (GPa) = 71.47783 71.79664 38.85532
#
# Poissons Ratio (x) = 0.36683 0.14096
# Poissons Ratio (y) = 0.36521 0.05443
# Poissons Ratio (z) = 0.25931 0.10057
#
# Static dielectric constant tensor:
#      x y z
#    x 2.008750 0.000000 0.068640 
#    y 0.000000 1.978600 0.000000 
#    z 0.068640 0.000000 2.043070 
# 
# From -- ./inp_files/29866.got.cif
#   From: 2010.05.17/outbox.cif.g08.bks.cpg/sg9_15_cif.got.tgz:29866.got - 2010.06.03 20:04:27.
