data_PCOD9134378
_publ_section_title
;
Structure prediction by ZEFSAII (Michael W. Deem and Ramdas Pophale) SiO2 
 PCOD9134378
Probable space group: C C
;
_chemical_formula_sum "Si O2"
_cell_formula_units_Z 32
_cell_length_a 16.002163
_cell_length_b 14.774257
_cell_length_c 12.128877
_cell_angle_alpha 90.000000
_cell_angle_beta 145.856366
_cell_angle_gamma 90.000000
_cell_volume 1609.445715
_symmetry_space_group_name_H-M "C C"
_symmetry_group_IT_number 9
_symmetry_cell_setting 'monoclinic'
loop_
_space_group_symop_operation_xyz
x,y,z
x,-y,1/2+z
1/2+x,1/2+y,z
1/2+x,1/2-y,1/2+z
loop_
_atom_site_type_symbol
_atom_site_label
_atom_site_fract_x
_atom_site_fract_y
_atom_site_fract_z
Si Si1 0.949490 0.535635 0.423230
Si Si2 0.084300 0.836176 0.037658
Si Si3 0.357996 0.840609 0.627559
Si Si4 0.661546 0.187842 0.743705
Si Si5 0.422970 0.838698 0.441551
Si Si6 0.993352 0.838879 0.691731
Si Si7 0.071400 0.811939 0.443407
Si Si8 0.613136 0.533141 0.147144
O O1 0.924340 0.579183 0.275471
O O2 0.788356 0.540580 0.308001
O O3 0.067495 0.598470 0.614081
O O4 0.992213 0.430657 0.468917
O O5 0.260985 0.825374 0.209864
O O6 0.522987 0.751358 0.532324
O O7 0.001977 0.845364 0.831472
O O8 0.066342 0.929677 0.084186
O O9 0.391374 0.853241 0.536469
O O10 0.435572 0.747809 0.752851
O O11 0.184689 0.834088 0.469013
O O12 0.577615 0.248635 0.742593
O O13 0.657490 0.250145 0.628813
O O14 0.826841 0.166594 0.963152
O O15 0.076581 0.922842 0.724225
O O16 0.032908 0.902945 0.468166
#
# Coordination Sequence:
#
# PCOD9134378 Si02
#       8
#     4   4   4   4   4   4   4   4
#     4   9  21  38  59  86 112 147 195 236 281 344
#     4  11  25  40  56  83 117 154 195 235 282 341
#     4  10  19  35  59  82 111 148 180 233 289 326
#     4  10  19  36  62  90 115 145 192 236 281 342
#     4  11  24  40  57  83 117 152 194 235 283 343
#     4  11  21  37  61  85 117 154 185 237 289 327
#     4   9  17  34  59  86 109 139 188 232 279 341
#     4   9  20  38  59  83 112 149 195 236 282 342
#
# _framework density 19.882622999999999
#
# number of rings (size 3 to 8) (size 9 to 14) (size 15 to 20)
#    0.000    2.000    0.000    5.250    0.000    9.000 
#    0.000    3.750    0.000    0.000    0.000    0.000 
#    0.000    0.000    0.000    0.000    0.000    0.000 
#
# Total GULP energy -89416.576361 kJ/mol
# GULP energy per Si atom -5588.536023 kJ/mol
# Density = 1.983737 g / cm^3
# Si number density = 19.882623 Si / 1000 Ang^3
#
#
#
# Elastic Constant Matrix: (Units=GPa)
#
#
# Indices 1 2 3 4 5 6 
#
# 1 71.7417 39.3950 8.8103 0.0000 -9.0947 0.0000
# 2 39.3950 162.5030 25.4626 0.0000 5.6491 0.0000
# 3 8.8103 25.4626 58.6948 0.0000 -0.4899 0.0000
# 4 0.0000 0.0000 0.0000 21.0974 0.0000 10.5163
# 5 -9.0947 5.6491 -0.4899 0.0000 15.4610 0.0000
# 6 0.0000 0.0000 0.0000 10.5163 0.0000 19.3574
#
#
#
# Elastic Compliance Matrix: (Units=1/GPa)
#
#
# Indices 1 2 3 4 5 6 
#
# 1 0.018193 -0.004754 -0.000565 0.000000 0.012421 0.000000
# 2 -0.004754 0.007943 -0.002781 0.000000 -0.005787 0.000000
# 3 -0.000565 -0.002781 0.018339 0.000000 0.001265 0.000000
# 4 0.000000 0.000000 0.000000 0.065002 0.000000 -0.035314
# 5 0.012421 -0.005787 0.001265 0.000000 0.074139 0.000000
# 6 0.000000 0.000000 0.000000 -0.035314 0.000000 0.070845
#
#
# Mechanical properties :
#
#
# Convention : Reuss Voigt Hill
#
# Bulk Modulus (GPa) = 35.36490 48.91950 42.14220
# Shear Modulus (GPa) = 17.85171 25.80127 21.82649
#
# Velocity S-wave (km/s) = 2.99967 3.60624 3.31685
# Velocity P-wave (km/s) = 5.46103 6.48055 5.99251
#
# Compressibility (1/GPa) = 0.02827662
#
# Stress axis : x y z
#
# Youngs Moduli (GPa) = 54.96535 125.89674 54.52897
#
# Poissons Ratio (x) = 0.59849 0.03081
# Poissons Ratio (y) = 0.26129 0.15162
# Poissons Ratio (z) = 0.03105 0.35006
#
# Static dielectric constant tensor:
#      x y z
#    x 1.693710 0.000000 -0.007510 
#    y 0.000000 1.702720 0.000000 
#    z -0.007510 0.000000 1.693500 
# 
# From -- ./inp_files/18552.got.cif
#   From: 2010.05.17/outbox.cif.g08.bks.cpg/sg9_10_cif.got.tgz:18552.got - 2010.06.03 20:04:27.
