data_PCOD9134693
_publ_section_title
;
Structure prediction by ZEFSAII (Michael W. Deem and Ramdas Pophale) SiO2 
 PCOD9134693
Probable space group: C C
;
_chemical_formula_sum "Si O2"
_cell_formula_units_Z 32
_cell_length_a 22.108498
_cell_length_b 8.936661
_cell_length_c 15.978735
_cell_angle_alpha 90.000000
_cell_angle_beta 151.817005
_cell_angle_gamma 90.000000
_cell_volume 1491.024955
_symmetry_space_group_name_H-M "C C"
_symmetry_group_IT_number 9
_symmetry_cell_setting 'monoclinic'
loop_
_space_group_symop_operation_xyz
x,y,z
x,-y,1/2+z
1/2+x,1/2+y,z
1/2+x,1/2-y,1/2+z
loop_
_atom_site_type_symbol
_atom_site_label
_atom_site_fract_x
_atom_site_fract_y
_atom_site_fract_z
Si Si1 0.300540 0.652892 0.541600
Si Si2 0.812074 0.522196 0.007086
Si Si3 0.180942 0.341980 0.205149
Si Si4 0.431777 0.399014 0.603641
Si Si5 0.579835 0.534110 0.115911
Si Si6 0.816629 0.040642 0.228709
Si Si7 0.569740 0.984921 0.220169
Si Si8 0.677978 0.279712 0.961502
O O1 0.381121 0.560010 0.571124
O O2 0.319681 0.568860 0.652249
O O3 0.151295 0.634735 0.333644
O O4 0.336963 0.824351 0.586251
O O5 0.937522 0.484332 0.107091
O O6 0.703349 0.547358 0.803518
O O7 0.763502 0.401340 0.016403
O O8 0.304602 0.314030 0.416827
O O9 0.124070 0.178549 0.115677
O O10 0.236040 0.447167 0.199491
O O11 0.076860 0.433746 0.132854
O O12 0.516706 0.401423 0.624029
O O13 0.532613 0.341613 0.796423
O O14 0.464573 0.441225 0.935787
O O15 0.749931 0.198843 0.125685
O O16 0.652810 0.860205 0.369916
#
# Coordination Sequence:
#
# PCOD9134693 Si02
#       8
#     4   4   4   4   4   4   4   4
#     4  10  24  42  67  97 137 172 218 295 318 394
#     4  11  23  40  76  97 125 181 241 259 337 392
#     4  10  19  39  67  98 131 181 214 275 331 400
#     4   9  19  39  72  92 127 171 241 263 323 393
#     4  10  21  39  70  94 133 174 222 274 330 400
#     4  10  24  41  64  96 143 169 216 281 351 378
#     4  10  21  38  72  97 124 171 243 266 315 400
#     4  10  21  40  70  99 124 175 223 281 325 401
#
# _framework density 21.461746000000002
#
# number of rings (size 3 to 8) (size 9 to 14) (size 15 to 20)
#    0.000    2.000    2.500    0.750    8.750    2.000 
#    0.000    3.750    5.500    3.000    0.000    0.000 
#    0.000    0.000    0.000    0.000    0.000    0.000 
#
# Total GULP energy -89174.830122 kJ/mol
# GULP energy per Si atom -5573.426883 kJ/mol
# Density = 2.141290 g / cm^3
# Si number density = 21.461746 Si / 1000 Ang^3
#
#
#
# Elastic Constant Matrix: (Units=GPa)
#
#
# Indices 1 2 3 4 5 6 
#
# 1 66.4455 29.9570 22.4735 0.0000 16.4681 0.0000
# 2 29.9570 87.9377 37.1580 0.0000 6.1330 0.0000
# 3 22.4735 37.1580 106.1982 0.0000 10.4599 0.0000
# 4 0.0000 0.0000 0.0000 22.4151 0.0000 -7.9450
# 5 16.4681 6.1330 10.4599 0.0000 28.7485 0.0000
# 6 0.0000 0.0000 0.0000 -7.9450 0.0000 23.7445
#
#
#
# Elastic Compliance Matrix: (Units=1/GPa)
#
#
# Indices 1 2 3 4 5 6 
#
# 1 0.020595 -0.005739 -0.001357 0.000000 -0.010079 0.000000
# 2 -0.005739 0.014983 -0.004187 0.000000 0.001615 0.000000
# 3 -0.001357 -0.004187 0.011413 0.000000 -0.002482 0.000000
# 4 0.000000 0.000000 0.000000 0.050616 0.000000 0.016936
# 5 -0.010079 0.001615 -0.002482 0.000000 0.041117 0.000000
# 6 0.000000 0.000000 0.000000 0.016936 0.000000 0.047782
#
#
# Mechanical properties :
#
#
# Convention : Reuss Voigt Hill
#
# Bulk Modulus (GPa) = 40.94382 48.86203 44.90293
# Shear Modulus (GPa) = 23.01875 26.38116 24.69996
#
# Velocity S-wave (km/s) = 3.27853 3.50982 3.39615
# Velocity P-wave (km/s) = 5.78366 6.26431 6.02878
#
# Compressibility (1/GPa) = 0.02442371
#
# Stress axis : x y z
#
# Youngs Moduli (GPa) = 48.55635 66.74011 87.61881
#
# Poissons Ratio (x) = 0.38304 0.11893
# Poissons Ratio (y) = 0.27868 0.36687
# Poissons Ratio (z) = 0.06591 0.27945
#
# Static dielectric constant tensor:
#      x y z
#    x 1.784520 0.000000 0.002280 
#    y 0.000000 1.850460 0.000000 
#    z 0.002280 0.000000 1.858800 
# 
# From -- ./inp_files/31557.got.cif
#   From: 2010.05.17/outbox.cif.g08.bks.cpg/sg9_16_cif.got.tgz:31557.got - 2010.06.03 20:04:27.
