data_PCOD9134831
_publ_section_title
;
Structure prediction by ZEFSAII (Michael W. Deem and Ramdas Pophale) SiO2 
 PCOD9134831
Probable space group: C C
;
_chemical_formula_sum "Si O2"
_cell_formula_units_Z 28
_cell_length_a 9.953697
_cell_length_b 9.641236
_cell_length_c 20.159638
_cell_angle_alpha 90.000000
_cell_angle_beta 38.293021
_cell_angle_gamma 90.000000
_cell_volume 1198.863525
_symmetry_space_group_name_H-M "C C"
_symmetry_group_IT_number 9
_symmetry_cell_setting 'monoclinic'
loop_
_space_group_symop_operation_xyz
x,y,z
x,-y,1/2+z
1/2+x,1/2+y,z
1/2+x,1/2-y,1/2+z
loop_
_atom_site_type_symbol
_atom_site_label
_atom_site_fract_x
_atom_site_fract_y
_atom_site_fract_z
Si Si1 0.784970 0.292765 0.888890
Si Si2 0.413084 0.255358 0.472787
Si Si3 0.901557 0.534803 0.122722
Si Si4 0.782753 0.219648 0.168739
Si Si5 0.712363 0.012294 0.399746
Si Si6 0.786931 0.534381 0.805517
Si Si7 0.550367 0.297639 0.698578
O O1 0.735298 0.271274 0.985725
O O2 0.686544 0.430294 0.897492
O O3 0.042169 0.327347 0.780510
O O4 0.737874 0.147869 0.870315
O O5 0.349032 0.318596 0.568245
O O6 0.520164 0.104034 0.443169
O O7 0.594013 0.354581 0.369620
O O8 0.778832 0.387024 0.164952
O O9 0.864400 0.561581 0.214379
O O10 0.793253 0.649092 0.116791
O O11 0.141802 0.494418 0.004380
O O12 0.954237 0.183148 0.161043
O O13 0.918512 0.102185 0.299953
O O14 0.987693 0.639625 0.741842
#
# Coordination Sequence:
#
# PCOD9134831 Si02
#       7
#     4   4   4   4   4   4   4
#     4  12  22  41  63  93 128 158 212 267 303 381
#     4  10  22  43  60  91 127 168 204 254 321 367
#     4  10  20  41  65  93 125 168 210 258 315 372
#     4  10  21  39  67  90 122 174 205 252 324 366
#     4  10  21  38  66  91 120 168 209 250 319 367
#     4  10  23  40  60  95 124 160 213 255 314 371
#     4  10  19  44  65  87 134 166 205 264 308 378
#
# _framework density 23.355454000000002
#
# number of rings (size 3 to 8) (size 9 to 14) (size 15 to 20)
#    0.000    1.714    5.714    0.000    2.000    3.429 
#    2.571    2.857    0.000    0.000    0.000    0.000 
#    0.000    0.000    0.000    0.000    0.000    0.000 
#
# Total GULP energy -77993.773130 kJ/mol
# GULP energy per Si atom -5570.983795 kJ/mol
# Density = 2.330230 g / cm^3
# Si number density = 23.355454 Si / 1000 Ang^3
#
#
#
# Elastic Constant Matrix: (Units=GPa)
#
#
# Indices 1 2 3 4 5 6 
#
# 1 77.1876 44.4051 31.3049 0.0000 8.8978 0.0000
# 2 44.4051 99.0399 20.0530 0.0000 14.9885 0.0000
# 3 31.3049 20.0530 101.6673 0.0000 26.9617 0.0000
# 4 0.0000 0.0000 0.0000 21.7352 0.0000 -0.6712
# 5 8.8978 14.9885 26.9617 0.0000 34.1756 0.0000
# 6 0.0000 0.0000 0.0000 -0.6712 0.0000 30.7989
#
#
#
# Elastic Compliance Matrix: (Units=1/GPa)
#
#
# Indices 1 2 3 4 5 6 
#
# 1 0.019320 -0.008016 -0.005015 0.000000 0.002442 0.000000
# 2 -0.008016 0.014240 0.000964 0.000000 -0.004919 0.000000
# 3 -0.005015 0.000964 0.013855 0.000000 -0.010047 0.000000
# 4 0.000000 0.000000 0.000000 0.046039 0.000000 0.001003
# 5 0.002442 -0.004919 -0.010047 0.000000 0.038708 0.000000
# 6 0.000000 0.000000 0.000000 0.001003 0.000000 0.032491
#
#
# Mechanical properties :
#
#
# Convention : Reuss Voigt Hill
#
# Bulk Modulus (GPa) = 42.95661 52.15787 47.55724
# Shear Modulus (GPa) = 25.43914 29.48408 27.46161
#
# Velocity S-wave (km/s) = 3.30391 3.55689 3.43273
# Velocity P-wave (km/s) = 5.74342 6.26493 6.00983
#
# Compressibility (1/GPa) = 0.02327931
#
# Stress axis : x y z
#
# Youngs Moduli (GPa) = 51.76090 70.22339 72.17809
#
# Poissons Ratio (x) = 0.56292 0.36200
# Poissons Ratio (y) = 0.41493 -0.06958
# Poissons Ratio (z) = 0.25960 -0.06769
#
# Static dielectric constant tensor:
#      x y z
#    x 2.018120 0.000000 0.027510 
#    y 0.000000 1.876730 0.000000 
#    z 0.027510 0.000000 1.981690 
# 
# From -- ./inp_files/24066.got.cif
#   From: 2010.05.17/outbox.cif.g08.bks.cpg/sg9_13_cif.got.tgz:24066.got - 2010.06.03 20:04:27.
