data_PCOD9134936
_publ_section_title
;
Structure prediction by ZEFSAII (Michael W. Deem and Ramdas Pophale) SiO2 
 PCOD9134936
Probable space group: C C
;
_chemical_formula_sum "Si O2"
_cell_formula_units_Z 32
_cell_length_a 17.207611
_cell_length_b 9.352455
_cell_length_c 21.245163
_cell_angle_alpha 90.000000
_cell_angle_beta 21.722844
_cell_angle_gamma 90.000000
_cell_volume 1265.451527
_symmetry_space_group_name_H-M "C C"
_symmetry_group_IT_number 9
_symmetry_cell_setting 'monoclinic'
loop_
_space_group_symop_operation_xyz
x,y,z
x,-y,1/2+z
1/2+x,1/2+y,z
1/2+x,1/2-y,1/2+z
loop_
_atom_site_type_symbol
_atom_site_label
_atom_site_fract_x
_atom_site_fract_y
_atom_site_fract_z
Si Si1 0.426790 0.774973 0.600170
Si Si2 0.666616 0.783504 0.547528
Si Si3 0.441146 0.931521 0.249397
Si Si4 0.636574 0.047853 0.409862
Si Si5 0.991971 0.088409 0.447350
Si Si6 0.227772 0.168114 0.788654
Si Si7 0.503165 0.470509 0.233609
Si Si8 0.376562 0.283981 0.902384
O O1 0.574399 0.744479 0.548092
O O2 0.229980 0.857051 0.776586
O O3 0.371062 0.639239 0.600135
O O4 0.542686 0.891225 0.468067
O O5 0.676472 0.636178 0.577247
O O6 0.876480 0.870535 0.377650
O O7 0.507515 0.902387 0.697002
O O8 0.259493 0.886533 0.337317
O O9 0.394213 0.866948 0.353711
O O10 0.643962 0.848445 0.067711
O O11 0.440706 0.124315 0.592658
O O12 0.699783 0.162114 0.310277
O O13 0.838191 0.016578 0.302812
O O14 0.915258 0.175961 0.445170
O O15 0.027523 0.919666 0.412869
O O16 0.546237 0.616019 0.237528
#
# Coordination Sequence:
#
# PCOD9134936 Si02
#       8
#     4   4   4   4   4   4   4   4
#     4  10  20  39  57  88 122 153 199 249 298 358
#     4  10  20  35  59  86 115 147 197 253 286 344
#     4  11  20  40  60  88 122 153 209 246 297 355
#     4  10  20  35  58  86 117 145 197 250 289 344
#     4  11  23  39  61  87 126 159 199 246 311 362
#     4  11  20  39  58  91 116 155 201 253 289 351
#     4  10  20  37  55  86 117 151 196 245 299 352
#     4  11  23  40  60  88 123 163 194 252 307 366
#
# _framework density 25.287416
#
# number of rings (size 3 to 8) (size 9 to 14) (size 15 to 20)
#    0.000    1.500    6.250    2.250    0.000    3.000 
#    0.000    6.250    0.000    0.000    0.000    0.000 
#    0.000    0.000    0.000    0.000    0.000    0.000 
#
# Total GULP energy -89419.996841 kJ/mol
# GULP energy per Si atom -5588.749803 kJ/mol
# Density = 2.522986 g / cm^3
# Si number density = 25.287416 Si / 1000 Ang^3
#
#
#
# Elastic Constant Matrix: (Units=GPa)
#
#
# Indices 1 2 3 4 5 6 
#
# 1 60.1964 22.5250 0.6823 -0.0012 14.8163 0.0014
# 2 22.5250 137.7917 43.9616 -0.0060 19.7489 0.0013
# 3 0.6823 43.9616 43.0160 -0.0112 5.2446 0.0038
# 4 -0.0012 -0.0060 -0.0112 60.7930 0.0009 14.4649
# 5 14.8163 19.7489 5.2446 0.0009 18.0812 -0.0006
# 6 0.0014 0.0013 0.0038 14.4649 -0.0006 28.1372
#
#
#
# Elastic Compliance Matrix: (Units=1/GPa)
#
#
# Indices 1 2 3 4 5 6 
#
# 1 0.021466 -0.002564 0.004233 0.000002 -0.016017 -0.000003
# 2 -0.002564 0.012653 -0.011882 -0.000001 -0.008273 0.000002
# 3 0.004233 -0.011882 0.035416 0.000007 -0.000763 -0.000008
# 4 0.000002 -0.000001 0.000007 0.018742 -0.000003 -0.009635
# 5 -0.016017 -0.008273 -0.000763 -0.000003 0.077688 0.000005
# 6 -0.000003 0.000002 -0.000008 -0.009635 0.000005 0.040493
#
#
# Mechanical properties :
#
#
# Convention : Reuss Voigt Hill
#
# Bulk Modulus (GPa) = 20.36284 41.70466 31.03375
# Shear Modulus (GPa) = 20.55466 32.99130 26.77298
#
# Velocity S-wave (km/s) = 2.85413 3.61592 3.25737
# Velocity P-wave (km/s) = 4.35103 5.82762 5.14260
#
# Compressibility (1/GPa) = 0.04910905
#
# Stress axis : x y z
#
# Youngs Moduli (GPa) = 46.58521 79.03313 28.23573
#
# Poissons Ratio (x) = 0.20262 -0.11951
# Poissons Ratio (y) = 0.11943 0.33549
# Poissons Ratio (z) = -0.19718 0.93906
#
# Static dielectric constant tensor:
#      x y z
#    x 1.994530 0.000000 0.001330 
#    y 0.000000 2.036710 0.000000 
#    z 0.001330 0.000000 2.076420 
# 
# From -- ./inp_files/34030.got.cif
#   From: 2010.05.17/outbox.cif.g08.bks.cpg/sg9_18_cif.got.tgz:34030.got - 2010.06.03 20:04:27.
