data_PCOD9134192
_publ_section_title
;
Structure prediction by ZEFSAII (Michael W. Deem and Ramdas Pophale) SiO2 
 PCOD9134192
Probable space group: C C
;
_chemical_formula_sum "Si O2"
_cell_formula_units_Z 28
_cell_length_a 12.422395
_cell_length_b 6.907117
_cell_length_c 24.658765
_cell_angle_alpha 90.000000
_cell_angle_beta 146.343131
_cell_angle_gamma 90.000000
_cell_volume 1172.611342
_symmetry_space_group_name_H-M "C C"
_symmetry_group_IT_number 9
_symmetry_cell_setting 'monoclinic'
loop_
_space_group_symop_operation_xyz
x,y,z
x,-y,1/2+z
1/2+x,1/2+y,z
1/2+x,1/2-y,1/2+z
loop_
_atom_site_type_symbol
_atom_site_label
_atom_site_fract_x
_atom_site_fract_y
_atom_site_fract_z
Si Si1 0.393680 0.363594 0.728230
Si Si2 0.533417 0.047252 0.016685
Si Si3 0.327532 0.140016 0.536829
Si Si4 0.188479 0.557835 0.901797
Si Si5 0.655548 0.275904 0.319920
Si Si6 0.026999 0.151292 0.964954
Si Si7 0.198069 0.554308 0.751036
O O1 0.535183 0.190747 0.804555
O O2 0.520988 0.539202 0.758351
O O3 0.299735 0.447598 0.743679
O O4 0.211436 0.325096 0.612733
O O5 0.408322 0.968194 0.016238
O O6 0.377226 0.152948 0.914012
O O7 0.610744 0.854225 0.019957
O O8 0.221706 0.335171 0.472506
O O9 0.182531 0.994994 0.506115
O O10 0.516348 0.173710 0.652721
O O11 0.123441 0.338602 0.863641
O O12 0.400818 0.568268 0.962310
O O13 0.128387 0.383559 0.762138
O O14 0.357752 0.321558 0.349428
#
# Coordination Sequence:
#
# PCOD9134192 Si02
#       7
#     4   4   4   4   4   4   4
#     4  11  21  47  65  94 142 174 221 290 332 405
#     4  10  22  40  69  97 136 183 223 279 349 398
#     4  10  19  41  67  96 138 177 224 283 335 405
#     4  10  22  41  66  96 136 174 227 280 339 397
#     4  11  22  45  67  99 136 178 228 279 340 408
#     4  10  18  40  64  94 135 174 217 280 330 399
#     4  10  22  38  68 100 129 176 228 273 339 404
#
# _framework density 23.878330999999999
#
# number of rings (size 3 to 8) (size 9 to 14) (size 15 to 20)
#    0.000    1.714    4.286    0.857    0.000    0.000 
#   25.714    1.429    0.000    0.000    0.000    0.000 
#    0.000    0.000    0.000    0.000    0.000    0.000 
#
# Total GULP energy -78340.589513 kJ/mol
# GULP energy per Si atom -5595.756394 kJ/mol
# Density = 2.382398 g / cm^3
# Si number density = 23.878331 Si / 1000 Ang^3
#
#
#
# Elastic Constant Matrix: (Units=GPa)
#
#
# Indices 1 2 3 4 5 6 
#
# 1 97.5224 23.7233 17.2501 0.0000 15.3447 0.0000
# 2 23.7233 51.7913 15.8834 0.0000 9.6952 0.0000
# 3 17.2501 15.8834 122.6441 -0.0001 -1.9707 0.0000
# 4 0.0000 0.0000 -0.0001 4.8487 0.0000 19.3243
# 5 15.3447 9.6952 -1.9707 0.0000 29.4695 0.0000
# 6 0.0000 0.0000 0.0000 19.3243 0.0000 31.9034
#
#
#
# Elastic Compliance Matrix: (Units=1/GPa)
#
#
# Indices 1 2 3 4 5 6 
#
# 1 0.012324 -0.004308 -0.001257 0.000000 -0.005084 0.000000
# 2 -0.004308 0.023071 -0.002471 0.000000 -0.005512 0.000000
# 3 -0.001257 -0.002471 0.008683 0.000000 0.002048 0.000000
# 4 0.000000 0.000000 0.000000 -0.145853 0.000000 0.088345
# 5 -0.005084 -0.005512 0.002048 0.000000 0.038531 0.000000
# 6 0.000000 0.000000 0.000000 0.088345 0.000000 -0.022167
#
#
# Mechanical properties :
#
#
# Convention : Reuss Voigt Hill
#
# Bulk Modulus (GPa) = 35.70489 42.85238 39.27863
# Shear Modulus (GPa) = -83.33019 27.58440 -27.87289
#
# Velocity S-wave (km/s) = -5.91385 3.40252 -3.42027
# Velocity P-wave (km/s) = 5.62549 5.78111 0.94211
#
# Compressibility (1/GPa) = 0.02800737
#
# Stress axis : x y z
#
# Youngs Moduli (GPa) = 81.14024 43.34428 115.16264
#
# Poissons Ratio (x) = 0.18673 0.14478
# Poissons Ratio (y) = 0.34955 0.28451
# Poissons Ratio (z) = 0.10201 0.10708
#
# Static dielectric constant tensor:
#      x y z
#    x 1.992730 0.000000 -0.016890 
#    y 0.000000 1.882900 0.000000 
#    z -0.016890 0.000000 1.874690 
# 
# From -- ./inp_files/36523.got.cif
#   From: 2010.05.17/outbox.cif.g08.bks.cpg/sg9_19_cif.got.tgz:36523.got - 2010.06.03 20:04:27.
