data_PCOD9134114
_publ_section_title
;
Structure prediction by ZEFSAII (Michael W. Deem and Ramdas Pophale) SiO2 
 PCOD9134114
Probable space group: C C
;
_chemical_formula_sum "Si O2"
_cell_formula_units_Z 32
_cell_length_a 15.262311
_cell_length_b 14.857816
_cell_length_c 8.976107
_cell_angle_alpha 90.000000
_cell_angle_beta 32.988269
_cell_angle_gamma 90.000000
_cell_volume 1108.243277
_symmetry_space_group_name_H-M "C C"
_symmetry_group_IT_number 9
_symmetry_cell_setting 'monoclinic'
loop_
_space_group_symop_operation_xyz
x,y,z
x,-y,1/2+z
1/2+x,1/2+y,z
1/2+x,1/2-y,1/2+z
loop_
_atom_site_type_symbol
_atom_site_label
_atom_site_fract_x
_atom_site_fract_y
_atom_site_fract_z
Si Si1 0.590820 0.988766 0.753420
Si Si2 0.406033 0.421367 0.945190
Si Si3 0.214939 0.740321 0.622738
Si Si4 0.119818 0.996804 0.896241
Si Si5 0.567165 0.807462 0.615979
Si Si6 0.175126 0.128039 0.585307
Si Si7 0.445270 0.118032 0.723059
Si Si8 0.891882 0.774888 0.596493
O O1 0.616995 0.905350 0.601528
O O2 0.753072 0.020353 0.606270
O O3 0.523700 0.070934 0.752858
O O4 0.471907 0.953311 0.052304
O O5 0.539284 0.434466 0.628332
O O6 0.351229 0.317891 0.015324
O O7 0.481042 0.450418 0.994024
O O8 0.238369 0.707955 0.417915
O O9 0.270357 0.843660 0.524265
O O10 0.068022 0.713289 0.939041
O O11 0.189420 0.924229 0.910856
O O12 0.233715 0.055008 0.624126
O O13 0.682795 0.732055 0.522378
O O14 0.395387 0.784544 0.941008
O O15 0.986522 0.136866 0.911754
O O16 0.494388 0.210058 0.561786
#
# Coordination Sequence:
#
# PCOD9134114 Si02
#       8
#     4   4   4   4   4   4   4   4
#     4  11  20  38  62  93 124 168 211 264 323 368
#     4  11  20  33  58  95 119 154 214 268 305 379
#     4  10  18  37  57  84 122 160 203 256 312 376
#     4  10  19  33  60  87 122 159 209 261 321 362
#     4   9  18  35  60  87 123 167 208 256 314 386
#     4   9  18  37  57  86 123 168 200 262 325 376
#     4   9  20  36  58  84 126 166 203 258 318 378
#     4   7  17  35  56  78 123 160 192 261 310 363
#
# _framework density 28.874528000000002
#
# number of rings (size 3 to 8) (size 9 to 14) (size 15 to 20)
#    1.500    1.000    1.250    2.250    0.000    0.000 
#    4.500    1.250    0.000    0.000    0.000    0.000 
#    0.000    0.000    0.000    0.000    0.000    0.000 
#
# Total GULP energy -89270.354450 kJ/mol
# GULP energy per Si atom -5579.397153 kJ/mol
# Density = 2.880881 g / cm^3
# Si number density = 28.874528 Si / 1000 Ang^3
#
#
#
# Elastic Constant Matrix: (Units=GPa)
#
#
# Indices 1 2 3 4 5 6 
#
# 1 118.0867 58.2708 48.9469 -0.0001 14.0288 0.0003
# 2 58.2708 160.4735 58.4313 0.0000 -7.8405 0.0000
# 3 48.9469 58.4313 209.9889 0.0000 53.0529 0.0002
# 4 -0.0001 0.0000 0.0000 61.9914 0.0000 20.0998
# 5 14.0288 -7.8405 53.0529 0.0000 34.8348 -0.0002
# 6 0.0003 0.0000 0.0002 20.0998 -0.0002 22.8839
#
#
#
# Elastic Compliance Matrix: (Units=1/GPa)
#
#
# Indices 1 2 3 4 5 6 
#
# 1 0.011279 -0.004348 -0.000040 0.000000 -0.005461 0.000000
# 2 -0.004348 0.009983 -0.004510 0.000000 0.010867 0.000000
# 3 -0.000040 -0.004510 0.010206 0.000000 -0.016542 0.000000
# 4 0.000000 0.000000 0.000000 0.022555 0.000000 -0.019810
# 5 -0.005461 0.010867 -0.016542 0.000000 0.058545 0.000001
# 6 0.000000 0.000000 0.000000 -0.019810 0.000001 0.061099
#
#
# Mechanical properties :
#
#
# Convention : Reuss Voigt Hill
#
# Bulk Modulus (GPa) = 73.13599 91.09412 82.11506
# Shear Modulus (GPa) = 25.50764 45.46869 35.48816
#
# Velocity S-wave (km/s) = 2.97542 3.97255 3.50958
# Velocity P-wave (km/s) = 6.09820 7.25661 6.70248
#
# Compressibility (1/GPa) = 0.01367316
#
# Stress axis : x y z
#
# Youngs Moduli (GPa) = 88.65991 100.16559 97.98530
#
# Poissons Ratio (x) = 0.43552 0.00388
# Poissons Ratio (y) = 0.38550 0.44190
# Poissons Ratio (z) = 0.00351 0.45174
#
# Static dielectric constant tensor:
#      x y z
#    x 2.267370 0.000000 -0.046220 
#    y 0.000000 2.328970 0.000000 
#    z -0.046220 0.000000 2.352360 
# 
# From -- ./inp_files/10947.got.cif
#   From: 2010.05.17/outbox.cif.g08.bks.cpg/sg9_6_cif.got.tgz:10947.got - 2010.06.03 20:04:27.
