data_PCOD9134537
_publ_section_title
;
Structure prediction by ZEFSAII (Michael W. Deem and Ramdas Pophale) SiO2 
 PCOD9134537
Probable space group: C C
;
_chemical_formula_sum "Si O2"
_cell_formula_units_Z 32
_cell_length_a 12.332645
_cell_length_b 20.206137
_cell_length_c 9.575787
_cell_angle_alpha 90.000000
_cell_angle_beta 139.840044
_cell_angle_gamma 90.000000
_cell_volume 1538.942334
_symmetry_space_group_name_H-M "C C"
_symmetry_group_IT_number 9
_symmetry_cell_setting 'monoclinic'
loop_
_space_group_symop_operation_xyz
x,y,z
x,-y,1/2+z
1/2+x,1/2+y,z
1/2+x,1/2-y,1/2+z
loop_
_atom_site_type_symbol
_atom_site_label
_atom_site_fract_x
_atom_site_fract_y
_atom_site_fract_z
Si Si1 0.227670 0.150641 0.570010
Si Si2 0.131286 0.826830 0.378960
Si Si3 0.310881 0.322753 0.408547
Si Si4 0.443501 0.919420 0.633125
Si Si5 0.820463 0.487364 0.260181
Si Si6 0.127612 0.110409 0.178865
Si Si7 0.242170 0.321356 0.011847
Si Si8 0.522870 0.229194 0.804693
O O1 0.214376 0.076425 0.608051
O O2 0.232568 0.142008 0.406891
O O3 0.401855 0.185334 0.779181
O O4 0.090310 0.207528 0.457402
O O5 0.273620 0.874253 0.453776
O O6 0.142389 0.845277 0.554820
O O7 0.183752 0.751296 0.406580
O O8 0.933479 0.836553 0.150118
O O9 0.433360 0.386052 0.534409
O O10 0.249280 0.317724 0.189049
O O11 0.431082 0.263035 0.580527
O O12 0.164640 0.317278 0.377907
O O13 0.456764 0.959787 0.502936
O O14 0.404262 0.972365 0.716608
O O15 0.603109 0.874499 0.828056
O O16 0.697575 0.538645 0.215365
#
# Coordination Sequence:
#
# PCOD9134537 Si02
#       8
#     4   4   4   4   4   4   4   4
#     4  10  19  37  63  84 124 156 207 251 304 370
#     4  10  20  36  62 100 126 159 206 262 314 366
#     4   9  17  29  58  93 125 150 204 256 302 359
#     4  11  25  42  67  89 127 170 210 254 313 376
#     4  11  23  44  63  85 124 175 204 243 317 380
#     4   9  19  35  61  89 117 165 206 248 300 366
#     4  11  19  35  62  98 126 159 207 267 311 361
#     4   9  18  32  58  98 119 156 200 259 315 350
#
# _framework density 20.793500999999999
#
# number of rings (size 3 to 8) (size 9 to 14) (size 15 to 20)
#    0.000    2.000    2.500    3.000    3.500    0.000 
#    2.250    5.000   16.500    0.000    0.000    0.000 
#    0.000    0.000    0.000    0.000    0.000    0.000 
#
# Total GULP energy -89238.964996 kJ/mol
# GULP energy per Si atom -5577.435312 kJ/mol
# Density = 2.074617 g / cm^3
# Si number density = 20.793501 Si / 1000 Ang^3
#
#
#
# Elastic Constant Matrix: (Units=GPa)
#
#
# Indices 1 2 3 4 5 6 
#
# 1 33.5970 27.5360 28.4915 0.0000 3.3377 0.0000
# 2 27.5360 131.2638 54.0207 0.0000 4.3839 0.0000
# 3 28.4915 54.0207 87.6949 0.0000 15.8434 0.0000
# 4 0.0000 0.0000 0.0000 28.9380 0.0000 -1.7030
# 5 3.3377 4.3839 15.8434 0.0000 20.9906 0.0000
# 6 0.0000 0.0000 0.0000 -1.7030 0.0000 16.4572
#
#
#
# Elastic Compliance Matrix: (Units=1/GPa)
#
#
# Indices 1 2 3 4 5 6 
#
# 1 0.043041 -0.004219 -0.011935 0.000000 0.003046 0.000000
# 2 -0.004219 0.010788 -0.005777 0.000000 0.002778 0.000000
# 3 -0.011935 -0.005777 0.021164 0.000000 -0.012870 0.000000
# 4 0.000000 0.000000 0.000000 0.034768 0.000000 0.003598
# 5 0.003046 0.002778 -0.012870 0.000000 0.056290 0.000000
# 6 0.000000 0.000000 0.000000 0.003598 0.000000 0.061136
#
#
# Mechanical properties :
#
#
# Convention : Reuss Voigt Hill
#
# Bulk Modulus (GPa) = 32.12102 52.51689 42.31896
# Shear Modulus (GPa) = 17.76663 22.77767 20.27215
#
# Velocity S-wave (km/s) = 2.92624 3.31331 3.12577
# Velocity P-wave (km/s) = 5.18636 6.32049 5.78130
#
# Compressibility (1/GPa) = 0.03113226
#
# Stress axis : x y z
#
# Youngs Moduli (GPa) = 23.23356 92.69744 47.24910
#
# Poissons Ratio (x) = 0.39108 0.56393
# Poissons Ratio (y) = 0.09802 0.27294
# Poissons Ratio (z) = 0.27730 0.53547
#
# Static dielectric constant tensor:
#      x y z
#    x 1.788240 0.000000 -0.002500 
#    y 0.000000 1.833880 0.000000 
#    z -0.002500 0.000000 1.796050 
# 
# From -- ./inp_files/8065.got.cif
#   From: 2010.05.17/outbox.cif.g08.bks.cpg/sg9_5_cif.got.tgz:8065.got - 2010.06.03 20:04:27.
