data_PCOD9134558
_publ_section_title
;
Structure prediction by ZEFSAII (Michael W. Deem and Ramdas Pophale) SiO2 
 PCOD9134558
Probable space group: C C
;
_chemical_formula_sum "Si O2"
_cell_formula_units_Z 32
_cell_length_a 9.027462
_cell_length_b 12.573745
_cell_length_c 17.546777
_cell_angle_alpha 90.000000
_cell_angle_beta 42.603424
_cell_angle_gamma 90.000000
_cell_volume 1348.233124
_symmetry_space_group_name_H-M "C C"
_symmetry_group_IT_number 9
_symmetry_cell_setting 'monoclinic'
loop_
_space_group_symop_operation_xyz
x,y,z
x,-y,1/2+z
1/2+x,1/2+y,z
1/2+x,1/2-y,1/2+z
loop_
_atom_site_type_symbol
_atom_site_label
_atom_site_fract_x
_atom_site_fract_y
_atom_site_fract_z
Si Si1 0.959560 0.256770 0.470210
Si Si2 0.575598 0.646834 0.189768
Si Si3 0.911692 0.634642 0.470530
Si Si4 0.720598 0.324665 0.312076
Si Si5 0.369708 0.357203 0.353722
Si Si6 0.938695 0.942336 0.165265
Si Si7 0.292829 0.571004 0.438140
Si Si8 0.474437 0.063291 0.833857
O O1 0.822561 0.315243 0.588266
O O2 0.854808 0.145682 0.485031
O O3 0.210903 0.257182 0.402425
O O4 0.940014 0.334432 0.403063
O O5 0.425541 0.748079 0.231417
O O6 0.530546 0.560890 0.140487
O O7 0.484812 0.601903 0.303782
O O8 0.649591 0.630874 0.574801
O O9 0.015444 0.750388 0.415628
O O10 0.058957 0.597431 0.487406
O O11 0.961891 0.546793 0.385523
O O12 0.629995 0.349895 0.263556
O O13 0.786924 0.421038 0.341208
O O14 0.338028 0.416306 0.285885
O O15 0.300599 0.443996 0.443265
O O16 0.715204 0.932842 0.203004
#
# Coordination Sequence:
#
# PCOD9134558 Si02
#       8
#     4   4   4   4   4   4   4   4
#     4  11  20  38  68  85 122 170 207 257 318 381
#     4  10  19  37  65  89 117 160 213 257 319 384
#     4  11  20  39  66  88 123 170 214 254 319 381
#     4  11  24  38  59  93 131 158 209 269 314 382
#     4  10  23  40  57  92 128 160 206 267 317 372
#     4  10  20  38  65  86 116 168 212 253 323 384
#     4  10  20  39  63  93 120 166 215 259 308 395
#     4  11  20  39  63  90 125 164 210 262 310 387
#
# _framework density 23.734767999999999
#
# number of rings (size 3 to 8) (size 9 to 14) (size 15 to 20)
#    0.000    1.500    8.750    0.000    1.750    2.000 
#    0.000    0.000    0.000    0.000    0.000    0.000 
#    0.000    0.000    0.000    0.000    0.000    0.000 
#
# Total GULP energy -89187.520720 kJ/mol
# GULP energy per Si atom -5574.220045 kJ/mol
# Density = 2.368075 g / cm^3
# Si number density = 23.734768 Si / 1000 Ang^3
#
#
#
# Elastic Constant Matrix: (Units=GPa)
#
#
# Indices 1 2 3 4 5 6 
#
# 1 109.5068 34.1937 22.4526 -0.0001 -23.8154 0.0000
# 2 34.1937 93.3329 12.1542 -0.0001 -3.3851 0.0000
# 3 22.4526 12.1542 86.0050 -0.0001 -23.1615 0.0000
# 4 -0.0001 -0.0001 -0.0001 21.9795 0.0001 0.3811
# 5 -23.8154 -3.3851 -23.1615 0.0001 27.9854 0.0000
# 6 0.0000 0.0000 0.0000 0.3811 0.0000 34.9293
#
#
#
# Elastic Compliance Matrix: (Units=1/GPa)
#
#
# Indices 1 2 3 4 5 6 
#
# 1 0.012709 -0.004291 0.000079 0.000000 0.010361 0.000000
# 2 -0.004291 0.012364 -0.001554 0.000000 -0.003442 0.000000
# 3 0.000079 -0.001554 0.015176 0.000000 0.012439 0.000000
# 4 0.000000 0.000000 0.000000 0.045506 0.000000 -0.000497
# 5 0.010361 -0.003442 0.012439 0.000000 0.054429 0.000000
# 6 0.000000 0.000000 0.000000 -0.000497 0.000000 0.028635
#
#
# Mechanical properties :
#
#
# Convention : Reuss Voigt Hill
#
# Bulk Modulus (GPa) = 34.82201 47.38285 41.10243
# Shear Modulus (GPa) = 26.32660 31.64847 28.98753
#
# Velocity S-wave (km/s) = 3.33408 3.65557 3.49852
# Velocity P-wave (km/s) = 5.43365 6.15015 5.80297
#
# Compressibility (1/GPa) = 0.02871747
#
# Stress axis : x y z
#
# Youngs Moduli (GPa) = 78.68580 80.88151 65.89258
#
# Poissons Ratio (x) = 0.34702 -0.00520
# Poissons Ratio (y) = 0.33760 0.10240
# Poissons Ratio (z) = -0.00621 0.12569
#
# Static dielectric constant tensor:
#      x y z
#    x 2.179760 0.000000 -0.019930 
#    y 0.000000 2.005950 0.000000 
#    z -0.019930 0.000000 1.934350 
# 
# From -- ./inp_files/32704.got.cif
#   From: 2010.05.17/outbox.cif.g08.bks.cpg/sg9_17_cif.got.tgz:32704.got - 2010.06.03 20:04:27.
