data_PCOD9134658
_publ_section_title
;
Structure prediction by ZEFSAII (Michael W. Deem and Ramdas Pophale) SiO2 
 PCOD9134658
Probable space group: C C
;
_chemical_formula_sum "Si O2"
_cell_formula_units_Z 28
_cell_length_a 24.964735
_cell_length_b 7.127031
_cell_length_c 15.438034
_cell_angle_alpha 90.000000
_cell_angle_beta 21.574448
_cell_angle_gamma 90.000000
_cell_volume 1010.026771
_symmetry_space_group_name_H-M "C C"
_symmetry_group_IT_number 9
_symmetry_cell_setting 'monoclinic'
loop_
_space_group_symop_operation_xyz
x,y,z
x,-y,1/2+z
1/2+x,1/2+y,z
1/2+x,1/2-y,1/2+z
loop_
_atom_site_type_symbol
_atom_site_label
_atom_site_fract_x
_atom_site_fract_y
_atom_site_fract_z
Si Si1 0.827730 0.498430 0.745340
Si Si2 0.449526 0.009958 0.879206
Si Si3 0.650128 0.021471 0.420095
Si Si4 0.941567 0.893899 0.555554
Si Si5 0.262603 0.331915 0.091444
Si Si6 0.236510 0.065245 0.562704
Si Si7 0.529535 0.449234 0.601028
O O1 0.939730 0.482571 0.496854
O O2 0.829635 0.403551 0.836366
O O3 0.666260 0.463940 0.946637
O O4 0.851228 0.719312 0.728806
O O5 0.320111 0.889432 0.026719
O O6 0.581285 0.962426 0.616546
O O7 0.392749 0.218255 0.943435
O O8 0.646924 0.915654 0.332511
O O9 0.580925 0.229358 0.513881
O O10 0.822128 0.010491 0.177435
O O11 0.009402 0.009776 0.532242
O O12 0.081919 0.836851 0.289093
O O13 0.206891 0.161870 0.113588
O O14 0.366910 0.475888 0.883672
#
# Coordination Sequence:
#
# PCOD9134658 Si02
#       7
#     4   4   4   4   4   4   4
#     4  11  20  38  68  84 131 170 203 266 320 376
#     4   9  21  40  61  90 131 160 208 270 313 378
#     4  10  21  38  64  91 126 168 213 258 322 378
#     4  11  21  39  61  95 119 167 225 248 314 389
#     4   9  19  40  61  87 128 160 213 260 321 375
#     4  10  21  40  65  91 123 168 214 254 327 374
#     4  10  19  39  60  92 124 167 210 260 315 376
#
# _framework density 27.722035999999999
#
# number of rings (size 3 to 8) (size 9 to 14) (size 15 to 20)
#    0.857    1.143    2.857    0.857    0.000    1.143 
#    5.143    2.857    0.000    0.000    0.000    0.000 
#    0.000    0.000    0.000    0.000    0.000    0.000 
#
# Total GULP energy -78081.033011 kJ/mol
# GULP energy per Si atom -5577.216644 kJ/mol
# Density = 2.765894 g / cm^3
# Si number density = 27.722036 Si / 1000 Ang^3
#
#
#
# Elastic Constant Matrix: (Units=GPa)
#
#
# Indices 1 2 3 4 5 6 
#
# 1 138.9335 4.4257 44.8951 0.0000 21.8748 0.0000
# 2 4.4257 61.1361 26.8877 -0.0002 17.0755 0.0001
# 3 44.8951 26.8877 186.7984 0.0000 31.4700 0.0000
# 4 0.0000 -0.0002 0.0000 32.1002 0.0001 13.1809
# 5 21.8748 17.0755 31.4700 0.0001 63.3663 0.0000
# 6 0.0000 0.0001 0.0000 13.1809 0.0000 16.4716
#
#
#
# Elastic Compliance Matrix: (Units=1/GPa)
#
#
# Indices 1 2 3 4 5 6 
#
# 1 0.008056 0.000757 -0.001683 0.000000 -0.002149 0.000000
# 2 0.000757 0.018401 -0.002129 0.000000 -0.004163 0.000000
# 3 -0.001683 -0.002129 0.006406 0.000000 -0.002027 0.000000
# 4 0.000000 0.000000 0.000000 0.046398 0.000000 -0.037128
# 5 -0.002149 -0.004163 -0.002027 0.000000 0.018651 0.000000
# 6 0.000000 0.000000 0.000000 -0.037128 0.000000 0.090421
#
#
# Mechanical properties :
#
#
# Convention : Reuss Voigt Hill
#
# Bulk Modulus (GPa) = 37.37970 59.92056 48.65013
# Shear Modulus (GPa) = 24.58678 43.09826 33.84252
#
# Velocity S-wave (km/s) = 2.98132 3.94719 3.49776
# Velocity P-wave (km/s) = 5.03628 6.51425 5.82235
#
# Compressibility (1/GPa) = 0.02675249
#
# Stress axis : x y z
#
# Youngs Moduli (GPa) = 124.13393 54.34417 156.10877
#
# Poissons Ratio (x) = -0.04116 0.26274
# Poissons Ratio (y) = -0.09401 0.33242
# Poissons Ratio (z) = 0.20893 0.11572
#
# Static dielectric constant tensor:
#      x y z
#    x 2.205290 0.000000 0.012980 
#    y 0.000000 2.279760 0.000000 
#    z 0.012980 0.000000 2.224060 
# 
# From -- ./inp_files/28050.got.cif
#   From: 2010.05.17/outbox.cif.g08.bks.cpg/sg9_15_cif.got.tgz:28050.got - 2010.06.03 20:04:27.
