data_PCOD9134080
_publ_section_title
;
Structure prediction by ZEFSAII (Michael W. Deem and Ramdas Pophale) SiO2 
 PCOD9134080
Probable space group: C C
;
_chemical_formula_sum "Si O2"
_cell_formula_units_Z 32
_cell_length_a 15.575100
_cell_length_b 11.492089
_cell_length_c 8.817212
_cell_angle_alpha 90.000000
_cell_angle_beta 123.734902
_cell_angle_gamma 90.000000
_cell_volume 1312.453527
_symmetry_space_group_name_H-M "C C"
_symmetry_group_IT_number 9
_symmetry_cell_setting 'monoclinic'
loop_
_space_group_symop_operation_xyz
x,y,z
x,-y,1/2+z
1/2+x,1/2+y,z
1/2+x,1/2-y,1/2+z
loop_
_atom_site_type_symbol
_atom_site_label
_atom_site_fract_x
_atom_site_fract_y
_atom_site_fract_z
Si Si1 0.513820 0.572116 0.023350
Si Si2 0.443238 0.838968 0.430181
Si Si3 0.586631 0.743793 0.329684
Si Si4 0.746173 0.625350 0.138047
Si Si5 0.102829 0.479252 0.157793
Si Si6 0.468960 0.659350 0.666208
Si Si7 0.156807 0.659546 0.416992
Si Si8 0.293630 0.093776 0.511608
O O1 0.508241 0.669991 0.147939
O O2 0.633235 0.579194 0.083494
O O3 0.492056 0.449449 0.079761
O O4 0.447217 0.604782 0.810222
O O5 0.538426 0.771493 0.443411
O O6 0.396169 0.748404 0.503181
O O7 0.373026 0.869397 0.218742
O O8 0.493784 0.952355 0.556755
O O9 0.606957 0.864791 0.264345
O O10 0.689744 0.667717 0.441223
O O11 0.816190 0.614176 0.356561
O O12 0.774533 0.541794 0.027703
O O13 0.737637 0.758130 0.080015
O O14 0.181185 0.577925 0.297415
O O15 0.118847 0.433472 0.004546
O O16 0.566521 0.746592 0.791957
#
# Coordination Sequence:
#
# PCOD9134080 Si02
#       8
#     4   4   4   4   4   4   4   4
#     4  10  18  35  67  90 122 166 221 261 326 390
#     4  11  25  38  65  94 133 173 226 272 332 394
#     4  11  21  40  65  91 130 177 211 271 333 389
#     4  10  20  38  59  94 128 163 214 280 322 387
#     4  11  20  36  61  92 123 171 215 264 324 393
#     4  10  19  34  59  92 123 163 215 268 321 384
#     4  10  19  35  59  90 124 166 219 260 326 392
#     4  11  24  40  65  97 133 167 225 276 332 393
#
# _framework density 24.381815
#
# number of rings (size 3 to 8) (size 9 to 14) (size 15 to 20)
#    0.000    1.500    5.000    4.500    1.750    1.000 
#    0.000    0.000   11.000    0.000    0.000    0.000 
#    0.000    0.000    0.000    0.000    0.000    0.000 
#
# Total GULP energy -89457.973082 kJ/mol
# GULP energy per Si atom -5591.123318 kJ/mol
# Density = 2.432632 g / cm^3
# Si number density = 24.381815 Si / 1000 Ang^3
#
#
#
# Elastic Constant Matrix: (Units=GPa)
#
#
# Indices 1 2 3 4 5 6 
#
# 1 36.9681 22.2986 4.2366 0.0000 -7.1856 0.0000
# 2 22.2986 186.8454 74.7048 0.0000 -3.1295 0.0000
# 3 4.2366 74.7048 138.2674 0.0000 -13.0260 0.0000
# 4 0.0000 0.0000 0.0000 68.2425 0.0000 -17.9891
# 5 -7.1856 -3.1295 -13.0260 0.0000 20.6683 0.0000
# 6 0.0000 0.0000 0.0000 -17.9891 0.0000 31.5130
#
#
#
# Elastic Compliance Matrix: (Units=1/GPa)
#
#
# Indices 1 2 3 4 5 6 
#
# 1 0.031915 -0.004682 0.002690 0.000000 0.012082 0.000000
# 2 -0.004682 0.007550 -0.004233 0.000000 -0.003152 0.000000
# 3 0.002690 -0.004233 0.010062 0.000000 0.006636 0.000000
# 4 0.000000 0.000000 0.000000 0.017249 0.000000 0.009847
# 5 0.012082 -0.003152 0.006636 0.000000 0.056289 0.000000
# 6 0.000000 0.000000 0.000000 0.009847 0.000000 0.037354
#
#
# Mechanical properties :
#
#
# Convention : Reuss Voigt Hill
#
# Bulk Modulus (GPa) = 26.97069 62.72898 44.84984
# Shear Modulus (GPa) = 26.99379 41.47414 34.23397
#
# Velocity S-wave (km/s) = 3.33096 4.12883 3.75117
# Velocity P-wave (km/s) = 5.08720 6.96514 6.09889
#
# Compressibility (1/GPa) = 0.03707728
#
# Stress axis : x y z
#
# Youngs Moduli (GPa) = 31.33367 132.44357 99.38269
#
# Poissons Ratio (x) = 0.62009 -0.26733
# Poissons Ratio (y) = 0.14670 0.42068
# Poissons Ratio (z) = -0.08429 0.56062
#
# Static dielectric constant tensor:
#      x y z
#    x 2.014050 0.000000 0.024070 
#    y 0.000000 1.904290 0.000000 
#    z 0.024070 0.000000 2.018270 
# 
# From -- ./inp_files/11597.got.cif
#   From: 2010.05.17/outbox.cif.g08.bks.cpg/sg9_6_cif.got.tgz:11597.got - 2010.06.03 20:04:27.
