data_PCOD9134139
_publ_section_title
;
Structure prediction by ZEFSAII (Michael W. Deem and Ramdas Pophale) SiO2 
 PCOD9134139
Probable space group: C C
;
_chemical_formula_sum "Si O2"
_cell_formula_units_Z 28
_cell_length_a 4.898583
_cell_length_b 22.088986
_cell_length_c 12.203333
_cell_angle_alpha 90.000000
_cell_angle_beta 129.545485
_cell_angle_gamma 90.000000
_cell_volume 1018.231040
_symmetry_space_group_name_H-M "C C"
_symmetry_group_IT_number 9
_symmetry_cell_setting 'monoclinic'
loop_
_space_group_symop_operation_xyz
x,y,z
x,-y,1/2+z
1/2+x,1/2+y,z
1/2+x,1/2-y,1/2+z
loop_
_atom_site_type_symbol
_atom_site_label
_atom_site_fract_x
_atom_site_fract_y
_atom_site_fract_z
Si Si1 0.862810 0.322236 0.153830
Si Si2 0.587804 0.638792 0.281744
Si Si3 0.304766 0.407688 0.926725
Si Si4 0.331072 0.986049 0.517092
Si Si5 0.787634 0.758524 0.428927
Si Si6 0.001199 0.881196 0.520363
Si Si7 0.862883 0.922010 0.255996
O O1 0.949983 0.294373 0.294038
O O2 0.201099 0.356308 0.183503
O O3 0.563012 0.373256 0.077287
O O4 0.764297 0.269236 0.043443
O O5 0.906005 0.590148 0.365537
O O6 0.802054 0.702016 0.349460
O O7 0.389705 0.629011 0.116924
O O8 0.495465 0.470252 0.950732
O O9 0.354063 0.367439 0.829571
O O10 0.665528 0.027427 0.633117
O O11 0.304417 0.932153 0.599062
O O12 0.249954 0.950116 0.382956
O O13 0.079278 0.812083 0.501889
O O14 0.769275 0.909825 0.362782
#
# Coordination Sequence:
#
# PCOD9134139 Si02
#       7
#     4   4   4   4   4   4   4
#     4   9  18  36  59  98 125 178 216 281 327 406
#     4  11  22  43  66  97 130 180 219 282 333 406
#     4  10  23  41  68  94 133 173 228 271 343 395
#     4   9  17  36  63  94 134 170 227 276 343 395
#     4  10  18  37  64  94 137 170 227 274 339 395
#     4   9  19  34  66  95 133 172 225 270 342 396
#     4   8  17  31  62  90 132 171 222 278 331 407
#
# _framework density 27.498671000000002
#
# number of rings (size 3 to 8) (size 9 to 14) (size 15 to 20)
#    0.857    1.714    1.429    0.857    0.000    0.000 
#    5.143    5.714    0.000   13.714    0.000    0.000 
#    0.000    0.000    0.000    0.000    0.000    0.000 
#
# Total GULP energy -77992.038186 kJ/mol
# GULP energy per Si atom -5570.859870 kJ/mol
# Density = 2.743608 g / cm^3
# Si number density = 27.498671 Si / 1000 Ang^3
#
#
#
# Elastic Constant Matrix: (Units=GPa)
#
#
# Indices 1 2 3 4 5 6 
#
# 1 77.9452 16.7470 9.2349 0.0000 -8.3873 0.0000
# 2 16.7470 135.8048 21.4306 0.0000 7.5776 0.0000
# 3 9.2349 21.4306 116.8938 0.0000 -16.0083 0.0000
# 4 0.0000 0.0000 0.0000 65.4491 0.0000 1.2129
# 5 -8.3873 7.5776 -16.0083 0.0000 19.1152 0.0000
# 6 0.0000 0.0000 0.0000 1.2129 0.0000 14.1899
#
#
#
# Elastic Compliance Matrix: (Units=1/GPa)
#
#
# Indices 1 2 3 4 5 6 
#
# 1 0.014047 -0.002183 0.000286 0.000000 0.007268 0.000000
# 2 -0.002183 0.008317 -0.002186 0.000000 -0.006085 0.000000
# 3 0.000286 -0.002186 0.010244 0.000000 0.009570 0.000000
# 4 0.000000 0.000000 0.000000 0.015303 0.000000 -0.001308
# 5 0.007268 -0.006085 0.009570 0.000000 0.065931 0.000000
# 6 0.000000 0.000000 0.000000 -0.001308 0.000000 0.070584
#
#
# Mechanical properties :
#
#
# Convention : Reuss Voigt Hill
#
# Bulk Modulus (GPa) = 40.91331 47.27429 44.09380
# Shear Modulus (GPa) = 24.90801 38.63294 31.77048
#
# Velocity S-wave (km/s) = 3.01290 3.75227 3.40273
# Velocity P-wave (km/s) = 5.19750 6.00012 5.61318
#
# Compressibility (1/GPa) = 0.02444192
#
# Stress axis : x y z
#
# Youngs Moduli (GPa) = 71.19092 120.23353 97.62229
#
# Poissons Ratio (x) = 0.26245 -0.02790
# Poissons Ratio (y) = 0.15540 0.21338
# Poissons Ratio (z) = -0.02035 0.26280
#
# Static dielectric constant tensor:
#      x y z
#    x 2.155890 0.000000 0.010490 
#    y 0.000000 2.215890 0.000000 
#    z 0.010490 0.000000 2.276520 
# 
# From -- ./inp_files/32872.got.cif
#   From: 2010.05.17/outbox.cif.g08.bks.cpg/sg9_17_cif.got.tgz:32872.got - 2010.06.03 20:04:27.
