data_PCOD9134813
_publ_section_title
;
Structure prediction by ZEFSAII (Michael W. Deem and Ramdas Pophale) SiO2 
 PCOD9134813
Probable space group: C C
;
_chemical_formula_sum "Si O2"
_cell_formula_units_Z 32
_cell_length_a 13.971574
_cell_length_b 5.756542
_cell_length_c 16.730566
_cell_angle_alpha 90.000000
_cell_angle_beta 97.252877
_cell_angle_gamma 90.000000
_cell_volume 1334.838459
_symmetry_space_group_name_H-M "C C"
_symmetry_group_IT_number 9
_symmetry_cell_setting 'monoclinic'
loop_
_space_group_symop_operation_xyz
x,y,z
x,-y,1/2+z
1/2+x,1/2+y,z
1/2+x,1/2-y,1/2+z
loop_
_atom_site_type_symbol
_atom_site_label
_atom_site_fract_x
_atom_site_fract_y
_atom_site_fract_z
Si Si1 0.390470 0.364597 0.843080
Si Si2 0.455749 0.370115 0.090063
Si Si3 0.406503 0.146186 0.423379
Si Si4 0.089074 0.855330 0.495704
Si Si5 0.797026 0.439347 0.548291
Si Si6 0.741552 0.332908 0.203331
Si Si7 0.094235 0.479493 0.143432
Si Si8 0.561275 0.604162 0.248589
O O1 0.364708 0.618234 0.878020
O O2 0.318938 0.305574 0.762499
O O3 0.499462 0.402021 0.821646
O O4 0.387095 0.113362 0.887618
O O5 0.516128 0.445022 0.018360
O O6 0.347221 0.314396 0.054448
O O7 0.497357 0.121073 0.120597
O O8 0.487153 0.526713 0.168816
O O9 0.522245 0.189329 0.435777
O O10 0.364273 0.124101 0.508597
O O11 0.196100 0.938662 0.488354
O O12 0.107306 0.713887 0.579059
O O13 0.784668 0.498530 0.640756
O O14 0.680469 0.155758 0.144179
O O15 0.658695 0.454184 0.249422
O O16 0.091898 0.364197 0.229751
#
# Coordination Sequence:
#
# PCOD9134813 Si02
#       8
#     4   4   4   4   4   4   4   4
#     4  12  31  53  75 107 167 213 251 316 392 479
#     4  10  21  42  73 118 144 183 252 325 386 440
#     4  12  31  53  73 116 162 216 254 307 400 483
#     4  11  24  47  73 110 150 197 254 318 383 448
#     4  12  24  48  84 111 150 201 260 335 381 457
#     4  11  26  44  80 120 137 201 266 323 388 446
#     4  10  19  42  74 113 145 175 260 329 371 441
#     4  10  24  45  74 109 153 196 249 333 379 450
#
# _framework density 23.972937000000002
#
# number of rings (size 3 to 8) (size 9 to 14) (size 15 to 20)
#    0.000    1.000    5.000    1.500   10.500    2.000 
#    0.000    2.500    0.000    0.000    0.000    0.000 
#    0.000    0.000    0.000    0.000    0.000    0.000 
#
# Total GULP energy -89297.657248 kJ/mol
# GULP energy per Si atom -5581.103578 kJ/mol
# Density = 2.391837 g / cm^3
# Si number density = 23.972937 Si / 1000 Ang^3
#
#
#
# Elastic Constant Matrix: (Units=GPa)
#
#
# Indices 1 2 3 4 5 6 
#
# 1 116.2352 29.2224 17.4672 0.0000 3.9608 0.0000
# 2 29.2224 104.0664 22.5310 0.0000 -12.1783 0.0000
# 3 17.4672 22.5310 48.0242 0.0000 -6.3821 0.0000
# 4 0.0000 0.0000 0.0000 32.4464 0.0000 0.4396
# 5 3.9608 -12.1783 -6.3821 0.0000 25.5139 0.0000
# 6 0.0000 0.0000 0.0000 0.4396 0.0000 36.7993
#
#
#
# Elastic Compliance Matrix: (Units=1/GPa)
#
#
# Indices 1 2 3 4 5 6 
#
# 1 0.009783 -0.002538 -0.002824 0.000000 -0.003436 0.000000
# 2 -0.002538 0.011760 -0.003927 0.000000 0.005025 0.000000
# 3 -0.002824 -0.003927 0.024309 0.000000 0.004645 0.000000
# 4 0.000000 0.000000 0.000000 0.030825 0.000000 -0.000368
# 5 -0.003436 0.005025 0.004645 0.000000 0.043288 0.000000
# 6 0.000000 0.000000 0.000000 -0.000368 0.000000 0.027179
#
#
# Mechanical properties :
#
#
# Convention : Reuss Voigt Hill
#
# Bulk Modulus (GPa) = 36.66318 45.19636 40.92977
# Shear Modulus (GPa) = 28.60194 32.22558 30.41376
#
# Velocity S-wave (km/s) = 3.45786 3.67038 3.56570
# Velocity P-wave (km/s) = 5.59189 6.07093 5.83633
#
# Compressibility (1/GPa) = 0.02727532
#
# Stress axis : x y z
#
# Youngs Moduli (GPa) = 102.22061 85.03381 41.13618
#
# Poissons Ratio (x) = 0.21579 0.11618
# Poissons Ratio (y) = 0.25941 0.16152
# Poissons Ratio (z) = 0.28870 0.33389
#
# Static dielectric constant tensor:
#      x y z
#    x 2.004840 0.000000 -0.000600 
#    y 0.000000 1.926720 0.000000 
#    z -0.000600 0.000000 1.955970 
# 
# From -- ./inp_files/30471.got.cif
#   From: 2010.05.17/outbox.cif.g08.bks.cpg/sg9_16_cif.got.tgz:30471.got - 2010.06.03 20:04:27.
