data_PCOD9134410
_publ_section_title
;
Structure prediction by ZEFSAII (Michael W. Deem and Ramdas Pophale) SiO2 
 PCOD9134410
Probable space group: C C
;
_chemical_formula_sum "Si O2"
_cell_formula_units_Z 32
_cell_length_a 24.367971
_cell_length_b 7.082842
_cell_length_c 15.612479
_cell_angle_alpha 90.000000
_cell_angle_beta 27.752777
_cell_angle_gamma 90.000000
_cell_volume 1254.773423
_symmetry_space_group_name_H-M "C C"
_symmetry_group_IT_number 9
_symmetry_cell_setting 'monoclinic'
loop_
_space_group_symop_operation_xyz
x,y,z
x,-y,1/2+z
1/2+x,1/2+y,z
1/2+x,1/2-y,1/2+z
loop_
_atom_site_type_symbol
_atom_site_label
_atom_site_fract_x
_atom_site_fract_y
_atom_site_fract_z
Si Si1 0.156160 0.427552 0.886180
Si Si2 0.222152 0.582507 0.110917
Si Si3 0.659006 0.550230 0.976786
Si Si4 0.864188 0.827610 0.112070
Si Si5 0.074561 0.085611 0.776627
Si Si6 0.896018 0.619368 0.723019
Si Si7 0.936716 0.067299 0.686857
Si Si8 0.271634 0.849354 0.573171
O O1 0.225398 0.357757 0.705968
O O2 0.141890 0.268629 0.976911
O O3 0.232246 0.599983 0.814592
O O4 0.025220 0.463032 0.035226
O O5 0.109511 0.694145 0.228929
O O6 0.216867 0.355523 0.123748
O O7 0.339506 0.622195 0.893120
O O8 0.800201 0.539716 0.788640
O O9 0.615990 0.500154 0.130093
O O10 0.568771 0.439465 0.040787
O O11 0.921236 0.803167 0.125932
O O12 0.845532 0.685570 0.058063
O O13 0.945166 0.003418 0.967279
O O14 0.162411 0.992209 0.725634
O O15 0.907409 0.848802 0.700103
O O16 0.852037 0.590059 0.881642
#
# Coordination Sequence:
#
# PCOD9134410 Si02
#       8
#     4   4   4   4   4   4   4   4
#     4  10  19  36  67  99 132 181 228 276 342 415
#     4  10  22  41  64  97 139 175 224 283 340 406
#     4  10  19  35  66  98 133 173 227 280 332 412
#     4  11  21  41  71  96 141 182 225 288 346 409
#     4  11  22  42  71 102 133 182 230 282 347 409
#     4   9  17  35  65 101 129 173 237 271 337 410
#     4  10  20  39  61  98 139 179 220 283 349 399
#     4   9  22  43  69  99 136 179 227 287 341 406
#
# _framework density 25.502611999999999
#
# number of rings (size 3 to 8) (size 9 to 14) (size 15 to 20)
#    0.000    2.000    1.250    4.500    0.000    0.000 
#    4.500    8.750    5.500    0.000    0.000    0.000 
#    0.000    0.000    0.000    0.000    0.000    0.000 
#
# Total GULP energy -89423.025483 kJ/mol
# GULP energy per Si atom -5588.939093 kJ/mol
# Density = 2.544457 g / cm^3
# Si number density = 25.502612 Si / 1000 Ang^3
#
#
#
# Elastic Constant Matrix: (Units=GPa)
#
#
# Indices 1 2 3 4 5 6 
#
# 1 188.0760 35.1371 68.8244 -0.0003 -22.7942 0.0000
# 2 35.1371 90.5522 24.6651 -0.0009 -11.8037 0.0011
# 3 68.8244 24.6651 93.4683 -0.0020 -29.4361 0.0013
# 4 -0.0003 -0.0009 -0.0020 25.2006 0.0014 -16.2088
# 5 -22.7942 -11.8037 -29.4361 0.0014 53.4400 -0.0009
# 6 0.0000 0.0011 0.0013 -16.2088 -0.0009 39.7245
#
#
#
# Elastic Compliance Matrix: (Units=1/GPa)
#
#
# Indices 1 2 3 4 5 6 
#
# 1 0.007465 -0.001505 -0.005083 0.000000 0.000052 0.000000
# 2 -0.001505 0.012255 -0.001785 0.000000 0.001082 0.000000
# 3 -0.005083 -0.001785 0.017066 0.000001 0.006838 0.000000
# 4 0.000000 0.000000 0.000001 0.053801 -0.000001 0.021952
# 5 0.000052 0.001082 0.006838 -0.000001 0.022740 0.000000
# 6 0.000000 0.000000 0.000000 0.021952 0.000000 0.034131
#
#
# Mechanical properties :
#
#
# Convention : Reuss Voigt Hill
#
# Bulk Modulus (GPa) = 49.90223 69.92774 59.91498
# Shear Modulus (GPa) = 29.25982 39.90436 34.58209
#
# Velocity S-wave (km/s) = 3.39090 3.95994 3.68641
# Velocity P-wave (km/s) = 5.91108 6.95612 6.45478
#
# Compressibility (1/GPa) = 0.02003918
#
# Stress axis : x y z
#
# Youngs Moduli (GPa) = 133.96716 81.60219 58.59557
#
# Poissons Ratio (x) = 0.12283 0.29784
# Poissons Ratio (y) = 0.20165 0.10458
# Poissons Ratio (z) = 0.68095 0.14565
#
# Static dielectric constant tensor:
#      x y z
#    x 2.000150 0.000000 -0.001150 
#    y 0.000000 2.106220 0.000000 
#    z -0.001150 0.000000 2.013830 
# 
# From -- ./inp_files/17847.got.cif
#   From: 2010.05.17/outbox.cif.g08.bks.cpg/sg9_9_cif.got.tgz:17847.got - 2010.06.03 20:04:27.
