data_PCOD9134794
_publ_section_title
;
Structure prediction by ZEFSAII (Michael W. Deem and Ramdas Pophale) SiO2 
 PCOD9134794
Probable space group: C C
;
_chemical_formula_sum "Si O2"
_cell_formula_units_Z 24
_cell_length_a 7.986453
_cell_length_b 13.321211
_cell_length_c 13.864453
_cell_angle_alpha 90.000000
_cell_angle_beta 137.672005
_cell_angle_gamma 90.000000
_cell_volume 993.245521
_symmetry_space_group_name_H-M "C C"
_symmetry_group_IT_number 9
_symmetry_cell_setting 'monoclinic'
loop_
_space_group_symop_operation_xyz
x,y,z
x,-y,1/2+z
1/2+x,1/2+y,z
1/2+x,1/2-y,1/2+z
loop_
_atom_site_type_symbol
_atom_site_label
_atom_site_fract_x
_atom_site_fract_y
_atom_site_fract_z
Si Si1 0.072530 0.653632 0.768480
Si Si2 0.443689 0.120785 0.022453
Si Si3 0.890576 0.143296 0.094222
Si Si4 0.728304 0.180557 0.463518
Si Si5 0.875220 0.545528 0.210959
Si Si6 0.920857 0.137931 0.756480
O O1 0.235517 0.595187 0.756686
O O2 0.977956 0.756598 0.684905
O O3 0.859050 0.574026 0.700564
O O4 0.233142 0.670631 0.932192
O O5 0.289626 0.339571 0.100315
O O6 0.440496 0.243667 0.014103
O O7 0.698657 0.085784 0.083483
O O8 0.395737 0.093038 0.112883
O O9 0.500048 0.256703 0.342634
O O10 0.132858 0.084984 0.162169
O O11 0.632314 0.079781 0.372599
O O12 0.690195 0.585976 0.861149
#
# Coordination Sequence:
#
# PCOD9134794 Si02
#       6
#     4   4   4   4   4   4
#     4  12  27  49  79 112 158 205 257 329 389 465
#     4  10  22  46  74 106 152 202 247 322 390 449
#     4  12  27  51  73 118 155 202 260 323 396 458
#     4  10  19  41  79 107 154 202 253 324 381 456
#     4  12  26  50  74 118 153 199 269 316 389 482
#     4  10  19  43  75 105 150 206 244 318 397 436
#
# _framework density 24.163208999999998
#
# number of rings (size 3 to 8) (size 9 to 14) (size 15 to 20)
#    1.000    0.000    5.000    1.000    4.667    2.667 
#    3.000    0.000    0.000    0.000    0.000    0.000 
#    0.000    0.000    0.000    0.000    0.000    0.000 
#
# Total GULP energy -67057.808939 kJ/mol
# GULP energy per Si atom -5588.150745 kJ/mol
# Density = 2.410821 g / cm^3
# Si number density = 24.163209 Si / 1000 Ang^3
#
#
#
# Elastic Constant Matrix: (Units=GPa)
#
#
# Indices 1 2 3 4 5 6 
#
# 1 102.3270 -6.6549 42.4659 0.0004 -4.3310 0.0002
# 2 -6.6549 69.8301 25.0264 0.0003 -3.9599 0.0002
# 3 42.4659 25.0264 133.0264 0.0003 -36.9355 0.0002
# 4 0.0004 0.0003 0.0003 18.0622 0.0002 -3.3820
# 5 -4.3310 -3.9599 -36.9355 0.0002 45.1373 0.0001
# 6 0.0002 0.0002 0.0002 -3.3820 0.0001 35.1396
#
#
#
# Elastic Compliance Matrix: (Units=1/GPa)
#
#
# Indices 1 2 3 4 5 6 
#
# 1 0.011965 0.002819 -0.005128 0.000000 -0.002800 0.000000
# 2 0.002819 0.016081 -0.004475 0.000000 -0.001981 0.000000
# 3 -0.005128 -0.004475 0.012617 0.000000 0.009440 0.000000
# 4 0.000000 0.000000 0.000000 0.056380 0.000000 0.005426
# 5 -0.002800 -0.001981 0.009440 0.000000 0.029437 0.000000
# 6 0.000000 0.000000 0.000000 0.005426 0.000000 0.028980
#
#
# Mechanical properties :
#
#
# Convention : Reuss Voigt Hill
#
# Bulk Modulus (GPa) = 36.90591 47.42869 42.16730
# Shear Modulus (GPa) = 28.08046 35.95755 32.01901
#
# Velocity S-wave (km/s) = 3.41268 3.86179 3.64416
# Velocity P-wave (km/s) = 5.55295 6.28933 5.93258
#
# Compressibility (1/GPa) = 0.02709593
#
# Stress axis : x y z
#
# Youngs Moduli (GPa) = 83.57436 62.18641 79.25721
#
# Poissons Ratio (x) = -0.17532 0.40640
# Poissons Ratio (y) = -0.23561 0.35469
# Poissons Ratio (z) = 0.42854 0.27830
#
# Static dielectric constant tensor:
#      x y z
#    x 1.993830 0.000000 0.050500 
#    y 0.000000 1.998250 0.000000 
#    z 0.050500 0.000000 1.905000 
# 
# From -- ./inp_files/29366.got.cif
#   From: 2010.05.17/outbox.cif.g08.bks.cpg/sg9_15_cif.got.tgz:29366.got - 2010.06.03 20:04:27.
