data_PCOD9134108
_publ_section_title
;
Structure prediction by ZEFSAII (Michael W. Deem and Ramdas Pophale) SiO2 
 PCOD9134108
Probable space group: C C
;
_chemical_formula_sum "Si O2"
_cell_formula_units_Z 28
_cell_length_a 20.791900
_cell_length_b 10.278352
_cell_length_c 9.230658
_cell_angle_alpha 90.000000
_cell_angle_beta 145.870461
_cell_angle_gamma 90.000000
_cell_volume 1106.787242
_symmetry_space_group_name_H-M "C C"
_symmetry_group_IT_number 9
_symmetry_cell_setting 'monoclinic'
loop_
_space_group_symop_operation_xyz
x,y,z
x,-y,1/2+z
1/2+x,1/2+y,z
1/2+x,1/2-y,1/2+z
loop_
_atom_site_type_symbol
_atom_site_label
_atom_site_fract_x
_atom_site_fract_y
_atom_site_fract_z
Si Si1 0.857790 0.198905 0.324650
Si Si2 0.758643 0.016232 0.824934
Si Si3 0.808363 0.287746 0.911697
Si Si4 0.556135 0.958827 0.137674
Si Si5 0.893649 0.562298 0.070309
Si Si6 0.511015 0.457134 0.942901
Si Si7 0.546928 0.316592 0.726561
O O1 0.788041 0.072087 0.243961
O O2 0.847883 0.299042 0.436931
O O3 0.985230 0.146073 0.523311
O O4 0.826536 0.273955 0.118947
O O5 0.725859 0.166194 0.724346
O O6 0.654981 0.969387 0.731646
O O7 0.881958 0.015814 0.138820
O O8 0.806568 0.441598 0.882885
O O9 0.920200 0.235801 0.033386
O O10 0.503363 0.035523 0.172540
O O11 0.600338 0.818876 0.276500
O O12 0.447159 0.938130 0.828841
O O13 0.578271 0.392767 0.933788
O O14 0.553892 0.585231 0.104246
#
# Coordination Sequence:
#
# PCOD9134108 Si02
#       7
#     4   4   4   4   4   4   4
#     4  10  18  37  61  90 111 164 203 240 281 371
#     4  10  21  36  65  85 122 146 209 241 304 338
#     4   9  20  37  60  86 118 160 196 243 286 364
#     4  11  24  35  60  94 121 154 188 266 294 347
#     4  11  22  40  60  86 127 156 202 235 307 351
#     4  10  18  36  65  87 113 161 204 240 276 372
#     4   9  19  35  59  90 116 155 204 235 294 351
#
# _framework density 25.298451
#
# number of rings (size 3 to 8) (size 9 to 14) (size 15 to 20)
#    0.000    2.286    4.286    0.857    4.000    0.000 
#    0.000    0.000    9.429    0.000    0.000    0.000 
#    0.000    0.000    0.000    0.000    0.000    0.000 
#
# Total GULP energy -78127.822843 kJ/mol
# GULP energy per Si atom -5580.558774 kJ/mol
# Density = 2.524087 g / cm^3
# Si number density = 25.298451 Si / 1000 Ang^3
#
#
#
# Elastic Constant Matrix: (Units=GPa)
#
#
# Indices 1 2 3 4 5 6 
#
# 1 115.5318 16.6430 23.9119 0.0000 -15.5547 0.0000
# 2 16.6430 108.4280 40.2271 0.0000 -13.4884 0.0000
# 3 23.9119 40.2271 44.6453 0.0000 -16.3851 0.0000
# 4 0.0000 0.0000 0.0000 30.9651 0.0000 -13.1842
# 5 -15.5547 -13.4884 -16.3851 0.0000 32.1638 0.0000
# 6 0.0000 0.0000 0.0000 -13.1842 0.0000 46.1556
#
#
#
# Elastic Compliance Matrix: (Units=1/GPa)
#
#
# Indices 1 2 3 4 5 6 
#
# 1 0.009933 0.000630 -0.004954 0.000000 0.002544 0.000000
# 2 0.000630 0.013906 -0.013056 0.000000 -0.000515 0.000000
# 3 -0.004954 -0.013056 0.041729 0.000000 0.013387 0.000000
# 4 0.000000 0.000000 0.000000 0.036766 0.000000 0.010502
# 5 0.002544 -0.000515 0.013387 0.000000 0.038925 0.000000
# 6 0.000000 0.000000 0.000000 0.010502 0.000000 0.024666
#
#
# Mechanical properties :
#
#
# Convention : Reuss Voigt Hill
#
# Bulk Modulus (GPa) = 32.45934 47.79658 40.12796
# Shear Modulus (GPa) = 23.70200 34.37844 29.04022
#
# Velocity S-wave (km/s) = 3.06420 3.69035 3.39175
# Velocity P-wave (km/s) = 5.03761 6.09034 5.58882
#
# Compressibility (1/GPa) = 0.03080777
#
# Stress axis : x y z
#
# Youngs Moduli (GPa) = 100.67748 71.91259 23.96428
#
# Poissons Ratio (x) = -0.04528 0.11871
# Poissons Ratio (y) = -0.06340 0.31287
# Poissons Ratio (z) = 0.49872 0.93888
#
# Static dielectric constant tensor:
#      x y z
#    x 1.970150 0.000000 0.028810 
#    y 0.000000 2.036010 0.000000 
#    z 0.028810 0.000000 2.117540 
# 
# From -- ./inp_files/11611.got.cif
#   From: 2010.05.17/outbox.cif.g08.bks.cpg/sg9_6_cif.got.tgz:11611.got - 2010.06.03 20:04:27.
