data_PCOD9134585
_publ_section_title
;
Structure prediction by ZEFSAII (Michael W. Deem and Ramdas Pophale) SiO2 
 PCOD9134585
Probable space group: C C
;
_chemical_formula_sum "Si O2"
_cell_formula_units_Z 28
_cell_length_a 9.236785
_cell_length_b 11.864773
_cell_length_c 10.572924
_cell_angle_alpha 90.000000
_cell_angle_beta 80.146346
_cell_angle_gamma 90.000000
_cell_volume 1141.618438
_symmetry_space_group_name_H-M "C C"
_symmetry_group_IT_number 9
_symmetry_cell_setting 'monoclinic'
loop_
_space_group_symop_operation_xyz
x,y,z
x,-y,1/2+z
1/2+x,1/2+y,z
1/2+x,1/2-y,1/2+z
loop_
_atom_site_type_symbol
_atom_site_label
_atom_site_fract_x
_atom_site_fract_y
_atom_site_fract_z
Si Si1 0.868180 0.583608 0.042420
Si Si2 0.181953 0.882113 0.149030
Si Si3 0.531389 0.274650 0.391586
Si Si4 0.566562 0.630103 0.404733
Si Si5 0.764622 0.836191 0.998192
Si Si6 0.995860 0.724731 0.668487
Si Si7 0.383358 0.065404 0.315017
O O1 0.724313 0.504619 0.087072
O O2 0.947276 0.569773 0.165034
O O3 0.828017 0.712714 0.027543
O O4 0.938201 0.527293 0.907089
O O5 0.065669 0.862635 0.277812
O O6 0.339006 0.836422 0.178124
O O7 0.119891 0.820914 0.032581
O O8 0.674471 0.191464 0.383881
O O9 0.502406 0.305697 0.541985
O O10 0.407287 0.189096 0.367552
O O11 0.403145 0.582962 0.461267
O O12 0.529648 0.713668 0.293900
O O13 0.705577 0.557019 0.337862
O O14 0.634012 0.857827 0.116904
#
# Coordination Sequence:
#
# PCOD9134585 Si02
#       7
#     4   4   4   4   4   4   4
#     4  11  21  36  59  93 114 153 196 259 287 345
#     4  11  22  37  61  88 119 151 207 240 304 344
#     4  10  20  38  57  88 114 163 193 247 281 376
#     4  11  20  35  59  90 110 161 196 245 286 368
#     4  10  20  34  64  82 113 148 202 238 298 336
#     4  10  19  38  55  89 112 160 191 252 278 380
#     4  11  22  38  61  88 122 154 207 241 298 349
#
# _framework density 24.526582000000001
#
# number of rings (size 3 to 8) (size 9 to 14) (size 15 to 20)
#    0.857    0.571    5.714    1.714    0.000    0.000 
#    0.000    0.000    0.000   32.571    0.000    0.000 
#    0.000    0.000    0.000    0.000    0.000    0.000 
#
# Total GULP energy -77936.084431 kJ/mol
# GULP energy per Si atom -5566.863174 kJ/mol
# Density = 2.447076 g / cm^3
# Si number density = 24.526582 Si / 1000 Ang^3
#
#
#
# Elastic Constant Matrix: (Units=GPa)
#
#
# Indices 1 2 3 4 5 6 
#
# 1 61.1645 2.9787 16.0287 0.0000 -9.5294 0.0000
# 2 2.9787 56.9333 27.6589 0.0000 2.1816 0.0000
# 3 16.0287 27.6589 155.7143 0.0000 17.9997 0.0000
# 4 0.0000 0.0000 0.0000 21.1450 0.0000 -2.2638
# 5 -9.5294 2.1816 17.9997 0.0000 35.0863 0.0000
# 6 0.0000 0.0000 0.0000 -2.2638 0.0000 34.1843
#
#
#
# Elastic Compliance Matrix: (Units=1/GPa)
#
#
# Indices 1 2 3 4 5 6 
#
# 1 0.017989 0.000076 -0.002583 0.000000 0.006206 0.000000
# 2 0.000076 0.019235 -0.003496 0.000000 0.000618 0.000000
# 3 -0.002583 -0.003496 0.007829 0.000000 -0.004500 0.000000
# 4 0.000000 0.000000 0.000000 0.047630 0.000000 0.003154
# 5 0.006206 0.000618 -0.004500 0.000000 0.032457 0.000000
# 6 0.000000 0.000000 0.000000 0.003154 0.000000 0.029462
#
#
# Mechanical properties :
#
#
# Convention : Reuss Voigt Hill
#
# Bulk Modulus (GPa) = 30.25910 40.79386 35.52648
# Shear Modulus (GPa) = 28.14925 33.22616 30.68770
#
# Velocity S-wave (km/s) = 3.39145 3.68462 3.54107
# Velocity P-wave (km/s) = 5.26308 5.89665 5.58885
#
# Compressibility (1/GPa) = 0.03304791
#
# Stress axis : x y z
#
# Youngs Moduli (GPa) = 55.58835 51.98824 127.72942
#
# Poissons Ratio (x) = -0.00393 0.32987
# Poissons Ratio (y) = -0.00421 0.44653
# Poissons Ratio (z) = 0.14356 0.18174
#
# Static dielectric constant tensor:
#      x y z
#    x 2.024650 0.000000 -0.002100 
#    y 0.000000 1.994220 0.000000 
#    z -0.002100 0.000000 2.043850 
# 
# From -- ./inp_files/14446.got.cif
#   From: 2010.05.17/outbox.cif.g08.bks.cpg/sg9_8_cif.got.tgz:14446.got - 2010.06.03 20:04:27.
