data_PCOD9134737
_publ_section_title
;
Structure prediction by ZEFSAII (Michael W. Deem and Ramdas Pophale) SiO2 
 PCOD9134737
Probable space group: C C
;
_chemical_formula_sum "Si O2"
_cell_formula_units_Z 32
_cell_length_a 22.672086
_cell_length_b 8.472221
_cell_length_c 14.280638
_cell_angle_alpha 90.000000
_cell_angle_beta 29.658494
_cell_angle_gamma 90.000000
_cell_volume 1357.349737
_symmetry_space_group_name_H-M "C C"
_symmetry_group_IT_number 9
_symmetry_cell_setting 'monoclinic'
loop_
_space_group_symop_operation_xyz
x,y,z
x,-y,1/2+z
1/2+x,1/2+y,z
1/2+x,1/2-y,1/2+z
loop_
_atom_site_type_symbol
_atom_site_label
_atom_site_fract_x
_atom_site_fract_y
_atom_site_fract_z
Si Si1 0.527120 0.443491 0.738490
Si Si2 0.143144 0.490445 0.113840
Si Si3 0.289740 0.444371 0.583368
Si Si4 0.269096 0.643958 0.795036
Si Si5 0.399932 0.871170 0.493584
Si Si6 0.717623 0.603024 0.705318
Si Si7 0.459874 0.408731 0.615710
Si Si8 0.249771 0.814733 0.379649
O O1 0.460679 0.289874 0.873447
O O2 0.505876 0.434355 0.656660
O O3 0.670088 0.438199 0.550381
O O4 0.431891 0.573806 0.901763
O O5 0.242617 0.465039 0.056835
O O6 0.015030 0.483596 0.339968
O O7 0.164098 0.638844 0.016137
O O8 0.168116 0.342399 0.009602
O O9 0.240561 0.540906 0.740835
O O10 0.242894 0.271052 0.626376
O O11 0.322997 0.809992 0.688072
O O12 0.373409 0.547806 0.702606
O O13 0.303664 0.958668 0.561388
O O14 0.748345 0.637911 0.773053
O O15 0.577665 0.575632 0.890422
O O16 0.383273 0.246299 0.717133
#
# Coordination Sequence:
#
# PCOD9134737 Si02
#       8
#     4   4   4   4   4   4   4   4
#     4   9  19  38  66  90 122 175 219 267 329 411
#     4  10  20  41  65  91 130 175 225 274 340 412
#     4  11  20  37  68  92 126 178 218 273 348 403
#     4  10  21  42  67  93 130 181 225 277 341 413
#     4  10  24  41  62  99 134 167 232 286 340 412
#     4  11  23  38  62  98 129 170 223 283 338 408
#     4  10  19  40  67  86 128 172 224 264 339 399
#     4   9  18  39  63  87 125 168 218 272 325 396
#
# _framework density 23.575353
#
# number of rings (size 3 to 8) (size 9 to 14) (size 15 to 20)
#    0.000    2.000    5.000    0.000    1.750    2.000 
#    6.750    2.500    0.000    0.000    0.000    0.000 
#    0.000    0.000    0.000    0.000    0.000    0.000 
#
# Total GULP energy -89113.145857 kJ/mol
# GULP energy per Si atom -5569.571616 kJ/mol
# Density = 2.352169 g / cm^3
# Si number density = 23.575353 Si / 1000 Ang^3
#
#
#
# Elastic Constant Matrix: (Units=GPa)
#
#
# Indices 1 2 3 4 5 6 
#
# 1 80.5349 -0.5899 1.2338 0.0000 7.4008 0.0000
# 2 -0.5899 41.9537 19.9101 0.0000 -4.7605 0.0000
# 3 1.2338 19.9101 78.7157 0.0000 -13.4499 0.0000
# 4 0.0000 0.0000 0.0000 29.2082 0.0000 -8.1444
# 5 7.4008 -4.7605 -13.4499 0.0000 36.8959 0.0000
# 6 0.0000 0.0000 0.0000 -8.1444 0.0000 9.7601
#
#
#
# Elastic Compliance Matrix: (Units=1/GPa)
#
#
# Indices 1 2 3 4 5 6 
#
# 1 0.012685 0.000208 -0.000727 0.000000 -0.002783 0.000000
# 2 0.000208 0.027130 -0.006691 0.000000 0.001020 0.000000
# 3 -0.000727 -0.006691 0.015234 0.000000 0.004836 0.000000
# 4 0.000000 0.000000 0.000000 0.044619 0.000000 0.037233
# 5 -0.002783 0.001020 0.004836 0.000000 0.029556 0.000000
# 6 0.000000 0.000000 0.000000 0.037233 0.000000 0.133527
#
#
# Mechanical properties :
#
#
# Convention : Reuss Voigt Hill
#
# Bulk Modulus (GPa) = 24.61333 26.92361 25.76847
# Shear Modulus (GPa) = 17.19896 27.21619 22.20757
#
# Velocity S-wave (km/s) = 2.70391 3.40138 3.07250
# Velocity P-wave (km/s) = 4.49568 5.18371 4.85191
#
# Compressibility (1/GPa) = 0.04062840
#
# Stress axis : x y z
#
# Youngs Moduli (GPa) = 78.83116 36.85972 65.64232
#
# Poissons Ratio (x) = -0.00765 0.04771
# Poissons Ratio (y) = -0.01636 0.43923
# Poissons Ratio (z) = 0.05729 0.24664
#
# Static dielectric constant tensor:
#      x y z
#    x 1.916440 0.000000 0.019340 
#    y 0.000000 2.012870 0.000000 
#    z 0.019340 0.000000 2.034160 
# 
# From -- ./inp_files/17918.got.cif
#   From: 2010.05.17/outbox.cif.g08.bks.cpg/sg9_9_cif.got.tgz:17918.got - 2010.06.03 20:04:27.
