data_PCOD9134960
_publ_section_title
;
Structure prediction by ZEFSAII (Michael W. Deem and Ramdas Pophale) SiO2 
 PCOD9134960
Probable space group: C C
;
_chemical_formula_sum "Si O2"
_cell_formula_units_Z 32
_cell_length_a 10.912691
_cell_length_b 14.191951
_cell_length_c 17.343252
_cell_angle_alpha 90.000000
_cell_angle_beta 31.585350
_cell_angle_gamma 90.000000
_cell_volume 1406.836243
_symmetry_space_group_name_H-M "C C"
_symmetry_group_IT_number 9
_symmetry_cell_setting 'monoclinic'
loop_
_space_group_symop_operation_xyz
x,y,z
x,-y,1/2+z
1/2+x,1/2+y,z
1/2+x,1/2-y,1/2+z
loop_
_atom_site_type_symbol
_atom_site_label
_atom_site_fract_x
_atom_site_fract_y
_atom_site_fract_z
Si Si1 0.185190 0.290411 0.199220
Si Si2 0.394008 0.617231 0.733282
Si Si3 0.225634 0.152161 0.971989
Si Si4 0.225519 0.944640 0.306282
Si Si5 0.199610 0.501649 0.616523
Si Si6 0.261226 0.585835 0.247753
Si Si7 0.399252 0.100492 0.031739
Si Si8 0.331187 0.102928 0.594023
O O1 0.324007 0.311207 0.203588
O O2 0.202922 0.388035 0.141999
O O3 0.288624 0.200451 0.103931
O O4 0.913665 0.266085 0.361968
O O5 0.398147 0.511712 0.695779
O O6 0.626343 0.644403 0.652275
O O7 0.169255 0.609176 0.908881
O O8 0.368953 0.085813 0.955634
O O9 0.963790 0.163794 0.140823
O O10 0.201614 0.105108 0.902088
O O11 0.460518 0.009159 0.194580
O O12 0.302924 0.871085 0.198058
O O13 0.956462 0.982747 0.440806
O O14 0.175447 0.435583 0.706445
O O15 0.066369 0.606259 0.417088
O O16 0.282892 0.009994 0.130523
#
# Coordination Sequence:
#
# PCOD9134960 Si02
#       8
#     4   4   4   4   4   4   4   4
#     4   9  19  35  62  88 121 161 212 270 323 386
#     4   9  19  34  57  88 123 161 208 264 320 378
#     4   9  18  39  58  86 124 162 210 266 322 376
#     4  10  21  33  55  93 124 161 218 276 318 376
#     4   9  20  35  56  88 123 160 212 274 327 377
#     4   9  18  34  61  86 117 164 216 261 318 379
#     4  10  20  35  62  91 123 162 214 265 325 381
#     4  11  21  33  61  92 123 163 216 264 317 385
#
# _framework density 22.746072999999999
#
# number of rings (size 3 to 8) (size 9 to 14) (size 15 to 20)
#    0.000    2.500    1.250    2.250    7.000    2.000 
#    0.000    2.500    0.000    7.500    0.000    0.000 
#    0.000    0.000    0.000    0.000    0.000    0.000 
#
# Total GULP energy -89094.082843 kJ/mol
# GULP energy per Si atom -5568.380178 kJ/mol
# Density = 2.269430 g / cm^3
# Si number density = 22.746073 Si / 1000 Ang^3
#
#
#
# Elastic Constant Matrix: (Units=GPa)
#
#
# Indices 1 2 3 4 5 6 
#
# 1 105.7473 -1.4191 60.5327 -0.0004 -17.8488 -0.0014
# 2 -1.4191 45.3510 23.8432 -0.0113 -2.5869 0.0022
# 3 60.5327 23.8432 179.3827 -0.0220 -17.9642 0.0045
# 4 -0.0004 -0.0113 -0.0220 11.1211 0.0020 3.9489
# 5 -17.8488 -2.5869 -17.9642 0.0020 28.7540 0.0018
# 6 -0.0014 0.0022 0.0045 3.9489 0.0018 4.8771
#
#
#
# Elastic Compliance Matrix: (Units=1/GPa)
#
#
# Indices 1 2 3 4 5 6 
#
# 1 0.012820 0.002903 -0.004148 -0.000010 0.005627 0.000012
# 2 0.002903 0.024365 -0.004073 0.000026 0.001449 -0.000028
# 3 -0.004148 -0.004073 0.007703 0.000018 0.001871 -0.000022
# 4 -0.000010 0.000026 0.000018 0.126202 0.000006 -0.102183
# 5 0.005627 0.001449 0.001871 0.000006 0.039570 -0.000020
# 6 0.000012 -0.000028 -0.000022 -0.102183 -0.000020 0.287775
#
#
# Mechanical properties :
#
#
# Convention : Reuss Voigt Hill
#
# Bulk Modulus (GPa) = 29.19557 55.15497 42.17527
# Shear Modulus (GPa) = 9.60633 25.45204 17.52919
#
# Velocity S-wave (km/s) = 2.05729 3.34872 2.77906
# Velocity P-wave (km/s) = 4.30193 6.26520 5.37398
#
# Compressibility (1/GPa) = 0.03425178
#
# Stress axis : x y z
#
# Youngs Moduli (GPa) = 78.00333 41.04215 129.81376
#
# Poissons Ratio (x) = -0.11915 0.53852
# Poissons Ratio (y) = -0.22646 0.52874
# Poissons Ratio (z) = 0.32359 0.16717
#
# Static dielectric constant tensor:
#      x y z
#    x 1.925710 0.000000 0.045840 
#    y 0.000000 1.851060 0.000000 
#    z 0.045840 0.000000 1.968070 
# 
# From -- ./inp_files/30190.got.cif
#   From: 2010.05.17/outbox.cif.g08.bks.cpg/sg9_16_cif.got.tgz:30190.got - 2010.06.03 20:04:27.
