data_PCOD9134652
_publ_section_title
;
Structure prediction by ZEFSAII (Michael W. Deem and Ramdas Pophale) SiO2 
 PCOD9134652
Probable space group: C C
;
_chemical_formula_sum "Si O2"
_cell_formula_units_Z 28
_cell_length_a 14.897058
_cell_length_b 17.981467
_cell_length_c 9.245708
_cell_angle_alpha 90.000000
_cell_angle_beta 35.492888
_cell_angle_gamma 90.000000
_cell_volume 1437.951548
_symmetry_space_group_name_H-M "C C"
_symmetry_group_IT_number 9
_symmetry_cell_setting 'monoclinic'
loop_
_space_group_symop_operation_xyz
x,y,z
x,-y,1/2+z
1/2+x,1/2+y,z
1/2+x,1/2-y,1/2+z
loop_
_atom_site_type_symbol
_atom_site_label
_atom_site_fract_x
_atom_site_fract_y
_atom_site_fract_z
Si Si1 0.621110 0.551640 0.140830
Si Si2 0.422189 0.671406 0.587086
Si Si3 0.172802 0.833815 0.325721
Si Si4 0.631244 0.819193 0.274890
Si Si5 0.092027 0.115398 0.617108
Si Si6 0.354848 0.109010 0.029684
Si Si7 0.370708 0.757733 0.274641
O O1 0.508614 0.607370 0.377713
O O2 0.556443 0.470359 0.198809
O O3 0.656749 0.591167 0.941604
O O4 0.778477 0.545297 0.030377
O O5 0.515124 0.748825 0.443324
O O6 0.247470 0.676159 0.758328
O O7 0.448105 0.650526 0.720088
O O8 0.146963 0.846913 0.192006
O O9 0.327057 0.793606 0.178767
O O10 0.034442 0.780629 0.558917
O O11 0.523973 0.889809 0.378532
O O12 0.745325 0.802473 0.991488
O O13 0.233686 0.120299 0.317959
O O14 0.356322 0.177698 0.913978
#
# Coordination Sequence:
#
# PCOD9134652 Si02
#       7
#     4   4   4   4   4   4   4
#     4  10  19  39  60  78 113 161 196 222 284 357
#     4  11  20  35  63  86 110 158 191 236 288 350
#     4  11  21  34  57  89 110 142 188 243 289 331
#     4  12  17  37  65  84 108 146 208 229 285 354
#     4  11  23  37  55  87 119 150 196 238 284 340
#     4  10  20  37  61  84 109 158 192 230 286 353
#     4  11  18  35  59  82 109 147 183 234 294 345
#
# _framework density 19.472145000000001
#
# number of rings (size 3 to 8) (size 9 to 14) (size 15 to 20)
#    0.000    1.143    8.571    1.714    0.000    2.286 
#    0.000    1.429    0.000    0.000    0.000    0.000 
#    0.000    0.000    0.000    0.000    0.000    0.000 
#
# Total GULP energy -78068.916666 kJ/mol
# GULP energy per Si atom -5576.351190 kJ/mol
# Density = 1.942783 g / cm^3
# Si number density = 19.472145 Si / 1000 Ang^3
#
#
#
# Elastic Constant Matrix: (Units=GPa)
#
#
# Indices 1 2 3 4 5 6 
#
# 1 186.0302 26.1512 23.7522 -0.0001 6.6788 0.0000
# 2 26.1512 45.3379 -1.9848 0.0000 2.4736 0.0000
# 3 23.7522 -1.9848 28.1503 -0.0002 9.1901 0.0001
# 4 -0.0001 0.0000 -0.0002 5.8911 0.0001 10.8628
# 5 6.6788 2.4736 9.1901 0.0001 42.3040 -0.0001
# 6 0.0000 0.0000 0.0001 10.8628 -0.0001 21.6229
#
#
#
# Elastic Compliance Matrix: (Units=1/GPa)
#
#
# Indices 1 2 3 4 5 6 
#
# 1 0.006728 -0.004178 -0.006140 -0.000002 0.000516 0.000001
# 2 -0.004178 0.024841 0.005958 0.000006 -0.002087 -0.000003
# 3 -0.006140 0.005958 0.044045 0.000028 -0.008947 -0.000014
# 4 -0.000002 0.000006 0.000028 2.304790 -0.000018 -1.157867
# 5 0.000516 -0.002087 -0.008947 -0.000018 0.025623 0.000009
# 6 0.000001 -0.000003 -0.000014 -1.157867 0.000009 0.627930
#
#
# Mechanical properties :
#
#
# Convention : Reuss Voigt Hill
#
# Bulk Modulus (GPa) = 14.94880 39.48395 27.21638
# Shear Modulus (GPa) = 1.63133 28.07025 14.85079
#
# Velocity S-wave (km/s) = 0.91630 3.80091 2.76464
# Velocity P-wave (km/s) = 2.96869 6.29156 4.91919
#
# Compressibility (1/GPa) = 0.06689499
#
# Stress axis : x y z
#
# Youngs Moduli (GPa) = 148.62836 40.25588 22.70385
#
# Poissons Ratio (x) = 0.16818 0.13940
# Poissons Ratio (y) = 0.62094 -0.13527
# Poissons Ratio (z) = 0.91258 -0.23984
#
# Static dielectric constant tensor:
#      x y z
#    x 1.753390 0.000000 0.004370 
#    y 0.000000 1.698340 0.000000 
#    z 0.004370 0.000000 1.671330 
# 
# From -- ./inp_files/5551.got.cif
#   From: 2010.05.17/outbox.cif.g08.bks.cpg/sg9_3_cif.got.tgz:5551.got - 2010.06.03 20:04:27.
