data_PCOD9134966
_publ_section_title
;
Structure prediction by ZEFSAII (Michael W. Deem and Ramdas Pophale) SiO2 
 PCOD9134966
Probable space group: C C
;
_chemical_formula_sum "Si O2"
_cell_formula_units_Z 32
_cell_length_a 10.895253
_cell_length_b 12.532722
_cell_length_c 12.405727
_cell_angle_alpha 90.000000
_cell_angle_beta 105.288701
_cell_angle_gamma 90.000000
_cell_volume 1634.016554
_symmetry_space_group_name_H-M "C C"
_symmetry_group_IT_number 9
_symmetry_cell_setting 'monoclinic'
loop_
_space_group_symop_operation_xyz
x,y,z
x,-y,1/2+z
1/2+x,1/2+y,z
1/2+x,1/2-y,1/2+z
loop_
_atom_site_type_symbol
_atom_site_label
_atom_site_fract_x
_atom_site_fract_y
_atom_site_fract_z
Si Si1 0.181520 0.192113 0.965890
Si Si2 0.780256 0.919530 0.058110
Si Si3 0.346301 0.901458 0.327474
Si Si4 0.286590 0.299689 0.276318
Si Si5 0.487716 0.216419 0.674544
Si Si6 0.864954 0.398944 0.694499
Si Si7 0.417208 0.607784 0.999211
Si Si8 0.018975 0.502102 0.058276
O O1 0.229263 0.151180 0.862018
O O2 0.213827 0.318384 0.982933
O O3 0.272113 0.141759 0.079329
O O4 0.043973 0.145159 0.964189
O O5 0.823416 0.874755 0.184234
O O6 0.890098 0.984749 0.022596
O O7 0.664436 0.999224 0.056892
O O8 0.422879 0.819150 0.270406
O O9 0.436330 0.952545 0.440877
O O10 0.309916 0.997464 0.239747
O O11 0.138777 0.268881 0.226442
O O12 0.372238 0.194418 0.283227
O O13 0.305330 0.356011 0.393651
O O14 0.425581 0.320706 0.608509
O O15 0.478586 0.117604 0.586915
O O16 0.992795 0.429940 0.660714
#
# Coordination Sequence:
#
# PCOD9134966 Si02
#       8
#     4   4   4   4   4   4   4   4
#     4  10  22  42  57  88 135 159 208 276 306 385
#     4  10  22  40  60  88 126 161 219 260 318 384
#     4  10  20  35  64  91 117 165 213 253 327 372
#     4  10  21  40  61  90 125 163 208 263 323 375
#     4  10  20  39  61  89 126 156 213 267 300 394
#     4   9  18  35  62  83 119 161 200 264 318 373
#     4  12  22  39  67  87 125 176 203 262 334 370
#     4   9  17  36  62  86 115 165 206 263 316 377
#
# _framework density 19.583644
#
# number of rings (size 3 to 8) (size 9 to 14) (size 15 to 20)
#    0.000    2.000    3.750    1.500    0.000    2.000 
#    4.500    0.000   11.000    0.000    0.000    0.000 
#    0.000    0.000    0.000    0.000    0.000    0.000 
#
# Total GULP energy -89188.992767 kJ/mol
# GULP energy per Si atom -5574.312048 kJ/mol
# Density = 1.953907 g / cm^3
# Si number density = 19.583644 Si / 1000 Ang^3
#
#
#
# Elastic Constant Matrix: (Units=GPa)
#
#
# Indices 1 2 3 4 5 6 
#
# 1 67.5189 51.4362 29.1347 0.0000 -23.2770 0.0000
# 2 51.4362 93.5545 34.5780 0.0000 -18.5597 0.0000
# 3 29.1347 34.5780 66.3378 0.0000 -18.2812 0.0000
# 4 0.0000 0.0000 0.0000 20.1378 0.0000 -5.7573
# 5 -23.2770 -18.5597 -18.2812 0.0000 31.5739 0.0000
# 6 0.0000 0.0000 0.0000 -5.7573 0.0000 27.1732
#
#
#
# Elastic Compliance Matrix: (Units=1/GPa)
#
#
# Indices 1 2 3 4 5 6 
#
# 1 0.030631 -0.013131 -0.002989 0.000000 0.013133 0.000000
# 2 -0.013131 0.019430 -0.004618 0.000000 -0.000933 0.000000
# 3 -0.002989 -0.004618 0.020750 0.000000 0.007096 0.000000
# 4 0.000000 0.000000 0.000000 0.052860 0.000000 0.011200
# 5 0.013133 -0.000933 0.007096 0.000000 0.044913 0.000000
# 6 0.000000 0.000000 0.000000 0.011200 0.000000 0.039174
#
#
# Mechanical properties :
#
#
# Convention : Reuss Voigt Hill
#
# Bulk Modulus (GPa) = 34.08943 50.85652 42.47298
# Shear Modulus (GPa) = 19.30411 23.26113 21.28262
#
# Velocity S-wave (km/s) = 3.14303 3.45016 3.30017
# Velocity P-wave (km/s) = 5.53321 6.47277 6.02134
#
# Compressibility (1/GPa) = 0.02933460
#
# Stress axis : x y z
#
# Youngs Moduli (GPa) = 32.64655 51.46686 48.19342
#
# Poissons Ratio (x) = 0.67580 0.14407
# Poissons Ratio (y) = 0.42867 0.22255
# Poissons Ratio (z) = 0.09760 0.23767
#
# Static dielectric constant tensor:
#      x y z
#    x 1.698950 0.000000 -0.003990 
#    y 0.000000 1.724080 0.000000 
#    z -0.003990 0.000000 1.693530 
# 
# From -- ./inp_files/16448.got.cif
#   From: 2010.05.17/outbox.cif.g08.bks.cpg/sg9_9_cif.got.tgz:16448.got - 2010.06.03 20:04:27.
