data_PCOD9134168
_publ_section_title
;
Structure prediction by ZEFSAII (Michael W. Deem and Ramdas Pophale) SiO2 
 PCOD9134168
Probable space group: C C
;
_chemical_formula_sum "Si O2"
_cell_formula_units_Z 32
_cell_length_a 10.063008
_cell_length_b 10.604708
_cell_length_c 25.237180
_cell_angle_alpha 90.000000
_cell_angle_beta 150.898815
_cell_angle_gamma 90.000000
_cell_volume 1309.843353
_symmetry_space_group_name_H-M "C C"
_symmetry_group_IT_number 9
_symmetry_cell_setting 'monoclinic'
loop_
_space_group_symop_operation_xyz
x,y,z
x,-y,1/2+z
1/2+x,1/2+y,z
1/2+x,1/2-y,1/2+z
loop_
_atom_site_type_symbol
_atom_site_label
_atom_site_fract_x
_atom_site_fract_y
_atom_site_fract_z
Si Si1 0.679050 0.196940 0.108940
Si Si2 0.415290 0.946923 0.989164
Si Si3 0.779663 0.811953 0.424484
Si Si4 0.918125 0.549767 0.292370
Si Si5 0.761656 0.209107 0.793310
Si Si6 0.435766 0.625225 0.613203
Si Si7 0.396636 0.846353 0.671479
Si Si8 0.195747 0.510046 0.690899
O O1 0.519625 0.296327 0.090472
O O2 0.932688 0.267714 0.169808
O O3 0.831527 0.096984 0.201548
O O4 0.462334 0.100628 0.005967
O O5 0.193200 0.833183 0.907469
O O6 0.623015 0.906688 0.014937
O O7 0.534437 0.916347 0.089285
O O8 0.581740 0.927656 0.368537
O O9 0.806302 0.824481 0.369811
O O10 0.069369 0.837487 0.553292
O O11 0.912547 0.663840 0.330500
O O12 0.611480 0.499916 0.176756
O O13 0.003282 0.604968 0.264705
O O14 0.858486 0.101024 0.786259
O O15 0.508675 0.712704 0.689635
O O16 0.487408 0.941483 0.657304
#
# Coordination Sequence:
#
# PCOD9134168 Si02
#       8
#     4   4   4   4   4   4   4   4
#     4   9  19  36  63  87 116 167 210 255 335 378
#     4   9  20  40  60  91 125 166 215 269 325 380
#     4  11  24  40  58 104 134 163 233 272 317 401
#     4  12  23  40  69  93 133 177 216 273 335 392
#     4  12  21  39  64  95 126 167 220 270 323 392
#     4  10  18  38  65  90 120 167 215 259 327 390
#     4  10  22  42  67  91 131 177 215 275 336 378
#     4   9  19  41  64  87 121 174 214 261 332 389
#
# _framework density 24.430399999999999
#
# number of rings (size 3 to 8) (size 9 to 14) (size 15 to 20)
#    0.750    1.000    3.750    1.500    0.000    2.000 
#    6.750    0.000    0.000    0.000    0.000    0.000 
#    0.000    0.000    0.000    0.000    0.000    0.000 
#
# Total GULP energy -89180.777742 kJ/mol
# GULP energy per Si atom -5573.798609 kJ/mol
# Density = 2.437480 g / cm^3
# Si number density = 24.430400 Si / 1000 Ang^3
#
#
#
# Elastic Constant Matrix: (Units=GPa)
#
#
# Indices 1 2 3 4 5 6 
#
# 1 65.3284 1.3918 -1.9539 0.0001 -5.3761 0.0000
# 2 1.3918 56.1683 7.2607 0.0001 -4.2675 0.0000
# 3 -1.9539 7.2607 28.6110 0.0004 -5.0695 0.0001
# 4 0.0001 0.0001 0.0004 27.0178 0.0002 -12.4096
# 5 -5.3761 -4.2675 -5.0695 0.0002 24.1575 0.0001
# 6 0.0000 0.0000 0.0001 -12.4096 0.0001 34.2589
#
#
#
# Elastic Compliance Matrix: (Units=1/GPa)
#
#
# Indices 1 2 3 4 5 6 
#
# 1 0.015683 -0.000336 0.001832 0.000000 0.003815 0.000000
# 2 -0.000336 0.018545 -0.004323 0.000000 0.002294 0.000000
# 3 0.001832 -0.004323 0.037505 -0.000001 0.007515 0.000000
# 4 0.000000 0.000000 -0.000001 0.044400 -0.000001 0.016083
# 5 0.003815 0.002294 0.007515 -0.000001 0.044226 0.000000
# 6 0.000000 0.000000 0.000000 0.016083 0.000000 0.035015
#
#
# Mechanical properties :
#
#
# Convention : Reuss Voigt Hill
#
# Bulk Modulus (GPa) = 15.13286 18.16723 16.65005
# Shear Modulus (GPa) = 22.41614 26.64746 24.53180
#
# Velocity S-wave (km/s) = 3.03240 3.30623 3.17227
# Velocity P-wave (km/s) = 4.29748 4.69333 4.49976
#
# Compressibility (1/GPa) = 0.06608134
#
# Stress axis : x y z
#
# Youngs Moduli (GPa) = 63.76252 53.92279 26.66302
#
# Poissons Ratio (x) = 0.01810 -0.04885
# Poissons Ratio (y) = 0.02140 0.11526
# Poissons Ratio (z) = -0.11683 0.23309
#
# Static dielectric constant tensor:
#      x y z
#    x 1.905690 0.000000 0.012240 
#    y 0.000000 1.993490 0.000000 
#    z 0.012240 0.000000 2.009790 
# 
# From -- ./inp_files/37327.got.cif
#   From: 2010.05.17/outbox.cif.g08.bks.cpg/sg9_19_cif.got.tgz:37327.got - 2010.06.03 20:04:27.
