data_PCOD9134822
_publ_section_title
;
Structure prediction by ZEFSAII (Michael W. Deem and Ramdas Pophale) SiO2 
 PCOD9134822
Probable space group: C C
;
_chemical_formula_sum "Si O2"
_cell_formula_units_Z 32
_cell_length_a 23.571121
_cell_length_b 7.963894
_cell_length_c 14.692601
_cell_angle_alpha 90.000000
_cell_angle_beta 150.902121
_cell_angle_gamma 90.000000
_cell_volume 1341.255057
_symmetry_space_group_name_H-M "C C"
_symmetry_group_IT_number 9
_symmetry_cell_setting 'monoclinic'
loop_
_space_group_symop_operation_xyz
x,y,z
x,-y,1/2+z
1/2+x,1/2+y,z
1/2+x,1/2-y,1/2+z
loop_
_atom_site_type_symbol
_atom_site_label
_atom_site_fract_x
_atom_site_fract_y
_atom_site_fract_z
Si Si1 0.227180 0.091734 0.803910
Si Si2 0.197928 0.181155 0.399940
Si Si3 0.575901 0.761185 0.724787
Si Si4 0.789645 0.975733 0.105784
Si Si5 0.013911 0.599843 0.557743
Si Si6 0.940512 0.770997 0.195924
Si Si7 0.252623 0.959420 0.652006
Si Si8 0.145912 0.388375 0.061776
O O1 0.106673 0.158902 0.677880
O O2 0.236805 0.094419 0.709990
O O3 0.241938 0.907697 0.869480
O O4 0.324165 0.205775 0.986068
O O5 0.268763 0.346060 0.529370
O O6 0.218061 0.044675 0.508371
O O7 0.067392 0.252090 0.195032
O O8 0.691256 0.843835 0.931847
O O9 0.510104 0.652910 0.708014
O O10 0.504800 0.927074 0.599993
O O11 0.748827 0.987587 0.154232
O O12 0.908794 0.895144 0.234405
O O13 0.884610 0.615101 0.335045
O O14 0.114080 0.573269 0.620921
O O15 0.017937 0.610257 0.335076
O O16 0.177591 0.805972 0.587531
#
# Coordination Sequence:
#
# PCOD9134822 Si02
#       8
#     4   4   4   4   4   4   4   4
#     4  11  22  44  67 102 142 183 239 302 365 432
#     4  11  24  46  66 105 141 184 250 302 356 448
#     4   9  20  39  66  95 133 185 229 291 357 426
#     4   9  21  39  67  97 134 182 234 291 358 434
#     4  11  23  45  69 101 144 191 237 299 373 426
#     4  10  19  43  68  93 140 187 226 295 370 421
#     4  12  25  46  71 104 145 190 238 300 371 441
#     4  11  22  42  68 101 139 188 237 298 364 436
#
# _framework density 23.858250999999999
#
# number of rings (size 3 to 8) (size 9 to 14) (size 15 to 20)
#    0.000    1.500    2.500    3.750    1.750    0.000 
#    6.750    0.000    0.000    0.000    0.000    0.000 
#    0.000    0.000    0.000    0.000    0.000    0.000 
#
# Total GULP energy -89221.872506 kJ/mol
# GULP energy per Si atom -5576.367032 kJ/mol
# Density = 2.380395 g / cm^3
# Si number density = 23.858251 Si / 1000 Ang^3
#
#
#
# Elastic Constant Matrix: (Units=GPa)
#
#
# Indices 1 2 3 4 5 6 
#
# 1 135.1884 28.8838 33.4808 0.0000 -2.8964 0.0000
# 2 28.8838 68.0455 11.5976 0.0000 2.3857 0.0000
# 3 33.4808 11.5976 60.6252 0.0000 -2.5239 0.0000
# 4 0.0000 0.0000 0.0000 19.0181 0.0000 -5.1474
# 5 -2.8964 2.3857 -2.5239 0.0000 39.0915 0.0000
# 6 0.0000 0.0000 0.0000 -5.1474 0.0000 37.5191
#
#
#
# Elastic Compliance Matrix: (Units=1/GPa)
#
#
# Indices 1 2 3 4 5 6 
#
# 1 0.009186 -0.003162 -0.004444 0.000000 0.000587 0.000000
# 2 -0.003162 0.016329 -0.001432 0.000000 -0.001323 0.000000
# 3 -0.004444 -0.001432 0.019265 0.000000 0.001002 0.000000
# 4 0.000000 0.000000 0.000000 0.054609 0.000000 0.007492
# 5 0.000587 -0.001323 0.001002 0.000000 0.025770 0.000000
# 6 0.000000 0.000000 0.000000 0.007492 0.000000 0.027681
#
#
# Mechanical properties :
#
#
# Convention : Reuss Voigt Hill
#
# Bulk Modulus (GPa) = 37.44945 45.75371 41.60158
# Shear Modulus (GPa) = 27.80607 31.78554 29.79581
#
# Velocity S-wave (km/s) = 3.41760 3.65398 3.53777
# Velocity P-wave (km/s) = 5.59500 6.08449 5.84487
#
# Compressibility (1/GPa) = 0.02670266
#
# Stress axis : x y z
#
# Youngs Moduli (GPa) = 108.86351 61.24098 51.90894
#
# Poissons Ratio (x) = 0.19367 0.23066
# Poissons Ratio (y) = 0.34427 0.07435
# Poissons Ratio (z) = 0.48374 0.08772
#
# Static dielectric constant tensor:
#      x y z
#    x 1.989920 0.000000 0.003360 
#    y 0.000000 1.901670 0.000000 
#    z 0.003360 0.000000 2.050060 
# 
# From -- ./inp_files/27737.got.cif
#   From: 2010.05.17/outbox.cif.g08.bks.cpg/sg9_14_cif.got.tgz:27737.got - 2010.06.03 20:04:27.
