data_PCOD9134510
_publ_section_title
;
Structure prediction by ZEFSAII (Michael W. Deem and Ramdas Pophale) SiO2 
 PCOD9134510
Probable space group: C C
;
_chemical_formula_sum "Si O2"
_cell_formula_units_Z 32
_cell_length_a 9.748058
_cell_length_b 13.475733
_cell_length_c 19.769217
_cell_angle_alpha 90.000000
_cell_angle_beta 33.350175
_cell_angle_gamma 90.000000
_cell_volume 1427.673160
_symmetry_space_group_name_H-M "C C"
_symmetry_group_IT_number 9
_symmetry_cell_setting 'monoclinic'
loop_
_space_group_symop_operation_xyz
x,y,z
x,-y,1/2+z
1/2+x,1/2+y,z
1/2+x,1/2-y,1/2+z
loop_
_atom_site_type_symbol
_atom_site_label
_atom_site_fract_x
_atom_site_fract_y
_atom_site_fract_z
Si Si1 0.049520 0.302355 0.437610
Si Si2 0.832567 0.828452 0.849706
Si Si3 0.297671 0.402781 0.713364
Si Si4 0.542728 0.790118 0.088260
Si Si5 0.845147 0.615046 0.797686
Si Si6 0.342592 0.095891 0.310015
Si Si7 0.927152 0.329962 0.634192
Si Si8 0.821181 0.886487 0.195612
O O1 0.197363 0.198154 0.379062
O O2 0.166017 0.368320 0.329361
O O3 0.772597 0.264745 0.532284
O O4 0.042546 0.354553 0.513671
O O5 0.802226 0.878941 0.790558
O O6 0.749532 0.713563 0.873504
O O7 0.123091 0.833638 0.751506
O O8 0.657449 0.858652 0.983232
O O9 0.382473 0.306619 0.636724
O O10 0.446405 0.505768 0.643282
O O11 0.021018 0.418383 0.800230
O O12 0.380669 0.855583 0.205533
O O13 0.124489 0.609552 0.714728
O O14 0.706189 0.510764 0.862139
O O15 0.482124 0.109198 0.179608
O O16 0.984080 0.212567 0.621672
#
# Coordination Sequence:
#
# PCOD9134510 Si02
#       8
#     4   4   4   4   4   4   4   4
#     4  11  19  37  65  83 109 158 194 227 281 344
#     4  10  19  37  61  84 113 152 194 232 274 346
#     4  10  22  37  55  87 122 142 187 246 286 326
#     4  11  19  37  65  83 109 158 194 227 281 344
#     4   9  18  35  55  85 116 145 192 230 282 335
#     4  10  22  37  55  87 122 142 187 246 286 326
#     4  10  19  37  61  84 113 152 194 232 274 346
#     4   9  18  35  55  85 116 145 192 230 282 335
#
# _framework density 22.414092
#
# number of rings (size 3 to 8) (size 9 to 14) (size 15 to 20)
#    0.000    2.000    7.500    0.000    0.000    3.000 
#    0.000    5.000    0.000    0.000    0.000    0.000 
#    0.000    0.000    0.000    0.000    0.000    0.000 
#
# Total GULP energy -89177.678630 kJ/mol
# GULP energy per Si atom -5573.604914 kJ/mol
# Density = 2.236308 g / cm^3
# Si number density = 22.414092 Si / 1000 Ang^3
#
#
#
# Elastic Constant Matrix: (Units=GPa)
#
#
# Indices 1 2 3 4 5 6 
#
# 1 41.4246 10.0462 1.8405 -0.0031 21.4177 0.0004
# 2 10.0462 76.6353 -14.9559 -0.0013 -4.2800 0.0006
# 3 1.8405 -14.9559 67.7006 -0.0081 23.3616 -0.0003
# 4 -0.0031 -0.0013 -0.0081 2.7154 0.0023 -2.6646
# 5 21.4177 -4.2800 23.3616 0.0023 24.6177 0.0034
# 6 0.0004 0.0006 -0.0003 -2.6646 0.0034 9.7050
#
#
#
# Elastic Compliance Matrix: (Units=1/GPa)
#
#
# Indices 1 2 3 4 5 6 
#
# 1 0.070949 -0.009049 0.026639 0.000355 -0.088579 0.000126
# 2 -0.009049 0.014800 -0.000133 -0.000023 0.010572 -0.000010
# 3 0.026639 -0.000133 0.032746 0.000263 -0.054274 0.000091
# 4 0.000355 -0.000023 0.000263 0.504072 -0.000629 0.138395
# 5 -0.088579 0.010572 -0.054274 -0.000629 0.171029 -0.000231
# 6 0.000126 -0.000010 0.000091 0.138395 -0.000231 0.141036
#
#
# Mechanical properties :
#
#
# Convention : Reuss Voigt Hill
#
# Bulk Modulus (GPa) = 6.51855 19.95800 13.23827
# Shear Modulus (GPa) = 5.25842 19.99628 12.62735
#
# Velocity S-wave (km/s) = 1.53334 2.99009 2.37611
# Velocity P-wave (km/s) = 2.45955 4.56557 3.66700
#
# Compressibility (1/GPa) = 0.15340836
#
# Stress axis : x y z
#
# Youngs Moduli (GPa) = 14.09458 67.56931 30.53806
#
# Poissons Ratio (x) = 0.61145 -0.81349
# Poissons Ratio (y) = 0.12754 0.00405
# Poissons Ratio (z) = -0.37546 0.00896
#
# Static dielectric constant tensor:
#      x y z
#    x 1.836930 0.000000 -0.000210 
#    y 0.000000 1.910150 0.000010 
#    z -0.000210 0.000010 1.885690 
# 
# From -- ./inp_files/28135.got.cif
#   From: 2010.05.17/outbox.cif.g08.bks.cpg/sg9_15_cif.got.tgz:28135.got - 2010.06.03 20:04:27.
