data_PCOD9134417
_publ_section_title
;
Structure prediction by ZEFSAII (Michael W. Deem and Ramdas Pophale) SiO2 
 PCOD9134417
Probable space group: C C
;
_chemical_formula_sum "Si O2"
_cell_formula_units_Z 32
_cell_length_a 8.510384
_cell_length_b 24.023469
_cell_length_c 15.679483
_cell_angle_alpha 90.000000
_cell_angle_beta 149.792740
_cell_angle_gamma 90.000000
_cell_volume 1612.858839
_symmetry_space_group_name_H-M "C C"
_symmetry_group_IT_number 9
_symmetry_cell_setting 'monoclinic'
loop_
_space_group_symop_operation_xyz
x,y,z
x,-y,1/2+z
1/2+x,1/2+y,z
1/2+x,1/2-y,1/2+z
loop_
_atom_site_type_symbol
_atom_site_label
_atom_site_fract_x
_atom_site_fract_y
_atom_site_fract_z
Si Si1 0.138720 0.108981 0.170990
Si Si2 0.718563 0.177537 0.390400
Si Si3 0.427505 0.558642 0.451377
Si Si4 0.059232 0.673895 0.965462
Si Si5 0.803937 0.459069 0.582585
Si Si6 0.069717 0.473184 0.953985
Si Si7 0.661481 0.572553 0.827468
Si Si8 0.670416 0.763675 0.688957
O O1 0.410490 0.154920 0.291311
O O2 0.264762 0.065580 0.300122
O O3 0.813731 0.136026 0.039356
O O4 0.153381 0.076441 0.088419
O O5 0.945075 0.123574 0.483653
O O6 0.622669 0.199988 0.251902
O O7 0.886998 0.223962 0.525837
O O8 0.727564 0.523482 0.566871
O O9 0.251880 0.529062 0.448959
O O10 0.172522 0.552762 0.257164
O O11 0.209845 0.698454 0.123326
O O12 0.763362 0.635214 0.851983
O O13 0.947788 0.722733 0.849753
O O14 0.669255 0.438854 0.431018
O O15 0.929427 0.532344 0.913240
O O16 0.324663 0.446256 0.135453
#
# Coordination Sequence:
#
# PCOD9134417 Si02
#       8
#     4   4   4   4   4   4   4   4
#     4  10  22  39  58  83 114 147 184 231 285 342
#     4   9  20  38  58  80 109 146 189 234 280 327
#     4  10  19  36  54  79 114 147 178 221 274 337
#     4  11  22  39  59  82 114 147 190 239 280 330
#     4  10  21  34  55  84 113 147 180 216 277 342
#     4  10  21  35  58  88 115 150 184 221 284 347
#     4  12  21  36  58  87 118 148 184 232 279 337
#     4  10  22  39  60  81 105 150 197 236 283 326
#
# _framework density 19.840546
#
# number of rings (size 3 to 8) (size 9 to 14) (size 15 to 20)
#    0.000    2.000    0.000    6.750    0.000    3.000 
#    0.000    2.500    0.000    0.000    0.000    0.000 
#    0.000    0.000    0.000    0.000    0.000    0.000 
#
# Total GULP energy -89303.457380 kJ/mol
# GULP energy per Si atom -5581.466086 kJ/mol
# Density = 1.979539 g / cm^3
# Si number density = 19.840546 Si / 1000 Ang^3
#
#
#
# Elastic Constant Matrix: (Units=GPa)
#
#
# Indices 1 2 3 4 5 6 
#
# 1 27.8854 27.0381 17.6403 -0.0005 -12.2180 -0.0004
# 2 27.0381 81.4746 9.2989 -0.0001 1.3221 0.0000
# 3 17.6403 9.2989 69.7860 0.0000 -29.5269 -0.0004
# 4 -0.0005 -0.0001 0.0000 41.7483 -0.0003 11.8155
# 5 -12.2180 1.3221 -29.5269 -0.0003 25.3619 -0.0004
# 6 -0.0004 0.0000 -0.0004 11.8155 -0.0004 31.4364
#
#
#
# Elastic Compliance Matrix: (Units=1/GPa)
#
#
# Indices 1 2 3 4 5 6 
#
# 1 0.079436 -0.027089 0.000628 0.000001 0.040412 0.000001
# 2 -0.027089 0.022044 -0.004134 0.000000 -0.019012 -0.000001
# 3 0.000628 -0.004134 0.029445 0.000000 0.034799 0.000001
# 4 0.000001 0.000000 0.000000 0.026804 0.000001 -0.010075
# 5 0.040412 -0.019012 0.034799 0.000001 0.100402 0.000002
# 6 0.000001 -0.000001 0.000001 -0.010075 0.000002 0.035597
#
#
# Mechanical properties :
#
#
# Convention : Reuss Voigt Hill
#
# Bulk Modulus (GPa) = 14.33980 31.90005 23.11993
# Shear Modulus (GPa) = 13.22182 28.05389 20.63785
#
# Velocity S-wave (km/s) = 2.58428 3.76436 3.22869
# Velocity P-wave (km/s) = 4.01844 5.91667 5.05741
#
# Compressibility (1/GPa) = 0.06973598
#
# Stress axis : x y z
#
# Youngs Moduli (GPa) = 12.58876 45.36417 33.96132
#
# Poissons Ratio (x) = 1.22887 -0.02134
# Poissons Ratio (y) = 0.34102 0.14039
# Poissons Ratio (z) = -0.00791 0.18753
#
# Static dielectric constant tensor:
#      x y z
#    x 1.678330 0.000000 -0.014350 
#    y 0.000000 1.708230 0.000000 
#    z -0.014350 0.000000 1.728300 
# 
# From -- ./inp_files/6141.got.cif
#   From: 2010.05.17/outbox.cif.g08.bks.cpg/sg9_4_cif.got.tgz:6141.got - 2010.06.03 20:04:27.
