data_PCOD9134550
_publ_section_title
;
Structure prediction by ZEFSAII (Michael W. Deem and Ramdas Pophale) SiO2 
 PCOD9134550
Probable space group: C C
;
_chemical_formula_sum "Si O2"
_cell_formula_units_Z 24
_cell_length_a 27.380562
_cell_length_b 6.909739
_cell_length_c 5.320995
_cell_angle_alpha 90.000000
_cell_angle_beta 79.181822
_cell_angle_gamma 90.000000
_cell_volume 988.801354
_symmetry_space_group_name_H-M "C C"
_symmetry_group_IT_number 9
_symmetry_cell_setting 'monoclinic'
loop_
_space_group_symop_operation_xyz
x,y,z
x,-y,1/2+z
1/2+x,1/2+y,z
1/2+x,1/2-y,1/2+z
loop_
_atom_site_type_symbol
_atom_site_label
_atom_site_fract_x
_atom_site_fract_y
_atom_site_fract_z
Si Si1 0.966540 0.278072 0.034350
Si Si2 0.860828 0.129071 0.003952
Si Si3 0.256867 0.214754 0.742476
Si Si4 0.607973 0.627714 0.253587
Si Si5 0.506076 0.786052 0.496106
Si Si6 0.717681 0.725670 0.280719
O O1 0.910849 0.253015 0.992114
O O2 0.972362 0.194264 0.308795
O O3 0.001592 0.197900 0.778513
O O4 0.984957 0.498201 0.053417
O O5 0.812502 0.262754 0.089006
O O6 0.860215 0.972901 0.232552
O O7 0.222117 0.303501 0.558472
O O8 0.237334 0.995835 0.798037
O O9 0.252265 0.304541 0.024404
O O10 0.605262 0.469969 0.482236
O O11 0.562023 0.771211 0.343325
O O12 0.661614 0.725055 0.237438
#
# Coordination Sequence:
#
# PCOD9134550 Si02
#       6
#     4   4   4   4   4   4
#     4  10  23  45  62  92 132 169 221 273 329 389
#     4  12  26  42  67  94 128 174 221 275 336 380
#     4  10  20  38  64  92 125 161 216 261 320 386
#     4  12  21  37  64  99 130 173 220 261 315 383
#     4  10  23  39  67  91 133 167 221 268 318 388
#     4  10  19  37  64  92 124 166 211 262 308 390
#
# _framework density 24.271809000000001
#
# number of rings (size 3 to 8) (size 9 to 14) (size 15 to 20)
#    0.000    1.333    3.333    3.000    0.000    9.333 
#    0.000    0.000   22.000    0.000    0.000    0.000 
#    0.000    0.000    0.000    0.000    0.000    0.000 
#
# Total GULP energy -67068.817497 kJ/mol
# GULP energy per Si atom -5589.068125 kJ/mol
# Density = 2.421657 g / cm^3
# Si number density = 24.271809 Si / 1000 Ang^3
#
#
#
# Elastic Constant Matrix: (Units=GPa)
#
#
# Indices 1 2 3 4 5 6 
#
# 1 122.7069 -7.8015 -5.9246 0.0000 -12.3183 0.0000
# 2 -7.8015 77.2873 -26.9585 0.0000 -3.1427 0.0000
# 3 -5.9246 -26.9585 156.2534 0.0000 28.8150 0.0000
# 4 0.0000 0.0000 0.0000 -4.3749 0.0000 -31.6611
# 5 -12.3183 -3.1427 28.8150 0.0000 58.0945 0.0000
# 6 0.0000 0.0000 0.0000 -31.6611 0.0000 26.7661
#
#
#
# Elastic Compliance Matrix: (Units=1/GPa)
#
#
# Indices 1 2 3 4 5 6 
#
# 1 0.008395 0.000976 0.000164 0.000000 0.001752 0.000000
# 2 0.000976 0.013893 0.002484 0.000000 -0.000274 0.000000
# 3 0.000164 0.002484 0.007488 0.000000 -0.003545 0.000000
# 4 0.000000 0.000000 0.000000 -0.023908 0.000000 -0.028281
# 5 0.001752 -0.000274 -0.003545 0.000000 0.019328 0.000000
# 6 0.000000 0.000000 0.000000 -0.028281 0.000000 0.003908
#
#
# Mechanical properties :
#
#
# Convention : Reuss Voigt Hill
#
# Bulk Modulus (GPa) = 27.00950 30.54202 28.77576
# Shear Modulus (GPa) = 146.20758 42.55929 94.38344
#
# Velocity S-wave (km/s) = 7.76971 4.19196 6.24263
# Velocity P-wave (km/s) = 9.57305 6.00339 7.99012
#
# Compressibility (1/GPa) = 0.03702400
#
# Stress axis : x y z
#
# Youngs Moduli (GPa) = 119.11434 71.98039 133.53836
#
# Poissons Ratio (x) = -0.07023 -0.02185
# Poissons Ratio (y) = -0.11622 -0.33176
# Poissons Ratio (z) = -0.01949 -0.17883
#
# Static dielectric constant tensor:
#      x y z
#    x 1.882170 0.000000 0.049870 
#    y 0.000000 3.092000 0.000000 
#    z 0.049870 0.000000 2.008700 
# 
# From -- ./inp_files/3114.got.cif
#   From: 2010.05.17/outbox.cif.g08.bks.cpg/sg9_2_cif.got.tgz:3114.got - 2010.06.03 20:04:27.
