data_PCOD9134633
_publ_section_title
;
Structure prediction by ZEFSAII (Michael W. Deem and Ramdas Pophale) SiO2 
 PCOD9134633
Probable space group: C C
;
_chemical_formula_sum "Si O2"
_cell_formula_units_Z 32
_cell_length_a 11.769313
_cell_length_b 9.272093
_cell_length_c 14.829768
_cell_angle_alpha 90.000000
_cell_angle_beta 119.879129
_cell_angle_gamma 90.000000
_cell_volume 1403.206389
_symmetry_space_group_name_H-M "C C"
_symmetry_group_IT_number 9
_symmetry_cell_setting 'monoclinic'
loop_
_space_group_symop_operation_xyz
x,y,z
x,-y,1/2+z
1/2+x,1/2+y,z
1/2+x,1/2-y,1/2+z
loop_
_atom_site_type_symbol
_atom_site_label
_atom_site_fract_x
_atom_site_fract_y
_atom_site_fract_z
Si Si1 0.731260 0.057803 0.008100
Si Si2 0.874767 0.640438 0.179709
Si Si3 0.402329 0.274876 0.370507
Si Si4 0.038329 0.972163 0.830995
Si Si5 0.110973 0.668014 0.590379
Si Si6 0.108231 0.319101 0.295046
Si Si7 0.219009 0.113382 0.558219
Si Si8 0.500076 0.384353 0.125514
O O1 0.751405 0.223421 0.044772
O O2 0.654175 0.975697 0.056129
O O3 0.869244 0.975735 0.050097
O O4 0.644149 0.061427 0.882949
O O5 0.937593 0.670889 0.301455
O O6 0.736286 0.726413 0.132074
O O7 0.837463 0.477789 0.145567
O O8 0.956020 0.723203 0.135432
O O9 0.426745 0.435004 0.338261
O O10 0.494653 0.243732 0.490652
O O11 0.253630 0.248640 0.339568
O O12 0.056018 0.045542 0.740314
O O13 0.014730 0.803505 0.800190
O O14 0.161300 0.970082 0.947708
O O15 0.077745 0.640842 0.680845
O O16 0.103235 0.113771 0.586362
#
# Coordination Sequence:
#
# PCOD9134633 Si02
#       8
#     4   4   4   4   4   4   4   4
#     4  10  24  41  60  98 127 164 223 259 311 399
#     4   9  20  38  65  95 121 167 221 255 321 395
#     4  10  19  38  67  91 124 171 210 260 326 374
#     4  10  21  37  66  94 121 169 217 260 316 390
#     4  10  20  42  63  88 137 166 205 274 318 379
#     4  10  22  39  64  97 123 171 219 253 332 381
#     4  11  21  44  62  91 134 161 213 272 308 383
#     4  10  21  41  65  88 127 173 204 265 336 357
#
# _framework density 22.804914
#
# number of rings (size 3 to 8) (size 9 to 14) (size 15 to 20)
#    0.000    2.000    1.250    3.000    1.750    0.000 
#   13.500    1.250    0.000    0.000    0.000    0.000 
#    0.000    0.000    0.000    0.000    0.000    0.000 
#
# Total GULP energy -89470.884708 kJ/mol
# GULP energy per Si atom -5591.930294 kJ/mol
# Density = 2.275301 g / cm^3
# Si number density = 22.804914 Si / 1000 Ang^3
#
#
#
# Elastic Constant Matrix: (Units=GPa)
#
#
# Indices 1 2 3 4 5 6 
#
# 1 106.8105 57.8366 49.7275 0.0000 -14.0928 0.0000
# 2 57.8366 100.1788 33.3901 0.0000 -17.1960 0.0000
# 3 49.7275 33.3901 145.5837 0.0000 -35.1668 0.0000
# 4 0.0000 0.0000 0.0000 28.0722 0.0000 8.3519
# 5 -14.0928 -17.1960 -35.1668 0.0000 22.5240 0.0000
# 6 0.0000 0.0000 0.0000 8.3519 0.0000 28.1980
#
#
#
# Elastic Compliance Matrix: (Units=1/GPa)
#
#
# Indices 1 2 3 4 5 6 
#
# 1 0.015141 -0.007883 -0.004061 0.000000 -0.002885 0.000000
# 2 -0.007883 0.015655 0.001281 0.000000 0.009019 0.000000
# 3 -0.004061 0.001281 0.012177 0.000000 0.017449 0.000000
# 4 0.000000 0.000000 0.000000 0.039065 0.000000 -0.011570
# 5 -0.002885 0.009019 0.017449 0.000000 0.076721 0.000000
# 6 0.000000 0.000000 0.000000 -0.011570 0.000000 0.038891
#
#
# Mechanical properties :
#
#
# Convention : Reuss Voigt Hill
#
# Bulk Modulus (GPa) = 46.19589 70.49793 58.34691
# Shear Modulus (GPa) = 22.10527 29.86677 25.98602
#
# Velocity S-wave (km/s) = 3.11677 3.62285 3.37930
# Velocity P-wave (km/s) = 5.76657 6.96281 6.39273
#
# Compressibility (1/GPa) = 0.02164695
#
# Stress axis : x y z
#
# Youngs Moduli (GPa) = 66.04682 63.87918 82.12112
#
# Poissons Ratio (x) = 0.50356 0.33345
# Poissons Ratio (y) = 0.52065 -0.10518
# Poissons Ratio (z) = 0.26818 -0.08182
#
# Static dielectric constant tensor:
#      x y z
#    x 1.818070 0.000000 0.019590 
#    y 0.000000 1.861790 0.000000 
#    z 0.019590 0.000000 1.877830 
# 
# From -- ./inp_files/24344.got.cif
#   From: 2010.05.17/outbox.cif.g08.bks.cpg/sg9_13_cif.got.tgz:24344.got - 2010.06.03 20:04:27.
