data_PCOD9134921
_publ_section_title
;
Structure prediction by ZEFSAII (Michael W. Deem and Ramdas Pophale) SiO2 
 PCOD9134921
Probable space group: C C
;
_chemical_formula_sum "Si O2"
_cell_formula_units_Z 24
_cell_length_a 17.230775
_cell_length_b 6.797389
_cell_length_c 7.939028
_cell_angle_alpha 90.000000
_cell_angle_beta 69.127355
_cell_angle_gamma 90.000000
_cell_volume 868.831052
_symmetry_space_group_name_H-M "C C"
_symmetry_group_IT_number 9
_symmetry_cell_setting 'monoclinic'
loop_
_space_group_symop_operation_xyz
x,y,z
x,-y,1/2+z
1/2+x,1/2+y,z
1/2+x,1/2-y,1/2+z
loop_
_atom_site_type_symbol
_atom_site_label
_atom_site_fract_x
_atom_site_fract_y
_atom_site_fract_z
Si Si1 0.689490 0.778715 0.297710
Si Si2 0.064575 0.768458 0.417369
Si Si3 0.360879 0.384254 0.021989
Si Si4 0.525233 0.278001 0.055232
Si Si5 0.722175 0.372649 0.147883
Si Si6 0.894391 0.709536 0.633023
O O1 0.594130 0.844040 0.394562
O O2 0.682924 0.588613 0.182749
O O3 0.716238 0.716976 0.466968
O O4 0.767367 0.892517 0.162141
O O5 0.165165 0.749994 0.325271
O O6 0.929244 0.233776 0.578213
O O7 0.049054 0.991506 0.498929
O O8 0.990748 0.649456 0.569561
O O9 0.390606 0.609006 0.004675
O O10 0.367864 0.296643 0.832322
O O11 0.541230 0.247256 0.238638
O O12 0.816231 0.415058 0.132284
#
# Coordination Sequence:
#
# PCOD9134921 Si02
#       6
#     4   4   4   4   4   4
#     4  10  20  35  55  79 106 136 172 213 257 306
#     4   9  17  31  52  75 101 134 172 211 252 305
#     4  11  21  34  54  78 106 138 173 214 257 305
#     4   9  17  31  52  75 101 134 172 211 252 305
#     4  10  20  35  55  79 106 136 172 213 257 306
#     4  11  21  34  54  78 106 138 173 214 257 305
#
# _framework density 27.623324
#
# number of rings (size 3 to 8) (size 9 to 14) (size 15 to 20)
#    0.000    2.000    0.000    7.000    0.000    4.000 
#    0.000    1.667    0.000    8.000    0.000    0.000 
#    0.000    0.000    0.000    0.000    0.000    0.000 
#
# Total GULP energy -67122.107042 kJ/mol
# GULP energy per Si atom -5593.508920 kJ/mol
# Density = 2.756045 g / cm^3
# Si number density = 27.623324 Si / 1000 Ang^3
#
#
#
# Elastic Constant Matrix: (Units=GPa)
#
#
# Indices 1 2 3 4 5 6 
#
# 1 143.0999 29.3517 66.3657 0.0000 -32.5490 0.0000
# 2 29.3517 33.5790 26.6064 0.0000 -22.2248 0.0000
# 3 66.3657 26.6064 177.7090 0.0000 -37.8945 0.0000
# 4 0.0000 0.0000 0.0000 42.6731 0.0000 -21.9411
# 5 -32.5490 -22.2248 -37.8945 0.0000 80.6256 0.0000
# 6 0.0000 0.0000 0.0000 -21.9411 0.0000 45.9920
#
#
#
# Elastic Compliance Matrix: (Units=1/GPa)
#
#
# Indices 1 2 3 4 5 6 
#
# 1 0.009553 -0.005631 -0.002482 0.000000 0.001138 0.000000
# 2 -0.005631 0.042049 -0.002452 0.000000 0.008166 0.000000
# 3 -0.002482 -0.002452 0.007294 0.000000 0.001751 0.000000
# 4 0.000000 0.000000 0.000000 0.031050 0.000000 0.014813
# 5 0.001138 0.008166 0.001751 0.000000 0.015936 0.000000
# 6 0.000000 0.000000 0.000000 0.014813 0.000000 0.028810
#
#
# Mechanical properties :
#
#
# Convention : Reuss Voigt Hill
#
# Bulk Modulus (GPa) = 26.47700 66.55948 46.51824
# Shear Modulus (GPa) = 29.68940 49.32907 39.50923
#
# Velocity S-wave (km/s) = 3.28196 4.23043 3.78601
# Velocity P-wave (km/s) = 4.89566 6.92891 5.99905
#
# Compressibility (1/GPa) = 0.03776863
#
# Stress axis : x y z
#
# Youngs Moduli (GPa) = 104.68038 23.78158 137.09143
#
# Poissons Ratio (x) = 0.13390 0.34025
# Poissons Ratio (y) = 0.58941 0.33609
# Poissons Ratio (z) = 0.25980 0.05830
#
# Static dielectric constant tensor:
#      x y z
#    x 2.191390 0.000000 -0.105760 
#    y 0.000000 2.328070 0.000000 
#    z -0.105760 0.000000 2.103400 
# 
# From -- ./inp_files/10601.got.cif
#   From: 2010.05.17/outbox.cif.g08.bks.cpg/sg9_6_cif.got.tgz:10601.got - 2010.06.03 20:04:27.
