data_PCOD9134795
_publ_section_title
;
Structure prediction by ZEFSAII (Michael W. Deem and Ramdas Pophale) SiO2 
 PCOD9134795
Probable space group: C C
;
_chemical_formula_sum "Si O2"
_cell_formula_units_Z 32
_cell_length_a 7.236791
_cell_length_b 7.250606
_cell_length_c 24.195466
_cell_angle_alpha 90.000000
_cell_angle_beta 77.162429
_cell_angle_gamma 90.000000
_cell_volume 1237.829035
_symmetry_space_group_name_H-M "C C"
_symmetry_group_IT_number 9
_symmetry_cell_setting 'monoclinic'
loop_
_space_group_symop_operation_xyz
x,y,z
x,-y,1/2+z
1/2+x,1/2+y,z
1/2+x,1/2-y,1/2+z
loop_
_atom_site_type_symbol
_atom_site_label
_atom_site_fract_x
_atom_site_fract_y
_atom_site_fract_z
Si Si1 0.966850 0.663816 0.586670
Si Si2 0.582517 0.134116 0.704972
Si Si3 0.854789 0.893521 0.372532
Si Si4 0.419192 0.812244 0.392142
Si Si5 0.671216 0.811411 0.530705
Si Si6 0.579752 0.570865 0.992836
Si Si7 0.986143 0.386453 0.808002
Si Si8 0.392971 0.501738 0.251818
O O1 0.012680 0.643917 0.647265
O O2 0.030921 0.477906 0.551449
O O3 0.756739 0.728102 0.582604
O O4 0.092477 0.824281 0.550614
O O5 0.544748 0.340036 0.732250
O O6 0.803512 0.083880 0.702335
O O7 0.472119 0.968002 0.742936
O O8 0.634893 0.862618 0.394697
O O9 0.965356 0.709873 0.375646
O O10 0.916630 0.841738 0.298456
O O11 0.928390 0.092102 0.380702
O O12 0.365642 0.378745 0.487750
O O13 0.252901 0.861850 0.444990
O O14 0.385892 0.925088 0.338450
O O15 0.583535 0.645041 0.503208
O O16 0.214813 0.400612 0.791795
#
# Coordination Sequence:
#
# PCOD9134795 Si02
#       8
#     4   4   4   4   4   4   4   4
#     4  10  24  43  67  95 131 179 225 284 332 405
#     4  10  19  42  60  86 132 162 218 264 328 391
#     4  11  21  37  62  92 128 171 208 260 331 391
#     4  11  23  41  61  95 126 167 217 268 323 397
#     4  10  24  44  69  94 136 170 229 273 339 392
#     4  10  25  43  69  95 134 177 228 281 335 397
#     4   9  23  35  61  86 132 160 211 260 323 391
#     4   9  19  37  57  87 129 156 214 256 313 394
#
# _framework density 25.851711999999999
#
# number of rings (size 3 to 8) (size 9 to 14) (size 15 to 20)
#    1.500    0.500    1.250    1.500    3.500    2.000 
#    4.500    0.000    0.000    0.000    0.000    0.000 
#    0.000    0.000    0.000    0.000    0.000    0.000 
#
# Total GULP energy -89201.362267 kJ/mol
# GULP energy per Si atom -5575.085142 kJ/mol
# Density = 2.579287 g / cm^3
# Si number density = 25.851712 Si / 1000 Ang^3
#
#
#
# Elastic Constant Matrix: (Units=GPa)
#
#
# Indices 1 2 3 4 5 6 
#
# 1 81.4709 49.3269 -3.2059 0.0000 -3.2930 0.0000
# 2 49.3269 201.2313 31.5110 0.0000 -6.7911 0.0000
# 3 -3.2059 31.5110 70.9653 0.0000 -4.1533 0.0000
# 4 0.0000 0.0000 0.0000 27.3337 0.0000 10.9868
# 5 -3.2930 -6.7911 -4.1533 0.0000 21.1253 0.0000
# 6 0.0000 0.0000 0.0000 10.9868 0.0000 52.0527
#
#
#
# Elastic Compliance Matrix: (Units=1/GPa)
#
#
# Indices 1 2 3 4 5 6 
#
# 1 0.014848 -0.003984 0.002529 0.000000 0.001531 0.000000
# 2 -0.003984 0.006443 -0.002991 0.000000 0.000862 0.000000
# 3 0.002529 -0.002991 0.015681 0.000000 0.002516 0.000000
# 4 0.000000 0.000000 0.000000 0.039976 0.000000 -0.008438
# 5 0.001531 0.000862 0.002516 0.000000 0.048347 0.000000
# 6 0.000000 0.000000 0.000000 -0.008438 0.000000 0.020992
#
#
# Mechanical properties :
#
#
# Convention : Reuss Voigt Hill
#
# Bulk Modulus (GPa) = 35.61040 56.54793 46.07917
# Shear Modulus (GPa) = 30.38796 38.50471 34.44633
#
# Velocity S-wave (km/s) = 3.43223 3.86352 3.65425
# Velocity P-wave (km/s) = 5.43247 6.46713 5.97225
#
# Compressibility (1/GPa) = 0.02808168
#
# Stress axis : x y z
#
# Youngs Moduli (GPa) = 67.34973 155.19779 63.77215
#
# Poissons Ratio (x) = 0.61831 -0.16130
# Poissons Ratio (y) = 0.26832 0.19072
# Poissons Ratio (z) = -0.17035 0.46413
#
# Static dielectric constant tensor:
#      x y z
#    x 2.098860 0.000000 0.177800 
#    y 0.000000 2.044180 0.000000 
#    z 0.177800 0.000000 2.501450 
# 
# From -- ./inp_files/36436.got.cif
#   From: 2010.05.17/outbox.cif.g08.bks.cpg/sg9_19_cif.got.tgz:36436.got - 2010.06.03 20:04:27.
