data_PCOD9134839
_publ_section_title
;
Structure prediction by ZEFSAII (Michael W. Deem and Ramdas Pophale) SiO2 
 PCOD9134839
Probable space group: C C
;
_chemical_formula_sum "Si O2"
_cell_formula_units_Z 28
_cell_length_a 13.022791
_cell_length_b 6.480839
_cell_length_c 14.211058
_cell_angle_alpha 90.000000
_cell_angle_beta 95.669686
_cell_angle_gamma 90.000000
_cell_volume 1193.526109
_symmetry_space_group_name_H-M "C C"
_symmetry_group_IT_number 9
_symmetry_cell_setting 'monoclinic'
loop_
_space_group_symop_operation_xyz
x,y,z
x,-y,1/2+z
1/2+x,1/2+y,z
1/2+x,1/2-y,1/2+z
loop_
_atom_site_type_symbol
_atom_site_label
_atom_site_fract_x
_atom_site_fract_y
_atom_site_fract_z
Si Si1 0.137350 0.656747 0.872210
Si Si2 0.394100 0.813826 0.613682
Si Si3 0.420866 0.743094 0.321874
Si Si4 0.796254 0.545431 0.447649
Si Si5 0.589659 0.929216 0.063858
Si Si6 0.448842 0.574006 0.991536
Si Si7 0.280109 0.543797 0.721501
O O1 0.186241 0.878738 0.901749
O O2 0.221782 0.545911 0.815663
O O3 0.031595 0.669124 0.804670
O O4 0.111086 0.542706 0.966633
O O5 0.495234 0.951965 0.607325
O O6 0.419516 0.597060 0.565403
O O7 0.351729 0.745484 0.711029
O O8 0.303301 0.921517 0.545622
O O9 0.450923 0.553142 0.394306
O O10 0.352627 0.656157 0.231298
O O11 0.356067 0.903752 0.378068
O O12 0.861448 0.752858 0.471650
O O13 0.692161 0.948139 0.134905
O O14 0.548965 0.701243 0.034027
#
# Coordination Sequence:
#
# PCOD9134839 Si02
#       7
#     4   4   4   4   4   4   4
#     4  12  25  48  75 108 140 206 243 294 379 431
#     4  10  24  47  70 108 142 195 241 304 365 428
#     4  11  25  47  69 105 148 188 239 305 368 430
#     4  10  22  46  74 100 142 190 242 298 363 435
#     4  11  26  47  77 106 147 195 247 299 372 441
#     4  10  19  47  77  93 143 192 237 298 360 440
#     4  12  29  44  74 114 148 186 251 304 359 441
#
# _framework density 23.459897000000002
#
# number of rings (size 3 to 8) (size 9 to 14) (size 15 to 20)
#    0.000    1.143    5.714    0.857    6.000    3.429 
#    5.143    0.000    0.000    0.000    0.000    0.000 
#    0.000    0.000    0.000    0.000    0.000    0.000 
#
# Total GULP energy -78341.385561 kJ/mol
# GULP energy per Si atom -5595.813254 kJ/mol
# Density = 2.340650 g / cm^3
# Si number density = 23.459897 Si / 1000 Ang^3
#
#
#
# Elastic Constant Matrix: (Units=GPa)
#
#
# Indices 1 2 3 4 5 6 
#
# 1 110.2515 27.1342 43.6924 0.0000 12.2217 0.0000
# 2 27.1342 102.2498 28.8436 0.0000 11.2214 0.0000
# 3 43.6924 28.8436 76.2466 0.0000 17.8091 0.0000
# 4 0.0000 0.0000 0.0000 40.5571 0.0000 7.8685
# 5 12.2217 11.2214 17.8091 0.0000 36.1048 0.0000
# 6 0.0000 0.0000 0.0000 7.8685 0.0000 35.3142
#
#
#
# Elastic Compliance Matrix: (Units=1/GPa)
#
#
# Indices 1 2 3 4 5 6 
#
# 1 0.011917 -0.001356 -0.006185 0.000000 -0.000562 0.000000
# 2 -0.001356 0.011179 -0.003105 0.000000 -0.001484 0.000000
# 3 -0.006185 -0.003105 0.019349 0.000000 -0.006485 0.000000
# 4 0.000000 0.000000 0.000000 0.025771 0.000000 -0.005742
# 5 -0.000562 -0.001484 -0.006485 0.000000 0.031547 0.000000
# 6 0.000000 0.000000 0.000000 -0.005742 0.000000 0.029597
#
#
# Mechanical properties :
#
#
# Convention : Reuss Voigt Hill
#
# Bulk Modulus (GPa) = 47.27553 54.23202 50.75377
# Shear Modulus (GPa) = 31.70526 35.00039 33.35282
#
# Velocity S-wave (km/s) = 3.68022 3.86673 3.77463
# Velocity P-wave (km/s) = 6.18499 6.56526 6.37796
#
# Compressibility (1/GPa) = 0.02115259
#
# Stress axis : x y z
#
# Youngs Moduli (GPa) = 83.91198 89.45667 51.68242
#
# Poissons Ratio (x) = 0.12132 0.31965
# Poissons Ratio (y) = 0.11380 0.16048
# Poissons Ratio (z) = 0.51898 0.27777
#
# Static dielectric constant tensor:
#      x y z
#    x 1.900710 0.000000 -0.007960 
#    y 0.000000 1.865190 0.000000 
#    z -0.007960 0.000000 1.892820 
# 
# From -- ./inp_files/25289.got.cif
#   From: 2010.05.17/outbox.cif.g08.bks.cpg/sg9_13_cif.got.tgz:25289.got - 2010.06.03 20:04:27.
