data_PCOD9134663
_publ_section_title
;
Structure prediction by ZEFSAII (Michael W. Deem and Ramdas Pophale) SiO2 
 PCOD9134663
Probable space group: C C
;
_chemical_formula_sum "Si O2"
_cell_formula_units_Z 32
_cell_length_a 9.054570
_cell_length_b 7.305298
_cell_length_c 22.936617
_cell_angle_alpha 90.000000
_cell_angle_beta 50.246992
_cell_angle_gamma 90.000000
_cell_volume 1166.415201
_symmetry_space_group_name_H-M "C C"
_symmetry_group_IT_number 9
_symmetry_cell_setting 'monoclinic'
loop_
_space_group_symop_operation_xyz
x,y,z
x,-y,1/2+z
1/2+x,1/2+y,z
1/2+x,1/2-y,1/2+z
loop_
_atom_site_type_symbol
_atom_site_label
_atom_site_fract_x
_atom_site_fract_y
_atom_site_fract_z
Si Si1 0.716970 0.667461 0.835190
Si Si2 0.218795 0.523863 0.175718
Si Si3 0.973673 0.248399 0.454654
Si Si4 0.500001 0.014373 0.348410
Si Si5 0.079339 0.835314 0.709669
Si Si6 0.644565 0.520424 0.575678
Si Si7 0.427350 0.037621 0.180607
Si Si8 0.704760 0.099528 0.009055
O O1 0.796168 0.528757 0.866049
O O2 0.755763 0.569016 0.763109
O O3 0.529340 0.795075 0.876480
O O4 0.888875 0.821689 0.794937
O O5 0.432817 0.511169 0.101457
O O6 0.158235 0.530039 0.257397
O O7 0.072210 0.664457 0.183980
O O8 0.087790 0.365997 0.175055
O O9 0.046623 0.341056 0.376757
O O10 0.784221 0.367877 0.515615
O O11 0.115172 0.317860 0.471253
O O12 0.885656 0.043235 0.464927
O O13 0.102141 0.973257 0.652897
O O14 0.274651 0.812113 0.694146
O O15 0.734283 0.715114 0.538556
O O16 0.532452 0.999670 0.089733
#
# Coordination Sequence:
#
# PCOD9134663 Si02
#       8
#     4   4   4   4   4   4   4   4
#     4  10  22  41  69 103 144 198 252 317 395 460
#     4  10  22  41  65 105 138 184 250 312 386 446
#     4  12  27  48  69 106 156 204 252 315 392 482
#     4  10  22  45  71  95 151 207 248 315 390 478
#     4  10  19  39  63 104 130 178 236 306 379 439
#     4  12  22  44  75 102 145 190 258 314 391 458
#     4  10  20  38  64 100 141 170 242 321 372 446
#     4  12  26  44  70 109 149 197 252 316 391 469
#
# _framework density 27.434483
#
# number of rings (size 3 to 8) (size 9 to 14) (size 15 to 20)
#    0.000    1.500    3.750    3.000    0.000    4.000 
#    4.500    8.750    0.000    0.000    0.000    0.000 
#    0.000    0.000    0.000    0.000    0.000    0.000 
#
# Total GULP energy -89067.774463 kJ/mol
# GULP energy per Si atom -5566.735904 kJ/mol
# Density = 2.737204 g / cm^3
# Si number density = 27.434483 Si / 1000 Ang^3
#
#
#
# Elastic Constant Matrix: (Units=GPa)
#
#
# Indices 1 2 3 4 5 6 
#
# 1 130.2487 59.2672 49.7951 0.0000 -13.1973 0.0000
# 2 59.2672 182.7475 26.5985 0.0000 20.8152 0.0000
# 3 49.7951 26.5985 90.4488 0.0000 19.9356 0.0000
# 4 0.0000 0.0000 0.0000 46.0159 0.0000 4.8690
# 5 -13.1973 20.8152 19.9356 0.0000 49.1645 0.0000
# 6 0.0000 0.0000 0.0000 4.8690 0.0000 48.4958
#
#
#
# Elastic Compliance Matrix: (Units=1/GPa)
#
#
# Indices 1 2 3 4 5 6 
#
# 1 0.013616 -0.004222 -0.008186 0.000000 0.008762 0.000000
# 2 -0.004222 0.007194 0.001241 0.000000 -0.004683 0.000000
# 3 -0.008186 0.001241 0.017348 0.000000 -0.009757 0.000000
# 4 0.000000 0.000000 0.000000 0.021965 0.000000 -0.002205
# 5 0.008762 -0.004683 -0.009757 0.000000 0.028631 0.000000
# 6 0.000000 0.000000 0.000000 -0.002205 0.000000 0.020842
#
#
# Mechanical properties :
#
#
# Convention : Reuss Voigt Hill
#
# Bulk Modulus (GPa) = 63.19403 74.97407 69.08405
# Shear Modulus (GPa) = 36.44188 46.58751 41.51470
#
# Velocity S-wave (km/s) = 3.64857 4.12532 3.89425
# Velocity P-wave (km/s) = 6.39015 7.07663 6.74213
#
# Compressibility (1/GPa) = 0.01582428
#
# Stress axis : x y z
#
# Youngs Moduli (GPa) = 73.44181 139.00194 57.64337
#
# Poissons Ratio (x) = 0.58693 0.47185
# Poissons Ratio (y) = 0.31011 -0.07154
# Poissons Ratio (z) = 0.60117 -0.17251
#
# Static dielectric constant tensor:
#      x y z
#    x 2.279110 0.000000 0.072030 
#    y 0.000000 2.418980 0.000000 
#    z 0.072030 0.000000 2.126480 
# 
# From -- ./inp_files/34917.got.cif
#   From: 2010.05.17/outbox.cif.g08.bks.cpg/sg9_18_cif.got.tgz:34917.got - 2010.06.03 20:04:27.
