data_PCOD9134706
_publ_section_title
;
Structure prediction by ZEFSAII (Michael W. Deem and Ramdas Pophale) SiO2 
 PCOD9134706
Probable space group: C C
;
_chemical_formula_sum "Si O2"
_cell_formula_units_Z 28
_cell_length_a 7.881211
_cell_length_b 25.754577
_cell_length_c 5.285835
_cell_angle_alpha 90.000000
_cell_angle_beta 95.902140
_cell_angle_gamma 90.000000
_cell_volume 1067.216791
_symmetry_space_group_name_H-M "C C"
_symmetry_group_IT_number 9
_symmetry_cell_setting 'monoclinic'
loop_
_space_group_symop_operation_xyz
x,y,z
x,-y,1/2+z
1/2+x,1/2+y,z
1/2+x,1/2-y,1/2+z
loop_
_atom_site_type_symbol
_atom_site_label
_atom_site_fract_x
_atom_site_fract_y
_atom_site_fract_z
Si Si1 0.671410 0.186474 0.837740
Si Si2 0.452182 0.517192 0.034942
Si Si3 0.619881 0.333596 0.258598
Si Si4 0.927839 0.632629 0.494996
Si Si5 0.948623 0.735211 0.165777
Si Si6 0.846343 0.519153 0.478392
Si Si7 0.929644 0.867462 0.723049
O O1 0.612545 0.139778 0.648911
O O2 0.798836 0.226126 0.723704
O O3 0.760260 0.161848 0.099251
O O4 0.504656 0.219278 0.893010
O O5 0.380678 0.521390 0.739465
O O6 0.650473 0.499825 0.006648
O O7 0.426082 0.571143 0.178231
O O8 0.792644 0.359802 0.199704
O O9 0.494511 0.351622 0.009337
O O10 0.612189 0.271217 0.262436
O O11 0.563660 0.350577 0.526240
O O12 0.916283 0.681818 0.307653
O O13 0.875834 0.577086 0.378294
O O14 0.923366 0.516598 0.771176
#
# Coordination Sequence:
#
# PCOD9134706 Si02
#       7
#     4   4   4   4   4   4   4
#     4  11  29  46  76 108 162 203 262 317 396 469
#     4  10  19  39  71 103 143 187 255 312 371 449
#     4  11  25  44  76 105 154 195 260 311 385 466
#     4  12  27  45  76 113 151 209 256 326 384 458
#     4  11  27  46  71 110 155 207 252 312 389 470
#     4  10  22  42  70 106 143 190 260 315 372 447
#     4  11  25  48  74 113 148 205 255 323 387 459
#
# _framework density 26.236471000000002
#
# number of rings (size 3 to 8) (size 9 to 14) (size 15 to 20)
#    0.000    1.143    1.429    4.286   14.000    0.000 
#    0.000    1.429    0.000    0.000    0.000    0.000 
#    0.000    0.000    0.000    0.000    0.000    0.000 
#
# Total GULP energy -78229.435546 kJ/mol
# GULP energy per Si atom -5587.816825 kJ/mol
# Density = 2.617676 g / cm^3
# Si number density = 26.236471 Si / 1000 Ang^3
#
#
#
# Elastic Constant Matrix: (Units=GPa)
#
#
# Indices 1 2 3 4 5 6 
#
# 1 86.6845 24.0938 23.0393 0.0000 3.6922 0.0000
# 2 24.0938 145.4449 21.3588 0.0000 -4.5659 0.0000
# 3 23.0393 21.3588 129.3023 0.0000 -14.0330 0.0000
# 4 0.0000 0.0000 0.0000 48.9432 0.0000 -2.6280
# 5 3.6922 -4.5659 -14.0330 0.0000 35.3234 0.0000
# 6 0.0000 0.0000 0.0000 -2.6280 0.0000 26.3680
#
#
#
# Elastic Compliance Matrix: (Units=1/GPa)
#
#
# Indices 1 2 3 4 5 6 
#
# 1 0.012751 -0.001862 -0.002232 0.000000 -0.002460 0.000000
# 2 -0.001862 0.007326 -0.000788 0.000000 0.000828 0.000000
# 3 -0.002232 -0.000788 0.008649 0.000000 0.003567 0.000000
# 4 0.000000 0.000000 0.000000 0.020542 0.000000 0.002047
# 5 -0.002460 0.000828 0.003567 0.000000 0.030091 0.000000
# 6 0.000000 0.000000 0.000000 0.002047 0.000000 0.038129
#
#
# Mechanical properties :
#
#
# Convention : Reuss Voigt Hill
#
# Bulk Modulus (GPa) = 52.73623 55.37950 54.05786
# Shear Modulus (GPa) = 37.43296 41.65626 39.54461
#
# Velocity S-wave (km/s) = 3.78134 3.98895 3.88653
# Velocity P-wave (km/s) = 6.26168 6.50917 6.38662
#
# Compressibility (1/GPa) = 0.01896230
#
# Stress axis : x y z
#
# Youngs Moduli (GPa) = 78.42232 136.50614 115.62278
#
# Poissons Ratio (x) = 0.25416 0.25801
# Poissons Ratio (y) = 0.14601 0.09116
# Poissons Ratio (z) = 0.17500 0.10763
#
# Static dielectric constant tensor:
#      x y z
#    x 2.217900 0.000000 0.167400 
#    y 0.000000 2.239190 0.000000 
#    z 0.167400 0.000000 2.163890 
# 
# From -- ./inp_files/1051.got.cif
#   From: 2010.05.17/outbox.cif.g08.bks.cpg/sg9_1_cif.got.tgz:1051.got - 2010.06.03 20:04:27.
