data_PCOD9134573
_publ_section_title
;
Structure prediction by ZEFSAII (Michael W. Deem and Ramdas Pophale) SiO2 
 PCOD9134573
Probable space group: C C
;
_chemical_formula_sum "Si O2"
_cell_formula_units_Z 28
_cell_length_a 17.987161
_cell_length_b 14.487223
_cell_length_c 11.632364
_cell_angle_alpha 90.000000
_cell_angle_beta 23.348118
_cell_angle_gamma 90.000000
_cell_volume 1201.318357
_symmetry_space_group_name_H-M "C C"
_symmetry_group_IT_number 9
_symmetry_cell_setting 'monoclinic'
loop_
_space_group_symop_operation_xyz
x,y,z
x,-y,1/2+z
1/2+x,1/2+y,z
1/2+x,1/2-y,1/2+z
loop_
_atom_site_type_symbol
_atom_site_label
_atom_site_fract_x
_atom_site_fract_y
_atom_site_fract_z
Si Si1 0.937400 0.176680 0.042280
Si Si2 0.098436 0.622351 0.075438
Si Si3 0.650382 0.982093 0.276379
Si Si4 0.015797 0.969683 0.614688
Si Si5 0.315110 0.722758 0.965227
Si Si6 0.365127 0.947680 0.503460
Si Si7 0.839360 0.368251 0.293007
O O1 0.927933 0.086334 0.132527
O O2 0.862021 0.263809 0.220750
O O3 0.846103 0.177444 0.046436
O O4 0.153021 0.201406 0.714020
O O5 0.995518 0.715704 0.181471
O O6 0.948149 0.547644 0.340629
O O7 0.187241 0.570785 0.842112
O O8 0.241846 0.656917 0.968797
O O9 0.521316 0.919593 0.374661
O O10 0.510739 0.068071 0.501596
O O11 0.845358 0.999636 0.936430
O O12 0.150871 0.906071 0.501606
O O13 0.164790 0.041263 0.349947
O O14 0.345547 0.883916 0.420250
#
# Coordination Sequence:
#
# PCOD9134573 Si02
#       7
#     4   4   4   4   4   4   4
#     4  11  20  40  70 101 124 177 229 278 330 406
#     4  10  21  43  63  97 127 181 222 284 329 408
#     4  10  23  42  67  96 140 173 227 274 347 398
#     4  11  22  43  67 102 130 179 229 274 343 406
#     4  10  19  37  67  93 128 171 225 274 332 393
#     4  10  22  45  68  94 140 178 225 281 338 407
#     4  10  23  44  66  99 141 171 227 287 327 408
#
# _framework density 23.307728000000001
#
# number of rings (size 3 to 8) (size 9 to 14) (size 15 to 20)
#    0.000    1.714    2.857    2.571    2.000    2.286 
#    7.714    4.286    0.000    0.000    0.000    0.000 
#    0.000    0.000    0.000    0.000    0.000    0.000 
#
# Total GULP energy -78338.695050 kJ/mol
# GULP energy per Si atom -5595.621075 kJ/mol
# Density = 2.325468 g / cm^3
# Si number density = 23.307728 Si / 1000 Ang^3
#
#
#
# Elastic Constant Matrix: (Units=GPa)
#
#
# Indices 1 2 3 4 5 6 
#
# 1 175.7846 65.9567 67.3025 0.0030 2.7046 -0.0005
# 2 65.9567 74.4158 34.3733 0.0040 -3.3824 -0.0006
# 3 67.3025 34.3733 146.1175 0.0023 11.0414 -0.0003
# 4 0.0030 0.0040 0.0023 11.5592 -0.0008 -4.1446
# 5 2.7046 -3.3824 11.0414 -0.0008 41.1223 0.0002
# 6 -0.0005 -0.0006 -0.0003 -4.1446 0.0002 49.6452
#
#
#
# Elastic Compliance Matrix: (Units=1/GPa)
#
#
# Indices 1 2 3 4 5 6 
#
# 1 0.009364 -0.007122 -0.002600 0.000000 -0.000504 0.000000
# 2 -0.007122 0.020697 -0.001789 -0.000005 0.002651 0.000000
# 3 -0.002600 -0.001789 0.008635 -0.000001 -0.002295 0.000000
# 4 0.000000 -0.000005 -0.000001 0.089181 0.000001 0.007445
# 5 -0.000504 0.002651 -0.002295 0.000001 0.025185 0.000000
# 6 0.000000 0.000000 0.000000 0.007445 0.000000 0.020765
#
#
# Mechanical properties :
#
#
# Convention : Reuss Voigt Hill
#
# Bulk Modulus (GPa) = 63.79224 81.28699 72.53961
# Shear Modulus (GPa) = 24.74356 35.71102 30.22729
#
# Velocity S-wave (km/s) = 3.26176 3.91852 3.60513
# Velocity P-wave (km/s) = 6.45092 7.44475 6.96559
#
# Compressibility (1/GPa) = 0.01567589
#
# Stress axis : x y z
#
# Youngs Moduli (GPa) = 106.79181 48.31638 115.80112
#
# Poissons Ratio (x) = 0.34409 0.30105
# Poissons Ratio (y) = 0.76053 0.20716
# Poissons Ratio (z) = 0.27763 0.08643
#
# Static dielectric constant tensor:
#      x y z
#    x 1.873550 0.000000 -0.010820 
#    y 0.000000 1.901030 0.000000 
#    z -0.010820 0.000000 1.871970 
# 
# From -- ./inp_files/19477.got.cif
#   From: 2010.05.17/outbox.cif.g08.bks.cpg/sg9_10_cif.got.tgz:19477.got - 2010.06.03 20:04:27.
