data_PCOD9134314
_publ_section_title
;
Structure prediction by ZEFSAII (Michael W. Deem and Ramdas Pophale) SiO2 
 PCOD9134314
Probable space group: C C
;
_chemical_formula_sum "Si O2"
_cell_formula_units_Z 32
_cell_length_a 20.992076
_cell_length_b 7.404393
_cell_length_c 9.024725
_cell_angle_alpha 90.000000
_cell_angle_beta 120.045861
_cell_angle_gamma 90.000000
_cell_volume 1214.251297
_symmetry_space_group_name_H-M "C C"
_symmetry_group_IT_number 9
_symmetry_cell_setting 'monoclinic'
loop_
_space_group_symop_operation_xyz
x,y,z
x,-y,1/2+z
1/2+x,1/2+y,z
1/2+x,1/2-y,1/2+z
loop_
_atom_site_type_symbol
_atom_site_label
_atom_site_fract_x
_atom_site_fract_y
_atom_site_fract_z
Si Si1 0.723870 0.664164 0.900590
Si Si2 0.530795 0.294972 0.553669
Si Si3 0.298869 0.104160 0.285889
Si Si4 0.294946 0.700395 0.205171
Si Si5 0.068698 0.223476 0.781676
Si Si6 0.909142 0.824618 0.612734
Si Si7 0.134816 0.376738 0.406720
Si Si8 0.503012 0.111413 0.951077
O O1 0.755366 0.478086 0.872633
O O2 0.763944 0.813072 0.839548
O O3 0.637141 0.624055 0.788913
O O4 0.750126 0.690546 0.099582
O O5 0.549379 0.370186 0.414486
O O6 0.474592 0.409096 0.588576
O O7 0.600375 0.231510 0.729957
O O8 0.494289 0.100327 0.468679
O O9 0.355124 0.240413 0.426924
O O10 0.324343 0.909832 0.245611
O O11 0.358511 0.595293 0.187105
O O12 0.219159 0.664856 0.030915
O O13 0.112931 0.413775 0.860578
O O14 0.999348 0.285955 0.602913
O O15 0.956063 0.677041 0.758636
O O16 0.085987 0.339217 0.495277
#
# Coordination Sequence:
#
# PCOD9134314 Si02
#       8
#     4   4   4   4   4   4   4   4
#     4  10  21  35  55  79 120 146 189 236 276 341
#     4   9  20  28  51  80 115 145 176 234 279 338
#     4  10  20  34  50  85 116 145 186 219 296 340
#     4  10  19  34  53  76 119 149 180 230 282 341
#     4  10  19  35  57  85 112 146 195 226 282 334
#     4  11  20  32  51  84 121 148 173 233 298 342
#     4   9  18  34  52  81 112 147 187 225 280 325
#     4   9  17  34  51  78 117 144 178 231 287 331
#
# _framework density 26.353687999999998
#
# number of rings (size 3 to 8) (size 9 to 14) (size 15 to 20)
#    0.750    1.500    2.500    1.500    1.750    1.000 
#    0.000    0.000    0.000    0.000    0.000   24.500 
#    0.000    0.000    0.000    0.000    0.000    0.000 
#
# Total GULP energy -89204.839167 kJ/mol
# GULP energy per Si atom -5575.302448 kJ/mol
# Density = 2.629371 g / cm^3
# Si number density = 26.353688 Si / 1000 Ang^3
#
#
#
# Elastic Constant Matrix: (Units=GPa)
#
#
# Indices 1 2 3 4 5 6 
#
# 1 89.0082 -5.5082 -16.2694 0.0000 -22.2734 0.0000
# 2 -5.5082 72.1136 14.0183 0.0000 -5.0929 0.0000
# 3 -16.2694 14.0183 121.1511 0.0000 -21.5229 0.0000
# 4 0.0000 0.0000 0.0000 29.5530 0.0000 -3.1640
# 5 -22.2734 -5.0929 -21.5229 0.0000 31.4448 0.0000
# 6 0.0000 0.0000 0.0000 -3.1640 0.0000 3.9412
#
#
#
# Elastic Compliance Matrix: (Units=1/GPa)
#
#
# Indices 1 2 3 4 5 6 
#
# 1 0.015776 0.001347 0.004539 0.000000 0.014499 0.000000
# 2 0.001347 0.014351 -0.001021 0.000000 0.002579 0.000000
# 3 0.004539 -0.001021 0.010842 0.000000 0.010470 0.000000
# 4 0.000000 0.000000 0.000000 0.037019 0.000000 0.029719
# 5 0.014499 0.002579 0.010470 0.000000 0.049656 0.000000
# 6 0.000000 0.000000 0.000000 0.029719 0.000000 0.277585
#
#
# Mechanical properties :
#
#
# Convention : Reuss Voigt Hill
#
# Bulk Modulus (GPa) = 19.72522 29.63937 24.68229
# Shear Modulus (GPa) = 12.12413 32.32330 22.22371
#
# Velocity S-wave (km/s) = 2.14721 3.50597 2.90709
# Velocity P-wave (km/s) = 3.69438 5.25930 4.54471
#
# Compressibility (1/GPa) = 0.05069653
#
# Stress axis : x y z
#
# Youngs Moduli (GPa) = 63.38673 69.68353 92.23451
#
# Poissons Ratio (x) = -0.09385 -0.41862
# Poissons Ratio (y) = -0.08537 0.09421
# Poissons Ratio (z) = -0.28769 0.07118
#
# Static dielectric constant tensor:
#      x y z
#    x 2.219950 0.000000 -0.043240 
#    y 0.000000 2.248340 0.000000 
#    z -0.043240 0.000000 2.018820 
# 
# From -- ./inp_files/10685.got.cif
#   From: 2010.05.17/outbox.cif.g08.bks.cpg/sg9_6_cif.got.tgz:10685.got - 2010.06.03 20:04:27.
