data_PCOD9134597
_publ_section_title
;
Structure prediction by ZEFSAII (Michael W. Deem and Ramdas Pophale) SiO2 
 PCOD9134597
Probable space group: C C
;
_chemical_formula_sum "Si O2"
_cell_formula_units_Z 32
_cell_length_a 18.396072
_cell_length_b 5.598586
_cell_length_c 17.801437
_cell_angle_alpha 90.000000
_cell_angle_beta 133.589033
_cell_angle_gamma 90.000000
_cell_volume 1327.942617
_symmetry_space_group_name_H-M "C C"
_symmetry_group_IT_number 9
_symmetry_cell_setting 'monoclinic'
loop_
_space_group_symop_operation_xyz
x,y,z
x,-y,1/2+z
1/2+x,1/2+y,z
1/2+x,1/2-y,1/2+z
loop_
_atom_site_type_symbol
_atom_site_label
_atom_site_fract_x
_atom_site_fract_y
_atom_site_fract_z
Si Si1 0.209140 0.050229 0.979590
Si Si2 0.290760 0.669387 0.290371
Si Si3 0.364984 0.500307 0.199270
Si Si4 0.155145 0.463382 0.457849
Si Si5 0.426949 0.001680 0.680171
Si Si6 0.999170 0.659928 0.974352
Si Si7 0.646699 0.470562 0.605680
Si Si8 0.103215 0.569088 0.692648
O O1 0.160239 0.292647 0.914063
O O2 0.156750 0.800299 0.922194
O O3 0.328429 0.016142 0.055763
O O4 0.194082 0.094414 0.059224
O O5 0.337301 0.473571 0.266943
O O6 0.380312 0.831047 0.384267
O O7 0.210112 0.551830 0.287643
O O8 0.220351 0.823457 0.185911
O O9 0.424460 0.263310 0.215649
O O10 0.413157 0.765143 0.223771
O O11 0.263432 0.530023 0.077679
O O12 0.063707 0.461234 0.453151
O O13 0.526294 0.064762 0.705417
O O14 0.040154 0.561528 0.081669
O O15 0.038021 0.932752 0.004258
O O16 0.633078 0.306407 0.668284
#
# Coordination Sequence:
#
# PCOD9134597 Si02
#       8
#     4   4   4   4   4   4   4   4
#     4   9  15  32  57  84 110 153 203 247 295 370
#     4  11  22  38  66  89 128 161 223 272 309 387
#     4  10  19  39  62  92 115 171 213 259 319 381
#     4   9  15  32  56  80 115 145 204 250 293 361
#     4  10  21  34  65  87 125 166 211 251 328 384
#     4  10  21  36  60  96 117 163 212 263 321 374
#     4  10  19  38  62  87 122 165 213 261 318 381
#     4  11  22  39  62  89 128 172 207 265 321 392
#
# _framework density 24.097425000000001
#
# number of rings (size 3 to 8) (size 9 to 14) (size 15 to 20)
#    0.000    2.000    6.250    0.750    3.500    1.000 
#    0.000    0.000   13.750    0.000    0.000    0.000 
#    0.000    0.000    0.000    0.000    0.000    0.000 
#
# Total GULP energy -89231.740543 kJ/mol
# GULP energy per Si atom -5576.983784 kJ/mol
# Density = 2.404258 g / cm^3
# Si number density = 24.097425 Si / 1000 Ang^3
#
#
#
# Elastic Constant Matrix: (Units=GPa)
#
#
# Indices 1 2 3 4 5 6 
#
# 1 125.5301 51.0820 18.6609 0.0000 35.4368 -0.0001
# 2 51.0820 144.0657 15.6959 -0.0001 11.9174 -0.0002
# 3 18.6609 15.6959 92.1037 -0.0001 23.2191 -0.0001
# 4 0.0000 -0.0001 -0.0001 11.7102 0.0000 2.5797
# 5 35.4368 11.9174 23.2191 0.0000 25.7577 -0.0001
# 6 -0.0001 -0.0002 -0.0001 2.5797 -0.0001 6.1233
#
#
#
# Elastic Compliance Matrix: (Units=1/GPa)
#
#
# Indices 1 2 3 4 5 6 
#
# 1 0.015356 -0.003957 0.003141 0.000000 -0.022127 0.000000
# 2 -0.003957 0.008255 -0.001313 0.000000 0.002808 0.000000
# 3 0.003141 -0.001313 0.014728 0.000000 -0.016991 0.000000
# 4 0.000000 0.000000 0.000000 0.094132 0.000000 -0.039657
# 5 -0.022127 0.002808 -0.016991 0.000000 0.083283 0.000001
# 6 0.000000 0.000000 0.000000 -0.039657 0.000001 0.180019
#
#
# Mechanical properties :
#
#
# Convention : Reuss Voigt Hill
#
# Bulk Modulus (GPa) = 29.34087 59.17524 44.25806
# Shear Modulus (GPa) = 12.15394 27.13561 19.64477
#
# Velocity S-wave (km/s) = 2.24825 3.35935 2.85831
# Velocity P-wave (km/s) = 4.35222 6.29738 5.41289
#
# Compressibility (1/GPa) = 0.03408215
#
# Stress axis : x y z
#
# Youngs Moduli (GPa) = 65.12217 121.13906 67.89830
#
# Poissons Ratio (x) = 0.47930 -0.21329
# Poissons Ratio (y) = 0.25766 0.08915
# Poissons Ratio (z) = -0.20457 0.15905
#
# Static dielectric constant tensor:
#      x y z
#    x 1.952860 0.000000 0.004930 
#    y 0.000000 2.137150 0.000000 
#    z 0.004930 0.000000 1.916050 
# 
# From -- ./inp_files/35721.got.cif
#   From: 2010.05.17/outbox.cif.g08.bks.cpg/sg9_18_cif.got.tgz:35721.got - 2010.06.03 20:04:27.
