data_PCOD9134625
_publ_section_title
;
Structure prediction by ZEFSAII (Michael W. Deem and Ramdas Pophale) SiO2 
 PCOD9134625
Probable space group: C C
;
_chemical_formula_sum "Si O2"
_cell_formula_units_Z 28
_cell_length_a 9.027723
_cell_length_b 10.690906
_cell_length_c 11.440519
_cell_angle_alpha 90.000000
_cell_angle_beta 96.629978
_cell_angle_gamma 90.000000
_cell_volume 1096.792218
_symmetry_space_group_name_H-M "C C"
_symmetry_group_IT_number 9
_symmetry_cell_setting 'monoclinic'
loop_
_space_group_symop_operation_xyz
x,y,z
x,-y,1/2+z
1/2+x,1/2+y,z
1/2+x,1/2-y,1/2+z
loop_
_atom_site_type_symbol
_atom_site_label
_atom_site_fract_x
_atom_site_fract_y
_atom_site_fract_z
Si Si1 0.534500 0.736917 0.298120
Si Si2 0.624079 0.768067 0.010016
Si Si3 0.283655 0.631205 0.103207
Si Si4 0.714086 0.498491 0.572996
Si Si5 0.529359 0.976559 0.193496
Si Si6 0.826259 0.674023 0.397231
Si Si7 0.935640 0.119831 0.528151
O O1 0.402548 0.694087 0.200747
O O2 0.539198 0.888739 0.309937
O O3 0.706572 0.701094 0.285636
O O4 0.498103 0.650474 0.406072
O O5 0.614434 0.621873 0.036424
O O6 0.569030 0.866643 0.102828
O O7 0.802290 0.780864 0.020891
O O8 0.502963 0.801552 0.896995
O O9 0.140063 0.587732 0.166467
O O10 0.342696 0.503253 0.051433
O O11 0.275702 0.725637 0.993468
O O12 0.789324 0.544286 0.457900
O O13 0.592167 0.599083 0.611312
O O14 0.858225 0.485188 0.666658
#
# Coordination Sequence:
#
# PCOD9134625 Si02
#       7
#     4   4   4   4   4   4   4
#     4  11  23  42  69 105 134 186 237 279 356 428
#     4  10  20  42  64  96 135 177 228 290 346 404
#     4  11  22  45  68  99 145 181 227 294 351 408
#     4  10  19  38  65  93 129 180 215 289 335 404
#     4  10  23  39  67  94 137 180 226 281 356 403
#     4  10  22  40  68  94 138 179 228 285 344 414
#     4  10  23  40  71  97 138 181 235 286 346 409
#
# _framework density 25.528991000000001
#
# number of rings (size 3 to 8) (size 9 to 14) (size 15 to 20)
#    0.000    1.714    4.286    0.000    6.000    0.000 
#    0.000   11.429    0.000    0.000    0.000    0.000 
#    0.000    0.000    0.000    0.000    0.000    0.000 
#
# Total GULP energy -77961.493214 kJ/mol
# GULP energy per Si atom -5568.678087 kJ/mol
# Density = 2.547089 g / cm^3
# Si number density = 25.528991 Si / 1000 Ang^3
#
#
#
# Elastic Constant Matrix: (Units=GPa)
#
#
# Indices 1 2 3 4 5 6 
#
# 1 188.0505 49.8837 41.3484 0.0000 29.8883 0.0000
# 2 49.8837 71.1427 3.4614 0.0000 1.1187 0.0000
# 3 41.3484 3.4614 44.3563 0.0000 14.4517 0.0000
# 4 0.0000 0.0000 0.0000 6.4831 0.0000 6.6532
# 5 29.8883 1.1187 14.4517 0.0000 33.9009 0.0000
# 6 0.0000 0.0000 0.0000 6.6532 0.0000 55.1555
#
#
#
# Elastic Compliance Matrix: (Units=1/GPa)
#
#
# Indices 1 2 3 4 5 6 
#
# 1 0.009128 -0.006010 -0.006367 0.000000 -0.005135 0.000000
# 2 -0.006010 0.018067 0.003089 0.000000 0.003385 0.000000
# 3 -0.006367 0.003089 0.030708 0.000000 -0.007579 0.000000
# 4 0.000000 0.000000 0.000000 0.176040 0.000000 -0.021235
# 5 -0.005135 0.003385 -0.007579 0.000000 0.037144 0.000000
# 6 0.000000 0.000000 0.000000 -0.021235 0.000000 0.020692
#
#
# Mechanical properties :
#
#
# Convention : Reuss Voigt Hill
#
# Bulk Modulus (GPa) = 25.42701 54.77071 40.09886
# Shear Modulus (GPa) = 15.45769 33.03163 24.24466
#
# Velocity S-wave (km/s) = 2.46335 3.60097 3.08505
# Velocity P-wave (km/s) = 4.25117 6.22818 5.33210
#
# Compressibility (1/GPa) = 0.03932825
#
# Stress axis : x y z
#
# Youngs Moduli (GPa) = 109.55206 55.35043 32.56449
#
# Poissons Ratio (x) = 0.33265 0.20734
# Poissons Ratio (y) = 0.65839 -0.10061
# Poissons Ratio (z) = 0.69752 -0.17100
#
# Static dielectric constant tensor:
#      x y z
#    x 2.090890 0.000000 -0.008310 
#    y 0.000000 2.073320 0.000000 
#    z -0.008310 0.000000 2.167110 
# 
# From -- ./inp_files/22646.got.cif
#   From: 2010.05.17/outbox.cif.g08.bks.cpg/sg9_12_cif.got.tgz:22646.got - 2010.06.03 20:04:27.
