data_PCOD9134209
_publ_section_title
;
Structure prediction by ZEFSAII (Michael W. Deem and Ramdas Pophale) SiO2 
 PCOD9134209
Probable space group: C C
;
_chemical_formula_sum "Si O2"
_cell_formula_units_Z 32
_cell_length_a 20.785132
_cell_length_b 7.423375
_cell_length_c 12.685748
_cell_angle_alpha 90.000000
_cell_angle_beta 40.639336
_cell_angle_gamma 90.000000
_cell_volume 1274.818141
_symmetry_space_group_name_H-M "C C"
_symmetry_group_IT_number 9
_symmetry_cell_setting 'monoclinic'
loop_
_space_group_symop_operation_xyz
x,y,z
x,-y,1/2+z
1/2+x,1/2+y,z
1/2+x,1/2-y,1/2+z
loop_
_atom_site_type_symbol
_atom_site_label
_atom_site_fract_x
_atom_site_fract_y
_atom_site_fract_z
Si Si1 0.780170 0.815146 0.402000
Si Si2 0.888060 0.609118 0.501581
Si Si3 0.112395 0.710675 0.960898
Si Si4 0.312782 0.105956 0.903914
Si Si5 0.476094 0.559888 0.759022
Si Si6 0.497326 0.103805 0.567431
Si Si7 0.180303 0.224468 0.735606
Si Si8 0.610175 0.656561 0.229679
O O1 0.717487 0.850055 0.375508
O O2 0.801017 0.598040 0.371562
O O3 0.880801 0.921183 0.300581
O O4 0.711874 0.838502 0.592222
O O5 0.853654 0.449321 0.468060
O O6 0.947009 0.777316 0.376508
O O7 0.782589 0.689742 0.668696
O O8 0.953667 0.534730 0.512030
O O9 0.107928 0.731033 0.840671
O O10 0.032486 0.561181 0.093916
O O11 0.072322 0.886992 0.070132
O O12 0.403905 0.200620 0.733698
O O13 0.208207 0.205825 0.040298
O O14 0.512939 0.386454 0.780865
O O15 0.595933 0.206085 0.415733
O O16 0.139919 0.040885 0.736128
#
# Coordination Sequence:
#
# PCOD9134209 Si02
#       8
#     4   4   4   4   4   4   4   4
#     4   9  19  39  62  89 122 173 213 252 312 407
#     4   9  19  38  64  88 120 167 216 252 320 395
#     4  12  22  36  68 100 123 164 226 268 318 380
#     4   9  20  34  62  87 121 166 209 252 316 390
#     4  10  18  41  65  84 129 182 207 253 333 406
#     4  12  21  38  69  95 117 166 224 265 313 382
#     4   9  20  38  66  84 121 168 213 257 316 392
#     4  10  21  38  64  93 127 170 214 261 326 396
#
# _framework density 25.101617999999998
#
# number of rings (size 3 to 8) (size 9 to 14) (size 15 to 20)
#    0.000    2.500    6.250    0.000    3.500    0.000 
#    4.500    2.500    5.500    0.000    0.000    0.000 
#    0.000    0.000    0.000    0.000    0.000    0.000 
#
# Total GULP energy -89304.925095 kJ/mol
# GULP energy per Si atom -5581.557818 kJ/mol
# Density = 2.504449 g / cm^3
# Si number density = 25.101618 Si / 1000 Ang^3
#
#
#
# Elastic Constant Matrix: (Units=GPa)
#
#
# Indices 1 2 3 4 5 6 
#
# 1 192.1998 32.5561 42.0072 -0.0003 -28.6728 -0.0004
# 2 32.5561 45.1761 21.7042 -0.0002 -5.7282 0.0006
# 3 42.0072 21.7042 133.0821 -0.0004 -35.5169 0.0007
# 4 -0.0003 -0.0002 -0.0004 23.9097 0.0006 1.1695
# 5 -28.6728 -5.7282 -35.5169 0.0006 25.4830 -0.0002
# 6 -0.0004 0.0006 0.0007 1.1695 -0.0002 19.2670
#
#
#
# Elastic Compliance Matrix: (Units=1/GPa)
#
#
# Indices 1 2 3 4 5 6 
#
# 1 0.006948 -0.004301 0.000536 0.000000 0.007598 0.000000
# 2 -0.004301 0.026680 -0.004275 0.000000 -0.004800 -0.000001
# 3 0.000536 -0.004275 0.012653 0.000000 0.017278 0.000000
# 4 0.000000 0.000000 0.000000 0.041948 -0.000001 -0.002546
# 5 0.007598 -0.004800 0.017278 -0.000001 0.070792 0.000000
# 6 0.000000 -0.000001 0.000000 -0.002546 0.000000 0.052057
#
#
# Mechanical properties :
#
#
# Convention : Reuss Voigt Hill
#
# Bulk Modulus (GPa) = 33.11049 62.55479 47.83264
# Shear Modulus (GPa) = 21.07701 32.01131 26.54416
#
# Velocity S-wave (km/s) = 2.90084 3.57496 3.25540
# Velocity P-wave (km/s) = 4.94359 6.48191 5.76430
#
# Compressibility (1/GPa) = 0.03020191
#
# Stress axis : x y z
#
# Youngs Moduli (GPa) = 143.93152 37.48093 79.03184
#
# Poissons Ratio (x) = 0.16121 -0.04237
# Poissons Ratio (y) = 0.61906 0.33783
# Poissons Ratio (z) = -0.07716 0.16022
#
# Static dielectric constant tensor:
#      x y z
#    x 1.996890 0.000000 0.013260 
#    y 0.000000 1.988180 0.000000 
#    z 0.013260 0.000000 2.076720 
# 
# From -- ./inp_files/20223.got.cif
#   From: 2010.05.17/outbox.cif.g08.bks.cpg/sg9_11_cif.got.tgz:20223.got - 2010.06.03 20:04:27.
