data_PCOD9134346
_publ_section_title
;
Structure prediction by ZEFSAII (Michael W. Deem and Ramdas Pophale) SiO2 
 PCOD9134346
Probable space group: C C
;
_chemical_formula_sum "Si O2"
_cell_formula_units_Z 32
_cell_length_a 12.285341
_cell_length_b 12.644192
_cell_length_c 15.183880
_cell_angle_alpha 90.000000
_cell_angle_beta 33.186067
_cell_angle_gamma 90.000000
_cell_volume 1291.022762
_symmetry_space_group_name_H-M "C C"
_symmetry_group_IT_number 9
_symmetry_cell_setting 'monoclinic'
loop_
_space_group_symop_operation_xyz
x,y,z
x,-y,1/2+z
1/2+x,1/2+y,z
1/2+x,1/2-y,1/2+z
loop_
_atom_site_type_symbol
_atom_site_label
_atom_site_fract_x
_atom_site_fract_y
_atom_site_fract_z
Si Si1 0.552430 0.657495 0.833460
Si Si2 0.317254 0.681649 0.352518
Si Si3 0.764209 0.676831 0.130049
Si Si4 0.253776 0.354538 0.689659
Si Si5 0.376371 0.465955 0.293665
Si Si6 0.771077 0.483160 0.775584
Si Si7 0.770000 0.412655 0.452220
Si Si8 0.330877 0.411226 0.139208
O O1 0.585652 0.774151 0.774618
O O2 0.432210 0.594229 0.842609
O O3 0.741364 0.584282 0.730718
O O4 0.433553 0.668227 0.003477
O O5 0.528584 0.671476 0.262238
O O6 0.306626 0.682334 0.253035
O O7 0.231911 0.562301 0.420943
O O8 0.230731 0.792276 0.444169
O O9 0.830168 0.615294 0.173710
O O10 0.872102 0.617141 0.975737
O O11 0.795243 0.801842 0.114490
O O12 0.211461 0.478320 0.709877
O O13 0.574992 0.520851 0.115217
O O14 0.312555 0.392331 0.256651
O O15 0.862109 0.525113 0.806477
O O16 0.549198 0.447360 0.957344
#
# Coordination Sequence:
#
# PCOD9134346 Si02
#       8
#     4   4   4   4   4   4   4   4
#     4  11  19  42  60  93 120 175 208 260 318 380
#     4  10  19  34  60  95 113 161 205 266 301 372
#     4  11  20  35  60  90 121 163 200 264 319 372
#     4  10  23  38  67  88 131 162 215 263 314 382
#     4   9  20  38  60  84 119 169 207 254 324 385
#     4  10  19  37  61  85 121 160 208 261 312 373
#     4  10  19  34  62  88 117 157 215 253 304 384
#     4   9  21  40  56  87 122 163 204 259 316 382
#
# _framework density 24.786549999999998
#
# number of rings (size 3 to 8) (size 9 to 14) (size 15 to 20)
#    0.000    2.000    3.750    3.000    1.750    0.000 
#    6.750    0.000    0.000    0.000    0.000    0.000 
#    0.000    0.000    0.000    0.000    0.000    0.000 
#
# Total GULP energy -89135.711252 kJ/mol
# GULP energy per Si atom -5570.981953 kJ/mol
# Density = 2.473013 g / cm^3
# Si number density = 24.786550 Si / 1000 Ang^3
#
#
#
# Elastic Constant Matrix: (Units=GPa)
#
#
# Indices 1 2 3 4 5 6 
#
# 1 72.6224 26.7133 25.0612 -0.0011 21.5581 0.0007
# 2 26.7133 132.0623 45.2004 -0.0010 15.1813 0.0007
# 3 25.0612 45.2004 68.0628 -0.0010 19.5074 0.0011
# 4 -0.0011 -0.0010 -0.0010 33.2051 0.0003 16.3738
# 5 21.5581 15.1813 19.5074 0.0003 17.5794 -0.0004
# 6 0.0007 0.0007 0.0011 16.3738 -0.0004 42.3578
#
#
#
# Elastic Compliance Matrix: (Units=1/GPa)
#
#
# Indices 1 2 3 4 5 6 
#
# 1 0.021921 -0.001596 0.000437 0.000001 -0.025989 -0.000001
# 2 -0.001596 0.009956 -0.006043 0.000000 0.000065 0.000000
# 3 0.000437 -0.006043 0.025225 0.000001 -0.023309 -0.000001
# 4 0.000001 0.000000 0.000001 0.037208 -0.000004 -0.014383
# 5 -0.025989 0.000065 -0.023309 -0.000004 0.114566 0.000004
# 6 -0.000001 0.000000 -0.000001 -0.014383 0.000004 0.029168
#
#
# Mechanical properties :
#
#
# Convention : Reuss Voigt Hill
#
# Bulk Modulus (GPa) = 23.41989 51.85526 37.63757
# Shear Modulus (GPa) = 18.74906 30.34662 24.54784
#
# Velocity S-wave (km/s) = 2.75329 3.50282 3.15043
# Velocity P-wave (km/s) = 4.42455 6.10949 5.33397
#
# Compressibility (1/GPa) = 0.04269876
#
# Stress axis : x y z
#
# Youngs Moduli (GPa) = 45.61825 100.44467 39.64355
#
# Poissons Ratio (x) = 0.16033 -0.01734
# Poissons Ratio (y) = 0.07282 0.23955
# Poissons Ratio (z) = -0.01995 0.60694
#
# Static dielectric constant tensor:
#      x y z
#    x 2.035110 0.000000 -0.070030 
#    y 0.000000 1.990850 0.000000 
#    z -0.070030 0.000000 2.042450 
# 
# From -- ./inp_files/18125.got.cif
#   From: 2010.05.17/outbox.cif.g08.bks.cpg/sg9_10_cif.got.tgz:18125.got - 2010.06.03 20:04:27.
