data_PCOD9134150
_publ_section_title
;
Structure prediction by ZEFSAII (Michael W. Deem and Ramdas Pophale) SiO2 
 PCOD9134150
Probable space group: C C
;
_chemical_formula_sum "Si O2"
_cell_formula_units_Z 28
_cell_length_a 24.111904
_cell_length_b 10.046663
_cell_length_c 17.445070
_cell_angle_alpha 90.000000
_cell_angle_beta 164.215761
_cell_angle_gamma 90.000000
_cell_volume 1149.528614
_symmetry_space_group_name_H-M "C C"
_symmetry_group_IT_number 9
_symmetry_cell_setting 'monoclinic'
loop_
_space_group_symop_operation_xyz
x,y,z
x,-y,1/2+z
1/2+x,1/2+y,z
1/2+x,1/2-y,1/2+z
loop_
_atom_site_type_symbol
_atom_site_label
_atom_site_fract_x
_atom_site_fract_y
_atom_site_fract_z
Si Si1 0.620440 0.331076 0.041410
Si Si2 0.693495 0.858595 0.385852
Si Si3 0.443375 0.646948 0.470774
Si Si4 0.993391 0.271522 0.831223
Si Si5 0.481749 0.579951 0.137655
Si Si6 0.784184 0.557374 0.163668
Si Si7 0.566680 0.136328 0.263527
O O1 0.711296 0.187201 0.141755
O O2 0.780852 0.432784 0.215735
O O3 0.401834 0.353937 0.712466
O O4 0.583390 0.347294 0.082298
O O5 0.587000 0.718589 0.257354
O O6 0.776058 0.889709 0.410824
O O7 0.555113 0.982481 0.226720
O O8 0.452207 0.506595 0.523189
O O9 0.500285 0.759809 0.609611
O O10 0.973885 0.384510 0.869286
O O11 0.805677 0.170637 0.594338
O O12 0.962613 0.334283 0.706134
O O13 0.192024 0.180399 0.089511
O O14 0.624260 0.490168 0.384333
#
# Coordination Sequence:
#
# PCOD9134150 Si02
#       7
#     4   4   4   4   4   4   4
#     4  11  24  43  63 102 140 172 223 288 354 396
#     4  11  24  43  66  98 132 180 233 276 333 408
#     4  12  24  43  71 100 138 176 225 287 351 400
#     4  10  18  37  71  96 129 171 244 265 318 393
#     4  11  23  40  68  97 134 177 237 271 331 417
#     4  10  21  40  64 102 132 180 227 276 327 419
#     4  11  20  40  71  99 127 182 231 275 324 417
#
# _framework density 24.357809
#
# number of rings (size 3 to 8) (size 9 to 14) (size 15 to 20)
#    0.000    1.143    5.714    3.429    2.000    0.000 
#    2.571    2.857    0.000    3.429    0.000    0.000 
#    0.000    0.000    0.000    0.000    0.000    0.000 
#
# Total GULP energy -78400.675036 kJ/mol
# GULP energy per Si atom -5600.048217 kJ/mol
# Density = 2.430237 g / cm^3
# Si number density = 24.357809 Si / 1000 Ang^3
#
#
#
# Elastic Constant Matrix: (Units=GPa)
#
#
# Indices 1 2 3 4 5 6 
#
# 1 168.5389 63.4261 17.9944 0.0002 20.6144 0.0000
# 2 63.4261 172.7140 24.7793 0.0000 12.4612 0.0001
# 3 17.9944 24.7793 24.2912 0.0000 -7.6152 0.0001
# 4 0.0002 0.0000 0.0000 34.2779 0.0001 11.6124
# 5 20.6144 12.4612 -7.6152 0.0001 28.8443 0.0001
# 6 0.0000 0.0001 0.0001 11.6124 0.0001 50.3719
#
#
#
# Elastic Compliance Matrix: (Units=1/GPa)
#
#
# Indices 1 2 3 4 5 6 
#
# 1 0.008037 -0.001522 -0.006537 0.000000 -0.006812 0.000000
# 2 -0.001522 0.007866 -0.008308 0.000000 -0.004504 0.000000
# 3 -0.006537 -0.008308 0.062224 0.000000 0.024689 0.000000
# 4 0.000000 0.000000 0.000000 0.031645 0.000000 -0.007295
# 5 -0.006812 -0.004504 0.024689 0.000000 0.048001 0.000000
# 6 0.000000 0.000000 0.000000 -0.007295 0.000000 0.021534
#
#
# Mechanical properties :
#
#
# Convention : Reuss Voigt Hill
#
# Bulk Modulus (GPa) = 22.02965 64.21596 43.12281
# Shear Modulus (GPa) = 22.00971 39.98844 30.99908
#
# Velocity S-wave (km/s) = 3.00925 4.05620 3.57130
# Velocity P-wave (km/s) = 4.59760 6.95398 5.89473
#
# Compressibility (1/GPa) = 0.04539338
#
# Stress axis : x y z
#
# Youngs Moduli (GPa) = 124.41943 127.13189 16.07091
#
# Poissons Ratio (x) = 0.19353 0.10505
# Poissons Ratio (y) = 0.18940 0.13352
# Poissons Ratio (z) = 0.81328 1.05623
#
# Static dielectric constant tensor:
#      x y z
#    x 1.905780 0.000000 -0.035480 
#    y 0.000000 1.883080 0.000000 
#    z -0.035480 0.000000 2.040970 
# 
# From -- ./inp_files/31568.got.cif
#   From: 2010.05.17/outbox.cif.g08.bks.cpg/sg9_16_cif.got.tgz:31568.got - 2010.06.03 20:04:27.
