data_PCOD9134980
_publ_section_title
;
Structure prediction by ZEFSAII (Michael W. Deem and Ramdas Pophale) SiO2 
 PCOD9134980
Probable space group: C C
;
_chemical_formula_sum "Si O2"
_cell_formula_units_Z 28
_cell_length_a 4.934803
_cell_length_b 25.261204
_cell_length_c 9.726079
_cell_angle_alpha 90.000000
_cell_angle_beta 66.416859
_cell_angle_gamma 90.000000
_cell_volume 1111.181196
_symmetry_space_group_name_H-M "C C"
_symmetry_group_IT_number 9
_symmetry_cell_setting 'monoclinic'
loop_
_space_group_symop_operation_xyz
x,y,z
x,-y,1/2+z
1/2+x,1/2+y,z
1/2+x,1/2-y,1/2+z
loop_
_atom_site_type_symbol
_atom_site_label
_atom_site_fract_x
_atom_site_fract_y
_atom_site_fract_z
Si Si1 0.916430 0.214036 0.405660
Si Si2 0.257303 0.799741 0.086476
Si Si3 0.854452 0.398071 0.212876
Si Si4 0.756429 0.032914 0.467747
Si Si5 0.225065 0.317686 0.647551
Si Si6 0.892843 0.664034 0.956326
Si Si7 0.134711 0.998971 0.652784
O O1 0.602024 0.210390 0.546611
O O2 0.829191 0.184294 0.284395
O O3 0.988405 0.277000 0.385300
O O4 0.173287 0.188946 0.445645
O O5 0.168282 0.849038 0.194334
O O6 0.118837 0.743336 0.148972
O O7 0.101022 0.412345 0.047782
O O8 0.986465 0.380749 0.330289
O O9 0.667644 0.451394 0.251558
O O10 0.474757 0.992162 0.532829
O O11 0.964359 0.016551 0.551487
O O12 0.931750 0.038715 0.288688
O O13 0.538983 0.332565 0.517017
O O14 0.996549 0.346658 0.591592
#
# Coordination Sequence:
#
# PCOD9134980 Si02
#       7
#     4   4   4   4   4   4   4
#     4  10  20  36  55  83 129 172 220 266 327 369
#     4  10  21  34  58  88 122 175 217 270 318 393
#     4  10  24  38  70  94 138 162 244 254 352 398
#     4  10  23  43  74 103 133 176 221 287 356 420
#     4  10  20  36  55  83 129 172 220 266 327 369
#     4  10  21  34  58  88 122 175 217 270 318 393
#     4  10  23  43  74 103 133 176 221 287 356 420
#
# _framework density 25.198408000000001
#
# number of rings (size 3 to 8) (size 9 to 14) (size 15 to 20)
#    0.857    1.143    1.429    1.714    4.000    0.000 
#    0.000    1.429    6.286    0.000    0.000    0.000 
#    0.000    0.000    0.000    0.000    0.000    0.000 
#
# Total GULP energy -78049.793656 kJ/mol
# GULP energy per Si atom -5574.985261 kJ/mol
# Density = 2.514106 g / cm^3
# Si number density = 25.198408 Si / 1000 Ang^3
#
#
#
# Elastic Constant Matrix: (Units=GPa)
#
#
# Indices 1 2 3 4 5 6 
#
# 1 142.1360 -4.0464 17.1983 0.0000 17.6262 0.0000
# 2 -4.0464 12.6535 -0.9322 0.0000 5.9041 0.0000
# 3 17.1983 -0.9322 82.4261 0.0000 25.3348 0.0000
# 4 0.0000 0.0000 0.0000 26.9125 0.0000 -0.7475
# 5 17.6262 5.9041 25.3348 0.0000 49.6686 0.0000
# 6 0.0000 0.0000 0.0000 -0.7475 0.0000 10.4755
#
#
#
# Elastic Compliance Matrix: (Units=1/GPa)
#
#
# Indices 1 2 3 4 5 6 
#
# 1 0.007566 0.003662 -0.000686 0.000000 -0.002771 0.000000
# 2 0.003662 0.087039 0.004506 0.000000 -0.013944 0.000000
# 3 -0.000686 0.004506 0.014724 0.000000 -0.007803 0.000000
# 4 0.000000 0.000000 0.000000 0.037231 0.000000 0.002657
# 5 -0.002771 -0.013944 -0.007803 0.000000 0.026754 0.000000
# 6 0.000000 0.000000 0.000000 0.002657 0.000000 0.095651
#
#
# Mechanical properties :
#
#
# Convention : Reuss Voigt Hill
#
# Bulk Modulus (GPa) = 8.04540 29.07279 18.55910
# Shear Modulus (GPa) = 16.92433 32.41104 24.66769
#
# Velocity S-wave (km/s) = 2.59442 3.59030 3.13219
# Velocity P-wave (km/s) = 3.48919 5.36187 4.52350
#
# Compressibility (1/GPa) = 0.12429458
#
# Stress axis : x y z
#
# Youngs Moduli (GPa) = 132.16475 11.48910 67.91423
#
# Poissons Ratio (x) = -0.04207 0.04657
# Poissons Ratio (y) = -0.48397 -0.30604
# Poissons Ratio (z) = 0.09063 -0.05177
#
# Static dielectric constant tensor:
#      x y z
#    x 1.968330 0.000000 -0.037440 
#    y 0.000000 2.027270 0.000000 
#    z -0.037440 0.000000 2.156010 
# 
# From -- ./inp_files/4291.got.cif
#   From: 2010.05.17/outbox.cif.g08.bks.cpg/sg9_3_cif.got.tgz:4291.got - 2010.06.03 20:04:27.
