data_PCOD9134439
_publ_section_title
;
Structure prediction by ZEFSAII (Michael W. Deem and Ramdas Pophale) SiO2 
 PCOD9134439
Probable space group: C C
;
_chemical_formula_sum "Si O2"
_cell_formula_units_Z 32
_cell_length_a 12.980762
_cell_length_b 19.566085
_cell_length_c 8.494195
_cell_angle_alpha 90.000000
_cell_angle_beta 143.129528
_cell_angle_gamma 90.000000
_cell_volume 1294.444412
_symmetry_space_group_name_H-M "C C"
_symmetry_group_IT_number 9
_symmetry_cell_setting 'monoclinic'
loop_
_space_group_symop_operation_xyz
x,y,z
x,-y,1/2+z
1/2+x,1/2+y,z
1/2+x,1/2-y,1/2+z
loop_
_atom_site_type_symbol
_atom_site_label
_atom_site_fract_x
_atom_site_fract_y
_atom_site_fract_z
Si Si1 0.981680 0.087613 0.681630
Si Si2 0.582182 0.045868 0.172781
Si Si3 0.231658 0.709589 0.831752
Si Si4 0.635567 0.084604 0.900995
Si Si5 0.126757 0.784813 0.231703
Si Si6 0.613101 0.666145 0.352621
Si Si7 0.037125 0.036605 0.420796
Si Si8 0.998137 0.331214 0.751648
O O1 0.783510 0.065895 0.435282
O O2 0.080348 0.057915 0.649789
O O3 0.996779 0.167973 0.674623
O O4 0.055514 0.043912 0.915668
O O5 0.495089 0.089522 0.203810
O O6 0.562443 0.965429 0.177369
O O7 0.538581 0.069312 0.944149
O O8 0.147902 0.662918 0.866874
O O9 0.233496 0.788332 0.888710
O O10 0.118796 0.691710 0.541754
O O11 0.424490 0.682017 0.051765
O O12 0.834942 0.059171 0.162206
O O13 0.075885 0.707155 0.194209
O O14 0.307153 0.803353 0.530569
O O15 0.122136 0.804302 0.042736
O O16 0.628450 0.585391 0.404598
#
# Coordination Sequence:
#
# PCOD9134439 Si02
#       8
#     4   4   4   4   4   4   4   4
#     4   9  18  35  58  82 110 148 192 231 277 337
#     4  10  19  36  60  85 114 154 195 238 282 343
#     4  11  22  38  58  86 115 149 193 239 286 341
#     4   9  18  34  58  84 113 151 194 233 282 344
#     4  11  23  40  59  85 116 155 194 236 290 345
#     4  10  21  39  59  81 112 152 195 236 283 343
#     4   8  17  32  56  84 109 144 190 231 276 337
#     4  12  24  38  58  87 119 151 191 242 292 342
#
# _framework density 24.721032000000001
#
# number of rings (size 3 to 8) (size 9 to 14) (size 15 to 20)
#    0.000    2.000    0.000    4.500    0.000    4.000 
#    0.000    6.250    0.000    0.000    0.000    0.000 
#    0.000    0.000    0.000    0.000    0.000    0.000 
#
# Total GULP energy -89412.932244 kJ/mol
# GULP energy per Si atom -5588.308265 kJ/mol
# Density = 2.466477 g / cm^3
# Si number density = 24.721032 Si / 1000 Ang^3
#
#
#
# Elastic Constant Matrix: (Units=GPa)
#
#
# Indices 1 2 3 4 5 6 
#
# 1 33.7459 9.3208 13.4457 0.0000 0.7768 0.0000
# 2 9.3208 67.8482 -16.6708 0.0000 0.6083 0.0000
# 3 13.4457 -16.6708 74.9291 0.0000 4.0503 0.0000
# 4 0.0000 0.0000 0.0000 21.0186 0.0000 -9.0970
# 5 0.7768 0.6083 4.0503 0.0000 31.1918 0.0000
# 6 0.0000 0.0000 0.0000 -9.0970 0.0000 26.8335
#
#
#
# Elastic Compliance Matrix: (Units=1/GPa)
#
#
# Indices 1 2 3 4 5 6 
#
# 1 0.034521 -0.006633 -0.007685 0.000000 0.000268 0.000000
# 2 -0.006633 0.016884 0.004991 0.000000 -0.000812 0.000000
# 3 -0.007685 0.004991 0.015942 0.000000 -0.001976 0.000000
# 4 0.000000 0.000000 0.000000 0.055758 0.000000 0.018903
# 5 0.000268 -0.000812 -0.001976 0.000000 0.032326 0.000000
# 6 0.000000 0.000000 0.000000 0.018903 0.000000 0.043675
#
#
# Mechanical properties :
#
#
# Convention : Reuss Voigt Hill
#
# Bulk Modulus (GPa) = 20.53730 20.96831 20.75280
# Shear Modulus (GPa) = 21.36832 27.17061 24.26946
#
# Velocity S-wave (km/s) = 2.94322 3.31885 3.13666
# Velocity P-wave (km/s) = 4.45822 4.81526 4.64017
#
# Compressibility (1/GPa) = 0.04869189
#
# Stress axis : x y z
#
# Youngs Moduli (GPa) = 28.96780 59.22938 62.72694
#
# Poissons Ratio (x) = 0.39287 0.48205
# Poissons Ratio (y) = 0.19214 -0.31304
# Poissons Ratio (z) = 0.22261 -0.29559
#
# Static dielectric constant tensor:
#      x y z
#    x 1.996870 0.000000 0.021880 
#    y 0.000000 1.960990 0.000000 
#    z 0.021880 0.000000 1.965470 
# 
# From -- ./inp_files/9924.got.cif
#   From: 2010.05.17/outbox.cif.g08.bks.cpg/sg9_5_cif.got.tgz:9924.got - 2010.06.03 20:04:27.
