data_PCOD9134203
_publ_section_title
;
Structure prediction by ZEFSAII (Michael W. Deem and Ramdas Pophale) SiO2 
 PCOD9134203
Probable space group: C C
;
_chemical_formula_sum "Si O2"
_cell_formula_units_Z 32
_cell_length_a 16.352062
_cell_length_b 10.160412
_cell_length_c 8.594381
_cell_angle_alpha 90.000000
_cell_angle_beta 90.653360
_cell_angle_gamma 90.000000
_cell_volume 1427.809309
_symmetry_space_group_name_H-M "C C"
_symmetry_group_IT_number 9
_symmetry_cell_setting 'monoclinic'
loop_
_space_group_symop_operation_xyz
x,y,z
x,-y,1/2+z
1/2+x,1/2+y,z
1/2+x,1/2-y,1/2+z
loop_
_atom_site_type_symbol
_atom_site_label
_atom_site_fract_x
_atom_site_fract_y
_atom_site_fract_z
Si Si1 0.440480 0.330902 0.943780
Si Si2 0.928617 0.555950 0.472247
Si Si3 0.481648 0.441267 0.252957
Si Si4 0.607584 0.792062 0.286158
Si Si5 0.171496 0.803725 0.082660
Si Si6 0.546412 0.086365 0.208413
Si Si7 0.592983 0.410409 0.531737
Si Si8 0.334670 0.861253 0.264317
O O1 0.426901 0.475815 0.869077
O O2 0.525956 0.272144 0.871024
O O3 0.366174 0.246276 0.883632
O O4 0.482583 0.051617 0.068092
O O5 0.858040 0.493893 0.360448
O O6 0.890188 0.640212 0.609455
O O7 0.088406 0.555486 0.750541
O O8 0.993119 0.622876 0.358952
O O9 0.446005 0.338309 0.130416
O O10 0.559272 0.396517 0.357588
O O11 0.515126 0.549616 0.133392
O O12 0.679670 0.762149 0.411050
O O13 0.626080 0.714665 0.125613
O O14 0.110956 0.695587 0.158689
O O15 0.245489 0.829870 0.201385
O O16 0.143575 0.953903 0.042375
#
# Coordination Sequence:
#
# PCOD9134203 Si02
#       8
#     4   4   4   4   4   4   4   4
#     4  10  18  41  59  95 127 183 230 287 339 426
#     4  10  22  45  71  98 136 196 238 283 351 437
#     4   9  18  34  64  90 129 167 232 284 334 397
#     4  11  21  42  65  99 137 177 243 291 342 427
#     4  12  24  42  70 105 146 180 232 309 347 424
#     4  11  22  45  75  99 135 189 250 290 344 428
#     4  10  20  36  64 105 129 173 223 293 354 399
#     4  11  25  43  68  99 147 181 234 297 361 416
#
# _framework density 22.411957000000001
#
# number of rings (size 3 to 8) (size 9 to 14) (size 15 to 20)
#    0.000    1.500    7.500    0.000    1.750    1.000 
#    9.000    0.000    0.000    0.000    0.000    0.000 
#    0.000    0.000    0.000    0.000    0.000    0.000 
#
# Total GULP energy -89177.656314 kJ/mol
# GULP energy per Si atom -5573.603520 kJ/mol
# Density = 2.236095 g / cm^3
# Si number density = 22.411957 Si / 1000 Ang^3
#
#
#
# Elastic Constant Matrix: (Units=GPa)
#
#
# Indices 1 2 3 4 5 6 
#
# 1 60.8433 40.5392 39.2020 0.0000 33.4868 0.0000
# 2 40.5392 115.8035 61.5587 0.0000 19.6751 0.0000
# 3 39.2020 61.5587 176.0965 0.0000 28.9963 0.0000
# 4 0.0000 0.0000 0.0000 47.6169 0.0000 6.0966
# 5 33.4868 19.6751 28.9963 0.0000 42.2980 0.0000
# 6 0.0000 0.0000 0.0000 6.0966 0.0000 20.0801
#
#
#
# Elastic Compliance Matrix: (Units=1/GPa)
#
#
# Indices 1 2 3 4 5 6 
#
# 1 0.035330 -0.007678 -0.001311 0.000000 -0.023500 0.000000
# 2 -0.007678 0.012555 -0.003065 0.000000 0.002340 0.000000
# 3 -0.001311 -0.003065 0.007481 0.000000 -0.002664 0.000000
# 4 0.000000 0.000000 0.000000 0.021850 0.000000 -0.006634
# 5 -0.023500 0.002340 -0.002664 0.000000 0.042984 0.000000
# 6 0.000000 0.000000 0.000000 -0.006634 0.000000 0.051815
#
#
# Mechanical properties :
#
#
# Convention : Reuss Voigt Hill
#
# Bulk Modulus (GPa) = 31.99286 70.59368 51.29327
# Shear Modulus (GPa) = 24.20792 36.09523 30.15157
#
# Velocity S-wave (km/s) = 3.29011 4.01750 3.67186
# Velocity P-wave (km/s) = 5.36087 7.28608 6.39633
#
# Compressibility (1/GPa) = 0.03125698
#
# Stress axis : x y z
#
# Youngs Moduli (GPa) = 28.30417 79.65021 133.67632
#
# Poissons Ratio (x) = 0.61158 0.17531
# Poissons Ratio (y) = 0.21733 0.40970
# Poissons Ratio (z) = 0.03712 0.24411
#
# Static dielectric constant tensor:
#      x y z
#    x 1.859470 0.000000 -0.004140 
#    y 0.000000 1.941860 0.000000 
#    z -0.004140 0.000000 1.901770 
# 
# From -- ./inp_files/10669.got.cif
#   From: 2010.05.17/outbox.cif.g08.bks.cpg/sg9_6_cif.got.tgz:10669.got - 2010.06.03 20:04:27.
