data_PCOD9134173
_publ_section_title
;
Structure prediction by ZEFSAII (Michael W. Deem and Ramdas Pophale) SiO2 
 PCOD9134173
Probable space group: C C
;
_chemical_formula_sum "Si O2"
_cell_formula_units_Z 32
_cell_length_a 29.504926
_cell_length_b 6.921938
_cell_length_c 12.120895
_cell_angle_alpha 90.000000
_cell_angle_beta 148.470411
_cell_angle_gamma 90.000000
_cell_volume 1294.517144
_symmetry_space_group_name_H-M "C C"
_symmetry_group_IT_number 9
_symmetry_cell_setting 'monoclinic'
loop_
_space_group_symop_operation_xyz
x,y,z
x,-y,1/2+z
1/2+x,1/2+y,z
1/2+x,1/2-y,1/2+z
loop_
_atom_site_type_symbol
_atom_site_label
_atom_site_fract_x
_atom_site_fract_y
_atom_site_fract_z
Si Si1 0.439550 0.276535 0.003480
Si Si2 0.452850 0.706383 0.970097
Si Si3 0.022454 0.285220 0.892650
Si Si4 0.115324 0.701564 0.935310
Si Si5 0.751978 0.228254 0.040115
Si Si6 0.578761 0.789033 0.597892
Si Si7 0.696477 0.790348 0.176269
Si Si8 0.761839 0.234115 0.584380
O O1 0.452730 0.188317 0.152398
O O2 0.510685 0.244539 0.054965
O O3 0.438456 0.511224 0.009851
O O4 0.346789 0.205306 0.769210
O O5 0.491456 0.658064 0.929764
O O6 0.357912 0.791544 0.747017
O O7 0.524972 0.833467 0.182569
O O8 0.058628 0.482550 0.025147
O O9 0.101091 0.203027 0.983722
O O10 0.177795 0.796304 0.972198
O O11 0.082015 0.792951 0.980245
O O12 0.172921 0.515435 0.095621
O O13 0.733912 0.255035 0.873598
O O14 0.756405 0.996884 0.059476
O O15 0.672133 0.716612 0.837656
O O16 0.753621 0.715561 0.195715
#
# Coordination Sequence:
#
# PCOD9134173 Si02
#       8
#     4   4   4   4   4   4   4   4
#     4  11  27  40  66 102 134 167 222 278 336 379
#     4  11  25  39  65 100 136 162 216 281 344 374
#     4  11  22  43  69  89 133 176 221 271 323 393
#     4  10  21  37  67  92 127 167 219 271 319 379
#     4  10  20  39  62  95 124 173 219 266 314 400
#     4  11  23  42  69  93 128 175 231 259 321 399
#     4  10  18  38  68  87 120 170 229 257 307 390
#     4  10  20  36  64  96 118 170 225 265 308 400
#
# _framework density 24.719642
#
# number of rings (size 3 to 8) (size 9 to 14) (size 15 to 20)
#    0.000    1.500    5.000    0.750    7.000    2.000 
#    0.000    1.250    2.750    0.000    0.000    0.000 
#    0.000    0.000    0.000    0.000    0.000    0.000 
#
# Total GULP energy -89186.966384 kJ/mol
# GULP energy per Si atom -5574.185399 kJ/mol
# Density = 2.466338 g / cm^3
# Si number density = 24.719642 Si / 1000 Ang^3
#
#
#
# Elastic Constant Matrix: (Units=GPa)
#
#
# Indices 1 2 3 4 5 6 
#
# 1 131.8070 -21.9744 58.0152 0.0000 -27.1194 0.0000
# 2 -21.9744 82.9851 -21.6858 0.0000 -11.7971 0.0000
# 3 58.0152 -21.6858 167.4962 0.0000 -13.6394 0.0000
# 4 0.0000 0.0000 0.0000 -1.3379 0.0000 9.3679
# 5 -27.1194 -11.7971 -13.6394 0.0000 41.6469 0.0000
# 6 0.0000 0.0000 0.0000 9.3679 0.0000 8.7435
#
#
#
# Elastic Compliance Matrix: (Units=1/GPa)
#
#
# Indices 1 2 3 4 5 6 
#
# 1 0.010757 0.003122 -0.002752 0.000000 0.006987 0.000000
# 2 0.003122 0.014127 0.001273 0.000000 0.006452 0.000000
# 3 -0.002752 0.001273 0.007163 0.000000 0.000914 0.000000
# 4 0.000000 0.000000 0.000000 -0.087914 0.000000 0.094192
# 5 0.006987 0.006452 0.000914 0.000000 0.030688 0.000000
# 6 0.000000 0.000000 0.000000 0.094192 0.000000 0.013452
#
#
# Mechanical properties :
#
#
# Convention : Reuss Voigt Hill
#
# Bulk Modulus (GPa) = 28.30291 45.66649 36.98470
# Shear Modulus (GPa) = -1545.46261 34.33938 -755.56161
#
# Velocity S-wave (km/s) = -25.03105 3.73118 -17.50188
# Velocity P-wave (km/s) = 28.70418 6.08902 19.83499
#
# Compressibility (1/GPa) = 0.03533205
#
# Stress axis : x y z
#
# Youngs Moduli (GPa) = 92.96629 70.78658 139.60836
#
# Poissons Ratio (x) = -0.22102 0.38427
# Poissons Ratio (y) = -0.29028 -0.17771
# Poissons Ratio (z) = 0.25589 -0.09010
#
# Static dielectric constant tensor:
#      x y z
#    x 1.920630 0.000000 0.022180 
#    y 0.000000 2.173300 0.000000 
#    z 0.022180 0.000000 2.001080 
# 
# From -- ./inp_files/21461.got.cif
#   From: 2010.05.17/outbox.cif.g08.bks.cpg/sg9_11_cif.got.tgz:21461.got - 2010.06.03 20:04:27.
