data_PCOD9134836
_publ_section_title
;
Structure prediction by ZEFSAII (Michael W. Deem and Ramdas Pophale) SiO2 
 PCOD9134836
Probable space group: C C
;
_chemical_formula_sum "Si O2"
_cell_formula_units_Z 32
_cell_length_a 12.010295
_cell_length_b 10.710935
_cell_length_c 9.697902
_cell_angle_alpha 90.000000
_cell_angle_beta 77.323862
_cell_angle_gamma 90.000000
_cell_volume 1217.144732
_symmetry_space_group_name_H-M "C C"
_symmetry_group_IT_number 9
_symmetry_cell_setting 'monoclinic'
loop_
_space_group_symop_operation_xyz
x,y,z
x,-y,1/2+z
1/2+x,1/2+y,z
1/2+x,1/2-y,1/2+z
loop_
_atom_site_type_symbol
_atom_site_label
_atom_site_fract_x
_atom_site_fract_y
_atom_site_fract_z
Si Si1 0.252160 0.935847 0.392280
Si Si2 0.020870 0.642165 0.825342
Si Si3 0.572790 0.751710 0.869360
Si Si4 0.760660 0.061516 0.382918
Si Si5 0.520220 0.077340 0.132504
Si Si6 0.471485 0.632391 0.160833
Si Si7 0.856694 0.103049 0.653581
Si Si8 0.279498 0.884049 0.674624
O O1 0.383269 0.887968 0.365075
O O2 0.169101 0.852958 0.320817
O O3 0.206054 0.914979 0.560364
O O4 0.239786 0.074627 0.335891
O O5 0.070616 0.537813 0.706839
O O6 0.037934 0.779096 0.753435
O O7 0.061004 0.625631 0.972797
O O8 0.641880 0.867007 0.918987
O O9 0.522511 0.810463 0.744295
O O10 0.487765 0.694581 0.006455
O O11 0.842157 0.141612 0.257274
O O12 0.815571 0.052367 0.517275
O O13 0.776277 0.930769 0.303601
O O14 0.392716 0.029350 0.133047
O O15 0.471113 0.479269 0.152895
O O16 0.834199 0.248804 0.643115
#
# Coordination Sequence:
#
# PCOD9134836 Si02
#       8
#     4   4   4   4   4   4   4   4
#     4  10  21  44  74 100 138 193 243 311 372 448
#     4  10  19  46  66 103 146 201 238 307 382 447
#     4  12  23  46  72 114 146 191 261 317 365 453
#     4  10  23  45  71 104 152 193 243 308 380 441
#     4  10  23  36  74 101 147 187 255 305 374 445
#     4  10  24  42  74  98 151 196 244 312 381 440
#     4  10  22  46  71 104 145 202 239 304 382 455
#     4  10  21  45  72  98 145 195 243 304 386 449
#
# _framework density 26.291039999999999
#
# number of rings (size 3 to 8) (size 9 to 14) (size 15 to 20)
#    0.750    1.000    2.500    1.500    1.750    3.000 
#    6.750    1.250    2.750    0.000    0.000    0.000 
#    0.000    0.000    0.000    0.000    0.000    0.000 
#
# Total GULP energy -89166.907086 kJ/mol
# GULP energy per Si atom -5572.931693 kJ/mol
# Density = 2.623120 g / cm^3
# Si number density = 26.291040 Si / 1000 Ang^3
#
#
#
# Elastic Constant Matrix: (Units=GPa)
#
#
# Indices 1 2 3 4 5 6 
#
# 1 52.6518 5.2001 38.0419 0.0000 4.7660 0.0000
# 2 5.2001 121.1212 79.5880 0.0000 9.9298 0.0000
# 3 38.0419 79.5880 190.3240 0.0000 10.2254 0.0000
# 4 0.0000 0.0000 0.0000 50.2077 0.0000 -3.8109
# 5 4.7660 9.9298 10.2254 0.0000 46.7383 0.0000
# 6 0.0000 0.0000 0.0000 -3.8109 0.0000 25.7313
#
#
#
# Elastic Compliance Matrix: (Units=1/GPa)
#
#
# Indices 1 2 3 4 5 6 
#
# 1 0.022994 0.002913 -0.005722 0.000000 -0.001712 0.000000
# 2 0.002913 0.011844 -0.005448 0.000000 -0.001621 0.000000
# 3 -0.005722 -0.005448 0.008685 0.000000 -0.000159 0.000000
# 4 0.000000 0.000000 0.000000 0.020144 0.000000 0.002983
# 5 -0.001712 -0.001621 -0.000159 0.000000 0.021950 0.000000
# 6 0.000000 0.000000 0.000000 0.002983 0.000000 0.039305
#
#
# Mechanical properties :
#
#
# Convention : Reuss Voigt Hill
#
# Bulk Modulus (GPa) = 37.02486 67.75077 52.38782
# Shear Modulus (GPa) = 33.23619 40.61993 36.92806
#
# Velocity S-wave (km/s) = 3.55937 3.93493 3.75185
# Velocity P-wave (km/s) = 5.56825 6.81692 6.22397
#
# Compressibility (1/GPa) = 0.02700888
#
# Stress axis : x y z
#
# Youngs Moduli (GPa) = 43.48874 84.43189 115.14480
#
# Poissons Ratio (x) = -0.24597 0.65891
# Poissons Ratio (y) = -0.12670 0.62730
# Poissons Ratio (z) = 0.24886 0.45998
#
# Static dielectric constant tensor:
#      x y z
#    x 2.167270 0.000000 -0.051890 
#    y 0.000000 2.222660 0.000000 
#    z -0.051890 0.000000 2.055880 
# 
# From -- ./inp_files/9137.got.cif
#   From: 2010.05.17/outbox.cif.g08.bks.cpg/sg9_5_cif.got.tgz:9137.got - 2010.06.03 20:04:27.
