data_PCOD9134255
_publ_section_title
;
Structure prediction by ZEFSAII (Michael W. Deem and Ramdas Pophale) SiO2 
 PCOD9134255
Probable space group: C C
;
_chemical_formula_sum "Si O2"
_cell_formula_units_Z 24
_cell_length_a 15.404024
_cell_length_b 7.371704
_cell_length_c 13.892247
_cell_angle_alpha 90.000000
_cell_angle_beta 31.061545
_cell_angle_gamma 90.000000
_cell_volume 813.934309
_symmetry_space_group_name_H-M "C C"
_symmetry_group_IT_number 9
_symmetry_cell_setting 'monoclinic'
loop_
_space_group_symop_operation_xyz
x,y,z
x,-y,1/2+z
1/2+x,1/2+y,z
1/2+x,1/2-y,1/2+z
loop_
_atom_site_type_symbol
_atom_site_label
_atom_site_fract_x
_atom_site_fract_y
_atom_site_fract_z
Si Si1 0.247490 0.775225 0.573760
Si Si2 0.097311 0.061478 0.375763
Si Si3 0.246270 0.445163 0.316028
Si Si4 0.982741 0.201559 0.739469
Si Si5 0.789753 0.524285 0.854782
Si Si6 0.044444 0.458533 0.849571
O O1 0.093592 0.898112 0.765849
O O2 0.190710 0.573145 0.654547
O O3 0.391538 0.897140 0.489157
O O4 0.293239 0.800893 0.419079
O O5 0.170722 0.252701 0.348891
O O6 0.231112 0.934597 0.303283
O O7 0.918619 0.022630 0.591770
O O8 0.324661 0.411293 0.346977
O O9 0.109120 0.574720 0.396091
O O10 0.952631 0.396665 0.711618
O O11 0.144799 0.092625 0.548794
O O12 0.997215 0.278932 0.834248
#
# Coordination Sequence:
#
# PCOD9134255 Si02
#       6
#     4   4   4   4   4   4
#     4  10  19  32  54  79 106 145 187 230 283 339
#     4   9  16  29  50  73 101 139 181 220 273 332
#     4   9  16  29  50  75 102 134 175 224 269 322
#     4   9  19  33  52  80 108 139 185 230 277 337
#     4   9  19  33  52  78 110 143 182 235 284 333
#     4  10  19  32  54  81 107 142 186 229 280 339
#
# _framework density 29.486409999999999
#
# number of rings (size 3 to 8) (size 9 to 14) (size 15 to 20)
#    0.000    2.667    0.000    4.000    0.000    4.000 
#    0.000    0.000    0.000   42.000    0.000    0.000 
#    0.000    0.000    0.000    0.000    0.000    0.000 
#
# Total GULP energy -66934.046997 kJ/mol
# GULP energy per Si atom -5577.837250 kJ/mol
# Density = 2.941930 g / cm^3
# Si number density = 29.486410 Si / 1000 Ang^3
#
#
#
# Elastic Constant Matrix: (Units=GPa)
#
#
# Indices 1 2 3 4 5 6 
#
# 1 171.9561 34.1694 19.9746 0.0000 6.2608 0.0000
# 2 34.1694 148.7772 24.7469 0.0000 -5.3022 0.0000
# 3 19.9746 24.7469 84.5144 0.0000 -18.7374 0.0000
# 4 0.0000 0.0000 0.0000 22.8136 0.0000 15.3930
# 5 6.2608 -5.3022 -18.7374 0.0000 59.2301 0.0000
# 6 0.0000 0.0000 0.0000 15.3930 0.0000 29.1974
#
#
#
# Elastic Compliance Matrix: (Units=1/GPa)
#
#
# Indices 1 2 3 4 5 6 
#
# 1 0.006269 -0.001253 -0.001384 0.000000 -0.001213 0.000000
# 2 -0.001253 0.007316 -0.001798 0.000000 0.000219 0.000000
# 3 -0.001384 -0.001798 0.013639 0.000000 0.004300 0.000000
# 4 0.000000 0.000000 0.000000 0.068035 0.000000 -0.035868
# 5 -0.001213 0.000219 0.004300 0.000000 0.018391 0.000000
# 6 0.000000 0.000000 0.000000 -0.035868 0.000000 0.053160
#
#
# Mechanical properties :
#
#
# Convention : Reuss Voigt Hill
#
# Bulk Modulus (GPa) = 54.47837 62.55884 58.51860
# Shear Modulus (GPa) = 27.50312 44.00535 35.75423
#
# Velocity S-wave (km/s) = 3.05739 3.86734 3.48597
# Velocity P-wave (km/s) = 5.56591 6.41903 6.00764
#
# Compressibility (1/GPa) = 0.01835591
#
# Stress axis : x y z
#
# Youngs Moduli (GPa) = 159.50786 136.68648 73.31891
#
# Poissons Ratio (x) = 0.17126 0.10145
# Poissons Ratio (y) = 0.19985 0.13180
# Poissons Ratio (z) = 0.22071 0.24571
#
# Static dielectric constant tensor:
#      x y z
#    x 2.499090 0.000000 0.055000 
#    y 0.000000 2.355000 0.000000 
#    z 0.055000 0.000000 2.470740 
# 
# From -- ./inp_files/10294.got.cif
#   From: 2010.05.17/outbox.cif.g08.bks.cpg/sg9_6_cif.got.tgz:10294.got - 2010.06.03 20:04:27.
