data_PCOD9134385
_publ_section_title
;
Structure prediction by ZEFSAII (Michael W. Deem and Ramdas Pophale) SiO2 
 PCOD9134385
Probable space group: C C
;
_chemical_formula_sum "Si O2"
_cell_formula_units_Z 32
_cell_length_a 15.450637
_cell_length_b 9.695814
_cell_length_c 17.955885
_cell_angle_alpha 90.000000
_cell_angle_beta 27.448473
_cell_angle_gamma 90.000000
_cell_volume 1239.915192
_symmetry_space_group_name_H-M "C C"
_symmetry_group_IT_number 9
_symmetry_cell_setting 'monoclinic'
loop_
_space_group_symop_operation_xyz
x,y,z
x,-y,1/2+z
1/2+x,1/2+y,z
1/2+x,1/2-y,1/2+z
loop_
_atom_site_type_symbol
_atom_site_label
_atom_site_fract_x
_atom_site_fract_y
_atom_site_fract_z
Si Si1 0.918670 0.835078 0.229460
Si Si2 0.241943 0.468936 0.059877
Si Si3 0.113347 0.102624 0.009267
Si Si4 0.098638 0.068107 0.737194
Si Si5 0.047940 0.572032 0.936170
Si Si6 0.953368 0.519119 0.161139
Si Si7 0.377656 0.121450 0.933219
Si Si8 0.759640 0.168735 0.183861
O O1 0.710299 0.857488 0.359393
O O2 0.956882 0.678081 0.182301
O O3 0.962455 0.855472 0.282252
O O4 0.032713 0.955476 0.099532
O O5 0.270222 0.603088 0.092435
O O6 0.146429 0.469934 0.051203
O O7 0.069678 0.397554 0.238959
O O8 0.464576 0.446125 0.871591
O O9 0.212796 0.174068 0.005183
O O10 0.953052 0.176822 0.083665
O O11 0.287037 0.065058 0.825191
O O12 0.162959 0.185319 0.745046
O O13 0.271100 0.010923 0.554400
O O14 0.139838 0.444689 0.821474
O O15 0.920203 0.515725 0.098950
O O16 0.948960 0.681125 0.957284
#
# Coordination Sequence:
#
# PCOD9134385 Si02
#       8
#     4   4   4   4   4   4   4   4
#     4  10  19  35  60  89 120 154 203 262 308 361
#     4  10  21  34  59  91 119 153 201 251 302 367
#     4   9  21  36  53  85 126 160 197 254 304 368
#     4  11  21  36  64  91 126 159 200 258 318 363
#     4  10  21  36  53  90 125 152 200 256 308 363
#     4  11  19  33  58  88 117 157 203 248 316 364
#     4   9  22  40  58  88 125 164 203 251 307 371
#     4  10  22  36  53  88 128 157 195 256 309 365
#
# _framework density 25.808215000000001
#
# number of rings (size 3 to 8) (size 9 to 14) (size 15 to 20)
#    0.000    2.000    2.500    0.750    5.250    0.000 
#    2.250    0.000    0.000    1.500    6.500    0.000 
#    0.000    0.000    0.000    0.000    0.000    0.000 
#
# Total GULP energy -89221.974168 kJ/mol
# GULP energy per Si atom -5576.373385 kJ/mol
# Density = 2.574947 g / cm^3
# Si number density = 25.808215 Si / 1000 Ang^3
#
#
#
# Elastic Constant Matrix: (Units=GPa)
#
#
# Indices 1 2 3 4 5 6 
#
# 1 212.3071 50.9276 41.6419 0.0001 -16.8958 -0.0001
# 2 50.9276 106.6653 25.1477 -0.0015 -12.4634 -0.0001
# 3 41.6419 25.1477 94.6953 -0.0018 -26.6345 -0.0002
# 4 0.0001 -0.0015 -0.0018 1.1718 0.0004 5.1296
# 5 -16.8958 -12.4634 -26.6345 0.0004 48.2487 0.0004
# 6 -0.0001 -0.0001 -0.0002 5.1296 0.0004 18.7978
#
#
#
# Elastic Compliance Matrix: (Units=1/GPa)
#
#
# Indices 1 2 3 4 5 6 
#
# 1 0.005622 -0.002219 -0.001764 0.000032 0.000422 -0.000009
# 2 -0.002219 0.010949 -0.001604 -0.000056 0.001166 0.000015
# 3 -0.001764 -0.001604 0.013580 -0.000087 0.006464 0.000024
# 4 0.000032 -0.000056 -0.000087 -4.386400 -0.000022 1.196985
# 5 0.000422 0.001166 0.006464 -0.000022 0.024743 0.000006
# 6 -0.000009 0.000015 0.000024 1.196985 0.000006 -0.273442
#
#
# Mechanical properties :
#
#
# Convention : Reuss Voigt Hill
#
# Bulk Modulus (GPa) = 52.69675 72.12246 62.40961
# Shear Modulus (GPa) = -1.08993 33.37370 16.14188
#
# Velocity S-wave (km/s) = -0.65057 3.59993 2.50362
# Velocity P-wave (km/s) = 4.46079 6.72945 5.70895
#
# Compressibility (1/GPa) = 0.01897650
#
# Stress axis : x y z
#
# Youngs Moduli (GPa) = 177.87024 91.33277 73.63620
#
# Poissons Ratio (x) = 0.20267 0.12993
# Poissons Ratio (y) = 0.39470 0.11811
# Poissons Ratio (z) = 0.31384 0.14649
#
# Static dielectric constant tensor:
#      x y z
#    x 2.062690 0.000000 0.006390 
#    y 0.000000 2.038590 0.000000 
#    z 0.006390 0.000000 2.135670 
# 
# From -- ./inp_files/30690.got.cif
#   From: 2010.05.17/outbox.cif.g08.bks.cpg/sg9_16_cif.got.tgz:30690.got - 2010.06.03 20:04:27.
