data_PCOD9134688
_publ_section_title
;
Structure prediction by ZEFSAII (Michael W. Deem and Ramdas Pophale) SiO2 
 PCOD9134688
Probable space group: C C
;
_chemical_formula_sum "Si O2"
_cell_formula_units_Z 28
_cell_length_a 21.416642
_cell_length_b 15.935644
_cell_length_c 10.554518
_cell_angle_alpha 90.000000
_cell_angle_beta 158.698283
_cell_angle_gamma 90.000000
_cell_volume 1308.578783
_symmetry_space_group_name_H-M "C C"
_symmetry_group_IT_number 9
_symmetry_cell_setting 'monoclinic'
loop_
_space_group_symop_operation_xyz
x,y,z
x,-y,1/2+z
1/2+x,1/2+y,z
1/2+x,1/2-y,1/2+z
loop_
_atom_site_type_symbol
_atom_site_label
_atom_site_fract_x
_atom_site_fract_y
_atom_site_fract_z
Si Si1 0.009560 0.841829 0.694620
Si Si2 0.468401 0.022084 0.679126
Si Si3 0.877923 0.762791 0.197313
Si Si4 0.725768 0.823739 0.659691
Si Si5 0.829761 0.571347 0.677497
Si Si6 0.143350 0.649900 0.587605
Si Si7 0.021300 0.256917 0.600259
O O1 0.913954 0.820898 0.383433
O O2 0.848652 0.858282 0.482718
O O3 0.110525 0.760330 0.934795
O O4 0.153861 0.906602 0.920033
O O5 0.330388 0.044080 0.530568
O O6 0.410074 0.996078 0.427204
O O7 0.602677 0.097663 0.920716
O O8 0.565148 0.940898 0.916748
O O9 0.036974 0.699007 0.493318
O O10 0.836880 0.820179 0.998662
O O11 0.693911 0.718448 0.868989
O O12 0.870553 0.810209 0.827292
O O13 0.942372 0.658371 0.888540
O O14 0.081255 0.707152 0.350496
#
# Coordination Sequence:
#
# PCOD9134688 Si02
#       7
#     4   4   4   4   4   4   4
#     4  10  23  42  63  91 130 177 225 269 325 396
#     4  11  23  43  64  95 134 172 214 279 343 388
#     4  10  19  39  67  89 124 172 220 274 319 392
#     4  10  21  38  68  92 121 173 223 264 326 400
#     4  10  22  43  65  93 136 174 215 277 336 388
#     4   9  21  38  60  92 129 165 211 274 331 381
#     4   8  17  39  63  88 124 167 218 265 316 389
#
# _framework density 21.397259999999999
#
# number of rings (size 3 to 8) (size 9 to 14) (size 15 to 20)
#    0.000    2.286    1.429    0.857    4.000    0.000 
#    5.143    0.000    0.000    0.000    0.000    0.000 
#    0.000    0.000    0.000    0.000    0.000    0.000 
#
# Total GULP energy -77974.365262 kJ/mol
# GULP energy per Si atom -5569.597519 kJ/mol
# Density = 2.134856 g / cm^3
# Si number density = 21.397260 Si / 1000 Ang^3
#
#
#
# Elastic Constant Matrix: (Units=GPa)
#
#
# Indices 1 2 3 4 5 6 
#
# 1 78.5824 33.8397 29.0949 0.0000 10.6094 0.0000
# 2 33.8397 61.6800 21.0104 0.0000 15.3762 0.0000
# 3 29.0949 21.0104 83.1480 0.0000 24.7591 0.0000
# 4 0.0000 0.0000 0.0000 26.5194 0.0000 7.3045
# 5 10.6094 15.3762 24.7591 0.0000 54.7299 0.0000
# 6 0.0000 0.0000 0.0000 7.3045 0.0000 18.2361
#
#
#
# Elastic Compliance Matrix: (Units=1/GPa)
#
#
# Indices 1 2 3 4 5 6 
#
# 1 0.017910 -0.008563 -0.004375 0.000000 0.000913 0.000000
# 2 -0.008563 0.022404 -0.001485 0.000000 -0.003963 0.000000
# 3 -0.004375 -0.001485 0.015667 0.000000 -0.005822 0.000000
# 4 0.000000 0.000000 0.000000 0.042385 0.000000 -0.016977
# 5 0.000913 -0.003963 -0.005822 0.000000 0.021842 0.000000
# 6 0.000000 0.000000 0.000000 -0.016977 0.000000 0.061636
#
#
# Mechanical properties :
#
#
# Convention : Reuss Voigt Hill
#
# Bulk Modulus (GPa) = 36.85366 43.47780 40.16573
# Shear Modulus (GPa) = 22.75479 29.19477 25.97478
#
# Velocity S-wave (km/s) = 3.26459 3.69781 3.48793
# Velocity P-wave (km/s) = 5.60990 6.21250 5.91887
#
# Compressibility (1/GPa) = 0.02713435
#
# Stress axis : x y z
#
# Youngs Moduli (GPa) = 55.83613 44.63402 63.83046
#
# Poissons Ratio (x) = 0.38221 0.27926
# Poissons Ratio (y) = 0.47813 0.09478
# Poissons Ratio (z) = 0.24428 0.06628
#
# Static dielectric constant tensor:
#      x y z
#    x 1.933270 0.000000 0.052880 
#    y 0.000000 1.729530 0.000000 
#    z 0.052880 0.000000 1.812470 
# 
# From -- ./inp_files/20355.got.cif
#   From: 2010.05.17/outbox.cif.g08.bks.cpg/sg9_11_cif.got.tgz:20355.got - 2010.06.03 20:04:27.
