data_PCOD9134077
_publ_section_title
;
Structure prediction by ZEFSAII (Michael W. Deem and Ramdas Pophale) SiO2 
 PCOD9134077
Probable space group: C C
;
_chemical_formula_sum "Si O2"
_cell_formula_units_Z 24
_cell_length_a 7.093251
_cell_length_b 25.871124
_cell_length_c 7.545091
_cell_angle_alpha 90.000000
_cell_angle_beta 44.802896
_cell_angle_gamma 90.000000
_cell_volume 975.687938
_symmetry_space_group_name_H-M "C C"
_symmetry_group_IT_number 9
_symmetry_cell_setting 'monoclinic'
loop_
_space_group_symop_operation_xyz
x,y,z
x,-y,1/2+z
1/2+x,1/2+y,z
1/2+x,1/2-y,1/2+z
loop_
_atom_site_type_symbol
_atom_site_label
_atom_site_fract_x
_atom_site_fract_y
_atom_site_fract_z
Si Si1 0.753270 0.932343 0.003410
Si Si2 0.645611 0.048544 0.191071
Si Si3 0.809235 0.874185 0.288467
Si Si4 0.837820 0.381859 0.100781
Si Si5 0.148373 0.262970 0.283330
Si Si6 0.501967 0.775596 0.871963
O O1 0.918895 0.899262 0.032739
O O2 0.467445 0.901475 0.194489
O O3 0.704026 0.989950 0.104716
O O4 0.825781 0.935705 0.745352
O O5 0.363951 0.065429 0.466738
O O6 0.666048 0.081714 0.998756
O O7 0.658193 0.822373 0.337753
O O8 0.047591 0.859683 0.264479
O O9 0.024232 0.335982 0.903532
O O10 0.322972 0.230843 0.311643
O O11 0.846240 0.242590 0.484102
O O12 0.292128 0.748942 0.146302
#
# Coordination Sequence:
#
# PCOD9134077 Si02
#       6
#     4   4   4   4   4   4
#     4  10  24  44  63 101 127 172 233 275 345 420
#     4  10  22  45  63  93 136 166 221 292 337 407
#     4  12  21  42  71  90 137 176 220 287 338 408
#     4  10  23  38  66  96 125 174 223 266 340 404
#     4  10  20  36  67  99 133 187 223 274 358 400
#     4  10  18  35  64  93 132 179 216 272 346 395
#
# _framework density 24.598027999999999
#
# number of rings (size 3 to 8) (size 9 to 14) (size 15 to 20)
#    1.000    0.667    5.000    2.000    0.000    1.333 
#    3.000    1.667    0.000    0.000    0.000    0.000 
#    0.000    0.000    0.000    0.000    0.000    0.000 
#
# Total GULP energy -66822.438495 kJ/mol
# GULP energy per Si atom -5568.536541 kJ/mol
# Density = 2.454204 g / cm^3
# Si number density = 24.598028 Si / 1000 Ang^3
#
#
#
# Elastic Constant Matrix: (Units=GPa)
#
#
# Indices 1 2 3 4 5 6 
#
# 1 62.6032 -3.2537 27.3488 0.0000 9.3527 0.0000
# 2 -3.2537 115.8546 13.8500 0.0000 -3.7594 0.0000
# 3 27.3488 13.8500 91.5443 0.0000 -6.8249 0.0000
# 4 0.0000 0.0000 0.0000 11.0400 0.0000 -2.0677
# 5 9.3527 -3.7594 -6.8249 0.0000 34.6019 0.0000
# 6 0.0000 0.0000 0.0000 -2.0677 0.0000 5.9394
#
#
#
# Elastic Compliance Matrix: (Units=1/GPa)
#
#
# Indices 1 2 3 4 5 6 
#
# 1 0.019898 0.001136 -0.006605 0.000000 -0.006558 0.000000
# 2 0.001136 0.008872 -0.001657 0.000000 0.000330 0.000000
# 3 -0.006605 -0.001657 0.013465 0.000000 0.004261 0.000000
# 4 0.000000 0.000000 0.000000 0.096897 0.000000 0.033733
# 5 -0.006558 0.000330 0.004261 0.000000 0.031549 0.000000
# 6 0.000000 0.000000 0.000000 0.033733 0.000000 0.180111
#
#
# Mechanical properties :
#
#
# Convention : Reuss Voigt Hill
#
# Bulk Modulus (GPa) = 35.73673 38.43250 37.08461
# Shear Modulus (GPa) = 13.35564 25.78673 19.57119
#
# Velocity S-wave (km/s) = 2.33267 3.24130 2.82377
# Velocity P-wave (km/s) = 4.67065 5.44666 5.07352
#
# Compressibility (1/GPa) = 0.02798241
#
# Stress axis : x y z
#
# Youngs Moduli (GPa) = 50.25655 112.71165 74.26469
#
# Poissons Ratio (x) = -0.12800 0.49053
# Poissons Ratio (y) = -0.05707 0.12305
# Poissons Ratio (z) = 0.33195 0.18676
#
# Static dielectric constant tensor:
#      x y z
#    x 2.009130 0.000000 0.002600 
#    y 0.000000 1.937040 0.000000 
#    z 0.002600 0.000000 2.055960 
# 
# From -- ./inp_files/918.got.cif
#   From: 2010.05.17/outbox.cif.g08.bks.cpg/sg9_1_cif.got.tgz:918.got - 2010.06.03 20:04:27.
