data_PCOD9134169
_publ_section_title
;
Structure prediction by ZEFSAII (Michael W. Deem and Ramdas Pophale) SiO2 
 PCOD9134169
Probable space group: C C
;
_chemical_formula_sum "Si O2"
_cell_formula_units_Z 32
_cell_length_a 11.244279
_cell_length_b 10.028928
_cell_length_c 12.612782
_cell_angle_alpha 90.000000
_cell_angle_beta 106.565426
_cell_angle_gamma 90.000000
_cell_volume 1363.285369
_symmetry_space_group_name_H-M "C C"
_symmetry_group_IT_number 9
_symmetry_cell_setting 'monoclinic'
loop_
_space_group_symop_operation_xyz
x,y,z
x,-y,1/2+z
1/2+x,1/2+y,z
1/2+x,1/2-y,1/2+z
loop_
_atom_site_type_symbol
_atom_site_label
_atom_site_fract_x
_atom_site_fract_y
_atom_site_fract_z
Si Si1 0.008070 0.713721 0.600760
Si Si2 0.877168 0.462302 0.239782
Si Si3 0.197542 0.048818 0.867018
Si Si4 0.866341 0.308973 0.578023
Si Si5 0.265863 0.412702 0.178418
Si Si6 0.547191 0.162341 0.942171
Si Si7 0.469783 0.402798 0.772418
Si Si8 0.290996 0.741653 0.906549
O O1 0.124648 0.618659 0.609092
O O2 0.914487 0.630015 0.651258
O O3 0.034168 0.839741 0.683814
O O4 0.931306 0.761359 0.481340
O O5 0.756453 0.409632 0.269879
O O6 0.861254 0.605487 0.183904
O O7 0.986976 0.454404 0.355025
O O8 0.250720 0.897247 0.893333
O O9 0.050923 0.031057 0.825498
O O10 0.255388 0.138956 0.973763
O O11 0.847328 0.158083 0.608191
O O12 0.991205 0.337314 0.544547
O O13 0.329014 0.554790 0.215050
O O14 0.273555 0.335085 0.292453
O O15 0.488046 0.293089 0.868502
O O16 0.693408 0.172955 0.962956
#
# Coordination Sequence:
#
# PCOD9134169 Si02
#       8
#     4   4   4   4   4   4   4   4
#     4  11  23  42  66  96 135 180 225 277 357 405
#     4  10  18  38  66  92 130 169 216 289 336 403
#     4  10  20  41  68  90 127 177 223 283 348 405
#     4  11  22  38  69 102 124 174 241 278 336 425
#     4  12  25  43  65  99 134 175 235 280 336 427
#     4   9  22  43  64  94 136 178 226 282 353 412
#     4  10  23  45  63  92 137 183 220 291 347 408
#     4  11  21  42  67  91 131 184 214 278 357 401
#
# _framework density 23.472707
#
# number of rings (size 3 to 8) (size 9 to 14) (size 15 to 20)
#    0.000    1.500    6.250    0.000    1.750    3.000 
#    2.250    3.750    0.000    0.000    0.000    0.000 
#    0.000    0.000    0.000    0.000    0.000    0.000 
#
# Total GULP energy -89410.003246 kJ/mol
# GULP energy per Si atom -5588.125203 kJ/mol
# Density = 2.341928 g / cm^3
# Si number density = 23.472707 Si / 1000 Ang^3
#
#
#
# Elastic Constant Matrix: (Units=GPa)
#
#
# Indices 1 2 3 4 5 6 
#
# 1 99.8702 14.3616 37.9129 0.0000 11.2663 0.0000
# 2 14.3616 37.9359 5.1811 0.0000 5.1209 0.0000
# 3 37.9129 5.1811 56.3148 0.0000 2.7778 0.0000
# 4 0.0000 0.0000 0.0000 23.6805 0.0000 4.0839
# 5 11.2663 5.1209 2.7778 0.0000 32.7784 0.0000
# 6 0.0000 0.0000 0.0000 4.0839 0.0000 37.3695
#
#
#
# Elastic Compliance Matrix: (Units=1/GPa)
#
#
# Indices 1 2 3 4 5 6 
#
# 1 0.014451 -0.003727 -0.009208 0.000000 -0.003604 0.000000
# 2 -0.003727 0.028184 0.000070 0.000000 -0.003128 0.000000
# 3 -0.009208 0.000070 0.023895 0.000000 0.001129 0.000000
# 4 0.000000 0.000000 0.000000 0.043040 0.000000 -0.004704
# 5 -0.003604 -0.003128 0.001129 0.000000 0.032140 0.000000
# 6 0.000000 0.000000 0.000000 -0.004704 0.000000 0.027274
#
#
# Mechanical properties :
#
#
# Convention : Reuss Voigt Hill
#
# Bulk Modulus (GPa) = 24.50983 34.33688 29.42335
# Shear Modulus (GPa) = 24.00238 27.87669 25.93953
#
# Velocity S-wave (km/s) = 3.20123 3.44993 3.32790
# Velocity P-wave (km/s) = 4.91206 5.52535 5.22771
#
# Compressibility (1/GPa) = 0.04079996
#
# Stress axis : x y z
#
# Youngs Moduli (GPa) = 69.19832 35.48140 41.85060
#
# Poissons Ratio (x) = 0.13223 0.38538
# Poissons Ratio (y) = 0.25788 -0.00294
# Poissons Ratio (z) = 0.63720 -0.00249
#
# Static dielectric constant tensor:
#      x y z
#    x 1.916750 0.000000 0.031970 
#    y 0.000000 1.933920 0.000000 
#    z 0.031970 0.000000 1.895400 
# 
# From -- ./inp_files/16255.got.cif
#   From: 2010.05.17/outbox.cif.g08.bks.cpg/sg9_9_cif.got.tgz:16255.got - 2010.06.03 20:04:27.
