data_PCOD9134213
_publ_section_title
;
Structure prediction by ZEFSAII (Michael W. Deem and Ramdas Pophale) SiO2 
 PCOD9134213
Probable space group: C C
;
_chemical_formula_sum "Si O2"
_cell_formula_units_Z 32
_cell_length_a 7.567620
_cell_length_b 17.945947
_cell_length_c 10.782811
_cell_angle_alpha 90.000000
_cell_angle_beta 72.095563
_cell_angle_gamma 90.000000
_cell_volume 1393.473472
_symmetry_space_group_name_H-M "C C"
_symmetry_group_IT_number 9
_symmetry_cell_setting 'monoclinic'
loop_
_space_group_symop_operation_xyz
x,y,z
x,-y,1/2+z
1/2+x,1/2+y,z
1/2+x,1/2-y,1/2+z
loop_
_atom_site_type_symbol
_atom_site_label
_atom_site_fract_x
_atom_site_fract_y
_atom_site_fract_z
Si Si1 0.210490 0.832841 0.838790
Si Si2 0.119563 0.143448 0.809439
Si Si3 0.291945 0.289061 0.719945
Si Si4 0.674635 0.696305 0.073170
Si Si5 0.557912 0.903162 0.670082
Si Si6 0.835432 0.160863 0.489699
Si Si7 0.510460 0.921445 0.178770
Si Si8 0.188266 0.345920 0.383325
O O1 0.169854 0.849682 0.701003
O O2 0.414409 0.866550 0.799486
O O3 0.200457 0.744446 0.871739
O O4 0.043948 0.870048 0.953209
O O5 0.140747 0.224914 0.741374
O O6 0.290874 0.096939 0.714022
O O7 0.901679 0.123658 0.846315
O O8 0.176923 0.153421 0.942962
O O9 0.476500 0.260707 0.613700
O O10 0.251739 0.369469 0.673554
O O11 0.322126 0.301836 0.857592
O O12 0.814743 0.763754 0.073257
O O13 0.563315 0.872017 0.527679
O O14 0.533175 0.990290 0.680607
O O15 0.663387 0.106669 0.546256
O O16 0.588246 0.879844 0.284841
#
# Coordination Sequence:
#
# PCOD9134213 Si02
#       8
#     4   4   4   4   4   4   4   4
#     4  11  22  42  73 102 132 183 242 287 341 412
#     4  11  22  43  75  98 137 188 233 275 351 413
#     4  10  20  40  68  97 130 177 232 283 334 406
#     4  10  18  41  70 101 128 175 234 289 329 401
#     4  12  27  44  66 104 142 175 235 296 342 413
#     4  10  21  39  68  95 140 180 217 285 351 401
#     4  12  27  47  64 104 148 180 226 290 358 412
#     4  12  25  46  76  99 139 188 239 285 344 416
#
# _framework density 22.964198
#
# number of rings (size 3 to 8) (size 9 to 14) (size 15 to 20)
#    0.000    1.000    5.000    3.000    1.750    1.000 
#    4.500    0.000    0.000    0.000    0.000    0.000 
#    0.000    0.000    0.000    0.000    0.000    0.000 
#
# Total GULP energy -89187.647311 kJ/mol
# GULP energy per Si atom -5574.227957 kJ/mol
# Density = 2.291193 g / cm^3
# Si number density = 22.964198 Si / 1000 Ang^3
#
#
#
# Elastic Constant Matrix: (Units=GPa)
#
#
# Indices 1 2 3 4 5 6 
#
# 1 95.1715 26.7532 26.5564 0.0000 -35.6186 0.0000
# 2 26.7532 117.3170 21.0695 0.0000 -27.5600 0.0000
# 3 26.5564 21.0695 76.1264 0.0000 -40.6595 0.0000
# 4 0.0000 0.0000 0.0000 9.9210 0.0000 -1.0862
# 5 -35.6186 -27.5600 -40.6595 0.0000 48.2303 0.0000
# 6 0.0000 0.0000 0.0000 -1.0862 0.0000 18.6051
#
#
#
# Elastic Compliance Matrix: (Units=1/GPa)
#
#
# Indices 1 2 3 4 5 6 
#
# 1 0.014663 -0.000899 0.001170 0.000000 0.011301 0.000000
# 2 -0.000899 0.009912 0.000438 0.000000 0.005369 0.000000
# 3 0.001170 0.000438 0.024015 0.000000 0.021359 0.000000
# 4 0.000000 0.000000 0.000000 0.101445 0.000000 0.005923
# 5 0.011301 0.005369 0.021359 0.000000 0.050155 0.000000
# 6 0.000000 0.000000 0.000000 0.005923 0.000000 0.054095
#
#
# Mechanical properties :
#
#
# Convention : Reuss Voigt Hill
#
# Bulk Modulus (GPa) = 19.99711 48.59702 34.29707
# Shear Modulus (GPa) = 18.55045 29.63367 24.09206
#
# Velocity S-wave (km/s) = 2.84526 3.59615 3.24252
# Velocity P-wave (km/s) = 4.41825 6.20089 5.38386
#
# Compressibility (1/GPa) = 0.05000722
#
# Stress axis : x y z
#
# Youngs Moduli (GPa) = 68.19754 100.89249 41.64072
#
# Poissons Ratio (x) = 0.09070 -0.04871
# Poissons Ratio (y) = 0.06131 -0.01824
# Poissons Ratio (z) = -0.07977 -0.04419
#
# Static dielectric constant tensor:
#      x y z
#    x 1.979030 0.000000 -0.065300 
#    y 0.000000 1.831490 0.000000 
#    z -0.065300 0.000000 2.008000 
# 
# From -- ./inp_files/14746.got.cif
#   From: 2010.05.17/outbox.cif.g08.bks.cpg/sg9_8_cif.got.tgz:14746.got - 2010.06.03 20:04:27.
