data_PCOD9134907
_publ_section_title
;
Structure prediction by ZEFSAII (Michael W. Deem and Ramdas Pophale) SiO2 
 PCOD9134907
Probable space group: C C
;
_chemical_formula_sum "Si O2"
_cell_formula_units_Z 28
_cell_length_a 11.231075
_cell_length_b 24.793245
_cell_length_c 11.283646
_cell_angle_alpha 90.000000
_cell_angle_beta 155.373708
_cell_angle_gamma 90.000000
_cell_volume 1309.258939
_symmetry_space_group_name_H-M "C C"
_symmetry_group_IT_number 9
_symmetry_cell_setting 'monoclinic'
loop_
_space_group_symop_operation_xyz
x,y,z
x,-y,1/2+z
1/2+x,1/2+y,z
1/2+x,1/2-y,1/2+z
loop_
_atom_site_type_symbol
_atom_site_label
_atom_site_fract_x
_atom_site_fract_y
_atom_site_fract_z
Si Si1 0.283970 0.107793 0.642660
Si Si2 0.349841 0.404119 0.293465
Si Si3 0.660628 0.083331 0.174133
Si Si4 0.598527 0.214770 0.894792
Si Si5 0.171875 0.286047 0.179899
Si Si6 0.777127 0.560751 0.379703
Si Si7 0.103609 0.940446 0.276185
O O1 0.442600 0.164244 0.811370
O O2 0.301506 0.096001 0.519911
O O3 0.951448 0.108486 0.379013
O O4 0.483935 0.064644 0.895440
O O5 0.288837 0.340357 0.228899
O O6 0.526219 0.416582 0.571347
O O7 0.502342 0.426036 0.315110
O O8 0.053359 0.434111 0.047900
O O9 0.833781 0.057809 0.441919
O O10 0.361287 0.100328 0.969879
O O11 0.399410 0.267799 0.720254
O O12 0.637510 0.203562 0.789835
O O13 0.376043 0.233993 0.357963
O O14 0.731852 0.500062 0.381686
#
# Coordination Sequence:
#
# PCOD9134907 Si02
#       7
#     4   4   4   4   4   4   4
#     4  11  22  41  67  94 132 171 212 267 325 405
#     4  12  25  44  69  98 138 172 224 282 331 402
#     4  10  24  43  65  86 127 180 219 252 320 382
#     4  10  20  34  61  97 134 160 206 272 341 393
#     4  10  21  38  63  97 134 168 215 276 344 394
#     4  12  26  39  67  99 131 171 221 266 341 384
#     4  11  26  45  64  93 134 180 225 269 320 394
#
# _framework density 21.386144999999999
#
# number of rings (size 3 to 8) (size 9 to 14) (size 15 to 20)
#    0.000    1.143    1.429    4.286   10.000    0.000 
#    0.000    0.000    0.000   17.143    0.000    0.000 
#    0.000    0.000    0.000    0.000    0.000    0.000 
#
# Total GULP energy -78005.074934 kJ/mol
# GULP energy per Si atom -5571.791067 kJ/mol
# Density = 2.133747 g / cm^3
# Si number density = 21.386145 Si / 1000 Ang^3
#
#
#
# Elastic Constant Matrix: (Units=GPa)
#
#
# Indices 1 2 3 4 5 6 
#
# 1 -512.4324 147.1022 -400.7598 0.0076 101.0854 0.0058
# 2 147.1022 69.1281 80.7986 -0.0011 -9.0539 -0.0006
# 3 -400.7598 80.7986 -163.9520 0.0065 68.7301 0.0044
# 4 0.0076 -0.0011 0.0065 25.3939 0.0006 13.3736
# 5 101.0854 -9.0539 68.7301 0.0006 22.0423 0.0003
# 6 0.0058 -0.0006 0.0044 13.3736 0.0003 13.5149
#
#
#
# Elastic Compliance Matrix: (Units=1/GPa)
#
#
# Indices 1 2 3 4 5 6 
#
# 1 0.002660 0.000487 -0.004895 0.000000 0.003263 0.000000
# 2 0.000487 0.010416 0.002080 0.000000 -0.004442 0.000000
# 3 -0.004895 0.002080 0.007221 0.000000 0.000787 0.000000
# 4 0.000000 0.000000 0.000000 0.082236 -0.000002 -0.081376
# 5 0.003263 -0.004442 0.000787 -0.000002 0.026125 -0.000001
# 6 0.000000 0.000000 0.000000 -0.081376 -0.000001 0.154517
#
#
# Mechanical properties :
#
#
# Convention : Reuss Voigt Hill
#
# Bulk Modulus (GPa) = 63.93220 -105.88601 -20.97691
# Shear Modulus (GPa) = 17.06218 -16.76959 0.14630
#
# Velocity S-wave (km/s) = 2.82763 -2.80328 0.26183
# Velocity P-wave (km/s) = 6.37336 7.75221 3.12066
#
# Compressibility (1/GPa) = 0.01564157
#
# Stress axis : x y z
#
# Youngs Moduli (GPa) = 375.87124 96.00554 138.48334
#
# Poissons Ratio (x) = -0.04680 0.67790
# Poissons Ratio (y) = -0.18324 -0.28799
# Poissons Ratio (z) = 1.83995 -0.19965
#
# Static dielectric constant tensor:
#      x y z
#    x 1.792060 0.000000 0.053560 
#    y 0.000000 1.819790 0.000000 
#    z 0.053560 0.000000 1.942880 
# 
# From -- ./inp_files/17223.got.cif
#   From: 2010.05.17/outbox.cif.g08.bks.cpg/sg9_9_cif.got.tgz:17223.got - 2010.06.03 20:04:27.
