data_PCOD9134466
_publ_section_title
;
Structure prediction by ZEFSAII (Michael W. Deem and Ramdas Pophale) SiO2 
 PCOD9134466
Probable space group: C C
;
_chemical_formula_sum "Si O2"
_cell_formula_units_Z 28
_cell_length_a 26.061046
_cell_length_b 12.134341
_cell_length_c 14.448257
_cell_angle_alpha 90.000000
_cell_angle_beta 164.344297
_cell_angle_gamma 90.000000
_cell_volume 1232.979071
_symmetry_space_group_name_H-M "C C"
_symmetry_group_IT_number 9
_symmetry_cell_setting 'monoclinic'
loop_
_space_group_symop_operation_xyz
x,y,z
x,-y,1/2+z
1/2+x,1/2+y,z
1/2+x,1/2-y,1/2+z
loop_
_atom_site_type_symbol
_atom_site_label
_atom_site_fract_x
_atom_site_fract_y
_atom_site_fract_z
Si Si1 0.775160 0.738329 0.092720
Si Si2 0.871057 0.769895 0.448365
Si Si3 0.307953 0.513306 0.356482
Si Si4 0.894587 0.470254 0.700669
Si Si5 0.270879 0.654874 0.125758
Si Si6 0.691009 0.956708 0.853636
Si Si7 0.716271 0.302613 0.870698
O O1 0.731145 0.723361 0.125123
O O2 0.784847 0.641416 0.034073
O O3 0.993948 0.777417 0.489089
O O4 0.668708 0.841322 0.864896
O O5 0.915635 0.901021 0.516893
O O6 0.778332 0.761491 0.387575
O O7 0.057701 0.694761 0.778988
O O8 0.321035 0.548443 0.486710
O O9 0.356213 0.613196 0.371001
O O10 0.081501 0.475804 0.958552
O O11 0.759798 0.569291 0.437667
O O12 0.992061 0.498695 0.968756
O O13 0.269317 0.545736 0.060666
O O14 0.327690 0.751424 0.152583
#
# Coordination Sequence:
#
# PCOD9134466 Si02
#       7
#     4   4   4   4   4   4   4
#     4  11  22  38  63  90 119 160 207 246 303 360
#     4  11  17  35  65  86 114 164 199 241 302 360
#     4  10  19  36  63  87 117 162 198 247 306 348
#     4  10  21  41  60  87 125 158 201 250 303 353
#     4  11  20  36  64  89 118 165 198 244 307 356
#     4  10  20  39  61  87 123 153 202 250 296 353
#     4  11  21  39  62  90 124 158 205 248 299 368
#
# _framework density 22.709226999999998
#
# number of rings (size 3 to 8) (size 9 to 14) (size 15 to 20)
#    0.857    0.571    8.571    0.000    0.000    0.000 
#    2.571    7.143    0.000    0.000    0.000    0.000 
#    0.000    0.000    0.000    0.000    0.000    0.000 
#
# Total GULP energy -78035.521898 kJ/mol
# GULP energy per Si atom -5573.965850 kJ/mol
# Density = 2.265754 g / cm^3
# Si number density = 22.709227 Si / 1000 Ang^3
#
#
#
# Elastic Constant Matrix: (Units=GPa)
#
#
# Indices 1 2 3 4 5 6 
#
# 1 94.3185 -3.0456 4.2568 0.0000 -7.5309 0.0000
# 2 -3.0456 78.7350 0.1315 0.0000 -2.2259 0.0000
# 3 4.2568 0.1315 28.2797 0.0000 -8.3982 0.0000
# 4 0.0000 0.0000 0.0000 31.1536 0.0000 -14.2300
# 5 -7.5309 -2.2259 -8.3982 0.0000 17.7037 0.0000
# 6 0.0000 0.0000 0.0000 -14.2300 0.0000 9.7337
#
#
#
# Elastic Compliance Matrix: (Units=1/GPa)
#
#
# Indices 1 2 3 4 5 6 
#
# 1 0.011002 0.000556 -0.000289 0.000000 0.004613 0.000000
# 2 0.000556 0.012780 0.000471 0.000000 0.002067 0.000000
# 3 -0.000289 0.000471 0.041185 0.000000 0.019474 0.000000
# 4 0.000000 0.000000 0.000000 0.096614 0.000000 0.141243
# 5 0.004613 0.002067 0.019474 0.000000 0.067945 0.000000
# 6 0.000000 0.000000 0.000000 0.141243 0.000000 0.309223
#
#
# Mechanical properties :
#
#
# Convention : Reuss Voigt Hill
#
# Bulk Modulus (GPa) = 15.05032 22.66874 18.85953
# Shear Modulus (GPa) = 8.93782 25.05090 16.99436
#
# Velocity S-wave (km/s) = 1.98603 3.32492 2.73856
# Velocity P-wave (km/s) = 3.44976 4.97433 4.28047
#
# Compressibility (1/GPa) = 0.06644376
#
# Stress axis : x y z
#
# Youngs Moduli (GPa) = 90.89508 78.24726 24.28041
#
# Poissons Ratio (x) = -0.04354 0.00701
# Poissons Ratio (y) = -0.05058 -0.01143
# Poissons Ratio (z) = 0.02624 -0.03682
#
# Static dielectric constant tensor:
#      x y z
#    x 1.940400 0.000000 0.015520 
#    y 0.000000 1.831080 0.000000 
#    z 0.015520 0.000000 1.859780 
# 
# From -- ./inp_files/24444.got.cif
#   From: 2010.05.17/outbox.cif.g08.bks.cpg/sg9_13_cif.got.tgz:24444.got - 2010.06.03 20:04:27.
