data_PCOD9134280
_publ_section_title
;
Structure prediction by ZEFSAII (Michael W. Deem and Ramdas Pophale) SiO2 
 PCOD9134280
Probable space group: C C
;
_chemical_formula_sum "Si O2"
_cell_formula_units_Z 24
_cell_length_a 5.187567
_cell_length_b 27.249910
_cell_length_c 9.472328
_cell_angle_alpha 90.000000
_cell_angle_beta 44.964272
_cell_angle_gamma 90.000000
_cell_volume 946.236157
_symmetry_space_group_name_H-M "C C"
_symmetry_group_IT_number 9
_symmetry_cell_setting 'monoclinic'
loop_
_space_group_symop_operation_xyz
x,y,z
x,-y,1/2+z
1/2+x,1/2+y,z
1/2+x,1/2-y,1/2+z
loop_
_atom_site_type_symbol
_atom_site_label
_atom_site_fract_x
_atom_site_fract_y
_atom_site_fract_z
Si Si1 0.836600 0.371707 0.518550
Si Si2 0.856499 0.707480 0.427452
Si Si3 0.907787 0.179573 0.966805
Si Si4 0.784292 0.157663 0.491150
Si Si5 0.530178 0.555031 0.482085
Si Si6 0.364129 0.462227 0.725257
O O1 0.762591 0.339938 0.408248
O O2 0.563165 0.353982 0.751165
O O3 0.688288 0.426293 0.547378
O O4 0.230755 0.359794 0.429085
O O5 0.936389 0.678137 0.541306
O O6 0.939169 0.764777 0.404034
O O7 0.455151 0.699962 0.521534
O O8 0.117960 0.684734 0.207728
O O9 0.824292 0.106940 0.561474
O O10 0.395866 0.515357 0.645198
O O11 0.432836 0.534078 0.365376
O O12 0.967184 0.560227 0.338792
#
# Coordination Sequence:
#
# PCOD9134280 Si02
#       6
#     4   4   4   4   4   4
#     4   9  18  34  55  75 105 148 186 220 279 356
#     4  10  19  33  53  77 104 140 183 229 279 337
#     4  10  19  33  53  77 104 140 183 229 279 337
#     4   9  18  34  55  75 105 148 186 220 279 356
#     4  11  22  39  62  88 118 158 202 247 296 355
#     4  11  22  39  62  88 118 158 202 247 296 355
#
# _framework density 25.363647
#
# number of rings (size 3 to 8) (size 9 to 14) (size 15 to 20)
#    0.000    2.000    0.000    7.000    0.000    0.000 
#    0.000    5.000    0.000    0.000    0.000    0.000 
#    0.000    0.000    0.000    0.000    0.000    0.000 
#
# Total GULP energy -67179.838013 kJ/mol
# GULP energy per Si atom -5598.319834 kJ/mol
# Density = 2.530592 g / cm^3
# Si number density = 25.363647 Si / 1000 Ang^3
#
#
#
# Elastic Constant Matrix: (Units=GPa)
#
#
# Indices 1 2 3 4 5 6 
#
# 1 189.3748 66.1582 52.8358 0.0000 5.5539 0.0000
# 2 66.1582 135.0473 43.1856 0.0000 4.5200 0.0000
# 3 52.8358 43.1856 58.3065 0.0000 -16.8370 0.0000
# 4 0.0000 0.0000 0.0000 26.0301 0.0000 5.2872
# 5 5.5539 4.5200 -16.8370 0.0000 36.9871 0.0000
# 6 0.0000 0.0000 0.0000 5.2872 0.0000 51.4710
#
#
#
# Elastic Compliance Matrix: (Units=1/GPa)
#
#
# Indices 1 2 3 4 5 6 
#
# 1 0.007982 -0.001359 -0.007512 0.000000 -0.004452 0.000000
# 2 -0.001359 0.010861 -0.008218 0.000000 -0.004864 0.000000
# 3 -0.007512 -0.008218 0.035300 0.000000 0.018201 0.000000
# 4 0.000000 0.000000 0.000000 0.039236 0.000000 -0.004030
# 5 -0.004452 -0.004864 0.018201 0.000000 0.036585 0.000000
# 6 0.000000 0.000000 0.000000 -0.004030 0.000000 0.019842
#
#
# Mechanical properties :
#
#
# Convention : Reuss Voigt Hill
#
# Bulk Modulus (GPa) = 50.08446 78.56531 64.32489
# Shear Modulus (GPa) = 26.22773 37.60091 31.91432
#
# Velocity S-wave (km/s) = 3.21918 3.85447 3.55106
# Velocity P-wave (km/s) = 5.79715 7.13106 6.49842
#
# Compressibility (1/GPa) = 0.01996627
#
# Stress axis : x y z
#
# Youngs Moduli (GPa) = 125.28736 92.07092 28.32857
#
# Poissons Ratio (x) = 0.12512 0.21280
# Poissons Ratio (y) = 0.17027 0.23279
# Poissons Ratio (z) = 0.94113 0.75660
#
# Static dielectric constant tensor:
#      x y z
#    x 1.932670 0.000000 -0.003440 
#    y 0.000000 1.932090 0.000000 
#    z -0.003440 0.000000 2.178560 
# 
# From -- ./inp_files/3901.got.cif
#   From: 2010.05.17/outbox.cif.g08.bks.cpg/sg9_2_cif.got.tgz:3901.got - 2010.06.03 20:04:27.
