data_PCOD9134218
_publ_section_title
;
Structure prediction by ZEFSAII (Michael W. Deem and Ramdas Pophale) SiO2 
 PCOD9134218
Probable space group: C C
;
_chemical_formula_sum "Si O2"
_cell_formula_units_Z 32
_cell_length_a 5.551621
_cell_length_b 20.826883
_cell_length_c 11.597205
_cell_angle_alpha 90.000000
_cell_angle_beta 124.949383
_cell_angle_gamma 90.000000
_cell_volume 1099.082612
_symmetry_space_group_name_H-M "C C"
_symmetry_group_IT_number 9
_symmetry_cell_setting 'monoclinic'
loop_
_space_group_symop_operation_xyz
x,y,z
x,-y,1/2+z
1/2+x,1/2+y,z
1/2+x,1/2-y,1/2+z
loop_
_atom_site_type_symbol
_atom_site_label
_atom_site_fract_x
_atom_site_fract_y
_atom_site_fract_z
Si Si1 0.329770 0.828092 0.764140
Si Si2 0.335097 0.044954 0.017111
Si Si3 0.521637 0.815321 0.495367
Si Si4 0.289430 0.978945 0.760096
Si Si5 0.392285 0.697750 0.704026
Si Si6 0.535598 0.680683 0.430390
Si Si7 0.232748 0.610359 0.864445
Si Si8 0.080435 0.086279 0.617167
O O1 0.248937 0.902639 0.751177
O O2 0.265496 0.768563 0.657605
O O3 0.683275 0.828075 0.834842
O O4 0.193715 0.804654 0.851556
O O5 0.435130 0.120808 0.043654
O O6 0.979472 0.056818 0.919592
O O7 0.385816 0.001962 0.915879
O O8 0.435812 0.017165 0.168109
O O9 0.608790 0.740744 0.539064
O O10 0.776370 0.848930 0.491732
O O11 0.233591 0.801717 0.337476
O O12 0.396371 0.087363 0.768922
O O13 0.990831 0.017746 0.642563
O O14 0.241869 0.663031 0.768987
O O15 0.371275 0.642465 0.603816
O O16 0.638327 0.610693 0.505084
#
# Coordination Sequence:
#
# PCOD9134218 Si02
#       8
#     4   4   4   4   4   4   4   4
#     4  11  26  47  69 110 152 197 261 334 388 478
#     4  11  25  48  72 111 154 212 263 332 402 491
#     4   9  19  43  70 105 143 200 256 324 397 469
#     4  12  26  49  72 110 158 204 270 324 415 484
#     4   9  19  41  68  96 144 187 254 310 388 458
#     4  11  25  46  76 111 153 199 267 330 399 477
#     4  10  18  44  73  99 141 197 252 312 392 472
#     4  11  24  42  72 106 145 204 253 322 393 481
#
# _framework density 29.115188
#
# number of rings (size 3 to 8) (size 9 to 14) (size 15 to 20)
#    0.000    1.500    5.000    0.750    3.500    2.000 
#    6.750    0.000    0.000    0.000    0.000    0.000 
#    0.000    0.000    0.000    0.000    0.000    0.000 
#
# Total GULP energy -89074.682904 kJ/mol
# GULP energy per Si atom -5567.167682 kJ/mol
# Density = 2.904892 g / cm^3
# Si number density = 29.115188 Si / 1000 Ang^3
#
#
#
# Elastic Constant Matrix: (Units=GPa)
#
#
# Indices 1 2 3 4 5 6 
#
# 1 129.1066 39.2726 49.5676 0.0000 2.6386 0.0000
# 2 39.2726 223.4928 91.8344 0.0000 -37.0605 0.0000
# 3 49.5676 91.8344 75.3781 0.0000 -12.0849 0.0000
# 4 0.0000 0.0000 0.0000 60.4579 0.0000 -22.1421
# 5 2.6386 -37.0605 -12.0849 0.0000 55.4453 0.0000
# 6 0.0000 0.0000 0.0000 -22.1421 0.0000 29.5736
#
#
#
# Elastic Compliance Matrix: (Units=1/GPa)
#
#
# Indices 1 2 3 4 5 6 
#
# 1 0.010906 0.001780 -0.009568 0.000000 -0.001414 0.000000
# 2 0.001780 0.010067 -0.012819 0.000000 0.003850 0.000000
# 3 -0.009568 -0.012819 0.035101 0.000000 -0.000462 0.000000
# 4 0.000000 0.000000 0.000000 0.022790 0.000000 0.017063
# 5 -0.001414 0.003850 -0.000462 0.000000 0.020576 0.000000
# 6 0.000000 0.000000 0.000000 0.017063 0.000000 0.046589
#
#
# Mechanical properties :
#
#
# Convention : Reuss Voigt Hill
#
# Bulk Modulus (GPa) = 67.28179 87.70296 77.49238
# Shear Modulus (GPa) = 26.01527 45.58221 35.79874
#
# Velocity S-wave (km/s) = 2.99244 3.96104 3.51031
# Velocity P-wave (km/s) = 5.92441 7.14898 6.56531
#
# Compressibility (1/GPa) = 0.01486286
#
# Stress axis : x y z
#
# Youngs Moduli (GPa) = 91.69170 99.33168 28.48930
#
# Poissons Ratio (x) = -0.17685 0.27257
# Poissons Ratio (y) = -0.16325 0.36519
# Poissons Ratio (z) = 0.87726 1.27329
#
# Static dielectric constant tensor:
#      x y z
#    x 2.375500 0.000000 0.014020 
#    y 0.000000 2.842220 0.000000 
#    z 0.014020 0.000000 2.443260 
# 
# From -- ./inp_files/22009.got.cif
#   From: 2010.05.17/outbox.cif.g08.bks.cpg/sg9_12_cif.got.tgz:22009.got - 2010.06.03 20:04:27.
