data_PCOD9134319
_publ_section_title
;
Structure prediction by ZEFSAII (Michael W. Deem and Ramdas Pophale) SiO2 
 PCOD9134319
Probable space group: C C
;
_chemical_formula_sum "Si O2"
_cell_formula_units_Z 32
_cell_length_a 19.935273
_cell_length_b 14.707333
_cell_length_c 4.917502
_cell_angle_alpha 90.000000
_cell_angle_beta 103.913120
_cell_angle_gamma 90.000000
_cell_volume 1399.485615
_symmetry_space_group_name_H-M "C C"
_symmetry_group_IT_number 9
_symmetry_cell_setting 'monoclinic'
loop_
_space_group_symop_operation_xyz
x,y,z
x,-y,1/2+z
1/2+x,1/2+y,z
1/2+x,1/2-y,1/2+z
loop_
_atom_site_type_symbol
_atom_site_label
_atom_site_fract_x
_atom_site_fract_y
_atom_site_fract_z
Si Si1 0.586150 0.565862 0.234500
Si Si2 0.939720 0.436253 0.529987
Si Si3 0.227713 0.555724 0.245054
Si Si4 0.862958 0.866446 0.125953
Si Si5 0.947948 0.832192 0.686951
Si Si6 0.241293 0.936598 0.991619
Si Si7 0.857287 0.684733 0.344946
Si Si8 0.587286 0.064587 0.278235
O O1 0.578437 0.480788 0.433841
O O2 0.526918 0.640104 0.225476
O O3 0.664310 0.600919 0.359077
O O4 0.935293 0.473267 0.219871
O O5 0.014411 0.389478 0.646365
O O6 0.883857 0.373337 0.616854
O O7 0.221453 0.463565 0.421263
O O8 0.303352 0.415927 0.905835
O O9 0.159982 0.610837 0.276816
O O10 0.902299 0.897506 0.438557
O O11 0.824267 0.775167 0.187418
O O12 0.922966 0.845477 0.968801
O O13 0.922054 0.731674 0.568445
O O14 0.302302 0.868912 0.969980
O O15 0.246984 0.024872 0.800342
O O16 0.585218 0.024035 0.577246
#
# Coordination Sequence:
#
# PCOD9134319 Si02
#       8
#     4   4   4   4   4   4   4   4
#     4  10  21  40  64  89 115 151 205 249 287 343
#     4  10  20  34  59  81 103 144 189 227 273 324
#     4  10  19  34  56  77 108 145 190 226 265 330
#     4  10  23  36  53  84 115 151 186 230 291 337
#     4  10  23  38  56  82 120 151 183 239 290 346
#     4  10  22  39  66  89 112 155 201 250 291 339
#     4  10  24  38  56  84 123 145 188 234 292 353
#     4   8  16  31  50  76 102 128 172 223 255 310
#
# _framework density 22.865546999999999
#
# number of rings (size 3 to 8) (size 9 to 14) (size 15 to 20)
#    0.750    1.500    0.000    2.250    3.500    3.000 
#    2.250    0.000    2.750    0.000    0.000    0.000 
#    0.000    0.000    0.000    0.000    0.000    0.000 
#
# Total GULP energy -89228.685680 kJ/mol
# GULP energy per Si atom -5576.792855 kJ/mol
# Density = 2.281350 g / cm^3
# Si number density = 22.865547 Si / 1000 Ang^3
#
#
#
# Elastic Constant Matrix: (Units=GPa)
#
#
# Indices 1 2 3 4 5 6 
#
# 1 161.0847 41.2660 0.5375 0.0000 3.4023 0.0000
# 2 41.2660 24.0726 -4.2534 0.0000 4.0461 0.0000
# 3 0.5375 -4.2534 72.3400 0.0000 2.0859 0.0000
# 4 0.0000 0.0000 0.0000 8.0231 0.0000 -3.9645
# 5 3.4023 4.0461 2.0859 0.0000 34.5015 0.0000
# 6 0.0000 0.0000 0.0000 -3.9645 0.0000 23.5635
#
#
#
# Elastic Compliance Matrix: (Units=1/GPa)
#
#
# Indices 1 2 3 4 5 6 
#
# 1 0.011229 -0.019691 -0.001278 0.000000 0.001279 0.000000
# 2 -0.019691 0.077413 0.004912 0.000000 -0.007434 0.000000
# 3 -0.001278 0.004912 0.014160 0.000000 -0.001306 0.000000
# 4 0.000000 0.000000 0.000000 0.135943 0.000000 0.022872
# 5 0.001279 -0.007434 -0.001306 0.000000 0.029809 0.000000
# 6 0.000000 0.000000 0.000000 0.022872 0.000000 0.046287
#
#
# Mechanical properties :
#
#
# Convention : Reuss Voigt Hill
#
# Bulk Modulus (GPa) = 14.14649 36.95527 25.55088
# Shear Modulus (GPa) = 13.49470 27.88075 20.68773
#
# Velocity S-wave (km/s) = 2.43199 3.49569 3.01118
# Velocity P-wave (km/s) = 3.75318 5.70001 4.82579
#
# Compressibility (1/GPa) = 0.07068893
#
# Stress axis : x y z
#
# Youngs Moduli (GPa) = 89.05180 12.91778 70.62348
#
# Poissons Ratio (x) = 0.25436 0.09026
# Poissons Ratio (y) = 1.75349 -0.34693
# Poissons Ratio (z) = 0.11382 -0.06346
#
# Static dielectric constant tensor:
#      x y z
#    x 1.932270 0.000000 0.038780 
#    y 0.000000 1.883960 0.000000 
#    z 0.038780 0.000000 1.845000 
# 
# From -- ./inp_files/3190.got.cif
#   From: 2010.05.17/outbox.cif.g08.bks.cpg/sg9_2_cif.got.tgz:3190.got - 2010.06.03 20:04:27.
