data_PCOD9134140
_publ_section_title
;
Structure prediction by ZEFSAII (Michael W. Deem and Ramdas Pophale) SiO2 
 PCOD9134140
Probable space group: C C
;
_chemical_formula_sum "Si O2"
_cell_formula_units_Z 28
_cell_length_a 26.035663
_cell_length_b 8.993071
_cell_length_c 15.237160
_cell_angle_alpha 90.000000
_cell_angle_beta 159.013991
_cell_angle_gamma 90.000000
_cell_volume 1277.713499
_symmetry_space_group_name_H-M "C C"
_symmetry_group_IT_number 9
_symmetry_cell_setting 'monoclinic'
loop_
_space_group_symop_operation_xyz
x,y,z
x,-y,1/2+z
1/2+x,1/2+y,z
1/2+x,1/2-y,1/2+z
loop_
_atom_site_type_symbol
_atom_site_label
_atom_site_fract_x
_atom_site_fract_y
_atom_site_fract_z
Si Si1 0.120520 0.337381 0.627240
Si Si2 0.866252 0.519946 0.225954
Si Si3 0.862574 0.821902 0.134413
Si Si4 0.311522 0.398705 0.355048
Si Si5 0.948096 0.654131 0.691942
Si Si6 0.644525 0.086515 0.413609
Si Si7 0.058801 0.904230 0.291544
O O1 0.206928 0.483770 0.734256
O O2 0.984190 0.412724 0.458357
O O3 0.057068 0.267283 0.436369
O O4 0.238864 0.253130 0.872359
O O5 0.914724 0.688913 0.280500
O O6 0.855892 0.444081 0.112970
O O7 0.718474 0.532440 0.041246
O O8 0.767601 0.939792 0.037731
O O9 0.985925 0.890137 0.271176
O O10 0.353821 0.263378 0.484380
O O11 0.232189 0.360385 0.139543
O O12 0.457667 0.489747 0.573105
O O13 0.043924 0.548276 0.782219
O O14 0.559229 0.236721 0.254830
#
# Coordination Sequence:
#
# PCOD9134140 Si02
#       7
#     4   4   4   4   4   4   4
#     4   8  19  38  59  83 122 151 189 251 288 347
#     4   9  19  39  60  84 122 149 199 249 284 355
#     4  10  18  37  65  82 117 162 193 240 304 347
#     4  10  20  40  60  88 121 153 198 247 292 356
#     4   9  19  41  59  86 117 157 197 245 295 349
#     4  10  21  39  60  87 120 156 197 246 298 352
#     4  10  20  40  59  86 119 154 197 244 289 352
#
# _framework density 21.914145999999999
#
# number of rings (size 3 to 8) (size 9 to 14) (size 15 to 20)
#    0.857    1.714    1.429    0.000    0.000    2.286 
#   15.429   12.857    0.000    0.000    0.000    0.000 
#    0.000    0.000    0.000    0.000    0.000    0.000 
#
# Total GULP energy -77964.660365 kJ/mol
# GULP energy per Si atom -5568.904312 kJ/mol
# Density = 2.186427 g / cm^3
# Si number density = 21.914146 Si / 1000 Ang^3
#
#
#
# Elastic Constant Matrix: (Units=GPa)
#
#
# Indices 1 2 3 4 5 6 
#
# 1 99.1901 11.8442 19.7763 0.0000 26.6873 0.0000
# 2 11.8442 41.3290 14.8054 0.0000 -6.8869 0.0000
# 3 19.7763 14.8054 52.9349 0.0000 20.0340 0.0000
# 4 0.0000 0.0000 0.0000 37.0311 0.0000 -0.8435
# 5 26.6873 -6.8869 20.0340 0.0000 36.5251 0.0000
# 6 0.0000 0.0000 0.0000 -0.8435 0.0000 8.9470
#
#
#
# Elastic Compliance Matrix: (Units=1/GPa)
#
#
# Indices 1 2 3 4 5 6 
#
# 1 0.013820 -0.006345 0.001118 0.000000 -0.011908 0.000000
# 2 -0.006345 0.034362 -0.014446 0.000000 0.019039 0.000000
# 3 0.001118 -0.014446 0.030103 0.000000 -0.020052 0.000000
# 4 0.000000 0.000000 0.000000 0.027062 0.000000 0.002551
# 5 -0.011908 0.019039 -0.020052 0.000000 0.050667 0.000000
# 6 0.000000 0.000000 0.000000 0.002551 0.000000 0.112010
#
#
# Mechanical properties :
#
#
# Convention : Reuss Voigt Hill
#
# Bulk Modulus (GPa) = 25.68109 31.81175 28.74642
# Shear Modulus (GPa) = 15.60789 26.30251 20.95520
#
# Velocity S-wave (km/s) = 2.67166 3.46822 3.09567
# Velocity P-wave (km/s) = 4.61101 5.53048 5.09154
#
# Compressibility (1/GPa) = 0.03893915
#
# Stress axis : x y z
#
# Youngs Moduli (GPa) = 72.35790 29.10177 33.21949
#
# Poissons Ratio (x) = 0.18466 -0.03715
# Poissons Ratio (y) = 0.45915 0.47988
# Poissons Ratio (z) = -0.08091 0.42040
#
# Static dielectric constant tensor:
#      x y z
#    x 1.858910 0.000000 -0.030420 
#    y 0.000000 1.797850 0.000000 
#    z -0.030420 0.000000 1.876610 
# 
# From -- ./inp_files/31809.got.cif
#   From: 2010.05.17/outbox.cif.g08.bks.cpg/sg9_16_cif.got.tgz:31809.got - 2010.06.03 20:04:27.
