data_PCOD9134781
_publ_section_title
;
Structure prediction by ZEFSAII (Michael W. Deem and Ramdas Pophale) SiO2 
 PCOD9134781
Probable space group: C C
;
_chemical_formula_sum "Si O2"
_cell_formula_units_Z 28
_cell_length_a 8.063639
_cell_length_b 14.771316
_cell_length_c 10.490955
_cell_angle_alpha 90.000000
_cell_angle_beta 100.167685
_cell_angle_gamma 90.000000
_cell_volume 1229.959223
_symmetry_space_group_name_H-M "C C"
_symmetry_group_IT_number 9
_symmetry_cell_setting 'monoclinic'
loop_
_space_group_symop_operation_xyz
x,y,z
x,-y,1/2+z
1/2+x,1/2+y,z
1/2+x,1/2-y,1/2+z
loop_
_atom_site_type_symbol
_atom_site_label
_atom_site_fract_x
_atom_site_fract_y
_atom_site_fract_z
Si Si1 0.588660 0.391664 0.051220
Si Si2 0.506239 0.290463 0.282487
Si Si3 0.465202 0.911528 0.187387
Si Si4 0.175543 0.766953 0.668491
Si Si5 0.105702 0.493705 0.459748
Si Si6 0.784150 0.816902 0.913775
Si Si7 0.957390 0.091721 0.025405
O O1 0.492108 0.361516 0.166352
O O2 0.782836 0.381044 0.111061
O O3 0.485031 0.331702 0.934677
O O4 0.550073 0.496123 0.021879
O O5 0.352242 0.219521 0.263555
O O6 0.682131 0.237619 0.293726
O O7 0.484538 0.350141 0.403458
O O8 0.584836 0.823690 0.204023
O O9 0.484067 0.955544 0.331131
O O10 0.524156 0.980075 0.083688
O O11 0.236039 0.742040 0.532493
O O12 0.050234 0.851032 0.647005
O O13 0.196600 0.585094 0.419078
O O14 0.259278 0.425837 0.511478
#
# Coordination Sequence:
#
# PCOD9134781 Si02
#       7
#     4   4   4   4   4   4   4
#     4  10  23  39  61  97 131 170 225 271 329 401
#     4  10  19  41  67  92 130 173 218 273 338 395
#     4  11  23  43  64  99 136 174 225 274 331 402
#     4   9  19  39  64  94 128 171 215 272 339 393
#     4  10  22  42  68  94 132 175 219 273 334 393
#     4   8  19  40  64  89 127 173 212 274 333 391
#     4  10  21  40  66  91 128 174 218 275 336 399
#
# _framework density 22.764983000000001
#
# number of rings (size 3 to 8) (size 9 to 14) (size 15 to 20)
#    0.000    2.286    1.429    0.857    4.000    0.000 
#    5.143    0.000    0.000    0.000    0.000    0.000 
#    0.000    0.000    0.000    0.000    0.000    0.000 
#
# Total GULP energy -78114.554178 kJ/mol
# GULP energy per Si atom -5579.611013 kJ/mol
# Density = 2.271317 g / cm^3
# Si number density = 22.764983 Si / 1000 Ang^3
#
#
#
# Elastic Constant Matrix: (Units=GPa)
#
#
# Indices 1 2 3 4 5 6 
#
# 1 97.6321 31.2805 47.2349 0.0000 37.6408 0.0000
# 2 31.2805 67.7365 38.5587 0.0000 19.9048 0.0000
# 3 47.2349 38.5587 83.8845 0.0000 24.1621 0.0000
# 4 0.0000 0.0000 0.0000 39.4109 0.0000 26.4916
# 5 37.6408 19.9048 24.1621 0.0000 41.9096 0.0000
# 6 0.0000 0.0000 0.0000 26.4916 0.0000 49.7031
#
#
#
# Elastic Compliance Matrix: (Units=1/GPa)
#
#
# Indices 1 2 3 4 5 6 
#
# 1 0.018434 -0.001357 -0.006203 0.000000 -0.012336 0.000000
# 2 -0.001357 0.021021 -0.007643 0.000000 -0.004359 0.000000
# 3 -0.006203 -0.007643 0.019518 0.000000 -0.002051 0.000000
# 4 0.000000 0.000000 0.000000 0.039540 0.000000 -0.021075
# 5 -0.012336 -0.004359 -0.002051 0.000000 0.038193 0.000000
# 6 0.000000 0.000000 0.000000 -0.021075 0.000000 0.031352
#
#
# Mechanical properties :
#
#
# Convention : Reuss Voigt Hill
#
# Bulk Modulus (GPa) = 35.00495 53.71125 44.35810
# Shear Modulus (GPa) = 24.03976 35.01666 29.52821
#
# Velocity S-wave (km/s) = 3.25314 3.92622 3.60542
# Velocity P-wave (km/s) = 5.43328 6.64820 6.07121
#
# Compressibility (1/GPa) = 0.02856739
#
# Stress axis : x y z
#
# Youngs Moduli (GPa) = 54.24638 47.57048 51.23352
#
# Poissons Ratio (x) = 0.06454 0.31782
# Poissons Ratio (y) = 0.07360 0.39159
# Poissons Ratio (z) = 0.33651 0.36360
#
# Static dielectric constant tensor:
#      x y z
#    x 1.891360 0.000000 0.066880 
#    y 0.000000 1.813440 0.000000 
#    z 0.066880 0.000000 1.951040 
# 
# From -- ./inp_files/14378.got.cif
#   From: 2010.05.17/outbox.cif.g08.bks.cpg/sg9_8_cif.got.tgz:14378.got - 2010.06.03 20:04:27.
