data_PCOD9134502
_publ_section_title
;
Structure prediction by ZEFSAII (Michael W. Deem and Ramdas Pophale) SiO2 
 PCOD9134502
Probable space group: C C
;
_chemical_formula_sum "Si O2"
_cell_formula_units_Z 32
_cell_length_a 7.609664
_cell_length_b 11.146844
_cell_length_c 22.532656
_cell_angle_alpha 90.000000
_cell_angle_beta 134.737032
_cell_angle_gamma 90.000000
_cell_volume 1357.684736
_symmetry_space_group_name_H-M "C C"
_symmetry_group_IT_number 9
_symmetry_cell_setting 'monoclinic'
loop_
_space_group_symop_operation_xyz
x,y,z
x,-y,1/2+z
1/2+x,1/2+y,z
1/2+x,1/2-y,1/2+z
loop_
_atom_site_type_symbol
_atom_site_label
_atom_site_fract_x
_atom_site_fract_y
_atom_site_fract_z
Si Si1 0.926320 0.716498 0.573340
Si Si2 0.220083 0.275808 0.838076
Si Si3 0.983541 0.080229 0.310149
Si Si4 0.966560 0.220770 0.526089
Si Si5 0.299605 0.031038 0.981819
Si Si6 0.860994 0.537164 0.302605
Si Si7 0.232280 0.464513 0.486799
Si Si8 0.413032 0.587840 0.705853
O O1 0.764499 0.734898 0.595197
O O2 0.819382 0.589014 0.524866
O O3 0.878330 0.839806 0.526925
O O4 0.214699 0.684091 0.640922
O O5 0.375229 0.305969 0.816811
O O6 0.005681 0.373797 0.794958
O O7 0.091254 0.150878 0.795909
O O8 0.376331 0.273442 0.935294
O O9 0.798258 0.018383 0.218771
O O10 0.061218 0.995726 0.384302
O O11 0.221518 0.104579 0.324736
O O12 0.825565 0.338262 0.518297
O O13 0.881801 0.089443 0.526000
O O14 0.537957 0.029314 0.994886
O O15 0.626522 0.471028 0.215920
O O16 0.075273 0.464670 0.388193
#
# Coordination Sequence:
#
# PCOD9134502 Si02
#       8
#     4   4   4   4   4   4   4   4
#     4  11  22  36  61  87 127 161 189 259 309 350
#     4  11  18  39  66  83 120 160 200 260 299 355
#     4   9  19  38  59  88 117 156 205 246 301 360
#     4  10  20  37  62  90 115 156 207 249 301 366
#     4  10  19  37  60  88 118 155 201 254 300 353
#     4   8  20  38  56  92 117 149 208 251 295 363
#     4   9  20  38  58  90 118 151 206 251 296 365
#     4  10  22  39  54  88 128 156 204 254 303 362
#
# _framework density 23.569538000000001
#
# number of rings (size 3 to 8) (size 9 to 14) (size 15 to 20)
#    0.750    1.500    2.500    0.750    0.000    4.000 
#    2.250    0.000    0.000    0.000    0.000    0.000 
#    0.000    0.000    0.000    0.000    0.000    0.000 
#
# Total GULP energy -89067.748066 kJ/mol
# GULP energy per Si atom -5566.734254 kJ/mol
# Density = 2.351589 g / cm^3
# Si number density = 23.569538 Si / 1000 Ang^3
#
#
#
# Elastic Constant Matrix: (Units=GPa)
#
#
# Indices 1 2 3 4 5 6 
#
# 1 40.3338 10.8399 5.7282 0.0000 9.1777 0.0000
# 2 10.8399 126.4090 13.2008 0.0000 1.6925 0.0000
# 3 5.7282 13.2008 19.9942 0.0000 7.3875 0.0000
# 4 0.0000 0.0000 0.0000 12.7919 0.0000 2.5873
# 5 9.1777 1.6925 7.3875 0.0000 19.7296 0.0000
# 6 0.0000 0.0000 0.0000 2.5873 0.0000 31.0985
#
#
#
# Elastic Compliance Matrix: (Units=1/GPa)
#
#
# Indices 1 2 3 4 5 6 
#
# 1 0.028442 -0.002036 -0.002298 0.000000 -0.012195 0.000000
# 2 -0.002036 0.008686 -0.006065 0.000000 0.002473 0.000000
# 3 -0.002298 -0.006065 0.062775 0.000000 -0.021916 0.000000
# 4 0.000000 0.000000 0.000000 0.079512 0.000000 -0.006615
# 5 -0.012195 0.002473 -0.021916 0.000000 0.064352 0.000000
# 6 0.000000 0.000000 0.000000 -0.006615 0.000000 0.032706
#
#
# Mechanical properties :
#
#
# Convention : Reuss Voigt Hill
#
# Bulk Modulus (GPa) = 12.64160 27.36385 20.00272
# Shear Modulus (GPa) = 15.44932 23.18853 19.31893
#
# Velocity S-wave (km/s) = 2.56301 3.14002 2.86607
# Velocity P-wave (km/s) = 3.75950 4.97808 4.41108
#
# Compressibility (1/GPa) = 0.07910393
#
# Stress axis : x y z
#
# Youngs Moduli (GPa) = 35.15983 115.13260 15.92995
#
# Poissons Ratio (x) = 0.23437 0.03661
# Poissons Ratio (y) = 0.07157 0.09661
# Poissons Ratio (z) = 0.08081 0.69828
#
# Static dielectric constant tensor:
#      x y z
#    x 1.892300 0.000000 0.008950 
#    y 0.000000 1.975930 0.000000 
#    z 0.008950 0.000000 1.975780 
# 
# From -- ./inp_files/29091.got.cif
#   From: 2010.05.17/outbox.cif.g08.bks.cpg/sg9_15_cif.got.tgz:29091.got - 2010.06.03 20:04:27.
