data_PCOD9134931
_publ_section_title
;
Structure prediction by ZEFSAII (Michael W. Deem and Ramdas Pophale) SiO2 
 PCOD9134931
Probable space group: C C
;
_chemical_formula_sum "Si O2"
_cell_formula_units_Z 32
_cell_length_a 11.809766
_cell_length_b 18.395572
_cell_length_c 9.222446
_cell_angle_alpha 90.000000
_cell_angle_beta 124.832335
_cell_angle_gamma 90.000000
_cell_volume 1644.569914
_symmetry_space_group_name_H-M "C C"
_symmetry_group_IT_number 9
_symmetry_cell_setting 'monoclinic'
loop_
_space_group_symop_operation_xyz
x,y,z
x,-y,1/2+z
1/2+x,1/2+y,z
1/2+x,1/2-y,1/2+z
loop_
_atom_site_type_symbol
_atom_site_label
_atom_site_fract_x
_atom_site_fract_y
_atom_site_fract_z
Si Si1 0.840290 0.773155 0.406910
Si Si2 0.899195 0.710743 0.893108
Si Si3 0.585571 0.670346 0.250295
Si Si4 0.713056 0.408518 0.377820
Si Si5 0.412042 0.587989 0.370596
Si Si6 0.938716 0.825089 0.171639
Si Si7 0.709180 0.823593 0.571538
Si Si8 0.613226 0.527977 0.078544
O O1 0.740403 0.703357 0.358431
O O2 0.859739 0.802296 0.259154
O O3 0.765515 0.832546 0.451485
O O4 0.988704 0.770790 0.596360
O O5 0.836862 0.635280 0.900039
O O6 0.791079 0.756537 0.713967
O O7 0.927223 0.756740 0.058030
O O8 0.050305 0.695481 0.942144
O O9 0.518963 0.642029 0.356187
O O10 0.580988 0.598545 0.148450
O O11 0.594533 0.348189 0.322908
O O12 0.665472 0.465456 0.222542
O O13 0.722980 0.451401 0.535441
O O14 0.397577 0.610747 0.528910
O O15 0.263250 0.605782 0.195205
O O16 0.477848 0.508372 0.405796
#
# Coordination Sequence:
#
# PCOD9134931 Si02
#       8
#     4   4   4   4   4   4   4   4
#     4  11  22  35  59  94 120 152 200 256 310 349
#     4  11  21  39  62  91 124 161 202 253 312 356
#     4  11  22  39  61  90 122 157 200 251 303 365
#     4  11  22  37  65  88 120 166 204 248 296 371
#     4   9  21  38  61  85 122 166 202 241 298 368
#     4  10  20  35  57  92 121 150 204 252 304 347
#     4  10  21  38  62  91 126 159 201 254 310 362
#     4  11  21  39  61  87 119 165 207 239 293 378
#
# _framework density 19.457975999999999
#
# number of rings (size 3 to 8) (size 9 to 14) (size 15 to 20)
#    0.000    1.500    3.750    3.000    1.750    0.000 
#    0.000    0.000    8.250    0.000    0.000    0.000 
#    0.000    0.000    0.000    0.000    0.000    0.000 
#
# Total GULP energy -89077.220776 kJ/mol
# GULP energy per Si atom -5567.326298 kJ/mol
# Density = 1.941369 g / cm^3
# Si number density = 19.457976 Si / 1000 Ang^3
#
#
#
# Elastic Constant Matrix: (Units=GPa)
#
#
# Indices 1 2 3 4 5 6 
#
# 1 101.4924 21.9050 50.4919 0.0000 -10.1836 0.0000
# 2 21.9050 75.2815 34.0066 0.0000 13.0203 0.0000
# 3 50.4919 34.0066 63.8252 0.0000 -20.1965 0.0000
# 4 0.0000 0.0000 0.0000 29.2116 0.0000 1.1878
# 5 -10.1836 13.0203 -20.1965 0.0000 40.8454 0.0000
# 6 0.0000 0.0000 0.0000 1.1878 0.0000 27.6725
#
#
#
# Elastic Compliance Matrix: (Units=1/GPa)
#
#
# Indices 1 2 3 4 5 6 
#
# 1 0.017068 0.003768 -0.017242 0.000000 -0.005471 0.000000
# 2 0.003768 0.025373 -0.022242 0.000000 -0.018146 0.000000
# 3 -0.017242 -0.022242 0.049840 0.000000 0.027435 0.000000
# 4 0.000000 0.000000 0.000000 0.034293 0.000000 -0.001472
# 5 -0.005471 -0.018146 0.027435 0.000000 0.042469 0.000000
# 6 0.000000 0.000000 0.000000 -0.001472 0.000000 0.036200
#
#
# Mechanical properties :
#
#
# Convention : Reuss Voigt Hill
#
# Bulk Modulus (GPa) = 47.96155 50.37843 49.16999
# Shear Modulus (GPa) = 17.62898 28.49229 23.06063
#
# Velocity S-wave (km/s) = 3.01325 3.83077 3.44634
# Velocity P-wave (km/s) = 6.06701 6.74637 6.41568
#
# Compressibility (1/GPa) = 0.02085004
#
# Stress axis : x y z
#
# Youngs Moduli (GPa) = 58.58799 39.41220 20.06424
#
# Poissons Ratio (x) = -0.14852 0.34594
# Poissons Ratio (y) = -0.22078 0.44627
# Poissons Ratio (z) = 1.01016 0.87661
#
# Static dielectric constant tensor:
#      x y z
#    x 1.711160 0.000000 0.007580 
#    y 0.000000 1.718310 0.000000 
#    z 0.007580 0.000000 1.761020 
# 
# From -- ./inp_files/8293.got.cif
#   From: 2010.05.17/outbox.cif.g08.bks.cpg/sg9_5_cif.got.tgz:8293.got - 2010.06.03 20:04:27.
