data_PCOD9134083
_publ_section_title
;
Structure prediction by ZEFSAII (Michael W. Deem and Ramdas Pophale) SiO2 
 PCOD9134083
Probable space group: C C
;
_chemical_formula_sum "Si O2"
_cell_formula_units_Z 32
_cell_length_a 7.245842
_cell_length_b 19.270469
_cell_length_c 18.297193
_cell_angle_alpha 90.000000
_cell_angle_beta 35.944408
_cell_angle_gamma 90.000000
_cell_volume 1499.697704
_symmetry_space_group_name_H-M "C C"
_symmetry_group_IT_number 9
_symmetry_cell_setting 'monoclinic'
loop_
_space_group_symop_operation_xyz
x,y,z
x,-y,1/2+z
1/2+x,1/2+y,z
1/2+x,1/2-y,1/2+z
loop_
_atom_site_type_symbol
_atom_site_label
_atom_site_fract_x
_atom_site_fract_y
_atom_site_fract_z
Si Si1 0.641200 0.081238 0.819120
Si Si2 0.388343 0.581606 0.078584
Si Si3 0.454265 0.703454 0.300648
Si Si4 0.661080 0.072479 0.320937
Si Si5 0.826032 0.770434 0.552017
Si Si6 0.398683 0.427740 0.072155
Si Si7 0.919014 0.220267 0.558183
Si Si8 0.363048 0.730391 0.793192
O O1 0.799113 0.149962 0.799194
O O2 0.728305 0.078717 0.705330
O O3 0.754886 0.006337 0.811025
O O4 0.268700 0.086612 0.954951
O O5 0.259585 0.585233 0.203853
O O6 0.274823 0.646738 0.066710
O O7 0.309784 0.504613 0.073346
O O8 0.320532 0.628589 0.322711
O O9 0.630966 0.731603 0.172376
O O10 0.692331 0.715398 0.291642
O O11 0.172510 0.753575 0.415252
O O12 0.281169 0.074854 0.450755
O O13 0.607368 0.718643 0.574893
O O14 0.727876 0.748322 0.665329
O O15 0.316769 0.354511 0.061209
O O16 0.187250 0.253406 0.423434
#
# Coordination Sequence:
#
# PCOD9134083 Si02
#       8
#     4   4   4   4   4   4   4   4
#     4  10  18  36  55  83 111 148 191 240 286 349
#     4  10  20  33  59  83 111 147 195 240 291 341
#     4  11  21  36  56  85 116 148 197 241 286 344
#     4  10  20  33  59  83 111 147 195 240 291 341
#     4  11  21  36  56  85 116 148 197 241 286 344
#     4  10  18  36  55  83 111 148 191 240 286 349
#     4  11  22  36  57  84 119 152 194 238 292 347
#     4  11  22  36  57  84 119 152 194 238 292 347
#
# _framework density 21.337633
#
# number of rings (size 3 to 8) (size 9 to 14) (size 15 to 20)
#    0.000    1.500    5.000    1.500    0.000    0.000 
#    0.000    1.250    0.000    3.000    0.000    0.000 
#    0.000    0.000    0.000    0.000    0.000    0.000 
#
# Total GULP energy -89097.884383 kJ/mol
# GULP energy per Si atom -5568.617774 kJ/mol
# Density = 2.128907 g / cm^3
# Si number density = 21.337633 Si / 1000 Ang^3
#
#
#
# Elastic Constant Matrix: (Units=GPa)
#
#
# Indices 1 2 3 4 5 6 
#
# 1 27.0579 1.9477 -4.5389 0.0001 1.0991 0.0000
# 2 1.9477 151.5307 -2.3142 -0.0002 7.0833 0.0004
# 3 -4.5389 -2.3142 131.4556 0.0001 13.8948 -0.0001
# 4 0.0001 -0.0002 0.0001 38.5653 -0.0001 2.2097
# 5 1.0991 7.0833 13.8948 -0.0001 15.2544 0.0001
# 6 0.0000 0.0004 -0.0001 2.2097 0.0001 30.1079
#
#
#
# Elastic Compliance Matrix: (Units=1/GPa)
#
#
# Indices 1 2 3 4 5 6 
#
# 1 0.037435 -0.000261 0.001726 0.000000 -0.004149 0.000000
# 2 -0.000261 0.006777 0.000488 0.000000 -0.003573 0.000000
# 3 0.001726 0.000488 0.008534 0.000000 -0.008124 0.000000
# 4 0.000000 0.000000 0.000000 0.026040 0.000000 -0.001911
# 5 -0.004149 -0.003573 -0.008124 0.000000 0.074913 0.000000
# 6 0.000000 0.000000 0.000000 -0.001911 0.000000 0.033354
#
#
# Mechanical properties :
#
#
# Convention : Reuss Voigt Hill
#
# Bulk Modulus (GPa) = 17.65137 33.35926 25.50532
# Shear Modulus (GPa) = 24.74886 37.78217 31.26551
#
# Velocity S-wave (km/s) = 3.40938 4.21251 3.83204
# Velocity P-wave (km/s) = 4.87738 6.27123 5.61770
#
# Compressibility (1/GPa) = 0.05665282
#
# Stress axis : x y z
#
# Youngs Moduli (GPa) = 26.71324 147.55510 117.17720
#
# Poissons Ratio (x) = 0.03849 -0.20230
# Poissons Ratio (y) = 0.00697 -0.05717
# Poissons Ratio (z) = -0.04612 -0.07200
#
# Static dielectric constant tensor:
#      x y z
#    x 1.779750 0.000000 0.012610 
#    y 0.000000 1.802030 0.000000 
#    z 0.012610 0.000000 1.902460 
# 
# From -- ./inp_files/11849.got.cif
#   From: 2010.05.17/outbox.cif.g08.bks.cpg/sg9_6_cif.got.tgz:11849.got - 2010.06.03 20:04:27.
