data_PCOD9134598
_publ_section_title
;
Structure prediction by ZEFSAII (Michael W. Deem and Ramdas Pophale) SiO2 
 PCOD9134598
Probable space group: C C
;
_chemical_formula_sum "Si O2"
_cell_formula_units_Z 32
_cell_length_a 8.492889
_cell_length_b 12.638331
_cell_length_c 20.115162
_cell_angle_alpha 90.000000
_cell_angle_beta 36.091523
_cell_angle_gamma 90.000000
_cell_volume 1271.863876
_symmetry_space_group_name_H-M "C C"
_symmetry_group_IT_number 9
_symmetry_cell_setting 'monoclinic'
loop_
_space_group_symop_operation_xyz
x,y,z
x,-y,1/2+z
1/2+x,1/2+y,z
1/2+x,1/2-y,1/2+z
loop_
_atom_site_type_symbol
_atom_site_label
_atom_site_fract_x
_atom_site_fract_y
_atom_site_fract_z
Si Si1 0.850040 0.778582 0.060460
Si Si2 0.423895 0.383011 0.452220
Si Si3 0.686686 0.186508 0.412815
Si Si4 0.346367 0.652277 0.206914
Si Si5 0.821067 0.578557 0.331018
Si Si6 0.515914 0.643516 0.773026
Si Si7 0.025678 0.446481 0.095859
Si Si8 0.257376 0.750426 0.744582
O O1 0.671113 0.675744 0.092769
O O2 0.866687 0.760701 0.133209
O O3 0.633726 0.869051 0.116407
O O4 0.124959 0.837436 0.940181
O O5 0.460420 0.273529 0.477351
O O6 0.671435 0.465581 0.377342
O O7 0.370298 0.364772 0.392371
O O8 0.175133 0.447944 0.559378
O O9 0.773004 0.147320 0.310293
O O10 0.616013 0.102638 0.493625
O O11 0.938745 0.253141 0.351105
O O12 0.213059 0.756225 0.217546
O O13 0.130739 0.568698 0.249295
O O14 0.811103 0.640541 0.265105
O O15 0.359150 0.660886 0.759810
O O16 0.710561 0.544732 0.700681
#
# Coordination Sequence:
#
# PCOD9134598 Si02
#       8
#     4   4   4   4   4   4   4   4
#     4   9  18  34  60  88 122 162 217 257 319 397
#     4  10  21  41  62  90 130 166 218 272 332 391
#     4  10  19  38  64  88 124 172 206 270 332 390
#     4   8  18  34  59  88 118 164 207 253 329 394
#     4  10  19  38  62  89 127 170 212 276 326 385
#     4   9  20  38  60  89 128 165 209 276 328 392
#     4  10  20  41  64  90 131 172 219 271 333 395
#     4  10  19  38  63  88 124 171 210 265 333 392
#
# _framework density 25.159925000000001
#
# number of rings (size 3 to 8) (size 9 to 14) (size 15 to 20)
#    0.000    2.500    2.500    0.750    1.750    0.000 
#    9.000    0.000    5.500    0.000    0.000    0.000 
#    0.000    0.000    0.000    0.000    0.000    0.000 
#
# Total GULP energy -89246.589275 kJ/mol
# GULP energy per Si atom -5577.911830 kJ/mol
# Density = 2.510266 g / cm^3
# Si number density = 25.159925 Si / 1000 Ang^3
#
#
#
# Elastic Constant Matrix: (Units=GPa)
#
#
# Indices 1 2 3 4 5 6 
#
# 1 147.3278 18.6981 35.5137 0.0000 6.5232 0.0004
# 2 18.6981 53.7698 20.5817 -0.0022 1.8796 0.0005
# 3 35.5137 20.5817 92.4451 -0.0049 17.6171 0.0030
# 4 0.0000 -0.0022 -0.0049 31.9280 0.0003 5.5560
# 5 6.5232 1.8796 17.6171 0.0003 37.1836 -0.0001
# 6 0.0004 0.0005 0.0030 5.5560 -0.0001 27.5982
#
#
#
# Elastic Compliance Matrix: (Units=1/GPa)
#
#
# Indices 1 2 3 4 5 6 
#
# 1 0.007615 -0.001673 -0.002544 -0.000001 -0.000046 0.000000
# 2 -0.001673 0.020749 -0.004213 0.000001 0.001241 0.000000
# 3 -0.002544 -0.004213 0.013858 0.000002 -0.005907 -0.000002
# 4 -0.000001 0.000001 0.000002 0.032458 -0.000001 -0.006534
# 5 -0.000046 0.001241 -0.005907 -0.000001 0.029637 0.000001
# 6 0.000000 0.000000 -0.000002 -0.006534 0.000001 0.037550
#
#
# Mechanical properties :
#
#
# Convention : Reuss Voigt Hill
#
# Bulk Modulus (GPa) = 39.42945 49.23662 44.33304
# Shear Modulus (GPa) = 29.90763 33.92525 31.91644
#
# Velocity S-wave (km/s) = 3.45149 3.67602 3.56552
# Velocity P-wave (km/s) = 5.62044 6.13428 5.88297
#
# Compressibility (1/GPa) = 0.02536175
#
# Stress axis : x y z
#
# Youngs Moduli (GPa) = 131.31603 48.19542 72.15892
#
# Poissons Ratio (x) = 0.08061 0.18359
# Poissons Ratio (y) = 0.21965 0.30403
# Poissons Ratio (z) = 0.33411 0.20306
#
# Static dielectric constant tensor:
#      x y z
#    x 2.012550 0.000000 -0.056680 
#    y 0.000000 2.151580 0.000000 
#    z -0.056680 0.000000 2.057180 
# 
# From -- ./inp_files/32713.got.cif
#   From: 2010.05.17/outbox.cif.g08.bks.cpg/sg9_17_cif.got.tgz:32713.got - 2010.06.03 20:04:27.
