data_PCOD9134488
_publ_section_title
;
Structure prediction by ZEFSAII (Michael W. Deem and Ramdas Pophale) SiO2 
 PCOD9134488
Probable space group: C C
;
_chemical_formula_sum "Si O2"
_cell_formula_units_Z 28
_cell_length_a 21.312135
_cell_length_b 9.431939
_cell_length_c 9.278037
_cell_angle_alpha 90.000000
_cell_angle_beta 41.777332
_cell_angle_gamma 90.000000
_cell_volume 1242.547803
_symmetry_space_group_name_H-M "C C"
_symmetry_group_IT_number 9
_symmetry_cell_setting 'monoclinic'
loop_
_space_group_symop_operation_xyz
x,y,z
x,-y,1/2+z
1/2+x,1/2+y,z
1/2+x,1/2-y,1/2+z
loop_
_atom_site_type_symbol
_atom_site_label
_atom_site_fract_x
_atom_site_fract_y
_atom_site_fract_z
Si Si1 0.273170 0.309713 0.165980
Si Si2 0.110242 0.931448 0.645876
Si Si3 0.814422 0.020231 0.325184
Si Si4 0.976399 0.680022 0.876167
Si Si5 0.728118 0.493545 0.202772
Si Si6 0.941817 0.128838 0.848171
Si Si7 0.441842 0.063252 0.243416
O O1 0.251724 0.418887 0.330957
O O2 0.225745 0.157499 0.257239
O O3 0.261154 0.379430 0.029686
O O4 0.385043 0.274382 0.991561
O O5 0.195837 0.899901 0.391238
O O6 0.058735 0.787128 0.774405
O O7 0.152977 0.016616 0.705030
O O8 0.032296 0.028529 0.702790
O O9 0.878819 0.921882 0.319688
O O10 0.880908 0.104883 0.098433
O O11 0.995426 0.573296 0.712652
O O12 0.951953 0.586043 0.056635
O O13 0.831861 0.460933 0.969329
O O14 0.969463 0.290899 0.774428
#
# Coordination Sequence:
#
# PCOD9134488 Si02
#       7
#     4   4   4   4   4   4   4
#     4  10  21  40  63  99 131 174 230 272 326 414
#     4  12  24  44  67 100 137 173 222 287 354 399
#     4  10  19  36  70  95 124 170 236 270 317 394
#     4  11  23  41  67  94 132 177 234 271 331 414
#     4  11  26  41  67  99 141 173 222 288 354 393
#     4  11  21  38  71  94 127 176 232 267 329 411
#     4  11  24  42  69  97 130 179 238 273 325 413
#
# _framework density 22.534343
#
# number of rings (size 3 to 8) (size 9 to 14) (size 15 to 20)
#    0.000    1.143    4.286    3.429    6.000    0.000 
#    0.000    2.857    0.000    0.000    0.000    0.000 
#    0.000    0.000    0.000    0.000    0.000    0.000 
#
# Total GULP energy -78343.486846 kJ/mol
# GULP energy per Si atom -5595.963346 kJ/mol
# Density = 2.248305 g / cm^3
# Si number density = 22.534343 Si / 1000 Ang^3
#
#
#
# Elastic Constant Matrix: (Units=GPa)
#
#
# Indices 1 2 3 4 5 6 
#
# 1 43.3196 9.7965 22.3232 0.0000 17.4914 0.0000
# 2 9.7965 61.1629 9.9647 0.0000 6.0309 0.0000
# 3 22.3232 9.9647 75.9572 0.0000 24.3144 0.0000
# 4 0.0000 0.0000 0.0000 33.6007 0.0000 10.4365
# 5 17.4914 6.0309 24.3144 0.0000 35.0214 0.0000
# 6 0.0000 0.0000 0.0000 10.4365 0.0000 27.0205
#
#
#
# Elastic Compliance Matrix: (Units=1/GPa)
#
#
# Indices 1 2 3 4 5 6 
#
# 1 0.030992 -0.003012 -0.005046 0.000000 -0.011457 0.000000
# 2 -0.003012 0.017083 -0.001152 0.000000 -0.000638 0.000000
# 3 -0.005046 -0.001152 0.017909 0.000000 -0.009716 0.000000
# 4 0.000000 0.000000 0.000000 0.033818 0.000000 -0.013062
# 5 -0.011457 -0.000638 -0.009716 0.000000 0.041131 0.000000
# 6 0.000000 0.000000 0.000000 -0.013062 0.000000 0.042054
#
#
# Mechanical properties :
#
#
# Convention : Reuss Voigt Hill
#
# Bulk Modulus (GPa) = 21.02393 29.40092 25.21243
# Shear Modulus (GPa) = 23.01379 28.35221 25.68300
#
# Velocity S-wave (km/s) = 3.19921 3.55093 3.37965
# Velocity P-wave (km/s) = 4.79547 5.46696 5.14219
#
# Compressibility (1/GPa) = 0.04756485
#
# Stress axis : x y z
#
# Youngs Moduli (GPa) = 32.26683 58.53859 55.83705
#
# Poissons Ratio (x) = 0.17633 0.28173
# Poissons Ratio (y) = 0.09719 0.06430
# Poissons Ratio (z) = 0.16280 0.06742
#
# Static dielectric constant tensor:
#      x y z
#    x 1.812270 0.000000 -0.001070 
#    y 0.000000 1.828180 0.000000 
#    z -0.001070 0.000000 1.853840 
# 
# From -- ./inp_files/10428.got.cif
#   From: 2010.05.17/outbox.cif.g08.bks.cpg/sg9_6_cif.got.tgz:10428.got - 2010.06.03 20:04:27.
