data_PCOD9134224
_publ_section_title
;
Structure prediction by ZEFSAII (Michael W. Deem and Ramdas Pophale) SiO2 
 PCOD9134224
Probable space group: C C
;
_chemical_formula_sum "Si O2"
_cell_formula_units_Z 32
_cell_length_a 10.272554
_cell_length_b 10.529877
_cell_length_c 12.426785
_cell_angle_alpha 90.000000
_cell_angle_beta 114.674169
_cell_angle_gamma 90.000000
_cell_volume 1221.460308
_symmetry_space_group_name_H-M "C C"
_symmetry_group_IT_number 9
_symmetry_cell_setting 'monoclinic'
loop_
_space_group_symop_operation_xyz
x,y,z
x,-y,1/2+z
1/2+x,1/2+y,z
1/2+x,1/2-y,1/2+z
loop_
_atom_site_type_symbol
_atom_site_label
_atom_site_fract_x
_atom_site_fract_y
_atom_site_fract_z
Si Si1 0.241290 0.138558 0.762080
Si Si2 0.296298 0.705202 0.762690
Si Si3 0.397274 0.840485 0.518561
Si Si4 0.566489 0.402912 0.755957
Si Si5 0.091326 0.106815 0.515497
Si Si6 0.148901 0.661111 0.517498
Si Si7 0.065740 0.635829 0.270198
Si Si8 0.424097 0.351191 0.514177
O O1 0.364826 0.102159 0.889637
O O2 0.240139 0.114235 0.633789
O O3 0.199852 0.283850 0.771410
O O4 0.110258 0.048490 0.755275
O O5 0.187196 0.822117 0.735308
O O6 0.238307 0.612015 0.650128
O O7 0.445937 0.764511 0.774881
O O8 0.301236 0.645730 0.882613
O O9 0.495224 0.717172 0.533740
O O10 0.247501 0.781849 0.511329
O O11 0.480627 0.920830 0.638571
O O12 0.421548 0.367622 0.641887
O O13 0.585391 0.372261 0.886773
O O14 0.021135 0.970835 0.512442
O O15 0.121060 0.577617 0.402041
O O16 0.002511 0.718562 0.513673
#
# Coordination Sequence:
#
# PCOD9134224 Si02
#       8
#     4   4   4   4   4   4   4   4
#     4   9  18  32  49  70  92 119 159 195 223 270
#     4   9  16  27  47  70  93 120 151 191 233 266
#     4   9  16  27  47  70  93 120 151 191 233 266
#     4  10  19  30  48  71  94 121 154 192 231 272
#     4  10  19  30  48  71  94 121 154 192 231 272
#     4   8  14  27  48  69  89 114 154 195 223 260
#     4   8  14  27  48  69  89 114 154 195 223 260
#     4   9  18  32  49  70  92 119 159 195 223 270
#
# _framework density 26.198149000000001
#
# number of rings (size 3 to 8) (size 9 to 14) (size 15 to 20)
#    0.000    3.000    0.000    2.250    0.000    3.000 
#    0.000    0.000    0.000   18.000    0.000    0.000 
#    0.000    0.000    0.000    0.000    0.000    0.000 
#
# Total GULP energy -89200.278148 kJ/mol
# GULP energy per Si atom -5575.017384 kJ/mol
# Density = 2.613852 g / cm^3
# Si number density = 26.198149 Si / 1000 Ang^3
#
#
#
# Elastic Constant Matrix: (Units=GPa)
#
#
# Indices 1 2 3 4 5 6 
#
# 1 28.5069 16.2531 -6.9506 0.0000 -15.2922 0.0000
# 2 16.2531 40.9907 -7.1706 0.0000 -7.9101 0.0000
# 3 -6.9506 -7.1706 298.7622 0.0000 15.3367 0.0000
# 4 0.0000 0.0000 0.0000 -8.5719 0.0000 -7.0918
# 5 -15.2922 -7.9101 15.3367 0.0000 28.6123 0.0000
# 6 0.0000 0.0000 0.0000 -7.0918 0.0000 40.6375
#
#
#
# Elastic Compliance Matrix: (Units=1/GPa)
#
#
# Indices 1 2 3 4 5 6 
#
# 1 0.060273 -0.018713 -0.000447 0.000000 0.027280 0.000000
# 2 -0.018713 0.031600 0.000399 0.000000 -0.001479 0.000000
# 3 -0.000447 0.000399 0.003448 0.000000 -0.001977 0.000000
# 4 0.000000 0.000000 0.000000 -0.101942 0.000000 -0.017790
# 5 0.027280 -0.001479 -0.001977 0.000000 0.050181 0.000000
# 6 0.000000 0.000000 0.000000 -0.017790 0.000000 0.021503
#
#
# Mechanical properties :
#
#
# Convention : Reuss Voigt Hill
#
# Bulk Modulus (GPa) = 17.30132 41.39151 29.34641
# Shear Modulus (GPa) = 41.03341 36.54408 38.78875
#
# Velocity S-wave (km/s) = 3.96191 3.73890 3.85202
# Velocity P-wave (km/s) = 5.24855 5.87136 5.56867
#
# Compressibility (1/GPa) = 0.05779907
#
# Stress axis : x y z
#
# Youngs Moduli (GPa) = 16.59108 31.64567 290.04059
#
# Poissons Ratio (x) = 0.59218 0.12973
# Poissons Ratio (y) = 0.31046 -0.11573
# Poissons Ratio (z) = 0.00742 -0.01263
#
# Static dielectric constant tensor:
#      x y z
#    x 2.053010 0.000000 0.038200 
#    y 0.000000 2.058100 0.000000 
#    z 0.038200 0.000000 2.265420 
# 
# From -- ./inp_files/16673.got.cif
#   From: 2010.05.17/outbox.cif.g08.bks.cpg/sg9_9_cif.got.tgz:16673.got - 2010.06.03 20:04:27.
