data_PCOD9134290
_publ_section_title
;
Structure prediction by ZEFSAII (Michael W. Deem and Ramdas Pophale) SiO2 
 PCOD9134290
Probable space group: C C
;
_chemical_formula_sum "Si O2"
_cell_formula_units_Z 32
_cell_length_a 14.220895
_cell_length_b 15.891206
_cell_length_c 11.160838
_cell_angle_alpha 90.000000
_cell_angle_beta 30.677592
_cell_angle_gamma 90.000000
_cell_volume 1286.846249
_symmetry_space_group_name_H-M "C C"
_symmetry_group_IT_number 9
_symmetry_cell_setting 'monoclinic'
loop_
_space_group_symop_operation_xyz
x,y,z
x,-y,1/2+z
1/2+x,1/2+y,z
1/2+x,1/2-y,1/2+z
loop_
_atom_site_type_symbol
_atom_site_label
_atom_site_fract_x
_atom_site_fract_y
_atom_site_fract_z
Si Si1 0.225370 0.410939 0.133180
Si Si2 0.002862 0.914768 0.620677
Si Si3 0.970109 0.106481 0.574024
Si Si4 0.452475 0.864275 0.857617
Si Si5 0.702739 0.088274 0.283692
Si Si6 0.790423 0.232963 0.891242
Si Si7 0.351287 0.867138 0.617884
Si Si8 0.886554 0.517806 0.769876
O O1 0.294634 0.376391 0.184877
O O2 0.232938 0.511269 0.155477
O O3 0.021453 0.372277 0.341867
O O4 0.375301 0.388618 0.870740
O O5 0.897802 0.875847 0.617912
O O6 0.971089 0.013065 0.622595
O O7 0.217415 0.918394 0.427166
O O8 0.145176 0.121463 0.297181
O O9 0.963148 0.167872 0.695260
O O10 0.546113 0.860450 0.884369
O O11 0.619076 0.829936 0.591518
O O12 0.298513 0.795734 0.994994
O O13 0.384719 0.957494 0.890094
O O14 0.588444 0.056106 0.525499
O O15 0.833033 0.288423 0.726490
O O16 0.375220 0.947921 0.677253
#
# Coordination Sequence:
#
# PCOD9134290 Si02
#       8
#     4   4   4   4   4   4   4   4
#     4  10  20  34  57  87 117 160 206 255 318 372
#     4  10  21  37  59  86 122 162 205 262 321 380
#     4  10  19  33  55  84 122 155 196 250 315 372
#     4  11  22  36  63  95 127 168 213 264 324 381
#     4  10  20  37  56  88 123 162 207 262 317 384
#     4  11  19  37  57  92 128 162 202 261 312 381
#     4   9  19  33  53  83 123 155 193 248 309 367
#     4   9  20  37  56  87 124 160 202 262 316 375
#
# _framework density 24.866994999999999
#
# number of rings (size 3 to 8) (size 9 to 14) (size 15 to 20)
#    0.000    2.000    1.250    4.500    0.000    5.000 
#    2.250    0.000    0.000    1.500    0.000    0.000 
#    0.000    0.000    0.000    0.000    0.000    0.000 
#
# Total GULP energy -89133.489764 kJ/mol
# GULP energy per Si atom -5570.843110 kJ/mol
# Density = 2.481040 g / cm^3
# Si number density = 24.866995 Si / 1000 Ang^3
#
#
#
# Elastic Constant Matrix: (Units=GPa)
#
#
# Indices 1 2 3 4 5 6 
#
# 1 91.7311 8.2067 10.2390 -0.0006 -20.1930 0.0006
# 2 8.2067 25.0924 6.6094 0.0064 -1.2164 -0.0025
# 3 10.2390 6.6094 107.3497 0.0061 -24.5579 -0.0006
# 4 -0.0006 0.0064 0.0061 18.7124 -0.0017 -3.3640
# 5 -20.1930 -1.2164 -24.5579 -0.0017 37.1835 0.0003
# 6 0.0006 -0.0025 -0.0006 -3.3640 0.0003 18.5431
#
#
#
# Elastic Compliance Matrix: (Units=1/GPa)
#
#
# Indices 1 2 3 4 5 6 
#
# 1 0.012783 -0.004010 0.000690 0.000002 0.007266 -0.000001
# 2 -0.004010 0.041772 -0.002798 -0.000013 -0.002659 0.000003
# 3 0.000690 -0.002798 0.011175 -0.000002 0.007664 -0.000001
# 4 0.000002 -0.000013 -0.000002 0.055242 0.000002 0.010022
# 5 0.007266 -0.002659 0.007664 0.000002 0.035814 -0.000001
# 6 -0.000001 0.000003 -0.000001 0.010022 -0.000001 0.055746
#
#
# Mechanical properties :
#
#
# Convention : Reuss Voigt Hill
#
# Bulk Modulus (GPa) = 18.69357 30.47591 24.58474
# Shear Modulus (GPa) = 20.61006 28.16235 24.38620
#
# Velocity S-wave (km/s) = 2.88203 3.36894 3.13496
# Velocity P-wave (km/s) = 4.31376 5.23595 4.79707
#
# Compressibility (1/GPa) = 0.05349433
#
# Stress axis : x y z
#
# Youngs Moduli (GPa) = 78.23045 23.93927 89.48556
#
# Poissons Ratio (x) = 0.09600 -0.06174
# Poissons Ratio (y) = 0.31372 0.25035
# Poissons Ratio (z) = -0.05398 0.06697
#
# Static dielectric constant tensor:
#      x y z
#    x 2.151270 0.000000 -0.122380 
#    y 0.000000 2.028710 0.000000 
#    z -0.122380 0.000000 2.031470 
# 
# From -- ./inp_files/18564.got.cif
#   From: 2010.05.17/outbox.cif.g08.bks.cpg/sg9_10_cif.got.tgz:18564.got - 2010.06.03 20:04:27.
