data_PCOD9134887
_publ_section_title
;
Structure prediction by ZEFSAII (Michael W. Deem and Ramdas Pophale) SiO2 
 PCOD9134887
Probable space group: C C
;
_chemical_formula_sum "Si O2"
_cell_formula_units_Z 32
_cell_length_a 13.512763
_cell_length_b 7.990998
_cell_length_c 13.997556
_cell_angle_alpha 90.000000
_cell_angle_beta 111.954162
_cell_angle_gamma 90.000000
_cell_volume 1401.856215
_symmetry_space_group_name_H-M "C C"
_symmetry_group_IT_number 9
_symmetry_cell_setting 'monoclinic'
loop_
_space_group_symop_operation_xyz
x,y,z
x,-y,1/2+z
1/2+x,1/2+y,z
1/2+x,1/2-y,1/2+z
loop_
_atom_site_type_symbol
_atom_site_label
_atom_site_fract_x
_atom_site_fract_y
_atom_site_fract_z
Si Si1 0.780000 0.745181 0.581360
Si Si2 0.716075 0.041143 0.889674
Si Si3 0.603219 0.706649 0.818473
Si Si4 0.418695 0.497034 0.701083
Si Si5 0.135822 0.045939 0.025927
Si Si6 0.937440 0.857270 0.919556
Si Si7 0.753609 0.750864 0.219555
Si Si8 0.811805 0.411563 0.297748
O O1 0.708572 0.868523 0.489554
O O2 0.741921 0.560523 0.534867
O O3 0.779460 0.708772 0.695784
O O4 0.893339 0.845806 0.619298
O O5 0.716261 0.179418 0.807091
O O6 0.630644 0.901942 0.828890
O O7 0.831482 0.946794 0.923059
O O8 0.507001 0.639254 0.719338
O O9 0.593205 0.661538 0.926237
O O10 0.705264 0.600430 0.820922
O O11 0.451299 0.418248 0.814878
O O12 0.309646 0.600493 0.681256
O O13 0.163932 0.160613 0.125315
O O14 0.043769 0.909947 0.011624
O O15 0.906746 0.665028 0.894178
O O16 0.834466 0.597750 0.270504
#
# Coordination Sequence:
#
# PCOD9134887 Si02
#       8
#     4   4   4   4   4   4   4   4
#     4  10  20  34  56  82 115 151 192 236 285 340
#     4  10  20  36  58  84 116 155 192 239 290 347
#     4  10  20  36  60  84 113 153 194 238 293 345
#     4   9  19  36  55  79 112 148 188 238 288 340
#     4  10  20  36  58  85 115 154 196 241 291 347
#     4   8  18  36  56  78 109 148 191 238 292 338
#     4  10  20  36  56  82 118 152 190 240 290 345
#     4   9  19  36  57  82 112 149 191 242 291 342
#
# _framework density 22.826878000000001
#
# number of rings (size 3 to 8) (size 9 to 14) (size 15 to 20)
#    0.000    2.500    0.000    2.250    0.000    3.000 
#    0.000    7.500    0.000    9.000    0.000    0.000 
#    0.000    0.000    0.000    0.000    0.000    0.000 
#
# Total GULP energy -89082.941263 kJ/mol
# GULP energy per Si atom -5567.683829 kJ/mol
# Density = 2.277492 g / cm^3
# Si number density = 22.826878 Si / 1000 Ang^3
#
#
#
# Elastic Constant Matrix: (Units=GPa)
#
#
# Indices 1 2 3 4 5 6 
#
# 1 31.6877 16.9744 22.0465 0.0000 9.8435 0.0000
# 2 16.9744 102.9817 38.6641 0.0000 7.6359 0.0000
# 3 22.0465 38.6641 89.9909 0.0000 9.3811 0.0000
# 4 0.0000 0.0000 0.0000 41.4157 0.0000 0.2505
# 5 9.8435 7.6359 9.3811 0.0000 25.1143 0.0000
# 6 0.0000 0.0000 0.0000 0.2505 0.0000 11.8044
#
#
#
# Elastic Compliance Matrix: (Units=1/GPa)
#
#
# Indices 1 2 3 4 5 6 
#
# 1 0.042636 -0.003167 -0.007745 0.000000 -0.012855 0.000000
# 2 -0.003167 0.011886 -0.004249 0.000000 -0.000786 0.000000
# 3 -0.007745 -0.004249 0.014967 0.000000 -0.001263 0.000000
# 4 0.000000 0.000000 0.000000 0.024149 0.000000 -0.000513
# 5 -0.012855 -0.000786 -0.001263 0.000000 0.045567 0.000000
# 6 0.000000 0.000000 0.000000 -0.000513 0.000000 0.084725
#
#
# Mechanical properties :
#
#
# Convention : Reuss Voigt Hill
#
# Bulk Modulus (GPa) = 25.53108 42.22560 33.87834
# Shear Modulus (GPa) = 18.70513 25.46522 22.08517
#
# Velocity S-wave (km/s) = 2.86568 3.34365 3.11385
# Velocity P-wave (km/s) = 4.70728 5.78317 5.27274
#
# Compressibility (1/GPa) = 0.03916795
#
# Stress axis : x y z
#
# Youngs Moduli (GPa) = 23.45444 84.13277 66.81450
#
# Poissons Ratio (x) = 0.26643 0.51745
# Poissons Ratio (y) = 0.07428 0.28390
# Poissons Ratio (z) = 0.18164 0.35748
#
# Static dielectric constant tensor:
#      x y z
#    x 1.925930 0.000000 0.014230 
#    y 0.000000 1.883990 0.000000 
#    z 0.014230 0.000000 1.865310 
# 
# From -- ./inp_files/25699.got.cif
#   From: 2010.05.17/outbox.cif.g08.bks.cpg/sg9_13_cif.got.tgz:25699.got - 2010.06.03 20:04:27.
