data_PCOD9134618
_publ_section_title
;
Structure prediction by ZEFSAII (Michael W. Deem and Ramdas Pophale) SiO2 
 PCOD9134618
Probable space group: C C
;
_chemical_formula_sum "Si O2"
_cell_formula_units_Z 32
_cell_length_a 15.668924
_cell_length_b 18.800694
_cell_length_c 9.418156
_cell_angle_alpha 90.000000
_cell_angle_beta 146.641709
_cell_angle_gamma 90.000000
_cell_volume 1525.601892
_symmetry_space_group_name_H-M "C C"
_symmetry_group_IT_number 9
_symmetry_cell_setting 'monoclinic'
loop_
_space_group_symop_operation_xyz
x,y,z
x,-y,1/2+z
1/2+x,1/2+y,z
1/2+x,1/2-y,1/2+z
loop_
_atom_site_type_symbol
_atom_site_label
_atom_site_fract_x
_atom_site_fract_y
_atom_site_fract_z
Si Si1 0.424440 0.842691 0.326450
Si Si2 0.715764 0.149832 0.382242
Si Si3 0.479541 0.604951 0.296505
Si Si4 0.659232 0.265665 0.104260
Si Si5 0.705457 0.468628 0.624129
Si Si6 0.759884 0.964539 0.695797
Si Si7 0.948631 0.895528 0.439824
Si Si8 0.407413 0.995455 0.168071
O O1 0.544682 0.797890 0.397725
O O2 0.527262 0.854213 0.613444
O O3 0.280431 0.793896 0.160431
O O4 0.380615 0.916693 0.197497
O O5 0.746719 0.226734 0.355007
O O6 0.759291 0.087060 0.331058
O O7 0.813717 0.139439 0.658741
O O8 0.556298 0.665900 0.500565
O O9 0.590328 0.535833 0.444812
O O10 0.317469 0.580147 0.139356
O O11 0.471843 0.636980 0.127384
O O12 0.601399 0.408067 0.555459
O O13 0.795569 0.453100 0.603351
O O14 0.842238 0.492164 0.920204
O O15 0.592928 0.001226 0.438847
O O16 0.886155 0.025567 0.891228
#
# Coordination Sequence:
#
# PCOD9134618 Si02
#       8
#     4   4   4   4   4   4   4   4
#     4   9  20  38  60  89 114 164 200 251 296 361
#     4   9  22  36  64  89 117 160 203 247 306 364
#     4  11  22  38  65  88 122 168 204 248 309 367
#     4  10  19  38  65  81 120 159 207 241 300 370
#     4  11  22  39  59  93 120 163 196 256 309 353
#     4  10  22  37  62  92 123 164 203 247 309 371
#     4  11  22  39  61  93 123 155 206 258 305 366
#     4  11  23  37  60  91 129 157 203 254 306 362
#
# _framework density 20.975328999999999
#
# number of rings (size 3 to 8) (size 9 to 14) (size 15 to 20)
#    0.750    1.000    2.500    2.250    7.000    0.000 
#    0.000    0.000   11.000    0.000    0.000    0.000 
#    0.000    0.000    0.000    0.000    0.000    0.000 
#
# Total GULP energy -89177.789544 kJ/mol
# GULP energy per Si atom -5573.611846 kJ/mol
# Density = 2.092759 g / cm^3
# Si number density = 20.975329 Si / 1000 Ang^3
#
#
#
# Elastic Constant Matrix: (Units=GPa)
#
#
# Indices 1 2 3 4 5 6 
#
# 1 52.3925 18.3160 15.7793 0.0000 18.7499 0.0000
# 2 18.3160 40.5120 14.8238 0.0000 3.1417 0.0000
# 3 15.7793 14.8238 86.6461 0.0000 -6.8111 0.0000
# 4 0.0000 0.0000 0.0000 16.2079 0.0000 3.7448
# 5 18.7499 3.1417 -6.8111 0.0000 36.4004 0.0000
# 6 0.0000 0.0000 0.0000 3.7448 0.0000 15.3750
#
#
#
# Elastic Compliance Matrix: (Units=1/GPa)
#
#
# Indices 1 2 3 4 5 6 
#
# 1 0.029661 -0.010465 -0.004812 0.000000 -0.015276 0.000000
# 2 -0.010465 0.030388 -0.003122 0.000000 0.002184 0.000000
# 3 -0.004812 -0.003122 0.013364 0.000000 0.005249 0.000000
# 4 0.000000 0.000000 0.000000 0.065378 0.000000 -0.015924
# 5 -0.015276 0.002184 0.005249 0.000000 0.036134 0.000000
# 6 0.000000 0.000000 0.000000 -0.015924 0.000000 0.068919
#
#
# Mechanical properties :
#
#
# Convention : Reuss Voigt Hill
#
# Bulk Modulus (GPa) = 27.30993 30.82098 29.06545
# Shear Modulus (GPa) = 17.07373 22.30541 19.68957
#
# Velocity S-wave (km/s) = 2.85615 3.26454 3.06715
# Velocity P-wave (km/s) = 4.89133 5.37917 5.14104
#
# Compressibility (1/GPa) = 0.03661672
#
# Stress axis : x y z
#
# Youngs Moduli (GPa) = 33.71409 32.90753 74.82689
#
# Poissons Ratio (x) = 0.34437 0.36007
# Poissons Ratio (y) = 0.35281 0.23358
# Poissons Ratio (z) = 0.16223 0.10272
#
# Static dielectric constant tensor:
#      x y z
#    x 1.822750 0.000000 0.014200 
#    y 0.000000 1.757440 0.000000 
#    z 0.014200 0.000000 1.768720 
# 
# From -- ./inp_files/10130.got.cif
#   From: 2010.05.17/outbox.cif.g08.bks.cpg/sg9_6_cif.got.tgz:10130.got - 2010.06.03 20:04:27.
