data_PCOD9134304
_publ_section_title
;
Structure prediction by ZEFSAII (Michael W. Deem and Ramdas Pophale) SiO2 
 PCOD9134304
Probable space group: C C
;
_chemical_formula_sum "Si O2"
_cell_formula_units_Z 32
_cell_length_a 9.155542
_cell_length_b 19.614917
_cell_length_c 15.951754
_cell_angle_alpha 90.000000
_cell_angle_beta 150.733998
_cell_angle_gamma 90.000000
_cell_volume 1400.450728
_symmetry_space_group_name_H-M "C C"
_symmetry_group_IT_number 9
_symmetry_cell_setting 'monoclinic'
loop_
_space_group_symop_operation_xyz
x,y,z
x,-y,1/2+z
1/2+x,1/2+y,z
1/2+x,1/2-y,1/2+z
loop_
_atom_site_type_symbol
_atom_site_label
_atom_site_fract_x
_atom_site_fract_y
_atom_site_fract_z
Si Si1 0.141660 0.659862 0.033170
Si Si2 0.781239 0.656963 0.254652
Si Si3 0.662311 0.940445 0.677248
Si Si4 0.597852 0.216539 0.568441
Si Si5 0.684495 0.394948 0.039886
Si Si6 0.422971 0.228233 0.769599
Si Si7 0.764886 0.087760 0.748169
Si Si8 0.696336 0.457224 0.592911
O O1 0.462053 0.653889 0.144780
O O2 0.061189 0.590722 0.039241
O O3 0.187436 0.714394 0.129494
O O4 0.913847 0.691137 0.853461
O O5 0.028087 0.684779 0.442811
O O6 0.826656 0.583264 0.236389
O O7 0.756020 0.711591 0.166252
O O8 0.403914 0.949931 0.615492
O O9 0.877658 0.889599 0.837010
O O10 0.829357 0.012591 0.744081
O O11 0.797501 0.159762 0.718147
O O12 0.254591 0.237101 0.426823
O O13 0.836536 0.330657 0.159704
O O14 0.653626 0.461944 0.083258
O O15 0.909369 0.412611 0.077822
O O16 0.897936 0.080840 0.909236
#
# Coordination Sequence:
#
# PCOD9134304 Si02
#       8
#     4   4   4   4   4   4   4   4
#     4  10  19  34  57  83 112 150 195 241 284 341
#     4  10  19  34  57  83 112 150 195 241 284 341
#     4  10  22  38  58  86 122 155 188 238 300 353
#     4  10  19  33  59  87 111 146 202 249 277 329
#     4  10  19  37  61  84 115 158 200 237 284 349
#     4  10  19  33  59  87 111 146 202 249 277 329
#     4  10  19  37  61  84 115 158 200 237 284 349
#     4  10  22  38  58  86 122 155 188 238 300 353
#
# _framework density 22.849786000000002
#
# number of rings (size 3 to 8) (size 9 to 14) (size 15 to 20)
#    0.000    2.000    0.000    6.750    0.000    1.000 
#    0.000    6.250    0.000    0.000    0.000    0.000 
#    0.000    0.000    0.000    0.000    0.000    0.000 
#
# Total GULP energy -89095.907139 kJ/mol
# GULP energy per Si atom -5568.494196 kJ/mol
# Density = 2.279778 g / cm^3
# Si number density = 22.849786 Si / 1000 Ang^3
#
#
#
# Elastic Constant Matrix: (Units=GPa)
#
#
# Indices 1 2 3 4 5 6 
#
# 1 23.5374 12.6041 4.8593 0.0336 -9.6104 0.0153
# 2 12.6041 95.3101 19.1322 0.0531 -24.8238 0.0080
# 3 4.8593 19.1322 49.0647 0.0519 -15.2257 0.0438
# 4 0.0336 0.0531 0.0519 29.2051 0.0381 -10.3943
# 5 -9.6104 -24.8238 -15.2257 0.0381 30.0741 0.0204
# 6 0.0153 0.0080 0.0438 -10.3943 0.0204 21.3699
#
#
#
# Elastic Compliance Matrix: (Units=1/GPa)
#
#
# Indices 1 2 3 4 5 6 
#
# 1 0.049578 -0.003140 0.000506 -0.000105 0.013508 -0.000100
# 2 -0.003140 0.013753 -0.002183 -0.000039 0.009243 -0.000026
# 3 0.000506 -0.002183 0.024527 -0.000091 0.010777 -0.000105
# 4 -0.000105 -0.000039 -0.000091 0.041410 -0.000178 0.020142
# 5 0.013508 0.009243 0.010777 -0.000178 0.050654 -0.000170
# 6 -0.000100 -0.000026 -0.000105 0.020142 -0.000170 0.056592
#
#
# Mechanical properties :
#
#
# Convention : Reuss Voigt Hill
#
# Bulk Modulus (GPa) = 12.78382 26.78928 19.78655
# Shear Modulus (GPa) = 18.36730 24.88427 21.62578
#
# Velocity S-wave (km/s) = 2.83826 3.30364 3.07975
# Velocity P-wave (km/s) = 4.04325 5.12850 4.61787
#
# Compressibility (1/GPa) = 0.07822389
#
# Stress axis : x y z
#
# Youngs Moduli (GPa) = 20.17023 72.71115 40.77135
#
# Poissons Ratio (x) = 0.22829 -0.02063
# Poissons Ratio (y) = 0.06333 0.08902
# Poissons Ratio (z) = -0.01021 0.15876
#
# Static dielectric constant tensor:
#      x y z
#    x 1.907710 -0.000020 0.029260 
#    y -0.000020 1.996780 -0.000020 
#    z 0.029260 -0.000020 1.877820 
# 
# From -- ./inp_files/30192.got.cif
#   From: 2010.05.17/outbox.cif.g08.bks.cpg/sg9_16_cif.got.tgz:30192.got - 2010.06.03 20:04:27.
