data_PCOD9134434
_publ_section_title
;
Structure prediction by ZEFSAII (Michael W. Deem and Ramdas Pophale) SiO2 
 PCOD9134434
Probable space group: C C
;
_chemical_formula_sum "Si O2"
_cell_formula_units_Z 32
_cell_length_a 22.513093
_cell_length_b 8.474036
_cell_length_c 10.019989
_cell_angle_alpha 90.000000
_cell_angle_beta 142.157584
_cell_angle_gamma 90.000000
_cell_volume 1172.739364
_symmetry_space_group_name_H-M "C C"
_symmetry_group_IT_number 9
_symmetry_cell_setting 'monoclinic'
loop_
_space_group_symop_operation_xyz
x,y,z
x,-y,1/2+z
1/2+x,1/2+y,z
1/2+x,1/2-y,1/2+z
loop_
_atom_site_type_symbol
_atom_site_label
_atom_site_fract_x
_atom_site_fract_y
_atom_site_fract_z
Si Si1 0.879020 0.778639 0.621990
Si Si2 0.557068 0.650347 0.573889
Si Si3 0.781380 0.270227 0.403709
Si Si4 0.050450 0.574213 0.255807
Si Si5 0.755537 0.408474 0.741410
Si Si6 0.647055 0.603441 0.330638
Si Si7 0.936664 0.435391 0.823375
Si Si8 0.743177 0.913886 0.597589
O O1 0.829022 0.736120 0.393629
O O2 0.882927 0.604956 0.703455
O O3 0.817988 0.893745 0.609946
O O4 0.989686 0.831389 0.825545
O O5 0.666746 0.705339 0.730443
O O6 0.524910 0.765626 0.634492
O O7 0.546417 0.474450 0.613039
O O8 0.809405 0.424518 0.364291
O O9 0.856826 0.299359 0.656909
O O10 0.790599 0.119446 0.325169
O O11 0.166747 0.554350 0.458256
O O12 0.015517 0.572519 0.345049
O O13 0.995119 0.446119 0.064939
O O14 0.693707 0.461547 0.504293
O O15 0.689868 0.380752 0.756352
O O16 0.671510 0.762658 0.447323
#
# Coordination Sequence:
#
# PCOD9134434 Si02
#       8
#     4   4   4   4   4   4   4   4
#     4   9  18  33  56  82 113 152 196 236 288 349
#     4  10  20  35  57  87 119 157 198 247 299 357
#     4   9  17  34  59  82 112 155 205 246 285 346
#     4  11  23  38  61  93 124 153 199 255 307 352
#     4   8  16  30  53  81 105 143 194 239 276 335
#     4   9  18  33  56  81 111 152 197 235 287 351
#     4  10  21  39  63  90 117 161 208 245 292 369
#     4  10  19  36  59  86 119 157 197 249 300 355
#
# _framework density 27.286541
#
# number of rings (size 3 to 8) (size 9 to 14) (size 15 to 20)
#    0.000    2.500    0.000    3.750    0.000    8.000 
#    0.000    1.250    0.000   13.500    0.000    0.000 
#    0.000    0.000    0.000    0.000    0.000    0.000 
#
# Total GULP energy -89324.282994 kJ/mol
# GULP energy per Si atom -5582.767687 kJ/mol
# Density = 2.722444 g / cm^3
# Si number density = 27.286541 Si / 1000 Ang^3
#
#
#
# Elastic Constant Matrix: (Units=GPa)
#
#
# Indices 1 2 3 4 5 6 
#
# 1 120.9329 -2.3924 30.3055 0.0000 -8.0061 0.0000
# 2 -2.3924 39.6333 17.3208 0.0000 -0.2058 0.0000
# 3 30.3055 17.3208 139.3873 0.0000 0.5926 0.0000
# 4 0.0000 0.0000 0.0000 49.6579 0.0000 4.2004
# 5 -8.0061 -0.2058 0.5926 0.0000 42.4988 0.0000
# 6 0.0000 0.0000 0.0000 4.2004 0.0000 19.7428
#
#
#
# Elastic Compliance Matrix: (Units=1/GPa)
#
#
# Indices 1 2 3 4 5 6 
#
# 1 0.008948 0.001483 -0.002137 0.000000 0.001723 0.000000
# 2 0.001483 0.026927 -0.003671 0.000000 0.000461 0.000000
# 3 -0.002137 -0.003671 0.008097 0.000000 -0.000533 0.000000
# 4 0.000000 0.000000 0.000000 0.020507 0.000000 -0.004363
# 5 0.001723 0.000461 -0.000533 0.000000 0.023864 0.000000
# 6 0.000000 0.000000 0.000000 -0.004363 0.000000 0.051580
#
#
# Mechanical properties :
#
#
# Convention : Reuss Voigt Hill
#
# Bulk Modulus (GPa) = 28.30973 43.38013 35.84493
# Shear Modulus (GPa) = 31.18241 39.36122 35.27181
#
# Velocity S-wave (km/s) = 3.38416 3.80216 3.59924
# Velocity P-wave (km/s) = 5.06632 5.93362 5.51704
#
# Compressibility (1/GPa) = 0.03532354
#
# Stress axis : x y z
#
# Youngs Moduli (GPa) = 111.75711 37.13695 123.49832
#
# Poissons Ratio (x) = -0.05508 0.26393
# Poissons Ratio (y) = -0.16574 0.45330
# Poissons Ratio (z) = 0.23883 0.13631
#
# Static dielectric constant tensor:
#      x y z
#    x 2.168770 0.000000 0.050020 
#    y 0.000000 2.183210 0.000000 
#    z 0.050020 0.000000 2.231190 
# 
# From -- ./inp_files/21270.got.cif
#   From: 2010.05.17/outbox.cif.g08.bks.cpg/sg9_11_cif.got.tgz:21270.got - 2010.06.03 20:04:27.
