data_PCOD9134697
_publ_section_title
;
Structure prediction by ZEFSAII (Michael W. Deem and Ramdas Pophale) SiO2 
 PCOD9134697
Probable space group: C C
;
_chemical_formula_sum "Si O2"
_cell_formula_units_Z 24
_cell_length_a 10.086248
_cell_length_b 15.434270
_cell_length_c 7.170215
_cell_angle_alpha 90.000000
_cell_angle_beta 58.568804
_cell_angle_gamma 90.000000
_cell_volume 952.429550
_symmetry_space_group_name_H-M "C C"
_symmetry_group_IT_number 9
_symmetry_cell_setting 'monoclinic'
loop_
_space_group_symop_operation_xyz
x,y,z
x,-y,1/2+z
1/2+x,1/2+y,z
1/2+x,1/2-y,1/2+z
loop_
_atom_site_type_symbol
_atom_site_label
_atom_site_fract_x
_atom_site_fract_y
_atom_site_fract_z
Si Si1 0.440060 0.838513 0.825730
Si Si2 0.252234 0.994422 0.948599
Si Si3 0.282052 0.300000 0.684484
Si Si4 0.368573 0.369160 0.980513
Si Si5 0.224154 0.861289 0.662945
Si Si6 0.416133 0.565587 0.828877
O O1 0.617765 0.815099 0.708481
O O2 0.352475 0.815180 0.693992
O O3 0.408165 0.939995 0.877889
O O4 0.355502 0.785301 0.047982
O O5 0.090648 0.945071 0.124366
O O6 0.253620 0.099473 0.938730
O O7 0.241358 0.962177 0.731499
O O8 0.268467 0.308282 0.918257
O O9 0.395175 0.377074 0.527901
O O10 0.546853 0.335919 0.823304
O O11 0.359577 0.468407 0.910907
O O12 0.330398 0.383221 0.224651
#
# Coordination Sequence:
#
# PCOD9134697 Si02
#       6
#     4   4   4   4   4   4
#     4  10  24  41  59  90 126 169 199 265 312 358
#     4   8  17  37  63  90 116 155 205 243 311 365
#     4  12  24  42  62  87 135 163 209 260 309 368
#     4  10  20  39  68  98 118 166 207 253 310 373
#     4   8  18  38  64  89 118 156 206 247 309 366
#     4  10  19  39  68  94 123 159 208 254 311 370
#
# _framework density 25.198716000000001
#
# number of rings (size 3 to 8) (size 9 to 14) (size 15 to 20)
#    1.000    1.333    1.667    1.000    2.333    1.333 
#    3.000    0.000    0.000    0.000    0.000    0.000 
#    0.000    0.000    0.000    0.000    0.000    0.000 
#
# Total GULP energy -66890.471309 kJ/mol
# GULP energy per Si atom -5574.205942 kJ/mol
# Density = 2.514136 g / cm^3
# Si number density = 25.198716 Si / 1000 Ang^3
#
#
#
# Elastic Constant Matrix: (Units=GPa)
#
#
# Indices 1 2 3 4 5 6 
#
# 1 109.1825 15.0841 18.1596 0.0000 4.7499 0.0000
# 2 15.0841 48.5023 9.6229 0.0000 -3.9881 0.0000
# 3 18.1596 9.6229 63.3270 0.0000 2.6031 0.0000
# 4 0.0000 0.0000 0.0000 15.7879 0.0000 -7.2886
# 5 4.7499 -3.9881 2.6031 0.0000 33.1801 0.0000
# 6 0.0000 0.0000 0.0000 -7.2886 0.0000 25.9860
#
#
#
# Elastic Compliance Matrix: (Units=1/GPa)
#
#
# Indices 1 2 3 4 5 6 
#
# 1 0.010007 -0.002769 -0.002384 0.000000 -0.001578 0.000000
# 2 -0.002769 0.022291 -0.002728 0.000000 0.003290 0.000000
# 3 -0.002384 -0.002728 0.016943 0.000000 -0.001316 0.000000
# 4 0.000000 0.000000 0.000000 0.072761 0.000000 0.020408
# 5 -0.001578 0.003290 -0.001316 0.000000 0.030863 0.000000
# 6 0.000000 0.000000 0.000000 0.020408 0.000000 0.044206
#
#
# Mechanical properties :
#
#
# Convention : Reuss Voigt Hill
#
# Bulk Modulus (GPa) = 29.87014 34.08277 31.97645
# Shear Modulus (GPa) = 22.32214 26.86714 24.59464
#
# Velocity S-wave (km/s) = 2.97954 3.26883 3.12753
# Velocity P-wave (km/s) = 4.86996 5.27276 5.07535
#
# Compressibility (1/GPa) = 0.03347825
#
# Stress axis : x y z
#
# Youngs Moduli (GPa) = 99.93330 44.86213 59.02021
#
# Poissons Ratio (x) = 0.12422 0.14070
# Poissons Ratio (y) = 0.27670 0.16103
# Poissons Ratio (z) = 0.23823 0.12240
#
# Static dielectric constant tensor:
#      x y z
#    x 2.056690 0.000000 0.228190 
#    y 0.000000 0.902320 0.000000 
#    z 0.228190 0.000000 2.225390 
# 
# From -- ./inp_files/5090.got.cif
#   From: 2010.05.17/outbox.cif.g08.bks.cpg/sg9_3_cif.got.tgz:5090.got - 2010.06.03 20:04:27.
