data_PCOD9134098
_publ_section_title
;
Structure prediction by ZEFSAII (Michael W. Deem and Ramdas Pophale) SiO2 
 PCOD9134098
Probable space group: C C
;
_chemical_formula_sum "Si O2"
_cell_formula_units_Z 32
_cell_length_a 14.815650
_cell_length_b 18.747639
_cell_length_c 11.690263
_cell_angle_alpha 90.000000
_cell_angle_beta 29.361282
_cell_angle_gamma 90.000000
_cell_volume 1592.086561
_symmetry_space_group_name_H-M "C C"
_symmetry_group_IT_number 9
_symmetry_cell_setting 'monoclinic'
loop_
_space_group_symop_operation_xyz
x,y,z
x,-y,1/2+z
1/2+x,1/2+y,z
1/2+x,1/2-y,1/2+z
loop_
_atom_site_type_symbol
_atom_site_label
_atom_site_fract_x
_atom_site_fract_y
_atom_site_fract_z
Si Si1 0.956600 0.206324 0.236470
Si Si2 0.415536 0.914814 0.102314
Si Si3 0.878488 0.582252 0.120615
Si Si4 0.777593 0.350723 0.494049
Si Si5 0.222759 0.308633 0.792071
Si Si6 0.295017 0.181694 0.545102
Si Si7 0.632305 0.176327 0.994992
Si Si8 0.557880 0.665904 0.588436
O O1 0.841887 0.267944 0.426418
O O2 0.851807 0.164531 0.252153
O O3 0.059846 0.156533 0.212057
O O4 0.094595 0.253743 0.005797
O O5 0.353791 0.888137 0.295401
O O6 0.286326 0.879661 0.149259
O O7 0.416502 0.998845 0.090486
O O8 0.608805 0.874194 0.869192
O O9 0.849121 0.607432 0.023537
O O10 0.686912 0.604506 0.394037
O O11 0.045797 0.624985 0.995282
O O12 0.297967 0.256565 0.610414
O O13 0.480613 0.174209 0.264785
O O14 0.126733 0.173777 0.643248
O O15 0.624194 0.258385 0.961605
O O16 0.839856 0.159131 0.806742
#
# Coordination Sequence:
#
# PCOD9134098 Si02
#       8
#     4   4   4   4   4   4   4   4
#     4   9  18  35  62  99 123 165 220 280 313 403
#     4  11  24  43  65 100 139 172 221 278 350 410
#     4  11  27  45  67  90 142 187 217 280 344 405
#     4  10  22  40  67  92 130 170 222 275 344 393
#     4  10  18  36  63 102 132 165 217 278 335 395
#     4  11  21  39  73 103 136 170 219 288 345 389
#     4  11  24  43  69 103 128 176 234 283 328 402
#     4  11  24  43  68  99 130 175 236 280 327 401
#
# _framework density 20.099409999999999
#
# number of rings (size 3 to 8) (size 9 to 14) (size 15 to 20)
#    0.000    1.500    6.250    0.750    5.250    0.000 
#    6.750    0.000    0.000    0.000    0.000    0.000 
#    0.000    0.000    0.000    0.000    0.000    0.000 
#
# Total GULP energy -89267.059140 kJ/mol
# GULP energy per Si atom -5579.191196 kJ/mol
# Density = 2.005366 g / cm^3
# Si number density = 20.099410 Si / 1000 Ang^3
#
#
#
# Elastic Constant Matrix: (Units=GPa)
#
#
# Indices 1 2 3 4 5 6 
#
# 1 153.3071 72.6570 27.2075 -0.0120 -23.8040 0.0046
# 2 72.6570 142.2516 11.7466 -0.0080 -5.6971 0.0034
# 3 27.2075 11.7466 39.8788 -0.0150 -20.6097 0.0075
# 4 -0.0120 -0.0080 -0.0150 11.4836 0.0052 -3.3647
# 5 -23.8040 -5.6971 -20.6097 0.0052 37.3982 -0.0018
# 6 0.0046 0.0034 0.0075 -3.3647 -0.0018 25.4909
#
#
#
# Elastic Compliance Matrix: (Units=1/GPa)
#
#
# Indices 1 2 3 4 5 6 
#
# 1 0.009905 -0.004623 -0.003498 0.000001 0.003673 0.000000
# 2 -0.004623 0.009363 -0.000542 0.000002 -0.001815 0.000000
# 3 -0.003498 -0.000542 0.036953 0.000035 0.018056 -0.000004
# 4 0.000001 0.000002 0.000035 0.090584 0.000008 0.011957
# 5 0.003673 -0.001815 0.018056 0.000008 0.038751 -0.000002
# 6 0.000000 0.000000 -0.000004 0.011957 -0.000002 0.040808
#
#
# Mechanical properties :
#
#
# Convention : Reuss Voigt Hill
#
# Bulk Modulus (GPa) = 25.70971 62.07330 43.89150
# Shear Modulus (GPa) = 19.48141 29.79629 24.63885
#
# Velocity S-wave (km/s) = 3.11666 3.85443 3.50501
# Velocity P-wave (km/s) = 5.07646 7.12454 6.18585
#
# Compressibility (1/GPa) = 0.03889582
#
# Stress axis : x y z
#
# Youngs Moduli (GPa) = 100.95980 106.80113 27.06123
#
# Poissons Ratio (x) = 0.49376 0.09466
# Poissons Ratio (y) = 0.46675 0.01466
# Poissons Ratio (z) = 0.35315 0.05786
#
# Static dielectric constant tensor:
#      x y z
#    x 1.792670 0.000000 -0.038600 
#    y 0.000000 1.683670 0.000000 
#    z -0.038600 0.000000 1.799290 
# 
# From -- ./inp_files/18575.got.cif
#   From: 2010.05.17/outbox.cif.g08.bks.cpg/sg9_10_cif.got.tgz:18575.got - 2010.06.03 20:04:27.
