data_PCOD9134333
_publ_section_title
;
Structure prediction by ZEFSAII (Michael W. Deem and Ramdas Pophale) SiO2 
 PCOD9134333
Probable space group: C C
;
_chemical_formula_sum "Si O2"
_cell_formula_units_Z 32
_cell_length_a 7.066071
_cell_length_b 7.364552
_cell_length_c 25.820534
_cell_angle_alpha 90.000000
_cell_angle_beta 119.644527
_cell_angle_gamma 90.000000
_cell_volume 1167.789855
_symmetry_space_group_name_H-M "C C"
_symmetry_group_IT_number 9
_symmetry_cell_setting 'monoclinic'
loop_
_space_group_symop_operation_xyz
x,y,z
x,-y,1/2+z
1/2+x,1/2+y,z
1/2+x,1/2-y,1/2+z
loop_
_atom_site_type_symbol
_atom_site_label
_atom_site_fract_x
_atom_site_fract_y
_atom_site_fract_z
Si Si1 0.875000 0.145151 0.136040
Si Si2 0.532766 0.707110 0.008248
Si Si3 0.971747 0.749474 0.378943
Si Si4 0.310355 0.230658 0.135324
Si Si5 0.610933 0.727269 0.756381
Si Si6 0.387450 0.155293 0.878866
Si Si7 0.666292 0.294531 0.757941
Si Si8 0.635287 0.676190 0.510387
O O1 0.704854 0.225447 0.072488
O O2 0.104719 0.133064 0.134760
O O3 0.955473 0.263136 0.196570
O O4 0.796944 0.947035 0.141858
O O5 0.765779 0.710931 0.068347
O O6 0.484550 0.492131 0.006056
O O7 0.375943 0.847118 0.016639
O O8 0.508987 0.733992 0.944567
O O9 0.994545 0.531368 0.374146
O O10 0.732163 0.784943 0.322587
O O11 0.151669 0.870692 0.374770
O O12 0.542312 0.182632 0.192530
O O13 0.812913 0.782425 0.820312
O O14 0.645262 0.511835 0.756609
O O15 0.385922 0.755003 0.756366
O O16 0.522411 0.231248 0.945461
#
# Coordination Sequence:
#
# PCOD9134333 Si02
#       8
#     4   4   4   4   4   4   4   4
#     4   9  18  35  58  85 117 157 200 249 302 360
#     4  11  23  38  56  84 121 162 203 251 305 364
#     4  10  19  34  58  85 114 156 203 252 303 362
#     4   9  18  35  58  85 117 157 200 249 302 360
#     4   8  15  29  53  82 112 149 197 246 299 356
#     4  10  19  34  58  85 114 156 203 252 303 362
#     4   8  15  29  53  82 112 149 197 246 299 356
#     4  11  23  38  56  84 121 162 203 251 305 364
#
# _framework density 27.402190999999998
#
# number of rings (size 3 to 8) (size 9 to 14) (size 15 to 20)
#    0.000    2.500    0.000    2.250    0.000    2.000 
#    0.000    1.250    0.000   10.500    0.000    0.000 
#    0.000    0.000    0.000    0.000    0.000    0.000 
#
# Total GULP energy -89280.832257 kJ/mol
# GULP energy per Si atom -5580.052016 kJ/mol
# Density = 2.733982 g / cm^3
# Si number density = 27.402191 Si / 1000 Ang^3
#
#
#
# Elastic Constant Matrix: (Units=GPa)
#
#
# Indices 1 2 3 4 5 6 
#
# 1 127.0999 14.4721 5.7766 0.0000 10.3863 0.0000
# 2 14.4721 102.2488 12.9328 0.0000 3.5943 0.0000
# 3 5.7766 12.9328 284.5508 0.0000 3.9261 0.0000
# 4 0.0000 0.0000 0.0000 76.8414 0.0000 -5.8808
# 5 10.3863 3.5943 3.9261 0.0000 14.9159 0.0000
# 6 0.0000 0.0000 0.0000 -5.8808 0.0000 34.7963
#
#
#
# Elastic Compliance Matrix: (Units=1/GPa)
#
#
# Indices 1 2 3 4 5 6 
#
# 1 0.008443 -0.000991 -0.000049 0.000000 -0.005627 0.000000
# 2 -0.000991 0.010029 -0.000413 0.000000 -0.001618 0.000000
# 3 -0.000049 -0.000413 0.003545 0.000000 -0.000800 0.000000
# 4 0.000000 0.000000 0.000000 0.013184 0.000000 0.002228
# 5 -0.005627 -0.001618 -0.000800 0.000000 0.071561 0.000000
# 6 0.000000 0.000000 0.000000 0.002228 0.000000 0.029115
#
#
# Mechanical properties :
#
#
# Convention : Reuss Voigt Hill
#
# Bulk Modulus (GPa) = 52.32555 64.47360 58.39957
# Shear Modulus (GPa) = 34.44597 57.35858 45.90227
#
# Velocity S-wave (km/s) = 3.54934 4.58013 4.09728
# Velocity P-wave (km/s) = 5.99449 7.17982 6.61376
#
# Compressibility (1/GPa) = 0.01911112
#
# Stress axis : x y z
#
# Youngs Moduli (GPa) = 118.44519 99.70599 282.07774
#
# Poissons Ratio (x) = 0.09881 0.01374
# Poissons Ratio (y) = 0.11738 0.11661
# Poissons Ratio (z) = 0.00577 0.04122
#
# Static dielectric constant tensor:
#      x y z
#    x 2.216220 0.000000 -0.029000 
#    y 0.000000 2.111380 0.000000 
#    z -0.029000 0.000000 2.326290 
# 
# From -- ./inp_files/37144.got.cif
#   From: 2010.05.17/outbox.cif.g08.bks.cpg/sg9_19_cif.got.tgz:37144.got - 2010.06.03 20:04:27.
