data_PCOD9134078
_publ_section_title
;
Structure prediction by ZEFSAII (Michael W. Deem and Ramdas Pophale) SiO2 
 PCOD9134078
Probable space group: C C
;
_chemical_formula_sum "Si O2"
_cell_formula_units_Z 32
_cell_length_a 21.612524
_cell_length_b 16.447300
_cell_length_c 9.469819
_cell_angle_alpha 90.000000
_cell_angle_beta 28.491058
_cell_angle_gamma 90.000000
_cell_volume 1605.757006
_symmetry_space_group_name_H-M "C C"
_symmetry_group_IT_number 9
_symmetry_cell_setting 'monoclinic'
loop_
_space_group_symop_operation_xyz
x,y,z
x,-y,1/2+z
1/2+x,1/2+y,z
1/2+x,1/2-y,1/2+z
loop_
_atom_site_type_symbol
_atom_site_label
_atom_site_fract_x
_atom_site_fract_y
_atom_site_fract_z
Si Si1 0.543290 0.870127 0.949700
Si Si2 0.313941 0.142141 0.726116
Si Si3 0.951380 0.047787 0.844286
Si Si4 0.122982 0.982485 0.733468
Si Si5 0.117186 0.600586 0.752207
Si Si6 0.207371 0.550606 0.885127
Si Si7 0.390433 0.036257 0.327935
Si Si8 0.741875 0.191532 0.280643
O O1 0.649718 0.885756 0.612517
O O2 0.624705 0.829160 0.909900
O O3 0.417902 0.827180 0.133037
O O4 0.475740 0.954315 0.139091
O O5 0.385616 0.069910 0.496076
O O6 0.284740 0.215963 0.681387
O O7 0.184799 0.100045 0.045048
O O8 0.011989 0.035498 0.569408
O O9 0.861230 0.128099 0.025520
O O10 0.066248 0.042177 0.728037
O O11 0.858582 0.971835 0.072381
O O12 0.245618 0.021272 0.567633
O O13 0.169895 0.574178 0.800465
O O14 0.149317 0.532469 0.569552
O O15 0.184954 0.679323 0.553214
O O16 0.963927 0.601639 0.082911
#
# Coordination Sequence:
#
# PCOD9134078 Si02
#       8
#     4   4   4   4   4   4   4   4
#     4  10  22  41  70  93 120 170 223 259 306 385
#     4  11  24  43  63  94 134 165 207 269 320 377
#     4  11  21  38  61  93 128 163 210 264 309 377
#     4  11  23  38  64  92 126 170 216 254 318 372
#     4  10  19  35  62  93 120 158 215 262 304 365
#     4  10  18  35  64  94 117 159 219 263 294 366
#     4  10  20  38  68  90 121 166 217 260 299 376
#     4  11  25  40  64  95 132 165 207 267 330 370
#
# _framework density 19.928294999999999
#
# number of rings (size 3 to 8) (size 9 to 14) (size 15 to 20)
#    0.000    1.500    2.500    5.250    3.500    2.000 
#    2.250    0.000    0.000    0.000    0.000    0.000 
#    0.000    0.000    0.000    0.000    0.000    0.000 
#
# Total GULP energy -89182.212312 kJ/mol
# GULP energy per Si atom -5573.888270 kJ/mol
# Density = 1.988294 g / cm^3
# Si number density = 19.928295 Si / 1000 Ang^3
#
#
#
# Elastic Constant Matrix: (Units=GPa)
#
#
# Indices 1 2 3 4 5 6 
#
# 1 123.4779 31.5619 24.4301 0.0000 -5.6291 0.0000
# 2 31.5619 37.6254 19.1988 0.0000 -4.4017 0.0000
# 3 24.4301 19.1988 115.6325 0.0000 8.9527 0.0000
# 4 0.0000 0.0000 0.0000 13.3644 0.0000 0.0436
# 5 -5.6291 -4.4017 8.9527 0.0000 39.3984 0.0000
# 6 0.0000 0.0000 0.0000 0.0436 0.0000 20.4833
#
#
#
# Elastic Compliance Matrix: (Units=1/GPa)
#
#
# Indices 1 2 3 4 5 6 
#
# 1 0.010402 -0.008175 -0.000900 0.000000 0.000777 0.000000
# 2 -0.008175 0.036238 -0.004593 0.000000 0.003924 0.000000
# 3 -0.000900 -0.004593 0.009824 0.000000 -0.002874 0.000000
# 4 0.000000 0.000000 0.000000 0.074826 0.000000 -0.000159
# 5 0.000777 0.003924 -0.002874 0.000000 0.026584 0.000000
# 6 0.000000 0.000000 0.000000 -0.000159 0.000000 0.048821
#
#
# Mechanical properties :
#
#
# Convention : Reuss Voigt Hill
#
# Bulk Modulus (GPa) = 34.33393 47.45749 40.89571
# Shear Modulus (GPa) = 20.51356 28.08556 24.29956
#
# Velocity S-wave (km/s) = 3.21186 3.75818 3.49571
# Velocity P-wave (km/s) = 5.56964 6.53435 6.07118
#
# Compressibility (1/GPa) = 0.02912571
#
# Stress axis : x y z
#
# Youngs Moduli (GPa) = 96.13695 27.59508 101.79644
#
# Poissons Ratio (x) = 0.22559 0.09167
# Poissons Ratio (y) = 0.78593 0.46760
# Poissons Ratio (z) = 0.08657 0.12676
#
# Static dielectric constant tensor:
#      x y z
#    x 1.749590 0.000000 -0.010160 
#    y 0.000000 1.714070 0.000000 
#    z -0.010160 0.000000 1.730260 
# 
# From -- ./inp_files/11844.got.cif
#   From: 2010.05.17/outbox.cif.g08.bks.cpg/sg9_6_cif.got.tgz:11844.got - 2010.06.03 20:04:27.
