data_PCOD9134392
_publ_section_title
;
Structure prediction by ZEFSAII (Michael W. Deem and Ramdas Pophale) SiO2 
 PCOD9134392
Probable space group: C C
;
_chemical_formula_sum "Si O2"
_cell_formula_units_Z 28
_cell_length_a 17.022626
_cell_length_b 10.762157
_cell_length_c 8.923080
_cell_angle_alpha 90.000000
_cell_angle_beta 124.247195
_cell_angle_gamma 90.000000
_cell_volume 1351.279407
_symmetry_space_group_name_H-M "C C"
_symmetry_group_IT_number 9
_symmetry_cell_setting 'monoclinic'
loop_
_space_group_symop_operation_xyz
x,y,z
x,-y,1/2+z
1/2+x,1/2+y,z
1/2+x,1/2-y,1/2+z
loop_
_atom_site_type_symbol
_atom_site_label
_atom_site_fract_x
_atom_site_fract_y
_atom_site_fract_z
Si Si1 0.306100 0.574231 0.899510
Si Si2 0.926976 0.725070 0.053870
Si Si3 0.440403 0.452342 0.277603
Si Si4 0.553630 0.681988 0.439826
Si Si5 0.072158 0.417469 0.881493
Si Si6 0.216364 0.695415 0.310389
Si Si7 0.111139 0.336926 0.252524
O O1 0.378890 0.603988 0.846018
O O2 0.251399 0.443811 0.800004
O O3 0.223523 0.672223 0.840915
O O4 0.367927 0.543145 0.111405
O O5 0.968658 0.743756 0.932604
O O6 0.975460 0.611212 0.189261
O O7 0.965148 0.845000 0.187712
O O8 0.814106 0.731786 0.939484
O O9 0.526751 0.537419 0.424363
O O10 0.648428 0.729909 0.625048
O O11 0.564906 0.717347 0.277893
O O12 0.154096 0.332902 0.891739
O O13 0.099572 0.557045 0.867492
O O14 0.066386 0.384969 0.049444
#
# Coordination Sequence:
#
# PCOD9134392 Si02
#       7
#     4   4   4   4   4   4   4
#     4  10  19  35  62  86 115 157 212 247 290 362
#     4  10  21  37  60  81 123 165 203 247 310 369
#     4  11  20  35  59  91 119 152 199 254 307 360
#     4  11  22  35  60  90 125 153 202 262 313 359
#     4  10  21  36  60  85 116 157 207 252 294 370
#     4   9  18  38  58  86 117 160 199 253 302 354
#     4  11  21  36  61  91 117 152 208 259 302 358
#
# _framework density 20.721105000000001
#
# number of rings (size 3 to 8) (size 9 to 14) (size 15 to 20)
#    0.000    1.714    2.857    6.000    2.000    0.000 
#    0.000    0.000   12.571    0.000    0.000    0.000 
#    0.000    0.000    0.000    0.000    0.000    0.000 
#
# Total GULP energy -78164.417657 kJ/mol
# GULP energy per Si atom -5583.172690 kJ/mol
# Density = 2.067394 g / cm^3
# Si number density = 20.721105 Si / 1000 Ang^3
#
#
#
# Elastic Constant Matrix: (Units=GPa)
#
#
# Indices 1 2 3 4 5 6 
#
# 1 111.2216 30.1494 26.7914 0.0000 -5.6754 0.0000
# 2 30.1494 32.0306 17.2539 0.0000 6.5089 0.0000
# 3 26.7914 17.2539 55.4388 0.0000 0.3924 0.0000
# 4 0.0000 0.0000 0.0000 31.5507 0.0000 1.9887
# 5 -5.6754 6.5089 0.3924 0.0000 46.1497 0.0000
# 6 0.0000 0.0000 0.0000 1.9887 0.0000 22.2347
#
#
#
# Elastic Compliance Matrix: (Units=1/GPa)
#
#
# Indices 1 2 3 4 5 6 
#
# 1 0.012874 -0.011299 -0.002728 0.000000 0.003200 0.000000
# 2 -0.011299 0.048711 -0.009642 0.000000 -0.008178 0.000000
# 3 -0.002728 -0.009642 0.022351 0.000000 0.000834 0.000000
# 4 0.000000 0.000000 0.000000 0.031875 0.000000 -0.002851
# 5 0.003200 -0.008178 0.000834 0.000000 0.023208 0.000000
# 6 0.000000 0.000000 0.000000 -0.002851 0.000000 0.045230
#
#
# Mechanical properties :
#
#
# Convention : Reuss Voigt Hill
#
# Bulk Modulus (GPa) = 27.32301 38.56448 32.94374
# Shear Modulus (GPa) = 20.50976 28.28677 24.39827
#
# Velocity S-wave (km/s) = 3.14952 3.69876 3.43514
# Velocity P-wave (km/s) = 5.14205 6.07394 5.62732
#
# Compressibility (1/GPa) = 0.03659919
#
# Stress axis : x y z
#
# Youngs Moduli (GPa) = 77.67397 20.52917 44.74076
#
# Poissons Ratio (x) = 0.23196 0.12204
# Poissons Ratio (y) = 0.87765 0.43138
# Poissons Ratio (z) = 0.21188 0.19794
#
# Static dielectric constant tensor:
#      x y z
#    x 1.752280 0.000000 -0.009180 
#    y 0.000000 1.753650 0.000000 
#    z -0.009180 0.000000 1.789680 
# 
# From -- ./inp_files/8919.got.cif
#   From: 2010.05.17/outbox.cif.g08.bks.cpg/sg9_5_cif.got.tgz:8919.got - 2010.06.03 20:04:27.
